MODEL 1
REMARK VINA RESULT:     -13.1      0.000      0.000
REMARK SMILES Cc1cccc(-c2cc(OCC(=O)NCCCNC(=O)c3ccc(-c4c5nc(c(-c6cccc(S(=O)(=O)[O-])c6F)c6ccc([nH]6)c(-c6cccc(S(=O)(=O)[O-])c6F)c6nc(c(-c7cccc(S(=O)(=O)[O-])c7F)c7ccc4[nH]7)C=C6)C=C5)cc3)nc(Nc3ccccc3C)n2)c1
REMARK SMILES IDX 15 1 14 2 12 3 13 4 11 6 10 7 9 8 7 9 8 10 94 11 85 12 84 13
REMARK SMILES IDX 6 14 1 15 2 16 3 17 95 18 4 19 5 20 86 21 87 23 88 24 92 25
REMARK SMILES IDX 89 26 91 27 93 28 90 29 16 30 17 31 18 32 19 33 20 35 21 36
REMARK SMILES IDX 22 37 83 38 23 39 82 40 24 41 25 42 26 43 76 44 27 45 81 46
REMARK SMILES IDX 75 47 77 48 28 49 80 50 74 51 73 52 29 54 61 55 41 56 60 57
REMARK SMILES IDX 42 58 45 59 59 60 78 61 43 62 44 63 58 65 79 66 46 67 30 68
REMARK SMILES IDX 31 69 39 70 32 71 34 72 40 73 33 74 35 75 36 76 37 77 38 78
REMARK SMILES IDX 62 79 63 80 71 81 64 82 66 83 72 84 65 85 67 86 68 87 69 88
REMARK SMILES IDX 70 89 47 90 48 91 56 92 49 93 51 94 57 95 50 96 52 97 53 98
REMARK SMILES IDX 54 99 55 100
REMARK H PARENT 14 5 86 22 18 34 77 53 45 64
REMARK Flexibility Score: inf
ROOT
ATOM      1  C   UNL A   1      42.057  20.975  26.561  1.00  0.00     0.117 C 
ENDROOT
BRANCH   1   2
ATOM      2  N   UNL A   1      41.233  19.899  26.041  1.00  0.00    -0.353 N 
ATOM      3  C   UNL A   1      39.877  19.875  25.893  1.00  0.00     0.258 C 
ATOM      4  O   UNL A   1      39.343  18.894  25.374  1.00  0.00    -0.271 OA
ATOM      5  H   UNL A   1      41.712  19.086  25.761  1.00  0.00     0.163 HD
BRANCH   3   6
ATOM      6  C   UNL A   1      39.039  21.076  26.356  1.00  0.00     0.331 C 
BRANCH   6   7
ATOM      7  O   UNL A   1      38.587  21.974  25.356  1.00  0.00    -0.467 OA
BRANCH   7   8
ATOM      8  C   UNL A   1      37.239  22.192  25.249  1.00  0.00     0.219 A 
ATOM      9  C   UNL A   1      35.293  23.411  24.851  1.00  0.00     0.080 A 
ATOM     10  C   UNL A   1      36.664  23.397  24.939  1.00  0.00     0.097 A 
ATOM     11  N   UNL A   1      34.550  22.322  25.088  1.00  0.00    -0.212 NA
ATOM     12  C   UNL A   1      35.181  21.175  25.363  1.00  0.00     0.231 A 
ATOM     13  N   UNL A   1      36.514  21.078  25.476  1.00  0.00    -0.177 NA
BRANCH   9  14
ATOM     14  C   UNL A   1      34.558  24.619  24.474  1.00  0.00     0.001 A 
ATOM     15  C   UNL A   1      32.702  26.008  21.441  1.00  0.00     0.044 C 
ATOM     16  C   UNL A   1      33.310  25.900  22.808  1.00  0.00    -0.050 A 
ATOM     17  C   UNL A   1      33.189  26.952  23.721  1.00  0.00     0.003 A 
ATOM     18  C   UNL A   1      34.002  24.744  23.190  1.00  0.00     0.013 A 
ATOM     19  C   UNL A   1      33.727  26.841  25.003  1.00  0.00     0.001 A 
ATOM     20  C   UNL A   1      34.397  25.676  25.381  1.00  0.00     0.010 A 
ENDBRANCH   9  14
BRANCH  12  21
ATOM     21  N   UNL A   1      34.429  20.023  25.595  1.00  0.00    -0.324 N 
ATOM     22  H   UNL A   1      34.117  19.876  26.517  1.00  0.00     0.170 HD
BRANCH  21  23
ATOM     23  C   UNL A   1      34.073  19.052  24.647  1.00  0.00     0.044 A 
ATOM     24  C   UNL A   1      34.811  17.858  24.603  1.00  0.00     0.026 A 
ATOM     25  C   UNL A   1      32.940  19.182  23.817  1.00  0.00    -0.027 A 
ATOM     26  C   UNL A   1      34.409  16.791  23.795  1.00  0.00     0.002 A 
ATOM     27  C   UNL A   1      32.541  18.097  23.017  1.00  0.00     0.005 A 
ATOM     28  C   UNL A   1      32.155  20.465  23.736  1.00  0.00     0.046 C 
ATOM     29  C   UNL A   1      33.265  16.907  23.013  1.00  0.00     0.000 A 
ENDBRANCH  21  23
ENDBRANCH  12  21
ENDBRANCH   7   8
ENDBRANCH   6   7
ENDBRANCH   3   6
ENDBRANCH   1   2
BRANCH   1  30
ATOM     30  C   UNL A   1      42.982  21.570  25.509  1.00  0.00     0.042 C 
BRANCH  30  31
ATOM     31  C   UNL A   1      42.825  23.072  25.361  1.00  0.00     0.118 C 
BRANCH  31  32
ATOM     32  N   UNL A   1      41.509  23.544  25.748  1.00  0.00    -0.352 N 
ATOM     33  C   UNL A   1      41.067  24.104  26.929  1.00  0.00     0.251 C 
ATOM     34  H   UNL A   1      40.817  23.450  25.054  1.00  0.00     0.163 HD
ATOM     35  O   UNL A   1      39.849  24.206  27.082  1.00  0.00    -0.269 OA
BRANCH  33  36
ATOM     36  C   UNL A   1      42.013  24.707  27.906  1.00  0.00     0.039 A 
ATOM     37  C   UNL A   1      42.455  26.017  27.658  1.00  0.00     0.014 A 
ATOM     38  C   UNL A   1      42.623  23.961  28.910  1.00  0.00     0.014 A 
ATOM     39  C   UNL A   1      43.646  26.472  28.221  1.00  0.00     0.010 A 
ATOM     40  C   UNL A   1      43.840  24.366  29.403  1.00  0.00     0.010 A 
ATOM     41  C   UNL A   1      44.382  25.589  29.000  1.00  0.00    -0.014 A 
BRANCH  41  42
ATOM     42  C   UNL A   1      45.766  25.771  29.393  1.00  0.00     0.031 A 
ATOM     43  C   UNL A   1      46.854  25.326  28.509  1.00  0.00     0.074 A 
ATOM     44  C   UNL A   1      45.997  26.622  30.417  1.00  0.00     0.049 A 
ATOM     45  N   UNL A   1      48.092  25.270  28.854  1.00  0.00    -0.248 NA
ATOM     46  C   UNL A   1      46.606  24.900  27.138  1.00  0.00     0.031 C 
ATOM     47  C   UNL A   1      47.219  27.359  30.712  1.00  0.00     0.029 A 
ATOM     48  N   UNL A   1      45.191  26.833  31.541  1.00  0.00    -0.354 N 
ATOM     49  C   UNL A   1      48.827  25.091  27.701  1.00  0.00     0.074 A 
ATOM     50  C   UNL A   1      47.854  24.798  26.675  1.00  0.00     0.031 C 
ATOM     51  C   UNL A   1      47.213  27.692  32.012  1.00  0.00     0.029 A 
ATOM     52  C   UNL A   1      46.079  27.008  32.614  1.00  0.00     0.049 A 
ATOM     53  H   UNL A   1      44.206  26.853  31.573  1.00  0.00     0.167 HD
ATOM     54  C   UNL A   1      50.160  25.380  27.716  1.00  0.00     0.034 A 
ATOM     55  C   UNL A   1      46.149  26.145  33.671  1.00  0.00     0.034 A 
ATOM     56  C   UNL A   1      50.598  25.764  29.065  1.00  0.00     0.049 A 
ATOM     57  C   UNL A   1      47.532  25.543  33.849  1.00  0.00     0.074 A 
ATOM     58  C   UNL A   1      50.785  26.994  29.676  1.00  0.00     0.029 A 
ATOM     59  N   UNL A   1      50.601  24.816  30.082  1.00  0.00    -0.354 N 
ATOM     60  N   UNL A   1      48.484  25.612  32.960  1.00  0.00    -0.248 NA
ATOM     61  C   UNL A   1      47.946  24.811  35.042  1.00  0.00     0.031 C 
ATOM     62  C   UNL A   1      50.815  26.787  31.081  1.00  0.00     0.029 A 
ATOM     63  C   UNL A   1      50.672  25.430  31.323  1.00  0.00     0.049 A 
ATOM     64  H   UNL A   1      50.559  23.843  29.940  1.00  0.00     0.167 HD
ATOM     65  C   UNL A   1      49.566  24.876  33.370  1.00  0.00     0.074 A 
ATOM     66  C   UNL A   1      49.202  24.457  34.715  1.00  0.00     0.031 C 
ATOM     67  C   UNL A   1      50.636  24.637  32.548  1.00  0.00     0.034 A 
BRANCH  54  68
ATOM     68  C   UNL A   1      50.979  25.658  26.465  1.00  0.00     0.023 A 
ATOM     69  C   UNL A   1      52.102  24.833  26.227  1.00  0.00     0.012 A 
ATOM     70  C   UNL A   1      50.781  26.710  25.543  1.00  0.00     0.148 A 
ATOM     71  C   UNL A   1      53.037  25.101  25.222  1.00  0.00     0.002 A 
ATOM     72  C   UNL A   1      51.754  27.028  24.587  1.00  0.00     0.091 A 
ATOM     73  F   UNL A   1      49.612  27.358  25.518  1.00  0.00    -0.205 F 
ATOM     74  C   UNL A   1      52.887  26.225  24.428  1.00  0.00     0.022 A 
BRANCH  72  75
ATOM     75  S   UNL A   1      51.673  28.528  23.593  1.00  0.00     0.127 S 
ATOM     76  O   UNL A   1      51.484  29.566  24.610  1.00  0.00    -0.237 OA
ATOM     77  O   UNL A   1      52.981  28.548  22.944  1.00  0.00    -0.237 OA
ATOM     78  O   UNL A   1      50.528  28.356  22.707  1.00  0.00    -0.744 OA
ENDBRANCH  72  75
ENDBRANCH  54  68
BRANCH  55  79
ATOM     79  C   UNL A   1      44.857  25.458  33.975  1.00  0.00     0.023 A 
ATOM     80  C   UNL A   1      44.807  24.063  33.738  1.00  0.00     0.012 A 
ATOM     81  C   UNL A   1      43.890  26.035  34.818  1.00  0.00     0.148 A 
ATOM     82  C   UNL A   1      43.908  23.246  34.428  1.00  0.00     0.002 A 
ATOM     83  C   UNL A   1      42.990  25.213  35.498  1.00  0.00     0.091 A 
ATOM     84  F   UNL A   1      43.911  27.361  35.005  1.00  0.00    -0.205 F 
ATOM     85  C   UNL A   1      43.024  23.818  35.335  1.00  0.00     0.022 A 
BRANCH  83  86
ATOM     86  S   UNL A   1      41.839  25.873  36.713  1.00  0.00     0.127 S 
ATOM     87  O   UNL A   1      41.048  24.690  37.038  1.00  0.00    -0.237 OA
ATOM     88  O   UNL A   1      42.732  26.328  37.780  1.00  0.00    -0.237 OA
ATOM     89  O   UNL A   1      41.145  26.948  36.022  1.00  0.00    -0.744 OA
ENDBRANCH  83  86
ENDBRANCH  55  79
BRANCH  67  90
ATOM     90  C   UNL A   1      51.750  23.633  32.809  1.00  0.00     0.023 A 
ATOM     91  C   UNL A   1      53.110  23.994  32.785  1.00  0.00     0.012 A 
ATOM     92  C   UNL A   1      51.457  22.311  33.242  1.00  0.00     0.148 A 
ATOM     93  C   UNL A   1      54.128  23.089  33.109  1.00  0.00     0.002 A 
ATOM     94  C   UNL A   1      52.466  21.453  33.674  1.00  0.00     0.091 A 
ATOM     95  F   UNL A   1      50.194  21.862  33.223  1.00  0.00    -0.205 F 
ATOM     96  C   UNL A   1      53.805  21.825  33.579  1.00  0.00     0.022 A 
BRANCH  94  97
ATOM     97  S   UNL A   1      52.065  19.913  34.517  1.00  0.00     0.127 S 
ATOM     98  O   UNL A   1      52.520  20.182  35.879  1.00  0.00    -0.237 OA
ATOM     99  O   UNL A   1      50.610  19.837  34.366  1.00  0.00    -0.237 OA
ATOM    100  O   UNL A   1      52.792  18.887  33.782  1.00  0.00    -0.744 OA
ENDBRANCH  94  97
ENDBRANCH  67  90
ENDBRANCH  41  42
ENDBRANCH  33  36
ENDBRANCH  31  32
ENDBRANCH  30  31
ENDBRANCH   1  30
TORSDOF 18
ENDMDL
MODEL 2
REMARK VINA RESULT:     -12.8      6.465      9.623
REMARK SMILES Cc1cccc(-c2cc(OCC(=O)NCCCNC(=O)c3ccc(-c4c5nc(c(-c6cccc(S(=O)(=O)[O-])c6F)c6ccc([nH]6)c(-c6cccc(S(=O)(=O)[O-])c6F)c6nc(c(-c7cccc(S(=O)(=O)[O-])c7F)c7ccc4[nH]7)C=C6)C=C5)cc3)nc(Nc3ccccc3C)n2)c1
REMARK SMILES IDX 15 1 14 2 12 3 13 4 11 6 10 7 9 8 7 9 8 10 94 11 85 12 84 13
REMARK SMILES IDX 6 14 1 15 2 16 3 17 95 18 4 19 5 20 86 21 87 23 88 24 92 25
REMARK SMILES IDX 89 26 91 27 93 28 90 29 16 30 17 31 18 32 19 33 20 35 21 36
REMARK SMILES IDX 22 37 83 38 23 39 82 40 24 41 25 42 26 43 76 44 27 45 81 46
REMARK SMILES IDX 75 47 77 48 28 49 80 50 74 51 73 52 29 54 61 55 41 56 60 57
REMARK SMILES IDX 42 58 45 59 59 60 78 61 43 62 44 63 58 65 79 66 46 67 30 68
REMARK SMILES IDX 31 69 39 70 32 71 34 72 40 73 33 74 35 75 36 76 37 77 38 78
REMARK SMILES IDX 62 79 63 80 71 81 64 82 66 83 72 84 65 85 67 86 68 87 69 88
REMARK SMILES IDX 70 89 47 90 48 91 56 92 49 93 51 94 57 95 50 96 52 97 53 98
REMARK SMILES IDX 54 99 55 100
REMARK H PARENT 14 5 86 22 18 34 77 53 45 64
REMARK Flexibility Score: inf
ROOT
ATOM      1  C   UNL A   1      33.040  31.484  27.702  1.00  0.00     0.117 C 
ENDROOT
BRANCH   1   2
ATOM      2  N   UNL A   1      34.166  30.609  27.975  1.00  0.00    -0.353 N 
ATOM      3  C   UNL A   1      34.595  29.540  27.246  1.00  0.00     0.258 C 
ATOM      4  O   UNL A   1      35.614  28.940  27.594  1.00  0.00    -0.271 OA
ATOM      5  H   UNL A   1      34.684  30.814  28.787  1.00  0.00     0.163 HD
BRANCH   3   6
ATOM      6  C   UNL A   1      33.817  29.109  25.993  1.00  0.00     0.331 C 
BRANCH   6   7
ATOM      7  O   UNL A   1      33.108  27.883  26.063  1.00  0.00    -0.467 OA
BRANCH   7   8
ATOM      8  C   UNL A   1      31.948  27.770  25.342  1.00  0.00     0.219 A 
ATOM      9  C   UNL A   1      30.162  28.499  24.034  1.00  0.00     0.080 A 
ATOM     10  C   UNL A   1      31.298  28.815  24.739  1.00  0.00     0.097 A 
ATOM     11  N   UNL A   1      29.689  27.247  23.965  1.00  0.00    -0.212 NA
ATOM     12  C   UNL A   1      30.388  26.274  24.559  1.00  0.00     0.231 A 
ATOM     13  N   UNL A   1      31.501  26.500  25.273  1.00  0.00    -0.177 NA
BRANCH   9  14
ATOM     14  C   UNL A   1      29.405  29.512  23.299  1.00  0.00     0.001 A 
ATOM     15  C   UNL A   1      29.146  33.317  23.122  1.00  0.00     0.044 C 
ATOM     16  C   UNL A   1      28.891  31.862  22.863  1.00  0.00    -0.050 A 
ATOM     17  C   UNL A   1      27.925  31.468  21.931  1.00  0.00     0.003 A 
ATOM     18  C   UNL A   1      29.617  30.879  23.546  1.00  0.00     0.013 A 
ATOM     19  C   UNL A   1      27.709  30.116  21.666  1.00  0.00     0.001 A 
ATOM     20  C   UNL A   1      28.454  29.144  22.338  1.00  0.00     0.010 A 
ENDBRANCH   9  14
BRANCH  12  21
ATOM     21  N   UNL A   1      29.926  24.960  24.485  1.00  0.00    -0.324 N 
ATOM     22  H   UNL A   1      28.950  24.833  24.503  1.00  0.00     0.170 HD
BRANCH  21  23
ATOM     23  C   UNL A   1      30.711  23.802  24.388  1.00  0.00     0.044 A 
ATOM     24  C   UNL A   1      31.346  23.524  23.167  1.00  0.00     0.026 A 
ATOM     25  C   UNL A   1      30.974  22.969  25.496  1.00  0.00    -0.027 A 
ATOM     26  C   UNL A   1      32.264  22.477  23.053  1.00  0.00     0.002 A 
ATOM     27  C   UNL A   1      31.908  21.926  25.371  1.00  0.00     0.005 A 
ATOM     28  C   UNL A   1      30.260  23.143  26.811  1.00  0.00     0.046 C 
ATOM     29  C   UNL A   1      32.555  21.688  24.160  1.00  0.00     0.000 A 
ENDBRANCH  21  23
ENDBRANCH  12  21
ENDBRANCH   7   8
ENDBRANCH   6   7
ENDBRANCH   3   6
ENDBRANCH   1   2
BRANCH   1  30
ATOM     30  C   UNL A   1      33.429  32.955  27.677  1.00  0.00     0.042 C 
BRANCH  30  31
ATOM     31  C   UNL A   1      34.327  33.351  28.834  1.00  0.00     0.118 C 
BRANCH  31  32
ATOM     32  N   UNL A   1      33.655  34.191  29.809  1.00  0.00    -0.352 N 
ATOM     33  C   UNL A   1      33.892  34.368  31.156  1.00  0.00     0.251 C 
ATOM     34  H   UNL A   1      32.908  34.723  29.450  1.00  0.00     0.163 HD
ATOM     35  O   UNL A   1      33.032  34.963  31.805  1.00  0.00    -0.269 OA
BRANCH  33  36
ATOM     36  C   UNL A   1      35.197  34.003  31.771  1.00  0.00     0.039 A 
ATOM     37  C   UNL A   1      36.347  34.648  31.287  1.00  0.00     0.014 A 
ATOM     38  C   UNL A   1      35.336  32.919  32.634  1.00  0.00     0.014 A 
ATOM     39  C   UNL A   1      37.600  34.061  31.454  1.00  0.00     0.010 A 
ATOM     40  C   UNL A   1      36.553  32.289  32.730  1.00  0.00     0.010 A 
ATOM     41  C   UNL A   1      37.667  32.823  32.079  1.00  0.00    -0.014 A 
BRANCH  41  42
ATOM     42  C   UNL A   1      38.812  31.933  32.055  1.00  0.00     0.031 A 
ATOM     43  C   UNL A   1      38.751  30.666  31.311  1.00  0.00     0.074 A 
ATOM     44  C   UNL A   1      39.990  32.452  32.464  1.00  0.00     0.049 A 
ATOM     45  N   UNL A   1      39.635  29.734  31.390  1.00  0.00    -0.248 NA
ATOM     46  C   UNL A   1      37.654  30.359  30.402  1.00  0.00     0.031 C 
ATOM     47  C   UNL A   1      41.333  32.007  32.116  1.00  0.00     0.029 A 
ATOM     48  N   UNL A   1      40.193  33.400  33.473  1.00  0.00    -0.354 N 
ATOM     49  C   UNL A   1      39.394  28.856  30.355  1.00  0.00     0.074 A 
ATOM     50  C   UNL A   1      38.114  29.250  29.816  1.00  0.00     0.031 C 
ATOM     51  C   UNL A   1      42.184  32.442  33.060  1.00  0.00     0.029 A 
ATOM     52  C   UNL A   1      41.372  33.007  34.127  1.00  0.00     0.049 A 
ATOM     53  H   UNL A   1      39.628  34.179  33.681  1.00  0.00     0.167 HD
ATOM     54  C   UNL A   1      40.386  28.003  29.968  1.00  0.00     0.034 A 
ATOM     55  C   UNL A   1      41.402  32.611  35.434  1.00  0.00     0.034 A 
ATOM     56  C   UNL A   1      41.560  28.135  30.841  1.00  0.00     0.049 A 
ATOM     57  C   UNL A   1      41.950  31.206  35.611  1.00  0.00     0.074 A 
ATOM     58  C   UNL A   1      42.744  28.847  30.722  1.00  0.00     0.029 A 
ATOM     59  N   UNL A   1      41.477  27.733  32.169  1.00  0.00    -0.354 N 
ATOM     60  N   UNL A   1      42.125  30.357  34.637  1.00  0.00    -0.248 NA
ATOM     61  C   UNL A   1      42.337  30.648  36.903  1.00  0.00     0.031 C 
ATOM     62  C   UNL A   1      43.331  28.942  32.012  1.00  0.00     0.029 A 
ATOM     63  C   UNL A   1      42.520  28.268  32.910  1.00  0.00     0.049 A 
ATOM     64  H   UNL A   1      40.774  27.147  32.534  1.00  0.00     0.167 HD
ATOM     65  C   UNL A   1      42.524  29.143  35.136  1.00  0.00     0.074 A 
ATOM     66  C   UNL A   1      42.711  29.404  36.555  1.00  0.00     0.031 C 
ATOM     67  C   UNL A   1      42.612  28.027  34.346  1.00  0.00     0.034 A 
BRANCH  54  68
ATOM     68  C   UNL A   1      40.431  27.322  28.609  1.00  0.00     0.023 A 
ATOM     69  C   UNL A   1      39.487  26.298  28.365  1.00  0.00     0.012 A 
ATOM     70  C   UNL A   1      41.373  27.550  27.581  1.00  0.00     0.148 A 
ATOM     71  C   UNL A   1      39.543  25.473  27.237  1.00  0.00     0.002 A 
ATOM     72  C   UNL A   1      41.481  26.677  26.491  1.00  0.00     0.091 A 
ATOM     73  F   UNL A   1      42.113  28.663  27.596  1.00  0.00    -0.205 F 
ATOM     74  C   UNL A   1      40.568  25.633  26.320  1.00  0.00     0.022 A 
BRANCH  72  75
ATOM     75  S   UNL A   1      42.845  26.766  25.318  1.00  0.00     0.127 S 
ATOM     76  O   UNL A   1      42.509  27.962  24.540  1.00  0.00    -0.237 OA
ATOM     77  O   UNL A   1      44.005  26.920  26.192  1.00  0.00    -0.237 OA
ATOM     78  O   UNL A   1      42.789  25.528  24.549  1.00  0.00    -0.744 OA
ENDBRANCH  72  75
ENDBRANCH  54  68
BRANCH  55  79
ATOM     79  C   UNL A   1      40.345  33.244  36.279  1.00  0.00     0.023 A 
ATOM     80  C   UNL A   1      39.265  32.418  36.674  1.00  0.00     0.012 A 
ATOM     81  C   UNL A   1      40.578  34.436  36.990  1.00  0.00     0.148 A 
ATOM     82  C   UNL A   1      38.526  32.698  37.826  1.00  0.00     0.002 A 
ATOM     83  C   UNL A   1      39.831  34.712  38.136  1.00  0.00     0.091 A 
ATOM     84  F   UNL A   1      41.571  35.239  36.588  1.00  0.00    -0.205 F 
ATOM     85  C   UNL A   1      38.834  33.825  38.576  1.00  0.00     0.022 A 
BRANCH  83  86
ATOM     86  S   UNL A   1      40.189  36.133  39.180  1.00  0.00     0.127 S 
ATOM     87  O   UNL A   1      41.648  36.122  39.196  1.00  0.00    -0.237 OA
ATOM     88  O   UNL A   1      39.591  37.237  38.427  1.00  0.00    -0.237 OA
ATOM     89  O   UNL A   1      39.524  35.847  40.441  1.00  0.00    -0.744 OA
ENDBRANCH  83  86
ENDBRANCH  55  79
BRANCH  67  90
ATOM     90  C   UNL A   1      42.788  26.599  34.843  1.00  0.00     0.023 A 
ATOM     91  C   UNL A   1      41.836  25.963  35.661  1.00  0.00     0.012 A 
ATOM     92  C   UNL A   1      43.858  25.788  34.375  1.00  0.00     0.148 A 
ATOM     93  C   UNL A   1      41.960  24.622  36.047  1.00  0.00     0.002 A 
ATOM     94  C   UNL A   1      43.914  24.426  34.667  1.00  0.00     0.091 A 
ATOM     95  F   UNL A   1      44.849  26.333  33.654  1.00  0.00    -0.205 F 
ATOM     96  C   UNL A   1      42.985  23.846  35.529  1.00  0.00     0.022 A 
BRANCH  94  97
ATOM     97  S   UNL A   1      45.078  23.351  33.815  1.00  0.00     0.127 S 
ATOM     98  O   UNL A   1      44.787  22.049  34.412  1.00  0.00    -0.237 OA
ATOM     99  O   UNL A   1      44.668  23.482  32.415  1.00  0.00    -0.237 OA
ATOM    100  O   UNL A   1      46.388  23.918  34.105  1.00  0.00    -0.744 OA
ENDBRANCH  94  97
ENDBRANCH  67  90
ENDBRANCH  41  42
ENDBRANCH  33  36
ENDBRANCH  31  32
ENDBRANCH  30  31
ENDBRANCH   1  30
TORSDOF 18
ENDMDL
MODEL 3
REMARK VINA RESULT:     -12.7      5.050      7.918
REMARK SMILES Cc1cccc(-c2cc(OCC(=O)NCCCNC(=O)c3ccc(-c4c5nc(c(-c6cccc(S(=O)(=O)[O-])c6F)c6ccc([nH]6)c(-c6cccc(S(=O)(=O)[O-])c6F)c6nc(c(-c7cccc(S(=O)(=O)[O-])c7F)c7ccc4[nH]7)C=C6)C=C5)cc3)nc(Nc3ccccc3C)n2)c1
REMARK SMILES IDX 15 1 14 2 12 3 13 4 11 6 10 7 9 8 7 9 8 10 94 11 85 12 84 13
REMARK SMILES IDX 6 14 1 15 2 16 3 17 95 18 4 19 5 20 86 21 87 23 88 24 92 25
REMARK SMILES IDX 89 26 91 27 93 28 90 29 16 30 17 31 18 32 19 33 20 35 21 36
REMARK SMILES IDX 22 37 83 38 23 39 82 40 24 41 25 42 26 43 76 44 27 45 81 46
REMARK SMILES IDX 75 47 77 48 28 49 80 50 74 51 73 52 29 54 61 55 41 56 60 57
REMARK SMILES IDX 42 58 45 59 59 60 78 61 43 62 44 63 58 65 79 66 46 67 30 68
REMARK SMILES IDX 31 69 39 70 32 71 34 72 40 73 33 74 35 75 36 76 37 77 38 78
REMARK SMILES IDX 62 79 63 80 71 81 64 82 66 83 72 84 65 85 67 86 68 87 69 88
REMARK SMILES IDX 70 89 47 90 48 91 56 92 49 93 51 94 57 95 50 96 52 97 53 98
REMARK SMILES IDX 54 99 55 100
REMARK H PARENT 14 5 86 22 18 34 77 53 45 64
REMARK Flexibility Score: inf
ROOT
ATOM      1  C   UNL A   1      33.279  29.596  26.433  1.00  0.00     0.117 C 
ENDROOT
BRANCH   1   2
ATOM      2  N   UNL A   1      33.672  29.290  25.069  1.00  0.00    -0.353 N 
ATOM      3  C   UNL A   1      33.579  28.096  24.416  1.00  0.00     0.258 C 
ATOM      4  O   UNL A   1      33.907  28.029  23.230  1.00  0.00    -0.271 OA
ATOM      5  H   UNL A   1      34.051  30.038  24.551  1.00  0.00     0.163 HD
BRANCH   3   6
ATOM      6  C   UNL A   1      33.053  26.860  25.160  1.00  0.00     0.331 C 
BRANCH   6   7
ATOM      7  O   UNL A   1      32.720  25.726  24.375  1.00  0.00    -0.467 OA
BRANCH   7   8
ATOM      8  C   UNL A   1      33.360  24.546  24.647  1.00  0.00     0.219 A 
ATOM      9  C   UNL A   1      35.152  23.160  25.192  1.00  0.00     0.080 A 
ATOM     10  C   UNL A   1      34.699  24.427  24.915  1.00  0.00     0.097 A 
ATOM     11  N   UNL A   1      34.346  22.091  25.170  1.00  0.00    -0.212 NA
ATOM     12  C   UNL A   1      33.046  22.286  24.923  1.00  0.00     0.231 A 
ATOM     13  N   UNL A   1      32.524  23.488  24.634  1.00  0.00    -0.177 NA
BRANCH   9  14
ATOM     14  C   UNL A   1      36.548  22.903  25.548  1.00  0.00     0.001 A 
ATOM     15  C   UNL A   1      39.503  24.782  27.071  1.00  0.00     0.044 C 
ATOM     16  C   UNL A   1      38.680  23.695  26.446  1.00  0.00    -0.050 A 
ATOM     17  C   UNL A   1      39.243  22.440  26.189  1.00  0.00     0.003 A 
ATOM     18  C   UNL A   1      37.338  23.919  26.114  1.00  0.00     0.013 A 
ATOM     19  C   UNL A   1      38.470  21.419  25.637  1.00  0.00     0.001 A 
ATOM     20  C   UNL A   1      37.127  21.646  25.330  1.00  0.00     0.010 A 
ENDBRANCH   9  14
BRANCH  12  21
ATOM     21  N   UNL A   1      32.182  21.190  24.913  1.00  0.00    -0.324 N 
ATOM     22  H   UNL A   1      31.277  21.337  25.271  1.00  0.00     0.170 HD
BRANCH  21  23
ATOM     23  C   UNL A   1      32.474  19.900  24.447  1.00  0.00     0.044 A 
ATOM     24  C   UNL A   1      32.842  18.918  25.380  1.00  0.00     0.026 A 
ATOM     25  C   UNL A   1      32.304  19.525  23.097  1.00  0.00    -0.027 A 
ATOM     26  C   UNL A   1      32.989  17.581  25.001  1.00  0.00     0.002 A 
ATOM     27  C   UNL A   1      32.444  18.175  22.731  1.00  0.00     0.005 A 
ATOM     28  C   UNL A   1      32.004  20.536  22.021  1.00  0.00     0.046 C 
ATOM     29  C   UNL A   1      32.775  17.209  23.679  1.00  0.00     0.000 A 
ENDBRANCH  21  23
ENDBRANCH  12  21
ENDBRANCH   7   8
ENDBRANCH   6   7
ENDBRANCH   3   6
ENDBRANCH   1   2
BRANCH   1  30
ATOM     30  C   UNL A   1      34.388  29.325  27.440  1.00  0.00     0.042 C 
BRANCH  30  31
ATOM     31  C   UNL A   1      35.312  30.512  27.639  1.00  0.00     0.118 C 
BRANCH  31  32
ATOM     32  N   UNL A   1      34.636  31.668  28.198  1.00  0.00    -0.352 N 
ATOM     33  C   UNL A   1      34.856  32.355  29.373  1.00  0.00     0.251 C 
ATOM     34  H   UNL A   1      33.899  32.020  27.647  1.00  0.00     0.163 HD
ATOM     35  O   UNL A   1      33.993  33.160  29.724  1.00  0.00    -0.269 OA
BRANCH  33  36
ATOM     36  C   UNL A   1      36.148  32.254  30.103  1.00  0.00     0.039 A 
ATOM     37  C   UNL A   1      37.258  32.918  29.555  1.00  0.00     0.014 A 
ATOM     38  C   UNL A   1      36.337  31.372  31.163  1.00  0.00     0.014 A 
ATOM     39  C   UNL A   1      38.549  32.512  29.886  1.00  0.00     0.010 A 
ATOM     40  C   UNL A   1      37.601  30.906  31.432  1.00  0.00     0.010 A 
ATOM     41  C   UNL A   1      38.697  31.426  30.739  1.00  0.00    -0.014 A 
BRANCH  41  42
ATOM     42  C   UNL A   1      39.922  30.676  30.937  1.00  0.00     0.031 A 
ATOM     43  C   UNL A   1      40.168  29.442  30.175  1.00  0.00     0.074 A 
ATOM     44  C   UNL A   1      40.922  31.311  31.589  1.00  0.00     0.049 A 
ATOM     45  N   UNL A   1      41.124  28.617  30.420  1.00  0.00    -0.248 NA
ATOM     46  C   UNL A   1      39.324  29.048  29.055  1.00  0.00     0.031 C 
ATOM     47  C   UNL A   1      42.351  31.039  31.518  1.00  0.00     0.029 A 
ATOM     48  N   UNL A   1      40.800  32.233  32.633  1.00  0.00    -0.354 N 
ATOM     49  C   UNL A   1      41.206  27.760  29.343  1.00  0.00     0.074 A 
ATOM     50  C   UNL A   1      40.024  28.025  28.558  1.00  0.00     0.031 C 
ATOM     51  C   UNL A   1      42.934  31.530  32.623  1.00  0.00     0.029 A 
ATOM     52  C   UNL A   1      41.860  31.953  33.509  1.00  0.00     0.049 A 
ATOM     53  H   UNL A   1      40.113  32.933  32.734  1.00  0.00     0.167 HD
ATOM     54  C   UNL A   1      42.352  27.044  29.154  1.00  0.00     0.034 A 
ATOM     55  C   UNL A   1      41.673  31.509  34.788  1.00  0.00     0.034 A 
ATOM     56  C   UNL A   1      43.300  27.274  30.253  1.00  0.00     0.049 A 
ATOM     57  C   UNL A   1      42.340  30.171  35.051  1.00  0.00     0.074 A 
ATOM     58  C   UNL A   1      44.388  28.123  30.392  1.00  0.00     0.029 A 
ATOM     59  N   UNL A   1      42.999  26.811  31.529  1.00  0.00    -0.354 N 
ATOM     60  N   UNL A   1      42.810  29.388  34.120  1.00  0.00    -0.248 NA
ATOM     61  C   UNL A   1      42.522  29.609  36.385  1.00  0.00     0.031 C 
ATOM     62  C   UNL A   1      44.686  28.232  31.776  1.00  0.00     0.029 A 
ATOM     63  C   UNL A   1      43.797  27.432  32.476  1.00  0.00     0.049 A 
ATOM     64  H   UNL A   1      42.314  26.133  31.730  1.00  0.00     0.167 HD
ATOM     65  C   UNL A   1      43.244  28.210  34.670  1.00  0.00     0.074 A 
ATOM     66  C   UNL A   1      43.107  28.432  36.101  1.00  0.00     0.031 C 
ATOM     67  C   UNL A   1      43.625  27.144  33.897  1.00  0.00     0.034 A 
BRANCH  54  68
ATOM     68  C   UNL A   1      42.755  26.429  27.823  1.00  0.00     0.023 A 
ATOM     69  C   UNL A   1      42.612  27.231  26.668  1.00  0.00     0.012 A 
ATOM     70  C   UNL A   1      43.189  25.102  27.603  1.00  0.00     0.148 A 
ATOM     71  C   UNL A   1      42.768  26.725  25.373  1.00  0.00     0.002 A 
ATOM     72  C   UNL A   1      43.268  24.572  26.309  1.00  0.00     0.091 A 
ATOM     73  F   UNL A   1      43.618  24.366  28.632  1.00  0.00    -0.205 F 
ATOM     74  C   UNL A   1      43.053  25.382  25.191  1.00  0.00     0.022 A 
BRANCH  72  75
ATOM     75  S   UNL A   1      43.536  22.817  26.003  1.00  0.00     0.127 S 
ATOM     76  O   UNL A   1      43.118  22.679  24.604  1.00  0.00    -0.237 OA
ATOM     77  O   UNL A   1      44.972  22.672  26.222  1.00  0.00    -0.237 OA
ATOM     78  O   UNL A   1      42.675  22.113  26.946  1.00  0.00    -0.744 OA
ENDBRANCH  72  75
ENDBRANCH  54  68
BRANCH  55  79
ATOM     79  C   UNL A   1      40.397  31.981  35.408  1.00  0.00     0.023 A 
ATOM     80  C   UNL A   1      39.211  31.319  35.006  1.00  0.00     0.012 A 
ATOM     81  C   UNL A   1      40.383  32.728  36.600  1.00  0.00     0.148 A 
ATOM     82  C   UNL A   1      38.088  31.287  35.835  1.00  0.00     0.002 A 
ATOM     83  C   UNL A   1      39.253  32.696  37.420  1.00  0.00     0.091 A 
ATOM     84  F   UNL A   1      41.491  33.389  36.956  1.00  0.00    -0.205 F 
ATOM     85  C   UNL A   1      38.123  31.945  37.058  1.00  0.00     0.022 A 
BRANCH  83  86
ATOM     86  S   UNL A   1      39.232  33.495  39.032  1.00  0.00     0.127 S 
ATOM     87  O   UNL A   1      40.237  32.721  39.753  1.00  0.00    -0.237 OA
ATOM     88  O   UNL A   1      39.626  34.867  38.710  1.00  0.00    -0.237 OA
ATOM     89  O   UNL A   1      37.859  33.364  39.493  1.00  0.00    -0.744 OA
ENDBRANCH  83  86
ENDBRANCH  55  79
BRANCH  67  90
ATOM     90  C   UNL A   1      43.870  25.727  34.396  1.00  0.00     0.023 A 
ATOM     91  C   UNL A   1      42.855  24.753  34.423  1.00  0.00     0.012 A 
ATOM     92  C   UNL A   1      45.181  25.280  34.717  1.00  0.00     0.148 A 
ATOM     93  C   UNL A   1      43.103  23.427  34.802  1.00  0.00     0.002 A 
ATOM     94  C   UNL A   1      45.441  23.937  34.981  1.00  0.00     0.091 A 
ATOM     95  F   UNL A   1      46.192  26.158  34.789  1.00  0.00    -0.205 F 
ATOM     96  C   UNL A   1      44.401  23.012  35.057  1.00  0.00     0.022 A 
BRANCH  94  97
ATOM     97  S   UNL A   1      47.133  23.329  35.067  1.00  0.00     0.127 S 
ATOM     98  O   UNL A   1      46.962  21.903  34.795  1.00  0.00    -0.237 OA
ATOM     99  O   UNL A   1      47.795  24.076  33.995  1.00  0.00    -0.237 OA
ATOM    100  O   UNL A   1      47.588  23.683  36.404  1.00  0.00    -0.744 OA
ENDBRANCH  94  97
ENDBRANCH  67  90
ENDBRANCH  41  42
ENDBRANCH  33  36
ENDBRANCH  31  32
ENDBRANCH  30  31
ENDBRANCH   1  30
TORSDOF 18
ENDMDL
