MODEL 1
REMARK VINA RESULT:     -12.2      0.000      0.000
REMARK SMILES O=C(Cc1ccn[nH]1)NC[C@H]1CCCC[C@H]1C(=O)NCCCNC(=O)c1ccc(-c2c3nc(c(-c4cccc(S(=O)(=O)[O-])c4F)c4ccc([nH]4)c(-c4cccc(S(=O)(=O)[O-])c4F)c4nc(c(-c5cccc(S(=O)(=O)[O-])c5F)c5ccc2[nH]5)C=C4)C=C3)cc1
REMARK SMILES IDX 20 1 19 2 17 3 18 4 16 6 11 7 12 8 13 9 15 10 14 11 10 12
REMARK SMILES IDX 9 13 1 14 2 15 3 17 4 18 5 19 8 20 6 21 7 22 21 24 22 25
REMARK SMILES IDX 23 26 24 27 25 29 26 30 27 31 88 32 28 33 87 34 29 35 30 36
REMARK SMILES IDX 31 37 81 38 32 39 86 40 80 41 82 42 33 43 85 44 79 45 78 46
REMARK SMILES IDX 34 48 66 49 46 50 65 51 47 52 50 53 64 54 83 55 48 56 49 57
REMARK SMILES IDX 63 59 84 60 51 61 35 62 36 63 44 64 37 65 39 66 45 67 38 68
REMARK SMILES IDX 40 69 41 70 42 71 43 72 67 73 68 74 76 75 69 76 71 77 77 78
REMARK SMILES IDX 70 79 72 80 73 81 74 82 75 83 52 84 53 85 61 86 54 87 56 88
REMARK SMILES IDX 62 89 55 90 57 91 58 92 59 93 60 94
REMARK H PARENT 19 5 9 16 8 23 23 28 82 47 50 58
REMARK Flexibility Score: inf
ROOT
ATOM      1  C   UNL A   1      35.991  20.466  24.997  1.00  0.00     0.117 C 
ENDROOT
BRANCH   1   2
ATOM      2  N   UNL A   1      35.549  21.217  26.157  1.00  0.00    -0.356 N 
ATOM      3  C   UNL A   1      34.750  22.291  26.388  1.00  0.00     0.223 C 
ATOM      4  O   UNL A   1      34.388  22.496  27.555  1.00  0.00    -0.275 OA
ATOM      5  H   UNL A   1      35.927  20.857  26.993  1.00  0.00     0.163 HD
BRANCH   3   6
ATOM      6  C   UNL A   1      34.324  23.280  25.312  1.00  0.00     0.083 C 
ATOM      7  C   UNL A   1      32.968  22.973  24.624  1.00  0.00     0.021 C 
ATOM      8  C   UNL A   1      31.953  24.143  24.625  1.00  0.00     0.006 C 
ATOM      9  C   UNL A   1      32.233  25.292  25.584  1.00  0.00     0.000 C 
ATOM     10  C   UNL A   1      34.685  24.711  25.734  1.00  0.00     0.014 C 
ATOM     11  C   UNL A   1      33.658  25.792  25.467  1.00  0.00     0.001 C 
BRANCH   7  12
ATOM     12  C   UNL A   1      32.284  21.606  24.958  1.00  0.00     0.120 C 
BRANCH  12  13
ATOM     13  N   UNL A   1      32.571  20.495  24.043  1.00  0.00    -0.355 N 
ATOM     14  O   UNL A   1      32.127  18.799  25.533  1.00  0.00    -0.275 OA
ATOM     15  C   UNL A   1      32.468  19.165  24.413  1.00  0.00     0.226 C 
ATOM     16  H   UNL A   1      32.850  20.706  23.122  1.00  0.00     0.163 HD
BRANCH  15  17
ATOM     17  C   UNL A   1      32.823  18.105  23.393  1.00  0.00     0.155 C 
BRANCH  17  18
ATOM     18  C   UNL A   1      33.584  17.029  24.093  1.00  0.00     0.044 A 
ATOM     19  C   UNL A   1      34.902  16.939  24.498  1.00  0.00     0.045 A 
ATOM     20  N   UNL A   1      32.983  15.893  24.552  1.00  0.00    -0.282 N 
ATOM     21  C   UNL A   1      34.974  15.733  25.218  1.00  0.00     0.135 A 
ATOM     22  N   UNL A   1      33.807  15.086  25.233  1.00  0.00    -0.184 NA
ATOM     23  H   UNL A   1      32.033  15.687  24.397  1.00  0.00     0.190 HD
ENDBRANCH  17  18
ENDBRANCH  15  17
ENDBRANCH  12  13
ENDBRANCH   7  12
ENDBRANCH   3   6
ENDBRANCH   1   2
BRANCH   1  24
ATOM     24  C   UNL A   1      37.453  19.968  24.839  1.00  0.00     0.042 C 
BRANCH  24  25
ATOM     25  C   UNL A   1      38.649  20.354  25.749  1.00  0.00     0.118 C 
BRANCH  25  26
ATOM     26  N   UNL A   1      39.735  19.393  25.825  1.00  0.00    -0.352 N 
ATOM     27  C   UNL A   1      41.068  19.576  26.124  1.00  0.00     0.251 C 
ATOM     28  H   UNL A   1      39.478  18.462  25.634  1.00  0.00     0.163 HD
ATOM     29  O   UNL A   1      41.825  18.606  26.084  1.00  0.00    -0.269 OA
BRANCH  27  30
ATOM     30  C   UNL A   1      41.644  20.899  26.484  1.00  0.00     0.039 A 
ATOM     31  C   UNL A   1      41.987  21.782  25.449  1.00  0.00     0.014 A 
ATOM     32  C   UNL A   1      41.987  21.230  27.799  1.00  0.00     0.014 A 
ATOM     33  C   UNL A   1      42.585  23.020  25.731  1.00  0.00     0.010 A 
ATOM     34  C   UNL A   1      42.594  22.464  28.083  1.00  0.00     0.010 A 
ATOM     35  C   UNL A   1      42.864  23.387  27.058  1.00  0.00    -0.014 A 
BRANCH  35  36
ATOM     36  C   UNL A   1      43.175  24.805  27.395  1.00  0.00     0.031 A 
ATOM     37  C   UNL A   1      42.169  25.753  27.985  1.00  0.00     0.074 A 
ATOM     38  C   UNL A   1      44.401  25.250  27.055  1.00  0.00     0.049 A 
ATOM     39  N   UNL A   1      42.329  27.007  28.330  1.00  0.00    -0.248 NA
ATOM     40  C   UNL A   1      40.811  25.239  28.205  1.00  0.00     0.031 C 
ATOM     41  C   UNL A   1      45.430  24.432  26.404  1.00  0.00     0.029 A 
ATOM     42  N   UNL A   1      44.982  26.488  27.160  1.00  0.00    -0.354 N 
ATOM     43  C   UNL A   1      41.093  27.443  28.798  1.00  0.00     0.074 A 
ATOM     44  C   UNL A   1      40.189  26.316  28.679  1.00  0.00     0.031 C 
ATOM     45  C   UNL A   1      46.498  25.197  26.138  1.00  0.00     0.029 A 
ATOM     46  C   UNL A   1      46.231  26.556  26.588  1.00  0.00     0.049 A 
ATOM     47  H   UNL A   1      44.547  27.253  27.602  1.00  0.00     0.167 HD
ATOM     48  C   UNL A   1      40.754  28.663  29.288  1.00  0.00     0.034 A 
ATOM     49  C   UNL A   1      47.069  27.598  26.430  1.00  0.00     0.034 A 
ATOM     50  C   UNL A   1      41.668  29.778  29.381  1.00  0.00     0.049 A 
ATOM     51  C   UNL A   1      46.677  28.930  26.998  1.00  0.00     0.074 A 
ATOM     52  C   UNL A   1      41.457  31.025  29.946  1.00  0.00     0.029 A 
ATOM     53  N   UNL A   1      42.957  29.793  28.863  1.00  0.00    -0.354 N 
ATOM     54  N   UNL A   1      45.575  29.264  27.626  1.00  0.00    -0.248 NA
ATOM     55  C   UNL A   1      47.657  30.018  26.881  1.00  0.00     0.031 C 
ATOM     56  C   UNL A   1      42.600  31.805  29.731  1.00  0.00     0.029 A 
ATOM     57  C   UNL A   1      43.540  31.033  29.068  1.00  0.00     0.049 A 
ATOM     58  H   UNL A   1      43.392  29.032  28.416  1.00  0.00     0.167 HD
ATOM     59  C   UNL A   1      45.736  30.591  28.000  1.00  0.00     0.074 A 
ATOM     60  C   UNL A   1      47.057  30.989  27.555  1.00  0.00     0.031 C 
ATOM     61  C   UNL A   1      44.865  31.410  28.641  1.00  0.00     0.034 A 
BRANCH  48  62
ATOM     62  C   UNL A   1      39.344  28.863  29.801  1.00  0.00     0.023 A 
ATOM     63  C   UNL A   1      39.019  28.450  31.110  1.00  0.00     0.012 A 
ATOM     64  C   UNL A   1      38.370  29.535  29.034  1.00  0.00     0.148 A 
ATOM     65  C   UNL A   1      37.742  28.666  31.632  1.00  0.00     0.002 A 
ATOM     66  C   UNL A   1      37.111  29.782  29.575  1.00  0.00     0.091 A 
ATOM     67  F   UNL A   1      38.690  29.921  27.791  1.00  0.00    -0.205 F 
ATOM     68  C   UNL A   1      36.793  29.338  30.868  1.00  0.00     0.022 A 
BRANCH  66  69
ATOM     69  S   UNL A   1      35.837  30.709  28.708  1.00  0.00     0.127 S 
ATOM     70  O   UNL A   1      35.082  31.284  29.820  1.00  0.00    -0.237 OA
ATOM     71  O   UNL A   1      36.625  31.675  27.942  1.00  0.00    -0.237 OA
ATOM     72  O   UNL A   1      35.111  29.738  27.900  1.00  0.00    -0.744 OA
ENDBRANCH  66  69
ENDBRANCH  48  62
BRANCH  49  73
ATOM     73  C   UNL A   1      48.383  27.391  25.758  1.00  0.00     0.023 A 
ATOM     74  C   UNL A   1      49.493  26.979  26.519  1.00  0.00     0.012 A 
ATOM     75  C   UNL A   1      48.523  27.542  24.364  1.00  0.00     0.148 A 
ATOM     76  C   UNL A   1      50.727  26.749  25.910  1.00  0.00     0.002 A 
ATOM     77  C   UNL A   1      49.740  27.257  23.756  1.00  0.00     0.091 A 
ATOM     78  F   UNL A   1      47.456  27.938  23.657  1.00  0.00    -0.205 F 
ATOM     79  C   UNL A   1      50.848  26.877  24.528  1.00  0.00     0.022 A 
BRANCH  77  80
ATOM     80  S   UNL A   1      49.952  27.259  21.971  1.00  0.00     0.127 S 
ATOM     81  O   UNL A   1      49.725  28.662  21.642  1.00  0.00    -0.237 OA
ATOM     82  O   UNL A   1      51.335  26.806  21.829  1.00  0.00    -0.237 OA
ATOM     83  O   UNL A   1      48.961  26.320  21.455  1.00  0.00    -0.744 OA
ENDBRANCH  77  80
ENDBRANCH  49  73
BRANCH  61  84
ATOM     84  C   UNL A   1      45.318  32.823  28.904  1.00  0.00     0.023 A 
ATOM     85  C   UNL A   1      46.094  33.108  30.046  1.00  0.00     0.012 A 
ATOM     86  C   UNL A   1      45.019  33.858  27.996  1.00  0.00     0.148 A 
ATOM     87  C   UNL A   1      46.534  34.406  30.300  1.00  0.00     0.002 A 
ATOM     88  C   UNL A   1      45.506  35.139  28.228  1.00  0.00     0.091 A 
ATOM     89  F   UNL A   1      44.263  33.572  26.927  1.00  0.00    -0.205 F 
ATOM     90  C   UNL A   1      46.250  35.417  29.386  1.00  0.00     0.022 A 
BRANCH  88  91
ATOM     91  S   UNL A   1      45.272  36.487  27.065  1.00  0.00     0.127 S 
ATOM     92  O   UNL A   1      43.866  36.327  26.701  1.00  0.00    -0.237 OA
ATOM     93  O   UNL A   1      45.560  37.660  27.891  1.00  0.00    -0.237 OA
ATOM     94  O   UNL A   1      46.223  36.258  25.986  1.00  0.00    -0.744 OA
ENDBRANCH  88  91
ENDBRANCH  61  84
ENDBRANCH  35  36
ENDBRANCH  27  30
ENDBRANCH  25  26
ENDBRANCH  24  25
ENDBRANCH   1  24
TORSDOF 17
ENDMDL
MODEL 2
REMARK VINA RESULT:     -11.9      5.894      9.193
REMARK SMILES O=C(Cc1ccn[nH]1)NC[C@H]1CCCC[C@H]1C(=O)NCCCNC(=O)c1ccc(-c2c3nc(c(-c4cccc(S(=O)(=O)[O-])c4F)c4ccc([nH]4)c(-c4cccc(S(=O)(=O)[O-])c4F)c4nc(c(-c5cccc(S(=O)(=O)[O-])c5F)c5ccc2[nH]5)C=C4)C=C3)cc1
REMARK SMILES IDX 20 1 19 2 17 3 18 4 16 6 11 7 12 8 13 9 15 10 14 11 10 12
REMARK SMILES IDX 9 13 1 14 2 15 3 17 4 18 5 19 8 20 6 21 7 22 21 24 22 25
REMARK SMILES IDX 23 26 24 27 25 29 26 30 27 31 88 32 28 33 87 34 29 35 30 36
REMARK SMILES IDX 31 37 81 38 32 39 86 40 80 41 82 42 33 43 85 44 79 45 78 46
REMARK SMILES IDX 34 48 66 49 46 50 65 51 47 52 50 53 64 54 83 55 48 56 49 57
REMARK SMILES IDX 63 59 84 60 51 61 35 62 36 63 44 64 37 65 39 66 45 67 38 68
REMARK SMILES IDX 40 69 41 70 42 71 43 72 67 73 68 74 76 75 69 76 71 77 77 78
REMARK SMILES IDX 70 79 72 80 73 81 74 82 75 83 52 84 53 85 61 86 54 87 56 88
REMARK SMILES IDX 62 89 55 90 57 91 58 92 59 93 60 94
REMARK H PARENT 19 5 9 16 8 23 23 28 82 47 50 58
REMARK Flexibility Score: inf
ROOT
ATOM      1  C   UNL A   1      32.268  27.037  26.333  1.00  0.00     0.117 C 
ENDROOT
BRANCH   1   2
ATOM      2  N   UNL A   1      31.335  25.962  26.612  1.00  0.00    -0.356 N 
ATOM      3  C   UNL A   1      31.341  24.607  26.521  1.00  0.00     0.223 C 
ATOM      4  O   UNL A   1      30.440  23.989  27.107  1.00  0.00    -0.275 OA
ATOM      5  H   UNL A   1      30.476  26.302  26.955  1.00  0.00     0.163 HD
BRANCH   3   6
ATOM      6  C   UNL A   1      32.348  23.814  25.701  1.00  0.00     0.083 C 
ATOM      7  C   UNL A   1      32.097  23.798  24.170  1.00  0.00     0.021 C 
ATOM      8  C   UNL A   1      33.306  24.227  23.303  1.00  0.00     0.006 C 
ATOM      9  C   UNL A   1      34.441  24.945  24.019  1.00  0.00     0.000 C 
ATOM     10  C   UNL A   1      33.763  24.009  26.263  1.00  0.00     0.014 C 
ATOM     11  C   UNL A   1      34.884  24.205  25.264  1.00  0.00     0.001 C 
BRANCH   7  12
ATOM     12  C   UNL A   1      30.757  24.421  23.655  1.00  0.00     0.120 C 
BRANCH  12  13
ATOM     13  N   UNL A   1      30.863  25.711  22.963  1.00  0.00    -0.355 N 
ATOM     14  O   UNL A   1      29.361  26.848  24.283  1.00  0.00    -0.275 OA
ATOM     15  C   UNL A   1      30.145  26.833  23.339  1.00  0.00     0.226 C 
ATOM     16  H   UNL A   1      31.476  25.782  22.194  1.00  0.00     0.163 HD
BRANCH  15  17
ATOM     17  C   UNL A   1      30.311  28.100  22.528  1.00  0.00     0.155 C 
BRANCH  17  18
ATOM     18  C   UNL A   1      29.223  29.042  22.920  1.00  0.00     0.044 A 
ATOM     19  C   UNL A   1      29.244  30.353  23.356  1.00  0.00     0.045 A 
ATOM     20  N   UNL A   1      27.902  28.717  22.804  1.00  0.00    -0.282 N 
ATOM     21  C   UNL A   1      27.890  30.726  23.435  1.00  0.00     0.135 A 
ATOM     22  N   UNL A   1      27.072  29.721  23.118  1.00  0.00    -0.184 NA
ATOM     23  H   UNL A   1      27.589  27.829  22.517  1.00  0.00     0.190 HD
ENDBRANCH  17  18
ENDBRANCH  15  17
ENDBRANCH  12  13
ENDBRANCH   7  12
ENDBRANCH   3   6
ENDBRANCH   1   2
BRANCH   1  24
ATOM     24  C   UNL A   1      31.797  28.462  25.935  1.00  0.00     0.042 C 
BRANCH  24  25
ATOM     25  C   UNL A   1      32.715  29.637  25.506  1.00  0.00     0.118 C 
BRANCH  25  26
ATOM     26  N   UNL A   1      32.418  30.932  26.092  1.00  0.00    -0.352 N 
ATOM     27  C   UNL A   1      33.086  31.646  27.063  1.00  0.00     0.251 C 
ATOM     28  H   UNL A   1      31.611  31.371  25.738  1.00  0.00     0.163 HD
ATOM     29  O   UNL A   1      32.616  32.720  27.440  1.00  0.00    -0.269 OA
BRANCH  27  30
ATOM     30  C   UNL A   1      34.349  31.175  27.691  1.00  0.00     0.039 A 
ATOM     31  C   UNL A   1      35.357  32.117  27.950  1.00  0.00     0.014 A 
ATOM     32  C   UNL A   1      34.620  29.820  27.897  1.00  0.00     0.014 A 
ATOM     33  C   UNL A   1      36.589  31.719  28.490  1.00  0.00     0.010 A 
ATOM     34  C   UNL A   1      35.856  29.417  28.430  1.00  0.00     0.010 A 
ATOM     35  C   UNL A   1      36.837  30.364  28.768  1.00  0.00    -0.014 A 
BRANCH  35  36
ATOM     36  C   UNL A   1      37.980  29.973  29.640  1.00  0.00     0.031 A 
ATOM     37  C   UNL A   1      38.223  30.566  30.999  1.00  0.00     0.074 A 
ATOM     38  C   UNL A   1      38.872  29.111  29.112  1.00  0.00     0.049 A 
ATOM     39  N   UNL A   1      39.180  30.295  31.852  1.00  0.00    -0.248 NA
ATOM     40  C   UNL A   1      37.287  31.601  31.457  1.00  0.00     0.031 C 
ATOM     41  C   UNL A   1      38.774  28.534  27.768  1.00  0.00     0.029 A 
ATOM     42  N   UNL A   1      40.046  28.601  29.605  1.00  0.00    -0.354 N 
ATOM     43  C   UNL A   1      38.973  31.130  32.946  1.00  0.00     0.074 A 
ATOM     44  C   UNL A   1      37.803  31.928  32.638  1.00  0.00     0.031 C 
ATOM     45  C   UNL A   1      39.857  27.780  27.530  1.00  0.00     0.029 A 
ATOM     46  C   UNL A   1      40.729  27.825  28.697  1.00  0.00     0.049 A 
ATOM     47  H   UNL A   1      40.370  28.774  30.519  1.00  0.00     0.167 HD
ATOM     48  C   UNL A   1      39.689  31.213  34.098  1.00  0.00     0.034 A 
ATOM     49  C   UNL A   1      41.931  27.223  28.783  1.00  0.00     0.034 A 
ATOM     50  C   UNL A   1      40.864  30.419  34.375  1.00  0.00     0.049 A 
ATOM     51  C   UNL A   1      42.690  27.314  30.074  1.00  0.00     0.074 A 
ATOM     52  C   UNL A   1      41.607  30.353  35.543  1.00  0.00     0.029 A 
ATOM     53  N   UNL A   1      41.489  29.579  33.463  1.00  0.00    -0.354 N 
ATOM     54  N   UNL A   1      42.367  27.949  31.175  1.00  0.00    -0.248 NA
ATOM     55  C   UNL A   1      43.954  26.570  30.155  1.00  0.00     0.031 C 
ATOM     56  C   UNL A   1      42.702  29.510  35.321  1.00  0.00     0.029 A 
ATOM     57  C   UNL A   1      42.622  29.017  34.029  1.00  0.00     0.049 A 
ATOM     58  H   UNL A   1      41.172  29.408  32.547  1.00  0.00     0.167 HD
ATOM     59  C   UNL A   1      43.373  27.665  32.088  1.00  0.00     0.074 A 
ATOM     60  C   UNL A   1      44.300  26.773  31.419  1.00  0.00     0.031 C 
ATOM     61  C   UNL A   1      43.524  28.112  33.360  1.00  0.00     0.034 A 
BRANCH  48  62
ATOM     62  C   UNL A   1      39.212  32.165  35.172  1.00  0.00     0.023 A 
ATOM     63  C   UNL A   1      38.263  31.723  36.118  1.00  0.00     0.012 A 
ATOM     64  C   UNL A   1      39.760  33.458  35.305  1.00  0.00     0.148 A 
ATOM     65  C   UNL A   1      37.840  32.561  37.152  1.00  0.00     0.002 A 
ATOM     66  C   UNL A   1      39.363  34.273  36.361  1.00  0.00     0.091 A 
ATOM     67  F   UNL A   1      40.659  33.867  34.400  1.00  0.00    -0.205 F 
ATOM     68  C   UNL A   1      38.395  33.831  37.278  1.00  0.00     0.022 A 
BRANCH  66  69
ATOM     69  S   UNL A   1      40.071  35.899  36.665  1.00  0.00     0.127 S 
ATOM     70  O   UNL A   1      39.677  36.623  35.457  1.00  0.00    -0.237 OA
ATOM     71  O   UNL A   1      39.373  36.317  37.881  1.00  0.00    -0.237 OA
ATOM     72  O   UNL A   1      41.503  35.691  36.825  1.00  0.00    -0.744 OA
ENDBRANCH  66  69
ENDBRANCH  48  62
BRANCH  49  73
ATOM     73  C   UNL A   1      42.443  26.432  27.628  1.00  0.00     0.023 A 
ATOM     74  C   UNL A   1      43.355  27.023  26.734  1.00  0.00     0.012 A 
ATOM     75  C   UNL A   1      42.079  25.083  27.448  1.00  0.00     0.148 A 
ATOM     76  C   UNL A   1      43.873  26.295  25.662  1.00  0.00     0.002 A 
ATOM     77  C   UNL A   1      42.641  24.347  26.412  1.00  0.00     0.091 A 
ATOM     78  F   UNL A   1      41.207  24.539  28.308  1.00  0.00    -0.205 F 
ATOM     79  C   UNL A   1      43.525  24.955  25.507  1.00  0.00     0.022 A 
BRANCH  77  80
ATOM     80  S   UNL A   1      42.361  22.582  26.217  1.00  0.00     0.127 S 
ATOM     81  O   UNL A   1      43.063  22.301  24.970  1.00  0.00    -0.237 OA
ATOM     82  O   UNL A   1      42.993  22.040  27.420  1.00  0.00    -0.237 OA
ATOM     83  O   UNL A   1      40.911  22.415  26.179  1.00  0.00    -0.744 OA
ENDBRANCH  77  80
ENDBRANCH  49  73
BRANCH  61  84
ATOM     84  C   UNL A   1      44.739  27.637  34.115  1.00  0.00     0.023 A 
ATOM     85  C   UNL A   1      45.936  28.379  34.051  1.00  0.00     0.012 A 
ATOM     86  C   UNL A   1      44.681  26.488  34.926  1.00  0.00     0.148 A 
ATOM     87  C   UNL A   1      47.067  27.964  34.752  1.00  0.00     0.002 A 
ATOM     88  C   UNL A   1      45.796  26.110  35.665  1.00  0.00     0.091 A 
ATOM     89  F   UNL A   1      43.540  25.785  34.959  1.00  0.00    -0.205 F 
ATOM     90  C   UNL A   1      46.993  26.838  35.568  1.00  0.00     0.022 A 
BRANCH  88  91
ATOM     91  S   UNL A   1      45.772  24.729  36.814  1.00  0.00     0.127 S 
ATOM     92  O   UNL A   1      46.934  25.018  37.652  1.00  0.00    -0.237 OA
ATOM     93  O   UNL A   1      44.481  24.903  37.479  1.00  0.00    -0.237 OA
ATOM     94  O   UNL A   1      45.878  23.526  36.000  1.00  0.00    -0.744 OA
ENDBRANCH  88  91
ENDBRANCH  61  84
ENDBRANCH  35  36
ENDBRANCH  27  30
ENDBRANCH  25  26
ENDBRANCH  24  25
ENDBRANCH   1  24
TORSDOF 17
ENDMDL
MODEL 3
REMARK VINA RESULT:     -11.9      6.665     12.106
REMARK SMILES O=C(Cc1ccn[nH]1)NC[C@H]1CCCC[C@H]1C(=O)NCCCNC(=O)c1ccc(-c2c3nc(c(-c4cccc(S(=O)(=O)[O-])c4F)c4ccc([nH]4)c(-c4cccc(S(=O)(=O)[O-])c4F)c4nc(c(-c5cccc(S(=O)(=O)[O-])c5F)c5ccc2[nH]5)C=C4)C=C3)cc1
REMARK SMILES IDX 20 1 19 2 17 3 18 4 16 6 11 7 12 8 13 9 15 10 14 11 10 12
REMARK SMILES IDX 9 13 1 14 2 15 3 17 4 18 5 19 8 20 6 21 7 22 21 24 22 25
REMARK SMILES IDX 23 26 24 27 25 29 26 30 27 31 88 32 28 33 87 34 29 35 30 36
REMARK SMILES IDX 31 37 81 38 32 39 86 40 80 41 82 42 33 43 85 44 79 45 78 46
REMARK SMILES IDX 34 48 66 49 46 50 65 51 47 52 50 53 64 54 83 55 48 56 49 57
REMARK SMILES IDX 63 59 84 60 51 61 35 62 36 63 44 64 37 65 39 66 45 67 38 68
REMARK SMILES IDX 40 69 41 70 42 71 43 72 67 73 68 74 76 75 69 76 71 77 77 78
REMARK SMILES IDX 70 79 72 80 73 81 74 82 75 83 52 84 53 85 61 86 54 87 56 88
REMARK SMILES IDX 62 89 55 90 57 91 58 92 59 93 60 94
REMARK H PARENT 19 5 9 16 8 23 23 28 82 47 50 58
REMARK Flexibility Score: inf
ROOT
ATOM      1  C   UNL A   1      31.343  30.094  25.374  1.00  0.00     0.117 C 
ENDROOT
BRANCH   1   2
ATOM      2  N   UNL A   1      32.471  29.707  24.549  1.00  0.00    -0.356 N 
ATOM      3  C   UNL A   1      33.036  28.542  24.140  1.00  0.00     0.223 C 
ATOM      4  O   UNL A   1      33.852  28.596  23.208  1.00  0.00    -0.275 OA
ATOM      5  H   UNL A   1      32.952  30.490  24.195  1.00  0.00     0.163 HD
BRANCH   3   6
ATOM      6  C   UNL A   1      32.771  27.192  24.792  1.00  0.00     0.083 C 
ATOM      7  C   UNL A   1      31.796  26.261  24.024  1.00  0.00     0.021 C 
ATOM      8  C   UNL A   1      32.337  24.839  23.738  1.00  0.00     0.006 C 
ATOM      9  C   UNL A   1      33.836  24.632  23.900  1.00  0.00     0.000 C 
ATOM     10  C   UNL A   1      34.061  26.639  25.413  1.00  0.00     0.014 C 
ATOM     11  C   UNL A   1      34.342  25.163  25.224  1.00  0.00     0.001 C 
BRANCH   7  12
ATOM     12  C   UNL A   1      31.050  26.863  22.788  1.00  0.00     0.120 C 
BRANCH  12  13
ATOM     13  N   UNL A   1      29.790  27.562  23.064  1.00  0.00    -0.355 N 
ATOM     14  O   UNL A   1      30.172  29.362  21.684  1.00  0.00    -0.275 OA
ATOM     15  C   UNL A   1      29.451  28.771  22.482  1.00  0.00     0.226 C 
ATOM     16  H   UNL A   1      29.153  27.150  23.694  1.00  0.00     0.163 HD
BRANCH  15  17
ATOM     17  C   UNL A   1      28.138  29.415  22.871  1.00  0.00     0.155 C 
BRANCH  17  18
ATOM     18  C   UNL A   1      27.992  30.673  22.083  1.00  0.00     0.044 A 
ATOM     19  C   UNL A   1      28.218  31.999  22.401  1.00  0.00     0.045 A 
ATOM     20  N   UNL A   1      27.653  30.668  20.761  1.00  0.00    -0.282 N 
ATOM     21  C   UNL A   1      28.022  32.695  21.196  1.00  0.00     0.135 A 
ATOM     22  N   UNL A   1      27.658  31.885  20.200  1.00  0.00    -0.184 NA
ATOM     23  H   UNL A   1      27.427  29.848  20.266  1.00  0.00     0.190 HD
ENDBRANCH  17  18
ENDBRANCH  15  17
ENDBRANCH  12  13
ENDBRANCH   7  12
ENDBRANCH   3   6
ENDBRANCH   1   2
BRANCH   1  24
ATOM     24  C   UNL A   1      31.301  31.442  26.143  1.00  0.00     0.042 C 
BRANCH  24  25
ATOM     25  C   UNL A   1      32.490  32.098  26.895  1.00  0.00     0.118 C 
BRANCH  25  26
ATOM     26  N   UNL A   1      32.306  33.476  27.312  1.00  0.00    -0.352 N 
ATOM     27  C   UNL A   1      33.020  34.239  28.209  1.00  0.00     0.251 C 
ATOM     28  H   UNL A   1      31.550  33.941  26.884  1.00  0.00     0.163 HD
ATOM     29  O   UNL A   1      32.647  35.390  28.441  1.00  0.00    -0.269 OA
BRANCH  27  30
ATOM     30  C   UNL A   1      34.222  33.736  28.926  1.00  0.00     0.039 A 
ATOM     31  C   UNL A   1      34.039  32.836  29.986  1.00  0.00     0.014 A 
ATOM     32  C   UNL A   1      35.504  34.236  28.675  1.00  0.00     0.014 A 
ATOM     33  C   UNL A   1      35.134  32.373  30.732  1.00  0.00     0.010 A 
ATOM     34  C   UNL A   1      36.600  33.781  29.425  1.00  0.00     0.010 A 
ATOM     35  C   UNL A   1      36.433  32.816  30.434  1.00  0.00    -0.014 A 
BRANCH  35  36
ATOM     36  C   UNL A   1      37.617  32.092  30.976  1.00  0.00     0.031 A 
ATOM     37  C   UNL A   1      38.344  31.017  30.218  1.00  0.00     0.074 A 
ATOM     38  C   UNL A   1      37.967  32.375  32.246  1.00  0.00     0.049 A 
ATOM     39  N   UNL A   1      39.395  30.324  30.584  1.00  0.00    -0.248 NA
ATOM     40  C   UNL A   1      37.827  30.664  28.890  1.00  0.00     0.031 C 
ATOM     41  C   UNL A   1      37.277  33.346  33.101  1.00  0.00     0.029 A 
ATOM     42  N   UNL A   1      38.944  31.858  33.058  1.00  0.00    -0.354 N 
ATOM     43  C   UNL A   1      39.662  29.443  29.541  1.00  0.00     0.074 A 
ATOM     44  C   UNL A   1      38.650  29.683  28.531  1.00  0.00     0.031 C 
ATOM     45  C   UNL A   1      37.828  33.330  34.323  1.00  0.00     0.029 A 
ATOM     46  C   UNL A   1      38.902  32.345  34.344  1.00  0.00     0.049 A 
ATOM     47  H   UNL A   1      39.611  31.202  32.751  1.00  0.00     0.167 HD
ATOM     48  C   UNL A   1      40.663  28.530  29.437  1.00  0.00     0.034 A 
ATOM     49  C   UNL A   1      39.635  32.030  35.428  1.00  0.00     0.034 A 
ATOM     50  C   UNL A   1      41.650  28.296  30.466  1.00  0.00     0.049 A 
ATOM     51  C   UNL A   1      40.747  31.032  35.280  1.00  0.00     0.074 A 
ATOM     52  C   UNL A   1      42.759  27.466  30.426  1.00  0.00     0.029 A 
ATOM     53  N   UNL A   1      41.628  28.864  31.732  1.00  0.00    -0.354 N 
ATOM     54  N   UNL A   1      41.111  30.360  34.214  1.00  0.00    -0.248 NA
ATOM     55  C   UNL A   1      41.578  30.783  36.464  1.00  0.00     0.031 C 
ATOM     56  C   UNL A   1      43.379  27.500  31.681  1.00  0.00     0.029 A 
ATOM     57  C   UNL A   1      42.683  28.382  32.491  1.00  0.00     0.049 A 
ATOM     58  H   UNL A   1      40.960  29.516  32.045  1.00  0.00     0.167 HD
ATOM     59  C   UNL A   1      42.227  29.625  34.590  1.00  0.00     0.074 A 
ATOM     60  C   UNL A   1      42.497  29.961  35.975  1.00  0.00     0.031 C 
ATOM     61  C   UNL A   1      42.954  28.742  33.861  1.00  0.00     0.034 A 
BRANCH  48  62
ATOM     62  C   UNL A   1      40.775  27.733  28.156  1.00  0.00     0.023 A 
ATOM     63  C   UNL A   1      41.435  28.298  27.045  1.00  0.00     0.012 A 
ATOM     64  C   UNL A   1      40.316  26.401  28.076  1.00  0.00     0.148 A 
ATOM     65  C   UNL A   1      41.600  27.570  25.865  1.00  0.00     0.002 A 
ATOM     66  C   UNL A   1      40.520  25.668  26.910  1.00  0.00     0.091 A 
ATOM     67  F   UNL A   1      39.690  25.876  29.138  1.00  0.00    -0.205 F 
ATOM     68  C   UNL A   1      41.151  26.254  25.801  1.00  0.00     0.022 A 
BRANCH  66  69
ATOM     69  S   UNL A   1      40.050  23.939  26.745  1.00  0.00     0.127 S 
ATOM     70  O   UNL A   1      38.681  24.051  26.246  1.00  0.00    -0.237 OA
ATOM     71  O   UNL A   1      41.018  23.450  25.763  1.00  0.00    -0.237 OA
ATOM     72  O   UNL A   1      40.182  23.358  28.074  1.00  0.00    -0.744 OA
ENDBRANCH  66  69
ENDBRANCH  48  62
BRANCH  49  73
ATOM     73  C   UNL A   1      39.373  32.721  36.722  1.00  0.00     0.023 A 
ATOM     74  C   UNL A   1      40.040  33.925  37.013  1.00  0.00     0.012 A 
ATOM     75  C   UNL A   1      38.423  32.222  37.637  1.00  0.00     0.148 A 
ATOM     76  C   UNL A   1      39.789  34.607  38.203  1.00  0.00     0.002 A 
ATOM     77  C   UNL A   1      38.137  32.935  38.795  1.00  0.00     0.091 A 
ATOM     78  F   UNL A   1      37.801  31.072  37.343  1.00  0.00    -0.205 F 
ATOM     79  C   UNL A   1      38.831  34.119  39.089  1.00  0.00     0.022 A 
BRANCH  77  80
ATOM     80  S   UNL A   1      36.822  32.458  39.923  1.00  0.00     0.127 S 
ATOM     81  O   UNL A   1      35.656  32.463  39.047  1.00  0.00    -0.237 OA
ATOM     82  O   UNL A   1      37.262  31.134  40.360  1.00  0.00    -0.237 OA
ATOM     83  O   UNL A   1      36.824  33.466  40.980  1.00  0.00    -0.744 OA
ENDBRANCH  77  80
ENDBRANCH  49  73
BRANCH  61  84
ATOM     84  C   UNL A   1      44.119  28.078  34.550  1.00  0.00     0.023 A 
ATOM     85  C   UNL A   1      45.376  28.716  34.569  1.00  0.00     0.012 A 
ATOM     86  C   UNL A   1      43.957  26.850  35.220  1.00  0.00     0.148 A 
ATOM     87  C   UNL A   1      46.463  28.125  35.211  1.00  0.00     0.002 A 
ATOM     88  C   UNL A   1      45.031  26.292  35.904  1.00  0.00     0.091 A 
ATOM     89  F   UNL A   1      42.760  26.250  35.174  1.00  0.00    -0.205 F 
ATOM     90  C   UNL A   1      46.287  26.921  35.888  1.00  0.00     0.022 A 
BRANCH  88  91
ATOM     91  S   UNL A   1      44.882  24.793  36.881  1.00  0.00     0.127 S 
ATOM     92  O   UNL A   1      43.654  25.047  37.631  1.00  0.00    -0.237 OA
ATOM     93  O   UNL A   1      44.765  23.763  35.849  1.00  0.00    -0.237 OA
ATOM     94  O   UNL A   1      46.094  24.712  37.683  1.00  0.00    -0.744 OA
ENDBRANCH  88  91
ENDBRANCH  61  84
ENDBRANCH  35  36
ENDBRANCH  27  30
ENDBRANCH  25  26
ENDBRANCH  24  25
ENDBRANCH   1  24
TORSDOF 17
ENDMDL
