MODEL 1
REMARK VINA RESULT:     -12.4      0.000      0.000
REMARK SMILES C[C@]1(CNC(=O)N2CCC[C@@]2(C)C(=O)NCCCNC(=O)c2ccc(-c3c4nc(c(-c5cccc(S(=O)(=O)[O-])c5F)c5ccc([nH]5)c(-c5cccc(S(=O)(=O)[O-])c5F)c5nc(c(-c6cccc(S(=O)(=O)[O-])c6F)c6ccc3[nH]6)C=C5)C=C4)cc2)CCCO1
REMARK SMILES IDX 17 1 16 2 15 3 13 4 14 5 11 7 7 8 8 9 9 10 10 11 12 12 5 13
REMARK SMILES IDX 4 14 6 16 3 17 2 18 1 19 85 20 88 21 86 22 87 23 18 24 19 25
REMARK SMILES IDX 20 26 21 28 22 29 23 30 84 31 24 32 83 33 25 34 26 35 27 36
REMARK SMILES IDX 77 37 28 38 82 39 76 40 78 41 29 42 81 43 75 44 74 45 30 47
REMARK SMILES IDX 62 48 42 49 61 50 43 51 46 52 60 53 79 54 44 55 45 56 59 58
REMARK SMILES IDX 80 59 47 60 31 61 32 62 40 63 33 64 35 65 41 66 34 67 36 68
REMARK SMILES IDX 37 69 38 70 39 71 63 72 64 73 72 74 65 75 67 76 73 77 66 78
REMARK SMILES IDX 68 79 69 80 70 81 71 82 48 83 49 84 57 85 50 86 52 87 58 88
REMARK SMILES IDX 51 89 53 90 54 91 55 92 56 93
REMARK H PARENT 15 6 4 15 19 27 78 46 46 57
REMARK Flexibility Score: inf
ROOT
ATOM      1  C   UNL A   1      32.792  27.517  25.813  1.00  0.00     0.042 C 
ENDROOT
BRANCH   1   2
ATOM      2  C   UNL A   1      33.784  26.365  25.577  1.00  0.00     0.117 C 
BRANCH   2   3
ATOM      3  N   UNL A   1      34.016  25.910  24.180  1.00  0.00    -0.354 N 
ATOM      4  C   UNL A   1      33.569  24.947  23.306  1.00  0.00     0.245 C 
ATOM      5  O   UNL A   1      33.929  25.109  22.129  1.00  0.00    -0.272 OA
ATOM      6  H   UNL A   1      34.699  26.471  23.747  1.00  0.00     0.163 HD
BRANCH   4   7
ATOM      7  C   UNL A   1      32.548  23.813  23.616  1.00  0.00     0.120 C 
ATOM      8  N   UNL A   1      32.940  23.034  24.771  1.00  0.00    -0.310 N 
ATOM      9  C   UNL A   1      32.049  23.295  25.899  1.00  0.00     0.122 C 
ATOM     10  C   UNL A   1      30.874  24.117  25.400  1.00  0.00     0.025 C 
ATOM     11  C   UNL A   1      31.218  24.527  23.986  1.00  0.00     0.040 C 
ATOM     12  C   UNL A   1      32.168  22.872  22.444  1.00  0.00     0.046 C 
BRANCH   8  13
ATOM     13  C   UNL A   1      33.936  22.110  24.890  1.00  0.00     0.318 C 
ATOM     14  N   UNL A   1      33.769  20.765  24.827  1.00  0.00    -0.335 N 
ATOM     15  H   UNL A   1      34.652  20.329  24.824  1.00  0.00     0.165 HD
ATOM     16  O   UNL A   1      35.111  22.491  24.957  1.00  0.00    -0.249 OA
BRANCH  14  17
ATOM     17  C   UNL A   1      32.713  19.728  24.762  1.00  0.00     0.152 C 
BRANCH  17  18
ATOM     18  C   UNL A   1      33.018  18.284  24.214  1.00  0.00     0.083 C 
ATOM     19  C   UNL A   1      32.548  18.104  22.755  1.00  0.00     0.044 C 
ATOM     20  C   UNL A   1      34.432  17.760  24.387  1.00  0.00     0.039 C 
ATOM     21  O   UNL A   1      32.229  17.327  24.977  1.00  0.00    -0.373 OA
ATOM     22  C   UNL A   1      34.255  16.262  24.315  1.00  0.00     0.031 C 
ATOM     23  C   UNL A   1      32.943  16.074  25.041  1.00  0.00     0.161 C 
ENDBRANCH  17  18
ENDBRANCH  14  17
ENDBRANCH   8  13
ENDBRANCH   4   7
ENDBRANCH   2   3
ENDBRANCH   1   2
BRANCH   1  24
ATOM     24  C   UNL A   1      33.047  28.937  25.297  1.00  0.00     0.118 C 
BRANCH  24  25
ATOM     25  N   UNL A   1      32.373  30.055  25.906  1.00  0.00    -0.352 N 
ATOM     26  C   UNL A   1      32.875  30.984  26.808  1.00  0.00     0.251 C 
ATOM     27  H   UNL A   1      31.430  30.177  25.647  1.00  0.00     0.163 HD
ATOM     28  O   UNL A   1      32.148  31.935  27.103  1.00  0.00    -0.269 OA
BRANCH  26  29
ATOM     29  C   UNL A   1      34.220  30.874  27.480  1.00  0.00     0.039 A 
ATOM     30  C   UNL A   1      34.571  29.630  28.023  1.00  0.00     0.014 A 
ATOM     31  C   UNL A   1      35.126  31.926  27.650  1.00  0.00     0.014 A 
ATOM     32  C   UNL A   1      35.798  29.439  28.684  1.00  0.00     0.010 A 
ATOM     33  C   UNL A   1      36.394  31.711  28.231  1.00  0.00     0.010 A 
ATOM     34  C   UNL A   1      36.742  30.473  28.787  1.00  0.00    -0.014 A 
BRANCH  34  35
ATOM     35  C   UNL A   1      38.044  30.231  29.492  1.00  0.00     0.031 A 
ATOM     36  C   UNL A   1      38.307  30.767  30.883  1.00  0.00     0.074 A 
ATOM     37  C   UNL A   1      39.008  29.493  28.899  1.00  0.00     0.049 A 
ATOM     38  N   UNL A   1      39.271  30.461  31.719  1.00  0.00    -0.248 NA
ATOM     39  C   UNL A   1      37.390  31.796  31.398  1.00  0.00     0.031 C 
ATOM     40  C   UNL A   1      38.967  29.009  27.518  1.00  0.00     0.029 A 
ATOM     41  N   UNL A   1      40.205  29.012  29.381  1.00  0.00    -0.354 N 
ATOM     42  C   UNL A   1      39.078  31.254  32.846  1.00  0.00     0.074 A 
ATOM     43  C   UNL A   1      37.938  32.100  32.565  1.00  0.00     0.031 C 
ATOM     44  C   UNL A   1      40.064  28.273  27.275  1.00  0.00     0.029 A 
ATOM     45  C   UNL A   1      40.890  28.228  28.479  1.00  0.00     0.049 A 
ATOM     46  H   UNL A   1      40.539  29.211  30.284  1.00  0.00     0.167 HD
ATOM     47  C   UNL A   1      39.754  31.258  34.023  1.00  0.00     0.034 A 
ATOM     48  C   UNL A   1      42.035  27.524  28.608  1.00  0.00     0.034 A 
ATOM     49  C   UNL A   1      40.879  30.408  34.313  1.00  0.00     0.049 A 
ATOM     50  C   UNL A   1      42.725  27.476  29.946  1.00  0.00     0.074 A 
ATOM     51  C   UNL A   1      41.569  30.265  35.505  1.00  0.00     0.029 A 
ATOM     52  N   UNL A   1      41.496  29.571  33.397  1.00  0.00    -0.354 N 
ATOM     53  N   UNL A   1      42.395  28.069  31.069  1.00  0.00    -0.248 NA
ATOM     54  C   UNL A   1      43.913  26.615  30.050  1.00  0.00     0.031 C 
ATOM     55  C   UNL A   1      42.625  29.370  35.298  1.00  0.00     0.029 A 
ATOM     56  C   UNL A   1      42.564  28.919  33.991  1.00  0.00     0.049 A 
ATOM     57  H   UNL A   1      41.214  29.456  32.460  1.00  0.00     0.167 HD
ATOM     58  C   UNL A   1      43.310  27.623  32.019  1.00  0.00     0.074 A 
ATOM     59  C   UNL A   1      44.189  26.690  31.345  1.00  0.00     0.031 C 
ATOM     60  C   UNL A   1      43.415  27.964  33.328  1.00  0.00     0.034 A 
BRANCH  47  61
ATOM     61  C   UNL A   1      39.257  32.176  35.118  1.00  0.00     0.023 A 
ATOM     62  C   UNL A   1      38.281  31.710  36.025  1.00  0.00     0.012 A 
ATOM     63  C   UNL A   1      39.794  33.466  35.293  1.00  0.00     0.148 A 
ATOM     64  C   UNL A   1      37.816  32.526  37.057  1.00  0.00     0.002 A 
ATOM     65  C   UNL A   1      39.363  34.257  36.354  1.00  0.00     0.091 A 
ATOM     66  F   UNL A   1      40.712  33.901  34.418  1.00  0.00    -0.205 F 
ATOM     67  C   UNL A   1      38.364  33.794  37.226  1.00  0.00     0.022 A 
BRANCH  65  68
ATOM     68  S   UNL A   1      40.061  35.874  36.711  1.00  0.00     0.127 S 
ATOM     69  O   UNL A   1      39.283  36.279  37.881  1.00  0.00    -0.237 OA
ATOM     70  O   UNL A   1      41.460  35.548  36.994  1.00  0.00    -0.237 OA
ATOM     71  O   UNL A   1      39.853  36.675  35.514  1.00  0.00    -0.744 OA
ENDBRANCH  65  68
ENDBRANCH  47  61
BRANCH  48  72
ATOM     72  C   UNL A   1      42.549  26.721  27.459  1.00  0.00     0.023 A 
ATOM     73  C   UNL A   1      43.406  27.318  26.514  1.00  0.00     0.012 A 
ATOM     74  C   UNL A   1      42.209  25.362  27.314  1.00  0.00     0.148 A 
ATOM     75  C   UNL A   1      43.891  26.586  25.428  1.00  0.00     0.002 A 
ATOM     76  C   UNL A   1      42.741  24.624  26.264  1.00  0.00     0.091 A 
ATOM     77  F   UNL A   1      41.381  24.818  28.216  1.00  0.00    -0.205 F 
ATOM     78  C   UNL A   1      43.566  25.238  25.309  1.00  0.00     0.022 A 
BRANCH  76  79
ATOM     79  S   UNL A   1      42.482  22.853  26.106  1.00  0.00     0.127 S 
ATOM     80  O   UNL A   1      43.195  22.343  27.276  1.00  0.00    -0.237 OA
ATOM     81  O   UNL A   1      41.023  22.757  26.186  1.00  0.00    -0.237 OA
ATOM     82  O   UNL A   1      43.040  22.486  24.816  1.00  0.00    -0.744 OA
ENDBRANCH  76  79
ENDBRANCH  48  72
BRANCH  60  83
ATOM     83  C   UNL A   1      44.498  27.296  34.138  1.00  0.00     0.023 A 
ATOM     84  C   UNL A   1      45.802  27.835  34.161  1.00  0.00     0.012 A 
ATOM     85  C   UNL A   1      44.215  26.150  34.907  1.00  0.00     0.148 A 
ATOM     86  C   UNL A   1      46.815  27.213  34.892  1.00  0.00     0.002 A 
ATOM     87  C   UNL A   1      45.216  25.568  35.677  1.00  0.00     0.091 A 
ATOM     88  F   UNL A   1      42.976  25.638  34.862  1.00  0.00    -0.205 F 
ATOM     89  C   UNL A   1      46.520  26.087  35.655  1.00  0.00     0.022 A 
BRANCH  87  90
ATOM     90  S   UNL A   1      44.899  24.177  36.768  1.00  0.00     0.127 S 
ATOM     91  O   UNL A   1      43.862  24.717  37.646  1.00  0.00    -0.237 OA
ATOM     92  O   UNL A   1      44.433  23.150  35.835  1.00  0.00    -0.237 OA
ATOM     93  O   UNL A   1      46.171  23.874  37.409  1.00  0.00    -0.744 OA
ENDBRANCH  87  90
ENDBRANCH  60  83
ENDBRANCH  34  35
ENDBRANCH  26  29
ENDBRANCH  24  25
ENDBRANCH   1  24
TORSDOF 16
ENDMDL
MODEL 2
REMARK VINA RESULT:     -12.1      2.556      4.474
REMARK SMILES C[C@]1(CNC(=O)N2CCC[C@@]2(C)C(=O)NCCCNC(=O)c2ccc(-c3c4nc(c(-c5cccc(S(=O)(=O)[O-])c5F)c5ccc([nH]5)c(-c5cccc(S(=O)(=O)[O-])c5F)c5nc(c(-c6cccc(S(=O)(=O)[O-])c6F)c6ccc3[nH]6)C=C5)C=C4)cc2)CCCO1
REMARK SMILES IDX 17 1 16 2 15 3 13 4 14 5 11 7 7 8 8 9 9 10 10 11 12 12 5 13
REMARK SMILES IDX 4 14 6 16 3 17 2 18 1 19 85 20 88 21 86 22 87 23 18 24 19 25
REMARK SMILES IDX 20 26 21 28 22 29 23 30 84 31 24 32 83 33 25 34 26 35 27 36
REMARK SMILES IDX 77 37 28 38 82 39 76 40 78 41 29 42 81 43 75 44 74 45 30 47
REMARK SMILES IDX 62 48 42 49 61 50 43 51 46 52 60 53 79 54 44 55 45 56 59 58
REMARK SMILES IDX 80 59 47 60 31 61 32 62 40 63 33 64 35 65 41 66 34 67 36 68
REMARK SMILES IDX 37 69 38 70 39 71 63 72 64 73 72 74 65 75 67 76 73 77 66 78
REMARK SMILES IDX 68 79 69 80 70 81 71 82 48 83 49 84 57 85 50 86 52 87 58 88
REMARK SMILES IDX 51 89 53 90 54 91 55 92 56 93
REMARK H PARENT 15 6 4 15 19 27 78 46 46 57
REMARK Flexibility Score: inf
ROOT
ATOM      1  C   UNL A   1      31.809  29.304  26.609  1.00  0.00     0.042 C 
ENDROOT
BRANCH   1   2
ATOM      2  C   UNL A   1      31.840  27.848  27.105  1.00  0.00     0.117 C 
BRANCH   2   3
ATOM      3  N   UNL A   1      30.752  26.932  26.669  1.00  0.00    -0.354 N 
ATOM      4  C   UNL A   1      30.570  25.832  25.863  1.00  0.00     0.245 C 
ATOM      5  O   UNL A   1      29.469  25.272  25.992  1.00  0.00    -0.272 OA
ATOM      6  H   UNL A   1      29.899  27.192  27.087  1.00  0.00     0.163 HD
BRANCH   4   7
ATOM      7  C   UNL A   1      31.644  25.152  24.965  1.00  0.00     0.120 C 
ATOM      8  N   UNL A   1      32.123  26.040  23.928  1.00  0.00    -0.310 N 
ATOM      9  C   UNL A   1      33.501  26.450  24.192  1.00  0.00     0.122 C 
ATOM     10  C   UNL A   1      34.036  25.613  25.340  1.00  0.00     0.025 C 
ATOM     11  C   UNL A   1      32.852  24.855  25.897  1.00  0.00     0.040 C 
ATOM     12  C   UNL A   1      31.279  23.773  24.357  1.00  0.00     0.046 C 
BRANCH   8  13
ATOM     13  C   UNL A   1      31.497  26.454  22.790  1.00  0.00     0.318 C 
ATOM     14  N   UNL A   1      30.748  27.580  22.672  1.00  0.00    -0.335 N 
ATOM     15  H   UNL A   1      30.506  27.711  21.727  1.00  0.00     0.165 HD
ATOM     16  O   UNL A   1      31.688  25.837  21.734  1.00  0.00    -0.249 OA
BRANCH  14  17
ATOM     17  C   UNL A   1      30.168  28.678  23.480  1.00  0.00     0.152 C 
BRANCH  17  18
ATOM     18  C   UNL A   1      28.923  29.497  22.973  1.00  0.00     0.083 C 
ATOM     19  C   UNL A   1      27.606  28.706  23.126  1.00  0.00     0.044 C 
ATOM     20  C   UNL A   1      28.759  30.910  23.502  1.00  0.00     0.039 C 
ATOM     21  O   UNL A   1      29.064  29.708  21.540  1.00  0.00    -0.373 OA
ATOM     22  C   UNL A   1      27.895  31.572  22.455  1.00  0.00     0.031 C 
ATOM     23  C   UNL A   1      28.429  30.955  21.184  1.00  0.00     0.161 C 
ENDBRANCH  17  18
ENDBRANCH  14  17
ENDBRANCH   8  13
ENDBRANCH   4   7
ENDBRANCH   2   3
ENDBRANCH   1   2
BRANCH   1  24
ATOM     24  C   UNL A   1      32.990  30.261  26.800  1.00  0.00     0.118 C 
BRANCH  24  25
ATOM     25  N   UNL A   1      32.754  31.616  27.231  1.00  0.00    -0.352 N 
ATOM     26  C   UNL A   1      33.642  32.502  27.829  1.00  0.00     0.251 C 
ATOM     27  H   UNL A   1      31.844  31.959  27.082  1.00  0.00     0.163 HD
ATOM     28  O   UNL A   1      33.254  33.660  28.001  1.00  0.00    -0.269 OA
BRANCH  26  29
ATOM     29  C   UNL A   1      35.016  32.126  28.321  1.00  0.00     0.039 A 
ATOM     30  C   UNL A   1      35.128  30.966  29.101  1.00  0.00     0.014 A 
ATOM     31  C   UNL A   1      36.182  32.867  28.105  1.00  0.00     0.014 A 
ATOM     32  C   UNL A   1      36.367  30.547  29.618  1.00  0.00     0.010 A 
ATOM     33  C   UNL A   1      37.439  32.398  28.545  1.00  0.00     0.010 A 
ATOM     34  C   UNL A   1      37.551  31.247  29.336  1.00  0.00    -0.014 A 
BRANCH  34  35
ATOM     35  C   UNL A   1      38.857  30.767  29.898  1.00  0.00     0.031 A 
ATOM     36  C   UNL A   1      39.396  31.288  31.214  1.00  0.00     0.074 A 
ATOM     37  C   UNL A   1      39.570  29.825  29.243  1.00  0.00     0.049 A 
ATOM     38  N   UNL A   1      40.377  30.819  31.948  1.00  0.00    -0.248 NA
ATOM     39  C   UNL A   1      38.777  32.501  31.768  1.00  0.00     0.031 C 
ATOM     40  C   UNL A   1      39.259  29.311  27.908  1.00  0.00     0.029 A 
ATOM     41  N   UNL A   1      40.698  29.126  29.610  1.00  0.00    -0.354 N 
ATOM     42  C   UNL A   1      40.491  31.675  33.040  1.00  0.00     0.074 A 
ATOM     43  C   UNL A   1      39.518  32.727  32.842  1.00  0.00     0.031 C 
ATOM     44  C   UNL A   1      40.146  28.356  27.584  1.00  0.00     0.029 A 
ATOM     45  C   UNL A   1      41.092  28.185  28.684  1.00  0.00     0.049 A 
ATOM     46  H   UNL A   1      41.178  29.284  30.454  1.00  0.00     0.167 HD
ATOM     47  C   UNL A   1      41.298  31.582  34.127  1.00  0.00     0.034 A 
ATOM     48  C   UNL A   1      42.080  27.266  28.721  1.00  0.00     0.034 A 
ATOM     49  C   UNL A   1      42.257  30.529  34.336  1.00  0.00     0.049 A 
ATOM     50  C   UNL A   1      42.911  27.124  29.970  1.00  0.00     0.074 A 
ATOM     51  C   UNL A   1      43.050  30.290  35.445  1.00  0.00     0.029 A 
ATOM     52  N   UNL A   1      42.573  29.550  33.406  1.00  0.00    -0.354 N 
ATOM     53  N   UNL A   1      42.851  27.812  31.085  1.00  0.00    -0.248 NA
ATOM     54  C   UNL A   1      43.905  26.041  29.987  1.00  0.00     0.031 C 
ATOM     55  C   UNL A   1      43.871  29.189  35.171  1.00  0.00     0.029 A 
ATOM     56  C   UNL A   1      43.556  28.714  33.910  1.00  0.00     0.049 A 
ATOM     57  H   UNL A   1      42.158  29.462  32.518  1.00  0.00     0.167 HD
ATOM     58  C   UNL A   1      43.771  27.222  31.947  1.00  0.00     0.074 A 
ATOM     59  C   UNL A   1      44.353  26.104  31.234  1.00  0.00     0.031 C 
ATOM     60  C   UNL A   1      44.107  27.580  33.212  1.00  0.00     0.034 A 
BRANCH  47  61
ATOM     61  C   UNL A   1      41.138  32.621  35.214  1.00  0.00     0.023 A 
ATOM     62  C   UNL A   1      41.975  33.758  35.219  1.00  0.00     0.012 A 
ATOM     63  C   UNL A   1      40.126  32.512  36.189  1.00  0.00     0.148 A 
ATOM     64  C   UNL A   1      41.839  34.743  36.197  1.00  0.00     0.002 A 
ATOM     65  C   UNL A   1      39.964  33.522  37.133  1.00  0.00     0.091 A 
ATOM     66  F   UNL A   1      39.346  31.423  36.182  1.00  0.00    -0.205 F 
ATOM     67  C   UNL A   1      40.828  34.629  37.147  1.00  0.00     0.022 A 
BRANCH  65  68
ATOM     68  S   UNL A   1      38.642  33.515  38.350  1.00  0.00     0.127 S 
ATOM     69  O   UNL A   1      38.976  32.330  39.139  1.00  0.00    -0.237 OA
ATOM     70  O   UNL A   1      38.854  34.786  39.042  1.00  0.00    -0.237 OA
ATOM     71  O   UNL A   1      37.400  33.433  37.595  1.00  0.00    -0.744 OA
ENDBRANCH  65  68
ENDBRANCH  47  61
BRANCH  48  72
ATOM     72  C   UNL A   1      42.274  26.333  27.571  1.00  0.00     0.023 A 
ATOM     73  C   UNL A   1      43.002  26.754  26.441  1.00  0.00     0.012 A 
ATOM     74  C   UNL A   1      41.757  25.023  27.605  1.00  0.00     0.148 A 
ATOM     75  C   UNL A   1      43.186  25.899  25.353  1.00  0.00     0.002 A 
ATOM     76  C   UNL A   1      41.993  24.159  26.543  1.00  0.00     0.091 A 
ATOM     77  F   UNL A   1      41.055  24.648  28.683  1.00  0.00    -0.205 F 
ATOM     78  C   UNL A   1      42.691  24.600  25.408  1.00  0.00     0.022 A 
BRANCH  76  79
ATOM     79  S   UNL A   1      41.505  22.430  26.584  1.00  0.00     0.127 S 
ATOM     80  O   UNL A   1      42.147  21.911  25.377  1.00  0.00    -0.237 OA
ATOM     81  O   UNL A   1      42.108  21.980  27.841  1.00  0.00    -0.237 OA
ATOM     82  O   UNL A   1      40.053  22.429  26.578  1.00  0.00    -0.744 OA
ENDBRANCH  76  79
ENDBRANCH  48  72
BRANCH  60  83
ATOM     83  C   UNL A   1      45.128  26.733  33.929  1.00  0.00     0.023 A 
ATOM     84  C   UNL A   1      46.506  26.984  33.758  1.00  0.00     0.012 A 
ATOM     85  C   UNL A   1      44.720  25.706  34.804  1.00  0.00     0.148 A 
ATOM     86  C   UNL A   1      47.458  26.193  34.402  1.00  0.00     0.002 A 
ATOM     87  C   UNL A   1      45.675  24.958  35.485  1.00  0.00     0.091 A 
ATOM     88  F   UNL A   1      43.409  25.466  34.943  1.00  0.00    -0.205 F 
ATOM     89  C   UNL A   1      47.042  25.188  35.271  1.00  0.00     0.022 A 
BRANCH  87  90
ATOM     90  S   UNL A   1      45.227  23.712  36.699  1.00  0.00     0.127 S 
ATOM     91  O   UNL A   1      44.317  24.457  37.569  1.00  0.00    -0.237 OA
ATOM     92  O   UNL A   1      44.580  22.691  35.873  1.00  0.00    -0.237 OA
ATOM     93  O   UNL A   1      46.476  23.286  37.313  1.00  0.00    -0.744 OA
ENDBRANCH  87  90
ENDBRANCH  60  83
ENDBRANCH  34  35
ENDBRANCH  26  29
ENDBRANCH  24  25
ENDBRANCH   1  24
TORSDOF 16
ENDMDL
MODEL 3
REMARK VINA RESULT:     -11.9      1.672      2.373
REMARK SMILES C[C@]1(CNC(=O)N2CCC[C@@]2(C)C(=O)NCCCNC(=O)c2ccc(-c3c4nc(c(-c5cccc(S(=O)(=O)[O-])c5F)c5ccc([nH]5)c(-c5cccc(S(=O)(=O)[O-])c5F)c5nc(c(-c6cccc(S(=O)(=O)[O-])c6F)c6ccc3[nH]6)C=C5)C=C4)cc2)CCCO1
REMARK SMILES IDX 17 1 16 2 15 3 13 4 14 5 11 7 7 8 8 9 9 10 10 11 12 12 5 13
REMARK SMILES IDX 4 14 6 16 3 17 2 18 1 19 85 20 88 21 86 22 87 23 18 24 19 25
REMARK SMILES IDX 20 26 21 28 22 29 23 30 84 31 24 32 83 33 25 34 26 35 27 36
REMARK SMILES IDX 77 37 28 38 82 39 76 40 78 41 29 42 81 43 75 44 74 45 30 47
REMARK SMILES IDX 62 48 42 49 61 50 43 51 46 52 60 53 79 54 44 55 45 56 59 58
REMARK SMILES IDX 80 59 47 60 31 61 32 62 40 63 33 64 35 65 41 66 34 67 36 68
REMARK SMILES IDX 37 69 38 70 39 71 63 72 64 73 72 74 65 75 67 76 73 77 66 78
REMARK SMILES IDX 68 79 69 80 70 81 71 82 48 83 49 84 57 85 50 86 52 87 58 88
REMARK SMILES IDX 51 89 53 90 54 91 55 92 56 93
REMARK H PARENT 15 6 4 15 19 27 78 46 46 57
REMARK Flexibility Score: inf
ROOT
ATOM      1  C   UNL A   1      33.871  29.295  24.729  1.00  0.00     0.042 C 
ENDROOT
BRANCH   1   2
ATOM      2  C   UNL A   1      33.719  28.235  23.625  1.00  0.00     0.117 C 
BRANCH   2   3
ATOM      3  N   UNL A   1      32.365  28.002  23.053  1.00  0.00    -0.354 N 
ATOM      4  C   UNL A   1      31.349  27.078  23.115  1.00  0.00     0.245 C 
ATOM      5  O   UNL A   1      30.283  27.445  22.594  1.00  0.00    -0.272 OA
ATOM      6  H   UNL A   1      32.121  28.736  22.444  1.00  0.00     0.163 HD
BRANCH   4   7
ATOM      7  C   UNL A   1      31.363  25.734  23.900  1.00  0.00     0.120 C 
ATOM      8  N   UNL A   1      32.660  25.094  23.854  1.00  0.00    -0.310 N 
ATOM      9  C   UNL A   1      33.311  25.147  25.161  1.00  0.00     0.122 C 
ATOM     10  C   UNL A   1      32.300  25.647  26.178  1.00  0.00     0.025 C 
ATOM     11  C   UNL A   1      31.097  26.106  25.385  1.00  0.00     0.040 C 
ATOM     12  C   UNL A   1      30.252  24.708  23.554  1.00  0.00     0.046 C 
BRANCH   8  13
ATOM     13  C   UNL A   1      33.265  24.445  22.818  1.00  0.00     0.318 C 
ATOM     14  N   UNL A   1      33.233  23.105  22.607  1.00  0.00    -0.335 N 
ATOM     15  H   UNL A   1      33.645  22.905  21.736  1.00  0.00     0.165 HD
ATOM     16  O   UNL A   1      33.807  25.105  21.924  1.00  0.00    -0.249 OA
BRANCH  14  17
ATOM     17  C   UNL A   1      32.792  21.840  23.240  1.00  0.00     0.152 C 
BRANCH  17  18
ATOM     18  C   UNL A   1      33.532  21.254  24.499  1.00  0.00     0.083 C 
ATOM     19  C   UNL A   1      33.473  19.712  24.543  1.00  0.00     0.044 C 
ATOM     20  C   UNL A   1      34.946  21.740  24.762  1.00  0.00     0.039 C 
ATOM     21  O   UNL A   1      32.821  21.685  25.693  1.00  0.00    -0.373 OA
ATOM     22  C   UNL A   1      35.132  21.480  26.237  1.00  0.00     0.031 C 
ATOM     23  C   UNL A   1      33.762  21.813  26.781  1.00  0.00     0.161 C 
ENDBRANCH  17  18
ENDBRANCH  14  17
ENDBRANCH   8  13
ENDBRANCH   4   7
ENDBRANCH   2   3
ENDBRANCH   1   2
BRANCH   1  24
ATOM     24  C   UNL A   1      32.862  29.438  25.873  1.00  0.00     0.118 C 
BRANCH  24  25
ATOM     25  N   UNL A   1      32.568  30.741  26.414  1.00  0.00    -0.352 N 
ATOM     26  C   UNL A   1      33.357  31.538  27.234  1.00  0.00     0.251 C 
ATOM     27  H   UNL A   1      31.691  31.116  26.169  1.00  0.00     0.163 HD
ATOM     28  O   UNL A   1      32.950  32.677  27.475  1.00  0.00    -0.269 OA
BRANCH  26  29
ATOM     29  C   UNL A   1      34.640  31.082  27.881  1.00  0.00     0.039 A 
ATOM     30  C   UNL A   1      35.683  32.015  27.971  1.00  0.00     0.014 A 
ATOM     31  C   UNL A   1      34.892  29.791  28.353  1.00  0.00     0.014 A 
ATOM     32  C   UNL A   1      36.923  31.674  28.543  1.00  0.00     0.010 A 
ATOM     33  C   UNL A   1      36.102  29.476  29.009  1.00  0.00     0.010 A 
ATOM     34  C   UNL A   1      37.151  30.400  29.089  1.00  0.00    -0.014 A 
BRANCH  34  35
ATOM     35  C   UNL A   1      38.483  30.074  29.698  1.00  0.00     0.031 A 
ATOM     36  C   UNL A   1      38.890  30.608  31.055  1.00  0.00     0.074 A 
ATOM     37  C   UNL A   1      39.343  29.262  29.046  1.00  0.00     0.049 A 
ATOM     38  N   UNL A   1      39.892  30.244  31.820  1.00  0.00    -0.248 NA
ATOM     39  C   UNL A   1      38.091  31.706  31.619  1.00  0.00     0.031 C 
ATOM     40  C   UNL A   1      39.163  28.765  27.681  1.00  0.00     0.029 A 
ATOM     41  N   UNL A   1      40.538  28.703  29.443  1.00  0.00    -0.354 N 
ATOM     42  C   UNL A   1      39.842  31.063  32.944  1.00  0.00     0.074 A 
ATOM     43  C   UNL A   1      38.747  31.985  32.735  1.00  0.00     0.031 C 
ATOM     44  C   UNL A   1      40.182  27.949  27.369  1.00  0.00     0.029 A 
ATOM     45  C   UNL A   1      41.094  27.860  28.507  1.00  0.00     0.049 A 
ATOM     46  H   UNL A   1      40.954  28.888  30.315  1.00  0.00     0.167 HD
ATOM     47  C   UNL A   1      40.606  31.034  34.065  1.00  0.00     0.034 A 
ATOM     48  C   UNL A   1      42.193  27.078  28.561  1.00  0.00     0.034 A 
ATOM     49  C   UNL A   1      41.687  30.109  34.285  1.00  0.00     0.049 A 
ATOM     50  C   UNL A   1      42.979  26.997  29.843  1.00  0.00     0.074 A 
ATOM     51  C   UNL A   1      42.456  29.932  35.423  1.00  0.00     0.029 A 
ATOM     52  N   UNL A   1      42.171  29.218  33.339  1.00  0.00    -0.354 N 
ATOM     53  N   UNL A   1      42.780  27.626  30.976  1.00  0.00    -0.248 NA
ATOM     54  C   UNL A   1      44.108  26.054  29.872  1.00  0.00     0.031 C 
ATOM     55  C   UNL A   1      43.427  28.960  35.152  1.00  0.00     0.029 A 
ATOM     56  C   UNL A   1      43.234  28.499  33.861  1.00  0.00     0.049 A 
ATOM     57  H   UNL A   1      41.811  29.112  32.429  1.00  0.00     0.167 HD
ATOM     58  C   UNL A   1      43.731  27.128  31.862  1.00  0.00     0.074 A 
ATOM     59  C   UNL A   1      44.488  26.126  31.141  1.00  0.00     0.031 C 
ATOM     60  C   UNL A   1      43.961  27.477  33.153  1.00  0.00     0.034 A 
BRANCH  47  61
ATOM     61  C   UNL A   1      40.261  31.998  35.178  1.00  0.00     0.023 A 
ATOM     62  C   UNL A   1      40.986  33.203  35.304  1.00  0.00     0.012 A 
ATOM     63  C   UNL A   1      39.187  31.751  36.056  1.00  0.00     0.148 A 
ATOM     64  C   UNL A   1      40.679  34.121  36.308  1.00  0.00     0.002 A 
ATOM     65  C   UNL A   1      38.855  32.693  37.025  1.00  0.00     0.091 A 
ATOM     66  F   UNL A   1      38.515  30.598  35.935  1.00  0.00    -0.205 F 
ATOM     67  C   UNL A   1      39.609  33.870  37.161  1.00  0.00     0.022 A 
BRANCH  65  68
ATOM     68  S   UNL A   1      37.444  32.507  38.121  1.00  0.00     0.127 S 
ATOM     69  O   UNL A   1      36.374  33.113  37.330  1.00  0.00    -0.237 OA
ATOM     70  O   UNL A   1      37.350  31.052  38.257  1.00  0.00    -0.237 OA
ATOM     71  O   UNL A   1      37.791  33.211  39.346  1.00  0.00    -0.744 OA
ENDBRANCH  65  68
ENDBRANCH  47  61
BRANCH  48  72
ATOM     72  C   UNL A   1      42.559  26.226  27.391  1.00  0.00     0.023 A 
ATOM     73  C   UNL A   1      43.348  26.760  26.353  1.00  0.00     0.012 A 
ATOM     74  C   UNL A   1      42.147  24.881  27.316  1.00  0.00     0.148 A 
ATOM     75  C   UNL A   1      43.693  25.981  25.247  1.00  0.00     0.002 A 
ATOM     76  C   UNL A   1      42.543  24.095  26.240  1.00  0.00     0.091 A 
ATOM     77  F   UNL A   1      41.386  24.397  28.306  1.00  0.00    -0.205 F 
ATOM     78  C   UNL A   1      43.299  24.647  25.196  1.00  0.00     0.022 A 
BRANCH  76  79
ATOM     79  S   UNL A   1      42.192  22.335  26.155  1.00  0.00     0.127 S 
ATOM     80  O   UNL A   1      42.872  21.955  24.918  1.00  0.00    -0.237 OA
ATOM     81  O   UNL A   1      42.828  21.845  27.381  1.00  0.00    -0.237 OA
ATOM     82  O   UNL A   1      40.744  22.221  26.141  1.00  0.00    -0.744 OA
ENDBRANCH  76  79
ENDBRANCH  48  72
BRANCH  60  83
ATOM     83  C   UNL A   1      45.054  26.743  33.890  1.00  0.00     0.023 A 
ATOM     84  C   UNL A   1      46.385  27.207  33.833  1.00  0.00     0.012 A 
ATOM     85  C   UNL A   1      44.755  25.609  34.671  1.00  0.00     0.148 A 
ATOM     86  C   UNL A   1      47.405  26.525  34.495  1.00  0.00     0.002 A 
ATOM     87  C   UNL A   1      45.769  24.966  35.374  1.00  0.00     0.091 A 
ATOM     88  F   UNL A   1      43.490  25.168  34.702  1.00  0.00    -0.205 F 
ATOM     89  C   UNL A   1      47.096  25.411  35.272  1.00  0.00     0.022 A 
BRANCH  87  90
ATOM     90  S   UNL A   1      45.443  23.587  36.477  1.00  0.00     0.127 S 
ATOM     91  O   UNL A   1      46.796  23.133  36.795  1.00  0.00    -0.237 OA
ATOM     92  O   UNL A   1      44.742  24.235  37.587  1.00  0.00    -0.237 OA
ATOM     93  O   UNL A   1      44.628  22.651  35.716  1.00  0.00    -0.744 OA
ENDBRANCH  87  90
ENDBRANCH  60  83
ENDBRANCH  34  35
ENDBRANCH  26  29
ENDBRANCH  24  25
ENDBRANCH   1  24
TORSDOF 16
ENDMDL
