MODEL 1
REMARK VINA RESULT:     -12.3      0.000      0.000
REMARK SMILES N#C/C(=C/c1cc2c(cc1Br)OCO2)C(=O)NCCCNC(=O)c1ccc(-c2c3nc(c(-c4cccc(S(=O)(=O)[O-])c4F)c4ccc([nH]4)c(-c4cccc(S(=O)(=O)[O-])c4F)c4nc(c(-c5cccc(S(=O)(=O)[O-])c5F)c5ccc2[nH]5)C=C4)C=C3)cc1
REMARK SMILES IDX 20 1 19 2 18 3 17 4 15 5 16 6 3 8 4 9 2 10 1 11 5 12 6 13
REMARK SMILES IDX 10 14 7 15 9 16 11 17 8 18 14 19 12 20 13 21 21 22 22 23
REMARK SMILES IDX 23 25 24 26 25 27 86 28 26 29 85 30 27 31 28 32 29 33 79 34
REMARK SMILES IDX 30 35 84 36 78 37 80 38 31 39 83 40 77 41 76 42 32 44 64 45
REMARK SMILES IDX 44 46 63 47 45 48 48 49 62 50 81 51 46 52 47 53 61 55 82 56
REMARK SMILES IDX 49 57 33 58 34 59 42 60 35 61 37 62 43 63 36 64 38 65 39 66
REMARK SMILES IDX 40 67 41 68 65 69 66 70 74 71 67 72 69 73 75 74 68 75 70 76
REMARK SMILES IDX 71 77 72 78 73 79 50 80 51 81 59 82 52 83 54 84 60 85 53 86
REMARK SMILES IDX 55 87 56 88 57 89 58 90
REMARK H PARENT 17 7 21 24 80 43 48 54
REMARK Flexibility Score: inf
ROOT
ATOM      1  C   UNL A   1      37.396  21.319  24.716  1.00  0.00     0.118 C 
ENDROOT
BRANCH   1   2
ATOM      2  C   UNL A   1      35.950  21.040  25.101  1.00  0.00     0.042 C 
BRANCH   2   3
ATOM      3  C   UNL A   1      35.169  22.282  25.474  1.00  0.00     0.118 C 
BRANCH   3   4
ATOM      4  N   UNL A   1      34.604  22.316  26.799  1.00  0.00    -0.351 N 
ATOM      5  C   UNL A   1      33.299  22.286  27.187  1.00  0.00     0.261 C 
ATOM      6  O   UNL A   1      33.077  22.260  28.399  1.00  0.00    -0.268 OA
ATOM      7  H   UNL A   1      35.258  22.367  27.533  1.00  0.00     0.163 HD
BRANCH   5   8
ATOM      8  C   UNL A   1      32.145  22.343  26.235  1.00  0.00     0.117 C 
ATOM      9  C   UNL A   1      31.717  21.501  25.261  1.00  0.00     0.034 C 
BRANCH   8  10
ATOM     10  C   UNL A   1      31.131  23.428  26.559  1.00  0.00     0.105 C 
ATOM     11  N   UNL A   1      30.290  24.328  26.827  1.00  0.00    -0.192 NA
ENDBRANCH   8  10
BRANCH   9  12
ATOM     12  C   UNL A   1      32.280  20.249  24.734  1.00  0.00    -0.006 A 
ATOM     13  C   UNL A   1      32.662  19.289  25.691  1.00  0.00     0.060 A 
ATOM     14  C   UNL A   1      32.369  19.931  23.356  1.00  0.00     0.029 A 
ATOM     15  C   UNL A   1      32.945  18.014  25.251  1.00  0.00     0.166 A 
ATOM     16  C   UNL A   1      32.718  18.637  22.939  1.00  0.00     0.067 A 
ATOM     17  Br  UNL A   1      31.957  21.206  22.010  1.00  0.00    -0.050 Br
ATOM     18  C   UNL A   1      32.955  17.693  23.916  1.00  0.00     0.166 A 
ATOM     19  O   UNL A   1      33.136  16.930  26.048  1.00  0.00    -0.454 OA
ATOM     20  O   UNL A   1      33.164  16.365  23.712  1.00  0.00    -0.454 OA
ATOM     21  C   UNL A   1      33.096  15.871  25.068  1.00  0.00     0.468 C 
ENDBRANCH   9  12
ENDBRANCH   5   8
ENDBRANCH   3   4
ENDBRANCH   2   3
ENDBRANCH   1   2
BRANCH   1  22
ATOM     22  N   UNL A   1      38.378  20.431  25.338  1.00  0.00    -0.352 N 
ATOM     23  C   UNL A   1      39.461  20.648  26.160  1.00  0.00     0.251 C 
ATOM     24  H   UNL A   1      38.234  19.481  25.126  1.00  0.00     0.163 HD
ATOM     25  O   UNL A   1      40.150  19.683  26.495  1.00  0.00    -0.269 OA
BRANCH  23  26
ATOM     26  C   UNL A   1      39.853  22.005  26.604  1.00  0.00     0.039 A 
ATOM     27  C   UNL A   1      40.877  22.152  27.549  1.00  0.00     0.014 A 
ATOM     28  C   UNL A   1      39.225  23.143  26.116  1.00  0.00     0.014 A 
ATOM     29  C   UNL A   1      41.335  23.430  27.901  1.00  0.00     0.010 A 
ATOM     30  C   UNL A   1      39.775  24.397  26.343  1.00  0.00     0.010 A 
ATOM     31  C   UNL A   1      40.830  24.565  27.250  1.00  0.00    -0.014 A 
BRANCH  31  32
ATOM     32  C   UNL A   1      41.345  25.941  27.489  1.00  0.00     0.031 A 
ATOM     33  C   UNL A   1      42.750  26.298  27.065  1.00  0.00     0.074 A 
ATOM     34  C   UNL A   1      40.623  26.818  28.219  1.00  0.00     0.049 A 
ATOM     35  N   UNL A   1      43.470  27.344  27.378  1.00  0.00    -0.248 NA
ATOM     36  C   UNL A   1      43.464  25.314  26.230  1.00  0.00     0.031 C 
ATOM     37  C   UNL A   1      39.289  26.572  28.771  1.00  0.00     0.029 A 
ATOM     38  N   UNL A   1      40.932  28.082  28.658  1.00  0.00    -0.354 N 
ATOM     39  C   UNL A   1      44.735  27.105  26.851  1.00  0.00     0.074 A 
ATOM     40  C   UNL A   1      44.696  25.799  26.233  1.00  0.00     0.031 C 
ATOM     41  C   UNL A   1      38.892  27.650  29.465  1.00  0.00     0.029 A 
ATOM     42  C   UNL A   1      39.955  28.648  29.445  1.00  0.00     0.049 A 
ATOM     43  H   UNL A   1      41.774  28.540  28.430  1.00  0.00     0.167 HD
ATOM     44  C   UNL A   1      45.822  27.912  26.844  1.00  0.00     0.034 A 
ATOM     45  C   UNL A   1      39.924  29.832  30.088  1.00  0.00     0.034 A 
ATOM     46  C   UNL A   1      45.823  29.255  27.357  1.00  0.00     0.049 A 
ATOM     47  C   UNL A   1      41.104  30.758  29.970  1.00  0.00     0.074 A 
ATOM     48  C   UNL A   1      46.826  30.203  27.286  1.00  0.00     0.029 A 
ATOM     49  N   UNL A   1      44.757  29.845  28.019  1.00  0.00    -0.354 N 
ATOM     50  N   UNL A   1      42.239  30.571  29.342  1.00  0.00    -0.248 NA
ATOM     51  C   UNL A   1      40.986  32.072  30.619  1.00  0.00     0.031 C 
ATOM     52  C   UNL A   1      46.369  31.370  27.907  1.00  0.00     0.029 A 
ATOM     53  C   UNL A   1      45.075  31.149  28.355  1.00  0.00     0.049 A 
ATOM     54  H   UNL A   1      43.902  29.402  28.219  1.00  0.00     0.167 HD
ATOM     55  C   UNL A   1      42.954  31.754  29.487  1.00  0.00     0.074 A 
ATOM     56  C   UNL A   1      42.116  32.659  30.247  1.00  0.00     0.031 C 
ATOM     57  C   UNL A   1      44.201  32.058  29.049  1.00  0.00     0.034 A 
BRANCH  44  58
ATOM     58  C   UNL A   1      47.076  27.395  26.188  1.00  0.00     0.023 A 
ATOM     59  C   UNL A   1      47.299  27.649  24.818  1.00  0.00     0.012 A 
ATOM     60  C   UNL A   1      48.053  26.701  26.927  1.00  0.00     0.148 A 
ATOM     61  C   UNL A   1      48.449  27.182  24.184  1.00  0.00     0.002 A 
ATOM     62  C   UNL A   1      49.221  26.278  26.299  1.00  0.00     0.091 A 
ATOM     63  F   UNL A   1      47.818  26.449  28.223  1.00  0.00    -0.205 F 
ATOM     64  C   UNL A   1      49.414  26.506  24.926  1.00  0.00     0.022 A 
BRANCH  62  65
ATOM     65  S   UNL A   1      50.560  25.473  27.185  1.00  0.00     0.127 S 
ATOM     66  O   UNL A   1      49.899  24.269  27.688  1.00  0.00    -0.237 OA
ATOM     67  O   UNL A   1      51.534  25.233  26.120  1.00  0.00    -0.237 OA
ATOM     68  O   UNL A   1      50.994  26.421  28.201  1.00  0.00    -0.744 OA
ENDBRANCH  62  65
ENDBRANCH  44  58
BRANCH  45  69
ATOM     69  C   UNL A   1      38.697  30.245  30.828  1.00  0.00     0.023 A 
ATOM     70  C   UNL A   1      38.578  29.910  32.192  1.00  0.00     0.012 A 
ATOM     71  C   UNL A   1      37.673  30.991  30.214  1.00  0.00     0.148 A 
ATOM     72  C   UNL A   1      37.449  30.281  32.922  1.00  0.00     0.002 A 
ATOM     73  C   UNL A   1      36.575  31.404  30.962  1.00  0.00     0.091 A 
ATOM     74  F   UNL A   1      37.798  31.292  28.914  1.00  0.00    -0.205 F 
ATOM     75  C   UNL A   1      36.453  31.035  32.311  1.00  0.00     0.022 A 
BRANCH  73  76
ATOM     76  S   UNL A   1      35.312  32.494  30.293  1.00  0.00     0.127 S 
ATOM     77  O   UNL A   1      36.085  33.691  29.979  1.00  0.00    -0.237 OA
ATOM     78  O   UNL A   1      34.843  31.739  29.130  1.00  0.00    -0.237 OA
ATOM     79  O   UNL A   1      34.321  32.635  31.352  1.00  0.00    -0.744 OA
ENDBRANCH  73  76
ENDBRANCH  45  69
BRANCH  57  80
ATOM     80  C   UNL A   1      44.727  33.438  29.337  1.00  0.00     0.023 A 
ATOM     81  C   UNL A   1      45.411  33.687  30.542  1.00  0.00     0.012 A 
ATOM     82  C   UNL A   1      44.622  34.461  28.375  1.00  0.00     0.148 A 
ATOM     83  C   UNL A   1      45.961  34.942  30.797  1.00  0.00     0.002 A 
ATOM     84  C   UNL A   1      45.211  35.696  28.616  1.00  0.00     0.091 A 
ATOM     85  F   UNL A   1      43.948  34.209  27.243  1.00  0.00    -0.205 F 
ATOM     86  C   UNL A   1      45.872  35.941  29.830  1.00  0.00     0.022 A 
BRANCH  84  87
ATOM     87  S   UNL A   1      45.230  37.006  27.386  1.00  0.00     0.127 S 
ATOM     88  O   UNL A   1      46.005  36.391  26.310  1.00  0.00    -0.237 OA
ATOM     89  O   UNL A   1      43.807  37.177  27.091  1.00  0.00    -0.237 OA
ATOM     90  O   UNL A   1      45.853  38.151  28.034  1.00  0.00    -0.744 OA
ENDBRANCH  84  87
ENDBRANCH  57  80
ENDBRANCH  31  32
ENDBRANCH  23  26
ENDBRANCH   1  22
TORSDOF 15
ENDMDL
MODEL 2
REMARK VINA RESULT:     -12.1      5.714     10.800
REMARK SMILES N#C/C(=C/c1cc2c(cc1Br)OCO2)C(=O)NCCCNC(=O)c1ccc(-c2c3nc(c(-c4cccc(S(=O)(=O)[O-])c4F)c4ccc([nH]4)c(-c4cccc(S(=O)(=O)[O-])c4F)c4nc(c(-c5cccc(S(=O)(=O)[O-])c5F)c5ccc2[nH]5)C=C4)C=C3)cc1
REMARK SMILES IDX 20 1 19 2 18 3 17 4 15 5 16 6 3 8 4 9 2 10 1 11 5 12 6 13
REMARK SMILES IDX 10 14 7 15 9 16 11 17 8 18 14 19 12 20 13 21 21 22 22 23
REMARK SMILES IDX 23 25 24 26 25 27 86 28 26 29 85 30 27 31 28 32 29 33 79 34
REMARK SMILES IDX 30 35 84 36 78 37 80 38 31 39 83 40 77 41 76 42 32 44 64 45
REMARK SMILES IDX 44 46 63 47 45 48 48 49 62 50 81 51 46 52 47 53 61 55 82 56
REMARK SMILES IDX 49 57 33 58 34 59 42 60 35 61 37 62 43 63 36 64 38 65 39 66
REMARK SMILES IDX 40 67 41 68 65 69 66 70 74 71 67 72 69 73 75 74 68 75 70 76
REMARK SMILES IDX 71 77 72 78 73 79 50 80 51 81 59 82 52 83 54 84 60 85 53 86
REMARK SMILES IDX 55 87 56 88 57 89 58 90
REMARK H PARENT 17 7 21 24 80 43 48 54
REMARK Flexibility Score: inf
ROOT
ATOM      1  C   UNL A   1      32.310  30.114  26.008  1.00  0.00     0.118 C 
ENDROOT
BRANCH   1   2
ATOM      2  C   UNL A   1      31.587  29.107  26.891  1.00  0.00     0.042 C 
BRANCH   2   3
ATOM      3  C   UNL A   1      32.080  27.685  26.724  1.00  0.00     0.118 C 
BRANCH   3   4
ATOM      4  N   UNL A   1      31.100  26.640  26.875  1.00  0.00    -0.351 N 
ATOM      5  C   UNL A   1      30.907  25.518  26.129  1.00  0.00     0.261 C 
ATOM      6  O   UNL A   1      30.030  24.739  26.509  1.00  0.00    -0.268 OA
ATOM      7  H   UNL A   1      30.477  26.754  27.629  1.00  0.00     0.163 HD
BRANCH   5   8
ATOM      8  C   UNL A   1      31.651  25.219  24.865  1.00  0.00     0.117 C 
ATOM      9  C   UNL A   1      31.751  25.877  23.683  1.00  0.00     0.034 C 
BRANCH   8  10
ATOM     10  C   UNL A   1      32.661  24.091  24.995  1.00  0.00     0.105 C 
ATOM     11  N   UNL A   1      33.500  23.155  25.102  1.00  0.00    -0.192 NA
ENDBRANCH   8  10
BRANCH   9  12
ATOM     12  C   UNL A   1      31.100  27.098  23.185  1.00  0.00    -0.006 A 
ATOM     13  C   UNL A   1      29.692  27.091  23.177  1.00  0.00     0.060 A 
ATOM     14  C   UNL A   1      31.791  28.277  22.812  1.00  0.00     0.029 A 
ATOM     15  C   UNL A   1      29.040  28.288  22.972  1.00  0.00     0.166 A 
ATOM     16  C   UNL A   1      31.094  29.466  22.552  1.00  0.00     0.067 A 
ATOM     17  Br  UNL A   1      33.688  28.332  22.714  1.00  0.00    -0.050 Br
ATOM     18  C   UNL A   1      29.722  29.445  22.686  1.00  0.00     0.166 A 
ATOM     19  O   UNL A   1      27.706  28.495  23.126  1.00  0.00    -0.454 OA
ATOM     20  O   UNL A   1      28.893  30.521  22.616  1.00  0.00    -0.454 OA
ATOM     21  C   UNL A   1      27.653  29.936  23.073  1.00  0.00     0.468 C 
ENDBRANCH   9  12
ENDBRANCH   5   8
ENDBRANCH   3   4
ENDBRANCH   2   3
ENDBRANCH   1   2
BRANCH   1  22
ATOM     22  N   UNL A   1      32.316  31.485  26.519  1.00  0.00    -0.352 N 
ATOM     23  C   UNL A   1      33.189  32.193  27.314  1.00  0.00     0.251 C 
ATOM     24  H   UNL A   1      31.534  32.010  26.235  1.00  0.00     0.163 HD
ATOM     25  O   UNL A   1      32.898  33.349  27.626  1.00  0.00    -0.269 OA
BRANCH  23  26
ATOM     26  C   UNL A   1      34.433  31.591  27.848  1.00  0.00     0.039 A 
ATOM     27  C   UNL A   1      35.558  32.401  28.054  1.00  0.00     0.014 A 
ATOM     28  C   UNL A   1      34.520  30.237  28.144  1.00  0.00     0.014 A 
ATOM     29  C   UNL A   1      36.707  31.873  28.658  1.00  0.00     0.010 A 
ATOM     30  C   UNL A   1      35.593  29.751  28.879  1.00  0.00     0.010 A 
ATOM     31  C   UNL A   1      36.711  30.555  29.137  1.00  0.00    -0.014 A 
BRANCH  31  32
ATOM     32  C   UNL A   1      37.851  29.961  29.887  1.00  0.00     0.031 A 
ATOM     33  C   UNL A   1      38.122  30.401  31.307  1.00  0.00     0.074 A 
ATOM     34  C   UNL A   1      38.731  29.155  29.257  1.00  0.00     0.049 A 
ATOM     35  N   UNL A   1      39.177  30.194  32.052  1.00  0.00    -0.248 NA
ATOM     36  C   UNL A   1      37.097  31.243  31.950  1.00  0.00     0.031 C 
ATOM     37  C   UNL A   1      38.642  28.723  27.861  1.00  0.00     0.029 A 
ATOM     38  N   UNL A   1      39.900  28.587  29.702  1.00  0.00    -0.354 N 
ATOM     39  C   UNL A   1      38.978  30.941  33.208  1.00  0.00     0.074 A 
ATOM     40  C   UNL A   1      37.721  31.637  33.050  1.00  0.00     0.031 C 
ATOM     41  C   UNL A   1      39.702  27.954  27.567  1.00  0.00     0.029 A 
ATOM     42  C   UNL A   1      40.569  27.870  28.737  1.00  0.00     0.049 A 
ATOM     43  H   UNL A   1      40.228  28.685  30.626  1.00  0.00     0.167 HD
ATOM     44  C   UNL A   1      39.747  31.013  34.320  1.00  0.00     0.034 A 
ATOM     45  C   UNL A   1      41.753  27.227  28.784  1.00  0.00     0.034 A 
ATOM     46  C   UNL A   1      40.936  30.230  34.520  1.00  0.00     0.049 A 
ATOM     47  C   UNL A   1      42.534  27.231  30.070  1.00  0.00     0.074 A 
ATOM     48  C   UNL A   1      41.718  30.129  35.655  1.00  0.00     0.029 A 
ATOM     49  N   UNL A   1      41.500  29.398  33.566  1.00  0.00    -0.354 N 
ATOM     50  N   UNL A   1      42.254  27.828  31.203  1.00  0.00    -0.248 NA
ATOM     51  C   UNL A   1      43.777  26.445  30.096  1.00  0.00     0.031 C 
ATOM     52  C   UNL A   1      42.760  29.234  35.389  1.00  0.00     0.029 A 
ATOM     53  C   UNL A   1      42.618  28.771  34.089  1.00  0.00     0.049 A 
ATOM     54  H   UNL A   1      41.157  29.272  32.653  1.00  0.00     0.167 HD
ATOM     55  C   UNL A   1      43.262  27.460  32.087  1.00  0.00     0.074 A 
ATOM     56  C   UNL A   1      44.150  26.573  31.363  1.00  0.00     0.031 C 
ATOM     57  C   UNL A   1      43.449  27.838  33.375  1.00  0.00     0.034 A 
BRANCH  44  58
ATOM     58  C   UNL A   1      39.281  31.908  35.440  1.00  0.00     0.023 A 
ATOM     59  C   UNL A   1      39.565  33.288  35.389  1.00  0.00     0.012 A 
ATOM     60  C   UNL A   1      38.527  31.398  36.515  1.00  0.00     0.148 A 
ATOM     61  C   UNL A   1      39.148  34.140  36.411  1.00  0.00     0.002 A 
ATOM     62  C   UNL A   1      38.074  32.262  37.508  1.00  0.00     0.091 A 
ATOM     63  F   UNL A   1      38.283  30.081  36.560  1.00  0.00    -0.205 F 
ATOM     64  C   UNL A   1      38.395  33.629  37.464  1.00  0.00     0.022 A 
BRANCH  62  65
ATOM     65  S   UNL A   1      37.027  31.716  38.862  1.00  0.00     0.127 S 
ATOM     66  O   UNL A   1      37.923  31.866  40.007  1.00  0.00    -0.237 OA
ATOM     67  O   UNL A   1      35.931  32.685  38.814  1.00  0.00    -0.237 OA
ATOM     68  O   UNL A   1      36.640  30.349  38.542  1.00  0.00    -0.744 OA
ENDBRANCH  62  65
ENDBRANCH  44  58
BRANCH  45  69
ATOM     69  C   UNL A   1      42.228  26.453  27.602  1.00  0.00     0.023 A 
ATOM     70  C   UNL A   1      43.001  27.110  26.622  1.00  0.00     0.012 A 
ATOM     71  C   UNL A   1      41.958  25.079  27.454  1.00  0.00     0.148 A 
ATOM     72  C   UNL A   1      43.468  26.421  25.504  1.00  0.00     0.002 A 
ATOM     73  C   UNL A   1      42.473  24.387  26.363  1.00  0.00     0.091 A 
ATOM     74  F   UNL A   1      41.213  24.474  28.390  1.00  0.00    -0.205 F 
ATOM     75  C   UNL A   1      43.213  25.059  25.378  1.00  0.00     0.022 A 
BRANCH  73  76
ATOM     76  S   UNL A   1      42.310  22.605  26.192  1.00  0.00     0.127 S 
ATOM     77  O   UNL A   1      42.956  22.127  27.410  1.00  0.00    -0.237 OA
ATOM     78  O   UNL A   1      40.857  22.434  26.155  1.00  0.00    -0.237 OA
ATOM     79  O   UNL A   1      42.982  22.272  24.943  1.00  0.00    -0.744 OA
ENDBRANCH  73  76
ENDBRANCH  45  69
BRANCH  57  80
ATOM     80  C   UNL A   1      44.632  27.265  34.109  1.00  0.00     0.023 A 
ATOM     81  C   UNL A   1      45.872  27.930  34.059  1.00  0.00     0.012 A 
ATOM     82  C   UNL A   1      44.488  26.121  34.918  1.00  0.00     0.148 A 
ATOM     83  C   UNL A   1      46.961  27.448  34.784  1.00  0.00     0.002 A 
ATOM     84  C   UNL A   1      45.565  25.673  35.673  1.00  0.00     0.091 A 
ATOM     85  F   UNL A   1      43.304  25.492  34.934  1.00  0.00    -0.205 F 
ATOM     86  C   UNL A   1      46.804  26.330  35.600  1.00  0.00     0.022 A 
BRANCH  84  87
ATOM     87  S   UNL A   1      45.424  24.301  36.824  1.00  0.00     0.127 S 
ATOM     88  O   UNL A   1      44.404  24.793  37.749  1.00  0.00    -0.237 OA
ATOM     89  O   UNL A   1      44.984  23.209  35.955  1.00  0.00    -0.237 OA
ATOM     90  O   UNL A   1      46.752  24.120  37.393  1.00  0.00    -0.744 OA
ENDBRANCH  84  87
ENDBRANCH  57  80
ENDBRANCH  31  32
ENDBRANCH  23  26
ENDBRANCH   1  22
TORSDOF 15
ENDMDL
MODEL 3
REMARK VINA RESULT:     -12.0      5.363      7.626
REMARK SMILES N#C/C(=C/c1cc2c(cc1Br)OCO2)C(=O)NCCCNC(=O)c1ccc(-c2c3nc(c(-c4cccc(S(=O)(=O)[O-])c4F)c4ccc([nH]4)c(-c4cccc(S(=O)(=O)[O-])c4F)c4nc(c(-c5cccc(S(=O)(=O)[O-])c5F)c5ccc2[nH]5)C=C4)C=C3)cc1
REMARK SMILES IDX 20 1 19 2 18 3 17 4 15 5 16 6 3 8 4 9 2 10 1 11 5 12 6 13
REMARK SMILES IDX 10 14 7 15 9 16 11 17 8 18 14 19 12 20 13 21 21 22 22 23
REMARK SMILES IDX 23 25 24 26 25 27 86 28 26 29 85 30 27 31 28 32 29 33 79 34
REMARK SMILES IDX 30 35 84 36 78 37 80 38 31 39 83 40 77 41 76 42 32 44 64 45
REMARK SMILES IDX 44 46 63 47 45 48 48 49 62 50 81 51 46 52 47 53 61 55 82 56
REMARK SMILES IDX 49 57 33 58 34 59 42 60 35 61 37 62 43 63 36 64 38 65 39 66
REMARK SMILES IDX 40 67 41 68 65 69 66 70 74 71 67 72 69 73 75 74 68 75 70 76
REMARK SMILES IDX 71 77 72 78 73 79 50 80 51 81 59 82 52 83 54 84 60 85 53 86
REMARK SMILES IDX 55 87 56 88 57 89 58 90
REMARK H PARENT 17 7 21 24 80 43 48 54
REMARK Flexibility Score: inf
ROOT
ATOM      1  C   UNL A   1      32.551  29.550  25.742  1.00  0.00     0.118 C 
ENDROOT
BRANCH   1   2
ATOM      2  C   UNL A   1      31.779  28.409  26.391  1.00  0.00     0.042 C 
BRANCH   2   3
ATOM      3  C   UNL A   1      32.438  27.056  26.226  1.00  0.00     0.118 C 
BRANCH   3   4
ATOM      4  N   UNL A   1      31.825  25.952  26.919  1.00  0.00    -0.351 N 
ATOM      5  C   UNL A   1      31.335  24.782  26.424  1.00  0.00     0.261 C 
ATOM      6  O   UNL A   1      30.915  23.962  27.243  1.00  0.00    -0.268 OA
ATOM      7  H   UNL A   1      31.751  26.058  27.895  1.00  0.00     0.163 HD
BRANCH   5   8
ATOM      8  C   UNL A   1      31.227  24.475  24.963  1.00  0.00     0.117 C 
ATOM      9  C   UNL A   1      31.696  23.454  24.203  1.00  0.00     0.034 C 
BRANCH   8  10
ATOM     10  C   UNL A   1      30.219  25.340  24.224  1.00  0.00     0.105 C 
ATOM     11  N   UNL A   1      29.382  26.058  23.610  1.00  0.00    -0.192 NA
ENDBRANCH   8  10
BRANCH   9  12
ATOM     12  C   UNL A   1      32.553  22.305  24.531  1.00  0.00    -0.006 A 
ATOM     13  C   UNL A   1      31.889  21.091  24.792  1.00  0.00     0.060 A 
ATOM     14  C   UNL A   1      33.969  22.332  24.509  1.00  0.00     0.029 A 
ATOM     15  C   UNL A   1      32.644  19.939  24.843  1.00  0.00     0.166 A 
ATOM     16  C   UNL A   1      34.711  21.147  24.623  1.00  0.00     0.067 A 
ATOM     17  Br  UNL A   1      34.932  23.950  24.253  1.00  0.00    -0.050 Br
ATOM     18  C   UNL A   1      34.014  19.965  24.744  1.00  0.00     0.166 A 
ATOM     19  O   UNL A   1      32.149  18.674  24.888  1.00  0.00    -0.454 OA
ATOM     20  O   UNL A   1      34.547  18.714  24.725  1.00  0.00    -0.454 OA
ATOM     21  C   UNL A   1      33.348  17.911  24.635  1.00  0.00     0.468 C 
ENDBRANCH   9  12
ENDBRANCH   5   8
ENDBRANCH   3   4
ENDBRANCH   2   3
ENDBRANCH   1   2
BRANCH   1  22
ATOM     22  N   UNL A   1      32.255  30.876  26.282  1.00  0.00    -0.352 N 
ATOM     23  C   UNL A   1      32.941  31.733  27.113  1.00  0.00     0.251 C 
ATOM     24  H   UNL A   1      31.385  31.231  25.990  1.00  0.00     0.163 HD
ATOM     25  O   UNL A   1      32.404  32.792  27.443  1.00  0.00    -0.269 OA
BRANCH  23  26
ATOM     26  C   UNL A   1      34.274  31.396  27.665  1.00  0.00     0.039 A 
ATOM     27  C   UNL A   1      35.267  32.383  27.721  1.00  0.00     0.014 A 
ATOM     28  C   UNL A   1      34.573  30.119  28.123  1.00  0.00     0.014 A 
ATOM     29  C   UNL A   1      36.497  32.113  28.337  1.00  0.00     0.010 A 
ATOM     30  C   UNL A   1      35.723  29.896  28.867  1.00  0.00     0.010 A 
ATOM     31  C   UNL A   1      36.712  30.883  28.975  1.00  0.00    -0.014 A 
BRANCH  31  32
ATOM     32  C   UNL A   1      37.946  30.566  29.745  1.00  0.00     0.031 A 
ATOM     33  C   UNL A   1      38.968  29.618  29.161  1.00  0.00     0.074 A 
ATOM     34  C   UNL A   1      38.080  30.992  31.018  1.00  0.00     0.049 A 
ATOM     35  N   UNL A   1      39.982  29.032  29.743  1.00  0.00    -0.248 NA
ATOM     36  C   UNL A   1      38.787  29.230  27.750  1.00  0.00     0.031 C 
ATOM     37  C   UNL A   1      37.124  31.836  31.738  1.00  0.00     0.029 A 
ATOM     38  N   UNL A   1      39.058  30.738  31.947  1.00  0.00    -0.354 N 
ATOM     39  C   UNL A   1      40.502  28.151  28.801  1.00  0.00     0.074 A 
ATOM     40  C   UNL A   1      39.670  28.251  27.623  1.00  0.00     0.031 C 
ATOM     41  C   UNL A   1      37.566  32.036  32.990  1.00  0.00     0.029 A 
ATOM     42  C   UNL A   1      38.813  31.304  33.178  1.00  0.00     0.049 A 
ATOM     43  H   UNL A   1      39.861  30.201  31.751  1.00  0.00     0.167 HD
ATOM     44  C   UNL A   1      41.597  27.359  28.887  1.00  0.00     0.034 A 
ATOM     45  C   UNL A   1      39.507  31.232  34.331  1.00  0.00     0.034 A 
ATOM     46  C   UNL A   1      42.488  27.348  30.016  1.00  0.00     0.049 A 
ATOM     47  C   UNL A   1      40.781  30.433  34.366  1.00  0.00     0.074 A 
ATOM     48  C   UNL A   1      43.691  26.682  30.156  1.00  0.00     0.029 A 
ATOM     49  N   UNL A   1      42.279  28.054  31.190  1.00  0.00    -0.354 N 
ATOM     50  N   UNL A   1      41.335  29.721  33.415  1.00  0.00    -0.248 NA
ATOM     51  C   UNL A   1      41.546  30.455  35.622  1.00  0.00     0.031 C 
ATOM     52  C   UNL A   1      44.212  26.985  31.418  1.00  0.00     0.029 A 
ATOM     53  C   UNL A   1      43.336  27.849  32.058  1.00  0.00     0.049 A 
ATOM     54  H   UNL A   1      41.495  28.619  31.378  1.00  0.00     0.167 HD
ATOM     55  C   UNL A   1      42.529  29.242  33.943  1.00  0.00     0.074 A 
ATOM     56  C   UNL A   1      42.627  29.761  35.292  1.00  0.00     0.031 C 
ATOM     57  C   UNL A   1      43.450  28.429  33.370  1.00  0.00     0.034 A 
BRANCH  44  58
ATOM     58  C   UNL A   1      41.939  26.500  27.697  1.00  0.00     0.023 A 
ATOM     59  C   UNL A   1      42.584  27.079  26.585  1.00  0.00     0.012 A 
ATOM     60  C   UNL A   1      41.665  25.118  27.692  1.00  0.00     0.148 A 
ATOM     61  C   UNL A   1      42.910  26.310  25.469  1.00  0.00     0.002 A 
ATOM     62  C   UNL A   1      42.036  24.347  26.595  1.00  0.00     0.091 A 
ATOM     63  F   UNL A   1      41.033  24.586  28.748  1.00  0.00    -0.205 F 
ATOM     64  C   UNL A   1      42.646  24.943  25.478  1.00  0.00     0.022 A 
BRANCH  62  65
ATOM     65  S   UNL A   1      41.814  22.565  26.544  1.00  0.00     0.127 S 
ATOM     66  O   UNL A   1      42.558  22.141  27.730  1.00  0.00    -0.237 OA
ATOM     67  O   UNL A   1      40.361  22.432  26.657  1.00  0.00    -0.237 OA
ATOM     68  O   UNL A   1      42.366  22.130  25.269  1.00  0.00    -0.744 OA
ENDBRANCH  62  65
ENDBRANCH  44  58
BRANCH  45  69
ATOM     69  C   UNL A   1      39.057  32.008  35.521  1.00  0.00     0.023 A 
ATOM     70  C   UNL A   1      39.296  33.397  35.561  1.00  0.00     0.012 A 
ATOM     71  C   UNL A   1      38.367  31.401  36.589  1.00  0.00     0.148 A 
ATOM     72  C   UNL A   1      38.887  34.160  36.654  1.00  0.00     0.002 A 
ATOM     73  C   UNL A   1      37.915  32.177  37.650  1.00  0.00     0.091 A 
ATOM     74  F   UNL A   1      38.157  30.078  36.538  1.00  0.00    -0.205 F 
ATOM     75  C   UNL A   1      38.188  33.554  37.694  1.00  0.00     0.022 A 
BRANCH  73  76
ATOM     76  S   UNL A   1      36.889  31.505  38.963  1.00  0.00     0.127 S 
ATOM     77  O   UNL A   1      36.668  30.138  38.502  1.00  0.00    -0.237 OA
ATOM     78  O   UNL A   1      37.765  31.630  40.129  1.00  0.00    -0.237 OA
ATOM     79  O   UNL A   1      35.708  32.359  39.010  1.00  0.00    -0.744 OA
ENDBRANCH  73  76
ENDBRANCH  45  69
BRANCH  57  80
ATOM     80  C   UNL A   1      44.672  28.080  34.176  1.00  0.00     0.023 A 
ATOM     81  C   UNL A   1      45.797  28.925  34.140  1.00  0.00     0.012 A 
ATOM     82  C   UNL A   1      44.668  26.965  35.037  1.00  0.00     0.148 A 
ATOM     83  C   UNL A   1      46.913  28.651  34.930  1.00  0.00     0.002 A 
ATOM     84  C   UNL A   1      45.766  26.723  35.855  1.00  0.00     0.091 A 
ATOM     85  F   UNL A   1      43.595  26.161  35.040  1.00  0.00    -0.205 F 
ATOM     86  C   UNL A   1      46.892  27.559  35.796  1.00  0.00     0.022 A 
BRANCH  84  87
ATOM     87  S   UNL A   1      45.784  25.398  37.068  1.00  0.00     0.127 S 
ATOM     88  O   UNL A   1      44.608  25.719  37.876  1.00  0.00    -0.237 OA
ATOM     89  O   UNL A   1      45.642  24.207  36.231  1.00  0.00    -0.237 OA
ATOM     90  O   UNL A   1      47.064  25.503  37.754  1.00  0.00    -0.744 OA
ENDBRANCH  84  87
ENDBRANCH  57  80
ENDBRANCH  31  32
ENDBRANCH  23  26
ENDBRANCH   1  22
TORSDOF 15
ENDMDL
