MODEL 1
REMARK VINA RESULT:     -10.6      0.000      0.000
REMARK SMILES CC[C@@H](C)[C@@H]([NH3+])C(=O)N1CCC(CC(=O)NCCCNC(=O)c2ccc(-c3c4nc(c(-c5cccc(S(=O)(=O)[O-])c5F)c5ccc([nH]5)c(-c5cccc(S(=O)(=O)[O-])c5F)c5nc(c(-c6cccc(S(=O)(=O)[O-])c6F)c6ccc3[nH]6)C=C5)C=C4)cc2)CC1
REMARK SMILES IDX 17 1 16 2 14 3 15 4 13 6 12 7 7 8 8 9 9 10 10 11 87 12 11 13
REMARK SMILES IDX 86 14 5 15 3 16 4 17 2 18 1 19 6 20 18 24 19 25 20 26 21 27
REMARK SMILES IDX 22 29 23 30 24 31 85 32 25 33 84 34 26 35 27 36 28 37 78 38
REMARK SMILES IDX 29 39 83 40 77 41 79 42 30 43 82 44 76 45 75 46 31 48 63 49
REMARK SMILES IDX 43 50 62 51 44 52 47 53 61 54 80 55 45 56 46 57 60 59 81 60
REMARK SMILES IDX 48 61 32 62 33 63 41 64 34 65 36 66 42 67 35 68 37 69 38 70
REMARK SMILES IDX 39 71 40 72 64 73 65 74 73 75 66 76 68 77 74 78 67 79 69 80
REMARK SMILES IDX 70 81 71 82 72 83 49 84 50 85 58 86 51 87 53 88 59 89 52 90
REMARK SMILES IDX 54 91 55 92 56 93 57 94
REMARK H PARENT 16 5 6 21 6 22 6 23 20 28 79 47 47 58
REMARK Flexibility Score: inf
ROOT
ATOM      1  C   UNL A   1      31.743  28.869  24.893  1.00  0.00     0.117 C 
ENDROOT
BRANCH   1   2
ATOM      2  N   UNL A   1      31.208  27.868  25.810  1.00  0.00    -0.356 N 
ATOM      3  C   UNL A   1      30.567  26.686  25.580  1.00  0.00     0.220 C 
ATOM      4  O   UNL A   1      30.267  25.988  26.550  1.00  0.00    -0.275 OA
ATOM      5  H   UNL A   1      31.331  28.083  26.762  1.00  0.00     0.163 HD
BRANCH   3   6
ATOM      6  C   UNL A   1      30.220  26.241  24.171  1.00  0.00     0.103 C 
BRANCH   6   7
ATOM      7  C   UNL A   1      31.205  25.206  23.596  1.00  0.00     0.002 C 
ATOM      8  C   UNL A   1      34.064  23.063  25.420  1.00  0.00     0.281 C 
ATOM      9  O   UNL A   1      34.403  23.954  26.206  1.00  0.00    -0.268 OA
ATOM     10  N   UNL A   1      33.360  23.362  24.260  1.00  0.00    -0.338 N 
ATOM     11  C   UNL A   1      33.694  24.579  23.555  1.00  0.00     0.120 C 
ATOM     12  C   UNL A   1      32.056  22.817  23.919  1.00  0.00     0.120 C 
ATOM     13  C   UNL A   1      32.653  25.650  23.820  1.00  0.00     0.026 C 
ATOM     14  C   UNL A   1      30.953  23.832  24.236  1.00  0.00     0.026 C 
BRANCH   8  15
ATOM     15  C   UNL A   1      34.622  21.612  25.594  1.00  0.00     0.273 C 
BRANCH  15  16
ATOM     16  C   UNL A   1      35.721  21.193  24.592  1.00  0.00     0.054 C 
ATOM     17  C   UNL A   1      36.339  19.852  25.019  1.00  0.00     0.014 C 
BRANCH  16  18
ATOM     18  C   UNL A   1      36.827  22.257  24.404  1.00  0.00     0.006 C 
ATOM     19  C   UNL A   1      36.829  22.831  22.990  1.00  0.00     0.004 C 
ENDBRANCH  16  18
ENDBRANCH  15  16
BRANCH  15  20
ATOM     20  N   UNL A   1      35.084  21.481  26.992  1.00  0.00    -0.347 N 
ATOM     21  H   UNL A   1      34.515  20.784  27.474  1.00  0.00     0.345 HD
ATOM     22  H   UNL A   1      34.996  22.379  27.466  1.00  0.00     0.345 HD
ATOM     23  H   UNL A   1      36.061  21.186  27.001  1.00  0.00     0.345 HD
ENDBRANCH  15  20
ENDBRANCH   8  15
ENDBRANCH   6   7
ENDBRANCH   3   6
ENDBRANCH   1   2
BRANCH   1  24
ATOM     24  C   UNL A   1      33.272  28.912  24.857  1.00  0.00     0.042 C 
BRANCH  24  25
ATOM     25  C   UNL A   1      33.934  29.107  26.213  1.00  0.00     0.118 C 
BRANCH  25  26
ATOM     26  N   UNL A   1      33.807  30.477  26.671  1.00  0.00    -0.352 N 
ATOM     27  C   UNL A   1      34.478  31.124  27.682  1.00  0.00     0.251 C 
ATOM     28  H   UNL A   1      33.146  31.024  26.187  1.00  0.00     0.163 HD
ATOM     29  O   UNL A   1      34.026  32.185  28.109  1.00  0.00    -0.269 OA
BRANCH  27  30
ATOM     30  C   UNL A   1      35.727  30.566  28.261  1.00  0.00     0.039 A 
ATOM     31  C   UNL A   1      36.941  30.816  27.612  1.00  0.00     0.014 A 
ATOM     32  C   UNL A   1      35.710  29.739  29.388  1.00  0.00     0.014 A 
ATOM     33  C   UNL A   1      38.128  30.262  28.103  1.00  0.00     0.010 A 
ATOM     34  C   UNL A   1      36.904  29.257  29.926  1.00  0.00     0.010 A 
ATOM     35  C   UNL A   1      38.125  29.488  29.274  1.00  0.00    -0.014 A 
BRANCH  35  36
ATOM     36  C   UNL A   1      39.375  28.884  29.811  1.00  0.00     0.031 A 
ATOM     37  C   UNL A   1      40.028  29.455  31.045  1.00  0.00     0.074 A 
ATOM     38  C   UNL A   1      39.968  27.867  29.153  1.00  0.00     0.049 A 
ATOM     39  N   UNL A   1      41.141  29.098  31.632  1.00  0.00    -0.248 NA
ATOM     40  C   UNL A   1      39.355  30.595  31.690  1.00  0.00     0.031 C 
ATOM     41  C   UNL A   1      39.483  27.270  27.907  1.00  0.00     0.029 A 
ATOM     42  N   UNL A   1      41.121  27.173  29.427  1.00  0.00    -0.354 N 
ATOM     43  C   UNL A   1      41.324  29.990  32.684  1.00  0.00     0.074 A 
ATOM     44  C   UNL A   1      40.223  30.927  32.634  1.00  0.00     0.031 C 
ATOM     45  C   UNL A   1      40.328  26.297  27.529  1.00  0.00     0.029 A 
ATOM     46  C   UNL A   1      41.428  26.218  28.485  1.00  0.00     0.049 A 
ATOM     47  H   UNL A   1      41.676  27.343  30.222  1.00  0.00     0.167 HD
ATOM     48  C   UNL A   1      42.297  30.010  33.627  1.00  0.00     0.034 A 
ATOM     49  C   UNL A   1      42.476  25.376  28.399  1.00  0.00     0.034 A 
ATOM     50  C   UNL A   1      43.359  29.045  33.710  1.00  0.00     0.049 A 
ATOM     51  C   UNL A   1      43.517  25.384  29.486  1.00  0.00     0.074 A 
ATOM     52  C   UNL A   1      44.337  28.923  34.682  1.00  0.00     0.029 A 
ATOM     53  N   UNL A   1      43.584  28.035  32.788  1.00  0.00    -0.354 N 
ATOM     54  N   UNL A   1      43.583  26.133  30.561  1.00  0.00    -0.248 NA
ATOM     55  C   UNL A   1      44.610  24.407  29.370  1.00  0.00     0.031 C 
ATOM     56  C   UNL A   1      45.164  27.849  34.336  1.00  0.00     0.029 A 
ATOM     57  C   UNL A   1      44.689  27.290  33.162  1.00  0.00     0.049 A 
ATOM     58  H   UNL A   1      43.038  27.871  31.986  1.00  0.00     0.167 HD
ATOM     59  C   UNL A   1      44.699  25.696  31.264  1.00  0.00     0.074 A 
ATOM     60  C   UNL A   1      45.269  24.602  30.505  1.00  0.00     0.031 C 
ATOM     61  C   UNL A   1      45.215  26.168  32.426  1.00  0.00     0.034 A 
BRANCH  48  62
ATOM     62  C   UNL A   1      42.223  31.084  34.684  1.00  0.00     0.023 A 
ATOM     63  C   UNL A   1      41.530  30.827  35.885  1.00  0.00     0.012 A 
ATOM     64  C   UNL A   1      42.879  32.319  34.517  1.00  0.00     0.148 A 
ATOM     65  C   UNL A   1      41.457  31.795  36.885  1.00  0.00     0.002 A 
ATOM     66  C   UNL A   1      42.839  33.263  35.537  1.00  0.00     0.091 A 
ATOM     67  F   UNL A   1      43.517  32.554  33.361  1.00  0.00    -0.205 F 
ATOM     68  C   UNL A   1      42.119  33.008  36.716  1.00  0.00     0.022 A 
BRANCH  66  69
ATOM     69  S   UNL A   1      43.724  34.824  35.448  1.00  0.00     0.127 S 
ATOM     70  O   UNL A   1      45.023  34.396  34.930  1.00  0.00    -0.237 OA
ATOM     71  O   UNL A   1      42.912  35.587  34.500  1.00  0.00    -0.237 OA
ATOM     72  O   UNL A   1      43.733  35.357  36.803  1.00  0.00    -0.744 OA
ENDBRANCH  66  69
ENDBRANCH  48  62
BRANCH  49  73
ATOM     73  C   UNL A   1      42.549  24.397  27.276  1.00  0.00     0.023 A 
ATOM     74  C   UNL A   1      43.285  24.726  26.121  1.00  0.00     0.012 A 
ATOM     75  C   UNL A   1      41.935  23.132  27.360  1.00  0.00     0.148 A 
ATOM     76  C   UNL A   1      43.385  23.827  25.059  1.00  0.00     0.002 A 
ATOM     77  C   UNL A   1      42.085  22.219  26.322  1.00  0.00     0.091 A 
ATOM     78  F   UNL A   1      41.229  22.841  28.461  1.00  0.00    -0.205 F 
ATOM     79  C   UNL A   1      42.795  22.570  25.164  1.00  0.00     0.022 A 
BRANCH  77  80
ATOM     80  S   UNL A   1      41.476  20.532  26.426  1.00  0.00     0.127 S 
ATOM     81  O   UNL A   1      40.049  20.713  26.174  1.00  0.00    -0.237 OA
ATOM     82  O   UNL A   1      42.214  19.874  25.348  1.00  0.00    -0.237 OA
ATOM     83  O   UNL A   1      41.831  20.068  27.761  1.00  0.00    -0.744 OA
ENDBRANCH  77  80
ENDBRANCH  49  73
BRANCH  61  84
ATOM     84  C   UNL A   1      46.444  25.491  32.974  1.00  0.00     0.023 A 
ATOM     85  C   UNL A   1      47.720  25.999  32.661  1.00  0.00     0.012 A 
ATOM     86  C   UNL A   1      46.332  24.401  33.859  1.00  0.00     0.148 A 
ATOM     87  C   UNL A   1      48.868  25.415  33.198  1.00  0.00     0.002 A 
ATOM     88  C   UNL A   1      47.477  23.854  34.427  1.00  0.00     0.091 A 
ATOM     89  F   UNL A   1      45.110  23.918  34.129  1.00  0.00    -0.205 F 
ATOM     90  C   UNL A   1      48.746  24.352  34.089  1.00  0.00     0.022 A 
BRANCH  88  91
ATOM     91  S   UNL A   1      47.409  22.544  35.657  1.00  0.00     0.127 S 
ATOM     92  O   UNL A   1      46.628  23.173  36.720  1.00  0.00    -0.237 OA
ATOM     93  O   UNL A   1      46.712  21.477  34.937  1.00  0.00    -0.237 OA
ATOM     94  O   UNL A   1      48.793  22.239  35.992  1.00  0.00    -0.744 OA
ENDBRANCH  88  91
ENDBRANCH  61  84
ENDBRANCH  35  36
ENDBRANCH  27  30
ENDBRANCH  25  26
ENDBRANCH  24  25
ENDBRANCH   1  24
TORSDOF 18
ENDMDL
MODEL 2
REMARK VINA RESULT:     -10.6      1.610      2.094
REMARK SMILES CC[C@@H](C)[C@@H]([NH3+])C(=O)N1CCC(CC(=O)NCCCNC(=O)c2ccc(-c3c4nc(c(-c5cccc(S(=O)(=O)[O-])c5F)c5ccc([nH]5)c(-c5cccc(S(=O)(=O)[O-])c5F)c5nc(c(-c6cccc(S(=O)(=O)[O-])c6F)c6ccc3[nH]6)C=C5)C=C4)cc2)CC1
REMARK SMILES IDX 17 1 16 2 14 3 15 4 13 6 12 7 7 8 8 9 9 10 10 11 87 12 11 13
REMARK SMILES IDX 86 14 5 15 3 16 4 17 2 18 1 19 6 20 18 24 19 25 20 26 21 27
REMARK SMILES IDX 22 29 23 30 24 31 85 32 25 33 84 34 26 35 27 36 28 37 78 38
REMARK SMILES IDX 29 39 83 40 77 41 79 42 30 43 82 44 76 45 75 46 31 48 63 49
REMARK SMILES IDX 43 50 62 51 44 52 47 53 61 54 80 55 45 56 46 57 60 59 81 60
REMARK SMILES IDX 48 61 32 62 33 63 41 64 34 65 36 66 42 67 35 68 37 69 38 70
REMARK SMILES IDX 39 71 40 72 64 73 65 74 73 75 66 76 68 77 74 78 67 79 69 80
REMARK SMILES IDX 70 81 71 82 72 83 49 84 50 85 58 86 51 87 53 88 59 89 52 90
REMARK SMILES IDX 54 91 55 92 56 93 57 94
REMARK H PARENT 16 5 6 21 6 22 6 23 20 28 79 47 47 58
REMARK Flexibility Score: inf
ROOT
ATOM      1  C   UNL A   1      32.771  28.717  23.994  1.00  0.00     0.117 C 
ENDROOT
BRANCH   1   2
ATOM      2  N   UNL A   1      31.570  28.049  24.481  1.00  0.00    -0.356 N 
ATOM      3  C   UNL A   1      31.070  26.803  24.239  1.00  0.00     0.220 C 
ATOM      4  O   UNL A   1      30.048  26.459  24.836  1.00  0.00    -0.275 OA
ATOM      5  H   UNL A   1      31.022  28.593  25.092  1.00  0.00     0.163 HD
BRANCH   3   6
ATOM      6  C   UNL A   1      31.742  25.864  23.255  1.00  0.00     0.103 C 
BRANCH   6   7
ATOM      7  C   UNL A   1      32.825  24.976  23.898  1.00  0.00     0.002 C 
ATOM      8  C   UNL A   1      32.628  21.184  25.192  1.00  0.00     0.281 C 
ATOM      9  O   UNL A   1      31.472  21.261  25.624  1.00  0.00    -0.268 OA
ATOM     10  N   UNL A   1      33.386  22.326  24.969  1.00  0.00    -0.338 N 
ATOM     11  C   UNL A   1      33.251  23.426  25.898  1.00  0.00     0.120 C 
ATOM     12  C   UNL A   1      33.967  22.699  23.689  1.00  0.00     0.120 C 
ATOM     13  C   UNL A   1      32.399  24.528  25.298  1.00  0.00     0.026 C 
ATOM     14  C   UNL A   1      33.106  23.761  22.999  1.00  0.00     0.026 C 
BRANCH   8  15
ATOM     15  C   UNL A   1      33.340  19.794  25.108  1.00  0.00     0.273 C 
BRANCH  15  16
ATOM     16  C   UNL A   1      33.237  19.071  23.747  1.00  0.00     0.054 C 
ATOM     17  C   UNL A   1      32.165  19.742  22.873  1.00  0.00     0.014 C 
BRANCH  16  18
ATOM     18  C   UNL A   1      32.959  17.556  23.869  1.00  0.00     0.006 C 
ATOM     19  C   UNL A   1      34.070  16.719  23.239  1.00  0.00     0.004 C 
ENDBRANCH  16  18
ENDBRANCH  15  16
BRANCH  15  20
ATOM     20  N   UNL A   1      34.749  19.994  25.510  1.00  0.00    -0.347 N 
ATOM     21  H   UNL A   1      35.083  20.887  25.146  1.00  0.00     0.345 HD
ATOM     22  H   UNL A   1      35.321  19.239  25.135  1.00  0.00     0.345 HD
ATOM     23  H   UNL A   1      34.813  19.997  26.528  1.00  0.00     0.345 HD
ENDBRANCH  15  20
ENDBRANCH   8  15
ENDBRANCH   6   7
ENDBRANCH   3   6
ENDBRANCH   1   2
BRANCH   1  24
ATOM     24  C   UNL A   1      34.027  28.387  24.805  1.00  0.00     0.042 C 
BRANCH  24  25
ATOM     25  C   UNL A   1      33.874  28.558  26.309  1.00  0.00     0.118 C 
BRANCH  25  26
ATOM     26  N   UNL A   1      33.727  29.956  26.669  1.00  0.00    -0.352 N 
ATOM     27  C   UNL A   1      34.447  30.703  27.572  1.00  0.00     0.251 C 
ATOM     28  H   UNL A   1      33.010  30.439  26.199  1.00  0.00     0.163 HD
ATOM     29  O   UNL A   1      33.987  31.778  27.950  1.00  0.00    -0.269 OA
BRANCH  27  30
ATOM     30  C   UNL A   1      35.758  30.236  28.091  1.00  0.00     0.039 A 
ATOM     31  C   UNL A   1      36.889  30.360  27.277  1.00  0.00     0.014 A 
ATOM     32  C   UNL A   1      35.875  29.609  29.335  1.00  0.00     0.014 A 
ATOM     33  C   UNL A   1      38.128  29.882  27.716  1.00  0.00     0.010 A 
ATOM     34  C   UNL A   1      37.126  29.209  29.807  1.00  0.00     0.010 A 
ATOM     35  C   UNL A   1      38.263  29.314  28.993  1.00  0.00    -0.014 A 
BRANCH  35  36
ATOM     36  C   UNL A   1      39.571  28.795  29.478  1.00  0.00     0.031 A 
ATOM     37  C   UNL A   1      40.302  29.496  30.596  1.00  0.00     0.074 A 
ATOM     38  C   UNL A   1      40.142  27.734  28.871  1.00  0.00     0.049 A 
ATOM     39  N   UNL A   1      41.469  29.223  31.120  1.00  0.00    -0.248 NA
ATOM     40  C   UNL A   1      39.647  30.676  31.186  1.00  0.00     0.031 C 
ATOM     41  C   UNL A   1      39.578  27.010  27.730  1.00  0.00     0.029 A 
ATOM     42  N   UNL A   1      41.334  27.097  29.112  1.00  0.00    -0.354 N 
ATOM     43  C   UNL A   1      41.707  30.215  32.066  1.00  0.00     0.074 A 
ATOM     44  C   UNL A   1      40.576  31.117  32.020  1.00  0.00     0.031 C 
ATOM     45  C   UNL A   1      40.420  26.026  27.376  1.00  0.00     0.029 A 
ATOM     46  C   UNL A   1      41.595  26.064  28.241  1.00  0.00     0.049 A 
ATOM     47  H   UNL A   1      41.945  27.355  29.839  1.00  0.00     0.167 HD
ATOM     48  C   UNL A   1      42.751  30.348  32.919  1.00  0.00     0.034 A 
ATOM     49  C   UNL A   1      42.659  25.243  28.147  1.00  0.00     0.034 A 
ATOM     50  C   UNL A   1      43.846  29.421  33.004  1.00  0.00     0.049 A 
ATOM     51  C   UNL A   1      43.783  25.380  29.139  1.00  0.00     0.074 A 
ATOM     52  C   UNL A   1      44.902  29.415  33.899  1.00  0.00     0.029 A 
ATOM     53  N   UNL A   1      44.029  28.334  32.164  1.00  0.00    -0.354 N 
ATOM     54  N   UNL A   1      43.910  26.229  30.131  1.00  0.00    -0.248 NA
ATOM     55  C   UNL A   1      44.893  24.423  29.025  1.00  0.00     0.031 C 
ATOM     56  C   UNL A   1      45.733  28.333  33.587  1.00  0.00     0.029 A 
ATOM     57  C   UNL A   1      45.183  27.654  32.513  1.00  0.00     0.049 A 
ATOM     58  H   UNL A   1      43.426  28.081  31.428  1.00  0.00     0.167 HD
ATOM     59  C   UNL A   1      45.092  25.887  30.777  1.00  0.00     0.074 A 
ATOM     60  C   UNL A   1      45.634  24.741  30.078  1.00  0.00     0.031 C 
ATOM     61  C   UNL A   1      45.684  26.481  31.844  1.00  0.00     0.034 A 
BRANCH  48  62
ATOM     62  C   UNL A   1      42.728  31.515  33.875  1.00  0.00     0.023 A 
ATOM     63  C   UNL A   1      43.233  32.764  33.456  1.00  0.00     0.012 A 
ATOM     64  C   UNL A   1      42.161  31.396  35.159  1.00  0.00     0.148 A 
ATOM     65  C   UNL A   1      43.212  33.863  34.313  1.00  0.00     0.002 A 
ATOM     66  C   UNL A   1      42.105  32.508  35.992  1.00  0.00     0.091 A 
ATOM     67  F   UNL A   1      41.704  30.197  35.548  1.00  0.00    -0.205 F 
ATOM     68  C   UNL A   1      42.640  33.738  35.576  1.00  0.00     0.022 A 
BRANCH  66  69
ATOM     69  S   UNL A   1      41.316  32.469  37.606  1.00  0.00     0.127 S 
ATOM     70  O   UNL A   1      41.423  33.867  38.021  1.00  0.00    -0.237 OA
ATOM     71  O   UNL A   1      39.959  32.032  37.277  1.00  0.00    -0.237 OA
ATOM     72  O   UNL A   1      42.081  31.518  38.401  1.00  0.00    -0.744 OA
ENDBRANCH  66  69
ENDBRANCH  48  62
BRANCH  49  73
ATOM     73  C   UNL A   1      42.673  24.164  27.118  1.00  0.00     0.023 A 
ATOM     74  C   UNL A   1      43.375  24.370  25.913  1.00  0.00     0.012 A 
ATOM     75  C   UNL A   1      42.038  22.927  27.338  1.00  0.00     0.148 A 
ATOM     76  C   UNL A   1      43.419  23.375  24.936  1.00  0.00     0.002 A 
ATOM     77  C   UNL A   1      42.133  21.919  26.385  1.00  0.00     0.091 A 
ATOM     78  F   UNL A   1      41.364  22.755  28.484  1.00  0.00    -0.205 F 
ATOM     79  C   UNL A   1      42.809  22.147  25.176  1.00  0.00     0.022 A 
BRANCH  77  80
ATOM     80  S   UNL A   1      41.494  20.264  26.664  1.00  0.00     0.127 S 
ATOM     81  O   UNL A   1      41.872  19.584  25.429  1.00  0.00    -0.237 OA
ATOM     82  O   UNL A   1      42.239  19.845  27.851  1.00  0.00    -0.237 OA
ATOM     83  O   UNL A   1      40.062  20.428  26.886  1.00  0.00    -0.744 OA
ENDBRANCH  77  80
ENDBRANCH  49  73
BRANCH  61  84
ATOM     84  C   UNL A   1      46.974  25.888  32.348  1.00  0.00     0.023 A 
ATOM     85  C   UNL A   1      48.201  26.331  31.818  1.00  0.00     0.012 A 
ATOM     86  C   UNL A   1      46.974  24.952  33.401  1.00  0.00     0.148 A 
ATOM     87  C   UNL A   1      49.408  25.829  32.307  1.00  0.00     0.002 A 
ATOM     88  C   UNL A   1      48.180  24.492  33.915  1.00  0.00     0.091 A 
ATOM     89  F   UNL A   1      45.795  24.528  33.880  1.00  0.00    -0.205 F 
ATOM     90  C   UNL A   1      49.398  24.920  33.362  1.00  0.00     0.022 A 
BRANCH  88  91
ATOM     91  S   UNL A   1      48.265  23.393  35.335  1.00  0.00     0.127 S 
ATOM     92  O   UNL A   1      49.708  23.233  35.504  1.00  0.00    -0.237 OA
ATOM     93  O   UNL A   1      47.613  24.183  36.380  1.00  0.00    -0.237 OA
ATOM     94  O   UNL A   1      47.541  22.188  34.952  1.00  0.00    -0.744 OA
ENDBRANCH  88  91
ENDBRANCH  61  84
ENDBRANCH  35  36
ENDBRANCH  27  30
ENDBRANCH  25  26
ENDBRANCH  24  25
ENDBRANCH   1  24
TORSDOF 18
ENDMDL
MODEL 3
REMARK VINA RESULT:     -10.4      2.266      2.661
REMARK SMILES CC[C@@H](C)[C@@H]([NH3+])C(=O)N1CCC(CC(=O)NCCCNC(=O)c2ccc(-c3c4nc(c(-c5cccc(S(=O)(=O)[O-])c5F)c5ccc([nH]5)c(-c5cccc(S(=O)(=O)[O-])c5F)c5nc(c(-c6cccc(S(=O)(=O)[O-])c6F)c6ccc3[nH]6)C=C5)C=C4)cc2)CC1
REMARK SMILES IDX 17 1 16 2 14 3 15 4 13 6 12 7 7 8 8 9 9 10 10 11 87 12 11 13
REMARK SMILES IDX 86 14 5 15 3 16 4 17 2 18 1 19 6 20 18 24 19 25 20 26 21 27
REMARK SMILES IDX 22 29 23 30 24 31 85 32 25 33 84 34 26 35 27 36 28 37 78 38
REMARK SMILES IDX 29 39 83 40 77 41 79 42 30 43 82 44 76 45 75 46 31 48 63 49
REMARK SMILES IDX 43 50 62 51 44 52 47 53 61 54 80 55 45 56 46 57 60 59 81 60
REMARK SMILES IDX 48 61 32 62 33 63 41 64 34 65 36 66 42 67 35 68 37 69 38 70
REMARK SMILES IDX 39 71 40 72 64 73 65 74 73 75 66 76 68 77 74 78 67 79 69 80
REMARK SMILES IDX 70 81 71 82 72 83 49 84 50 85 58 86 51 87 53 88 59 89 52 90
REMARK SMILES IDX 54 91 55 92 56 93 57 94
REMARK H PARENT 16 5 6 21 6 22 6 23 20 28 79 47 47 58
REMARK Flexibility Score: inf
ROOT
ATOM      1  C   UNL A   1      31.839  29.178  24.447  1.00  0.00     0.117 C 
ENDROOT
BRANCH   1   2
ATOM      2  N   UNL A   1      30.964  28.128  24.958  1.00  0.00    -0.356 N 
ATOM      3  C   UNL A   1      30.553  26.950  24.407  1.00  0.00     0.220 C 
ATOM      4  O   UNL A   1      29.848  26.203  25.087  1.00  0.00    -0.275 OA
ATOM      5  H   UNL A   1      30.606  28.300  25.859  1.00  0.00     0.163 HD
BRANCH   3   6
ATOM      6  C   UNL A   1      30.942  26.567  22.990  1.00  0.00     0.103 C 
BRANCH   6   7
ATOM      7  C   UNL A   1      32.043  25.492  22.927  1.00  0.00     0.002 C 
ATOM      8  C   UNL A   1      33.061  22.671  25.592  1.00  0.00     0.281 C 
ATOM      9  O   UNL A   1      32.851  23.365  26.592  1.00  0.00    -0.268 OA
ATOM     10  N   UNL A   1      33.251  23.252  24.345  1.00  0.00    -0.338 N 
ATOM     11  C   UNL A   1      33.985  24.496  24.278  1.00  0.00     0.120 C 
ATOM     12  C   UNL A   1      32.439  22.978  23.170  1.00  0.00     0.120 C 
ATOM     13  C   UNL A   1      33.037  25.663  24.079  1.00  0.00     0.026 C 
ATOM     14  C   UNL A   1      31.409  24.092  22.960  1.00  0.00     0.026 C 
BRANCH   8  15
ATOM     15  C   UNL A   1      33.348  21.141  25.748  1.00  0.00     0.273 C 
BRANCH  15  16
ATOM     16  C   UNL A   1      34.422  20.562  24.800  1.00  0.00     0.054 C 
ATOM     17  C   UNL A   1      34.164  19.065  24.564  1.00  0.00     0.014 C 
BRANCH  16  18
ATOM     18  C   UNL A   1      35.869  20.787  25.293  1.00  0.00     0.006 C 
ATOM     19  C   UNL A   1      36.610  21.811  24.437  1.00  0.00     0.004 C 
ENDBRANCH  16  18
ENDBRANCH  15  16
BRANCH  15  20
ATOM     20  N   UNL A   1      33.687  20.897  27.166  1.00  0.00    -0.347 N 
ATOM     21  H   UNL A   1      33.895  21.786  27.623  1.00  0.00     0.345 HD
ATOM     22  H   UNL A   1      34.502  20.287  27.221  1.00  0.00     0.345 HD
ATOM     23  H   UNL A   1      32.897  20.452  27.632  1.00  0.00     0.345 HD
ENDBRANCH  15  20
ENDBRANCH   8  15
ENDBRANCH   6   7
ENDBRANCH   3   6
ENDBRANCH   1   2
BRANCH   1  24
ATOM     24  C   UNL A   1      33.032  29.478  25.358  1.00  0.00     0.042 C 
BRANCH  24  25
ATOM     25  C   UNL A   1      32.662  30.002  26.737  1.00  0.00     0.118 C 
BRANCH  25  26
ATOM     26  N   UNL A   1      32.740  31.449  26.790  1.00  0.00    -0.352 N 
ATOM     27  C   UNL A   1      33.600  32.249  27.507  1.00  0.00     0.251 C 
ATOM     28  H   UNL A   1      32.085  31.928  26.233  1.00  0.00     0.163 HD
ATOM     29  O   UNL A   1      33.321  33.438  27.649  1.00  0.00    -0.269 OA
BRANCH  27  30
ATOM     30  C   UNL A   1      34.846  31.705  28.104  1.00  0.00     0.039 A 
ATOM     31  C   UNL A   1      34.931  30.331  28.351  1.00  0.00     0.014 A 
ATOM     32  C   UNL A   1      35.899  32.538  28.494  1.00  0.00     0.014 A 
ATOM     33  C   UNL A   1      36.071  29.795  28.960  1.00  0.00     0.010 A 
ATOM     34  C   UNL A   1      37.069  31.993  29.023  1.00  0.00     0.010 A 
ATOM     35  C   UNL A   1      37.159  30.619  29.290  1.00  0.00    -0.014 A 
BRANCH  35  36
ATOM     36  C   UNL A   1      38.379  30.070  29.944  1.00  0.00     0.031 A 
ATOM     37  C   UNL A   1      38.780  30.536  31.321  1.00  0.00     0.074 A 
ATOM     38  C   UNL A   1      39.169  29.204  29.277  1.00  0.00     0.049 A 
ATOM     39  N   UNL A   1      39.830  30.211  32.032  1.00  0.00    -0.248 NA
ATOM     40  C   UNL A   1      37.898  31.517  31.978  1.00  0.00     0.031 C 
ATOM     41  C   UNL A   1      38.938  28.729  27.912  1.00  0.00     0.029 A 
ATOM     42  N   UNL A   1      40.341  28.591  29.648  1.00  0.00    -0.354 N 
ATOM     43  C   UNL A   1      39.758  30.975  33.192  1.00  0.00     0.074 A 
ATOM     44  C   UNL A   1      38.579  31.805  33.077  1.00  0.00     0.031 C 
ATOM     45  C   UNL A   1      39.931  27.896  27.563  1.00  0.00     0.029 A 
ATOM     46  C   UNL A   1      40.884  27.797  28.664  1.00  0.00     0.049 A 
ATOM     47  H   UNL A   1      40.753  28.709  30.534  1.00  0.00     0.167 HD
ATOM     48  C   UNL A   1      40.577  30.965  34.272  1.00  0.00     0.034 A 
ATOM     49  C   UNL A   1      42.021  27.074  28.649  1.00  0.00     0.034 A 
ATOM     50  C   UNL A   1      41.717  30.099  34.411  1.00  0.00     0.049 A 
ATOM     51  C   UNL A   1      42.887  27.039  29.879  1.00  0.00     0.074 A 
ATOM     52  C   UNL A   1      42.552  29.945  35.504  1.00  0.00     0.029 A 
ATOM     53  N   UNL A   1      42.183  29.241  33.428  1.00  0.00    -0.354 N 
ATOM     54  N   UNL A   1      42.714  27.648  31.028  1.00  0.00    -0.248 NA
ATOM     55  C   UNL A   1      44.087  26.190  29.827  1.00  0.00     0.031 C 
ATOM     56  C   UNL A   1      43.535  29.006  35.173  1.00  0.00     0.029 A 
ATOM     57  C   UNL A   1      43.299  28.560  33.884  1.00  0.00     0.049 A 
ATOM     58  H   UNL A   1      41.780  29.131  32.537  1.00  0.00     0.167 HD
ATOM     59  C   UNL A   1      43.759  27.229  31.844  1.00  0.00     0.074 A 
ATOM     60  C   UNL A   1      44.550  26.299  31.065  1.00  0.00     0.031 C 
ATOM     61  C   UNL A   1      44.046  27.595  33.118  1.00  0.00     0.034 A 
BRANCH  48  62
ATOM     62  C   UNL A   1      40.234  31.883  35.418  1.00  0.00     0.023 A 
ATOM     63  C   UNL A   1      40.984  33.060  35.612  1.00  0.00     0.012 A 
ATOM     64  C   UNL A   1      39.142  31.613  36.267  1.00  0.00     0.148 A 
ATOM     65  C   UNL A   1      40.681  33.934  36.656  1.00  0.00     0.002 A 
ATOM     66  C   UNL A   1      38.818  32.512  37.279  1.00  0.00     0.091 A 
ATOM     67  F   UNL A   1      38.451  30.479  36.081  1.00  0.00    -0.205 F 
ATOM     68  C   UNL A   1      39.593  33.665  37.481  1.00  0.00     0.022 A 
BRANCH  66  69
ATOM     69  S   UNL A   1      37.389  32.295  38.344  1.00  0.00     0.127 S 
ATOM     70  O   UNL A   1      37.834  32.951  39.572  1.00  0.00    -0.237 OA
ATOM     71  O   UNL A   1      36.345  33.013  37.612  1.00  0.00    -0.237 OA
ATOM     72  O   UNL A   1      37.177  30.857  38.441  1.00  0.00    -0.744 OA
ENDBRANCH  66  69
ENDBRANCH  48  62
BRANCH  49  73
ATOM     73  C   UNL A   1      42.363  26.257  27.449  1.00  0.00     0.023 A 
ATOM     74  C   UNL A   1      43.101  26.846  26.402  1.00  0.00     0.012 A 
ATOM     75  C   UNL A   1      42.003  24.899  27.354  1.00  0.00     0.148 A 
ATOM     76  C   UNL A   1      43.449  26.106  25.272  1.00  0.00     0.002 A 
ATOM     77  C   UNL A   1      42.401  24.152  26.251  1.00  0.00     0.091 A 
ATOM     78  F   UNL A   1      41.290  24.360  28.353  1.00  0.00    -0.205 F 
ATOM     79  C   UNL A   1      43.110  24.757  25.201  1.00  0.00     0.022 A 
BRANCH  77  80
ATOM     80  S   UNL A   1      42.126  22.380  26.136  1.00  0.00     0.127 S 
ATOM     81  O   UNL A   1      42.791  22.055  24.878  1.00  0.00    -0.237 OA
ATOM     82  O   UNL A   1      42.803  21.888  27.336  1.00  0.00    -0.237 OA
ATOM     83  O   UNL A   1      40.679  22.205  26.153  1.00  0.00    -0.744 OA
ENDBRANCH  77  80
ENDBRANCH  49  73
BRANCH  61  84
ATOM     84  C   UNL A   1      45.251  26.970  33.771  1.00  0.00     0.023 A 
ATOM     85  C   UNL A   1      46.492  27.636  33.732  1.00  0.00     0.012 A 
ATOM     86  C   UNL A   1      45.137  25.764  34.490  1.00  0.00     0.148 A 
ATOM     87  C   UNL A   1      47.608  27.097  34.372  1.00  0.00     0.002 A 
ATOM     88  C   UNL A   1      46.241  25.256  35.165  1.00  0.00     0.091 A 
ATOM     89  F   UNL A   1      43.953  25.134  34.500  1.00  0.00    -0.205 F 
ATOM     90  C   UNL A   1      47.479  25.915  35.098  1.00  0.00     0.022 A 
BRANCH  88  91
ATOM     91  S   UNL A   1      46.145  23.791  36.202  1.00  0.00     0.127 S 
ATOM     92  O   UNL A   1      45.062  24.144  37.119  1.00  0.00    -0.237 OA
ATOM     93  O   UNL A   1      45.808  22.746  35.234  1.00  0.00    -0.237 OA
ATOM     94  O   UNL A   1      47.460  23.645  36.811  1.00  0.00    -0.744 OA
ENDBRANCH  88  91
ENDBRANCH  61  84
ENDBRANCH  35  36
ENDBRANCH  27  30
ENDBRANCH  25  26
ENDBRANCH  24  25
ENDBRANCH   1  24
TORSDOF 18
ENDMDL
