MODEL 1
REMARK VINA RESULT:     -12.7      0.000      0.000
REMARK SMILES O=C(NCCCNC(=O)[C@H]1CCCN(C(=O)C2CC[NH+](Cc3ccco3)CC2)C1)c1ccc(-c2c3nc(c(-c4cccc(S(=O)(=O)[O-])c4F)c4ccc([nH]4)c(-c4cccc(S(=O)(=O)[O-])c4F)c4nc(c(-c5cccc(S(=O)(=O)[O-])c5F)c5ccc2[nH]5)C=C4)C=C3)cc1
REMARK SMILES IDX 5 1 4 2 3 3 1 4 2 5 30 7 31 8 92 9 32 10 91 11 33 12 34 13
REMARK SMILES IDX 35 14 85 15 36 16 90 17 84 18 86 19 37 20 89 21 83 22 82 23
REMARK SMILES IDX 38 25 70 26 50 27 69 28 51 29 54 30 68 31 87 32 52 33 53 34
REMARK SMILES IDX 67 36 88 37 55 38 39 39 40 40 48 41 41 42 43 43 49 44 42 45
REMARK SMILES IDX 44 46 45 47 46 48 47 49 71 50 72 51 80 52 73 53 75 54 81 55
REMARK SMILES IDX 74 56 76 57 77 58 78 59 79 60 56 61 57 62 65 63 58 64 60 65
REMARK SMILES IDX 66 66 59 67 61 68 62 69 63 70 64 71 6 72 7 73 8 74 9 76
REMARK SMILES IDX 10 77 11 78 29 79 12 80 14 81 13 82 15 83 16 84 17 85 18 86
REMARK SMILES IDX 28 87 19 88 27 89 20 90 21 92 22 93 23 94 26 95 24 96 25 97
REMARK H PARENT 3 6 86 24 54 35 7 75 20 91
REMARK Flexibility Score: inf
ROOT
ATOM      1  C   UNL A   1      37.861  19.979  24.773  1.00  0.00     0.042 C 
ENDROOT
BRANCH   1   2
ATOM      2  C   UNL A   1      38.935  20.430  25.748  1.00  0.00     0.118 C 
BRANCH   2   3
ATOM      3  N   UNL A   1      39.924  19.380  25.944  1.00  0.00    -0.352 N 
ATOM      4  O   UNL A   1      42.011  18.546  25.797  1.00  0.00    -0.269 OA
ATOM      5  C   UNL A   1      41.281  19.514  26.021  1.00  0.00     0.251 C 
ATOM      6  H   UNL A   1      39.573  18.464  26.031  1.00  0.00     0.163 HD
BRANCH   5   7
ATOM      7  C   UNL A   1      41.837  20.826  26.391  1.00  0.00     0.039 A 
ATOM      8  C   UNL A   1      42.032  21.786  25.392  1.00  0.00     0.014 A 
ATOM      9  C   UNL A   1      42.141  21.108  27.722  1.00  0.00     0.014 A 
ATOM     10  C   UNL A   1      42.639  22.989  25.703  1.00  0.00     0.010 A 
ATOM     11  C   UNL A   1      42.647  22.365  28.051  1.00  0.00     0.010 A 
ATOM     12  C   UNL A   1      42.895  23.312  27.043  1.00  0.00    -0.014 A 
BRANCH  12  13
ATOM     13  C   UNL A   1      43.253  24.709  27.367  1.00  0.00     0.031 A 
ATOM     14  C   UNL A   1      42.269  25.646  27.993  1.00  0.00     0.074 A 
ATOM     15  C   UNL A   1      44.503  25.111  27.061  1.00  0.00     0.049 A 
ATOM     16  N   UNL A   1      42.439  26.898  28.324  1.00  0.00    -0.248 NA
ATOM     17  C   UNL A   1      40.921  25.125  28.278  1.00  0.00     0.031 C 
ATOM     18  C   UNL A   1      45.519  24.278  26.404  1.00  0.00     0.029 A 
ATOM     19  N   UNL A   1      45.134  26.312  27.244  1.00  0.00    -0.354 N 
ATOM     20  C   UNL A   1      41.215  27.332  28.812  1.00  0.00     0.074 A 
ATOM     21  C   UNL A   1      40.308  26.206  28.745  1.00  0.00     0.031 C 
ATOM     22  C   UNL A   1      46.646  24.985  26.257  1.00  0.00     0.029 A 
ATOM     23  C   UNL A   1      46.413  26.339  26.737  1.00  0.00     0.049 A 
ATOM     24  H   UNL A   1      44.716  27.080  27.697  1.00  0.00     0.167 HD
ATOM     25  C   UNL A   1      40.889  28.562  29.273  1.00  0.00     0.034 A 
ATOM     26  C   UNL A   1      47.288  27.354  26.625  1.00  0.00     0.034 A 
ATOM     27  C   UNL A   1      41.816  29.660  29.360  1.00  0.00     0.049 A 
ATOM     28  C   UNL A   1      46.889  28.697  27.157  1.00  0.00     0.074 A 
ATOM     29  C   UNL A   1      41.607  30.916  29.899  1.00  0.00     0.029 A 
ATOM     30  N   UNL A   1      43.115  29.642  28.876  1.00  0.00    -0.354 N 
ATOM     31  N   UNL A   1      45.778  29.047  27.761  1.00  0.00    -0.248 NA
ATOM     32  C   UNL A   1      47.866  29.782  27.012  1.00  0.00     0.031 C 
ATOM     33  C   UNL A   1      42.766  31.674  29.703  1.00  0.00     0.029 A 
ATOM     34  C   UNL A   1      43.709  30.878  29.074  1.00  0.00     0.049 A 
ATOM     35  H   UNL A   1      43.551  28.868  28.454  1.00  0.00     0.167 HD
ATOM     36  C   UNL A   1      45.930  30.387  28.083  1.00  0.00     0.074 A 
ATOM     37  C   UNL A   1      47.256  30.775  27.645  1.00  0.00     0.031 C 
ATOM     38  C   UNL A   1      45.044  31.231  28.666  1.00  0.00     0.034 A 
BRANCH  25  39
ATOM     39  C   UNL A   1      39.478  28.804  29.739  1.00  0.00     0.023 A 
ATOM     40  C   UNL A   1      39.109  28.477  31.059  1.00  0.00     0.012 A 
ATOM     41  C   UNL A   1      38.557  29.471  28.906  1.00  0.00     0.148 A 
ATOM     42  C   UNL A   1      37.841  28.802  31.540  1.00  0.00     0.002 A 
ATOM     43  C   UNL A   1      37.312  29.829  29.406  1.00  0.00     0.091 A 
ATOM     44  F   UNL A   1      38.925  29.755  27.649  1.00  0.00    -0.205 F 
ATOM     45  C   UNL A   1      36.949  29.490  30.719  1.00  0.00     0.022 A 
BRANCH  43  46
ATOM     46  S   UNL A   1      36.123  30.787  28.459  1.00  0.00     0.127 S 
ATOM     47  O   UNL A   1      35.000  30.869  29.392  1.00  0.00    -0.237 OA
ATOM     48  O   UNL A   1      36.838  32.046  28.254  1.00  0.00    -0.237 OA
ATOM     49  O   UNL A   1      35.864  30.025  27.245  1.00  0.00    -0.744 OA
ENDBRANCH  43  46
ENDBRANCH  25  39
BRANCH  26  50
ATOM     50  C   UNL A   1      48.610  27.135  25.978  1.00  0.00     0.023 A 
ATOM     51  C   UNL A   1      49.681  26.617  26.731  1.00  0.00     0.012 A 
ATOM     52  C   UNL A   1      48.806  27.426  24.613  1.00  0.00     0.148 A 
ATOM     53  C   UNL A   1      50.934  26.432  26.146  1.00  0.00     0.002 A 
ATOM     54  C   UNL A   1      50.038  27.178  24.022  1.00  0.00     0.091 A 
ATOM     55  F   UNL A   1      47.780  27.932  23.915  1.00  0.00    -0.205 F 
ATOM     56  C   UNL A   1      51.110  26.702  24.791  1.00  0.00     0.022 A 
BRANCH  54  57
ATOM     57  S   UNL A   1      50.299  27.361  22.254  1.00  0.00     0.127 S 
ATOM     58  O   UNL A   1      51.658  26.850  22.099  1.00  0.00    -0.237 OA
ATOM     59  O   UNL A   1      49.250  26.503  21.700  1.00  0.00    -0.237 OA
ATOM     60  O   UNL A   1      50.114  28.780  21.981  1.00  0.00    -0.744 OA
ENDBRANCH  54  57
ENDBRANCH  26  50
BRANCH  38  61
ATOM     61  C   UNL A   1      45.488  32.653  28.876  1.00  0.00     0.023 A 
ATOM     62  C   UNL A   1      46.210  32.994  30.037  1.00  0.00     0.012 A 
ATOM     63  C   UNL A   1      45.238  33.637  27.900  1.00  0.00     0.148 A 
ATOM     64  C   UNL A   1      46.643  34.301  30.241  1.00  0.00     0.002 A 
ATOM     65  C   UNL A   1      45.721  34.925  28.085  1.00  0.00     0.091 A 
ATOM     66  F   UNL A   1      44.534  33.292  26.811  1.00  0.00    -0.205 F 
ATOM     67  C   UNL A   1      46.410  35.263  29.260  1.00  0.00     0.022 A 
BRANCH  65  68
ATOM     68  S   UNL A   1      45.551  36.206  26.838  1.00  0.00     0.127 S 
ATOM     69  O   UNL A   1      46.081  35.538  25.651  1.00  0.00    -0.237 OA
ATOM     70  O   UNL A   1      44.105  36.429  26.820  1.00  0.00    -0.237 OA
ATOM     71  O   UNL A   1      46.332  37.340  27.315  1.00  0.00    -0.744 OA
ENDBRANCH  65  68
ENDBRANCH  38  61
ENDBRANCH  12  13
ENDBRANCH   5   7
ENDBRANCH   2   3
ENDBRANCH   1   2
BRANCH   1  72
ATOM     72  C   UNL A   1      36.707  20.973  24.723  1.00  0.00     0.117 C 
BRANCH  72  73
ATOM     73  N   UNL A   1      35.610  20.501  25.549  1.00  0.00    -0.356 N 
ATOM     74  C   UNL A   1      34.390  21.109  25.663  1.00  0.00     0.224 C 
ATOM     75  H   UNL A   1      35.756  19.679  26.070  1.00  0.00     0.163 HD
ATOM     76  O   UNL A   1      33.633  20.805  26.580  1.00  0.00    -0.275 OA
BRANCH  74  77
ATOM     77  C   UNL A   1      33.986  22.017  24.526  1.00  0.00     0.098 C 
ATOM     78  C   UNL A   1      32.863  21.251  23.802  1.00  0.00     0.017 C 
ATOM     79  C   UNL A   1      33.610  23.431  25.000  1.00  0.00     0.133 C 
ATOM     80  C   UNL A   1      32.227  22.135  22.757  1.00  0.00     0.022 C 
ATOM     81  N   UNL A   1      32.892  24.140  23.930  1.00  0.00    -0.342 N 
ATOM     82  C   UNL A   1      31.763  23.387  23.470  1.00  0.00     0.119 C 
BRANCH  81  83
ATOM     83  C   UNL A   1      33.364  25.310  23.373  1.00  0.00     0.226 C 
ATOM     84  O   UNL A   1      34.027  25.262  22.328  1.00  0.00    -0.275 OA
BRANCH  83  85
ATOM     85  C   UNL A   1      33.128  26.715  24.009  1.00  0.00     0.090 C 
ATOM     86  C   UNL A   1      32.079  26.790  25.113  1.00  0.00     0.075 C 
ATOM     87  C   UNL A   1      33.062  27.949  23.108  1.00  0.00     0.075 C 
ATOM     88  C   UNL A   1      30.672  27.121  24.628  1.00  0.00     0.263 C 
ATOM     89  C   UNL A   1      31.662  28.478  22.744  1.00  0.00     0.263 C 
ATOM     90  N   UNL A   1      30.565  28.232  23.683  1.00  0.00    -0.329 N 
ATOM     91  H   UNL A   1      30.694  29.012  24.329  1.00  0.00     0.348 HD
BRANCH  90  92
ATOM     92  C   UNL A   1      29.221  28.372  23.063  1.00  0.00     0.338 C 
BRANCH  92  93
ATOM     93  C   UNL A   1      28.772  29.759  22.668  1.00  0.00     0.157 A 
ATOM     94  C   UNL A   1      28.358  30.873  23.378  1.00  0.00     0.052 A 
ATOM     95  O   UNL A   1      28.771  30.059  21.330  1.00  0.00    -0.463 OA
ATOM     96  C   UNL A   1      28.033  31.876  22.429  1.00  0.00     0.042 A 
ATOM     97  C   UNL A   1      28.325  31.339  21.199  1.00  0.00     0.195 A 
ENDBRANCH  92  93
ENDBRANCH  90  92
ENDBRANCH  83  85
ENDBRANCH  81  83
ENDBRANCH  74  77
ENDBRANCH  72  73
ENDBRANCH   1  72
TORSDOF 17
ENDMDL
MODEL 2
REMARK VINA RESULT:     -12.6      5.789     11.394
REMARK SMILES O=C(NCCCNC(=O)[C@H]1CCCN(C(=O)C2CC[NH+](Cc3ccco3)CC2)C1)c1ccc(-c2c3nc(c(-c4cccc(S(=O)(=O)[O-])c4F)c4ccc([nH]4)c(-c4cccc(S(=O)(=O)[O-])c4F)c4nc(c(-c5cccc(S(=O)(=O)[O-])c5F)c5ccc2[nH]5)C=C4)C=C3)cc1
REMARK SMILES IDX 5 1 4 2 3 3 1 4 2 5 30 7 31 8 92 9 32 10 91 11 33 12 34 13
REMARK SMILES IDX 35 14 85 15 36 16 90 17 84 18 86 19 37 20 89 21 83 22 82 23
REMARK SMILES IDX 38 25 70 26 50 27 69 28 51 29 54 30 68 31 87 32 52 33 53 34
REMARK SMILES IDX 67 36 88 37 55 38 39 39 40 40 48 41 41 42 43 43 49 44 42 45
REMARK SMILES IDX 44 46 45 47 46 48 47 49 71 50 72 51 80 52 73 53 75 54 81 55
REMARK SMILES IDX 74 56 76 57 77 58 78 59 79 60 56 61 57 62 65 63 58 64 60 65
REMARK SMILES IDX 66 66 59 67 61 68 62 69 63 70 64 71 6 72 7 73 8 74 9 76
REMARK SMILES IDX 10 77 11 78 29 79 12 80 14 81 13 82 15 83 16 84 17 85 18 86
REMARK SMILES IDX 28 87 19 88 27 89 20 90 21 92 22 93 23 94 26 95 24 96 25 97
REMARK H PARENT 3 6 86 24 54 35 7 75 20 91
REMARK Flexibility Score: inf
ROOT
ATOM      1  C   UNL A   1      31.411  31.343  26.503  1.00  0.00     0.042 C 
ENDROOT
BRANCH   1   2
ATOM      2  C   UNL A   1      32.727  31.967  26.935  1.00  0.00     0.118 C 
BRANCH   2   3
ATOM      3  N   UNL A   1      32.558  33.389  27.198  1.00  0.00    -0.352 N 
ATOM      4  O   UNL A   1      32.582  35.189  28.552  1.00  0.00    -0.269 OA
ATOM      5  C   UNL A   1      33.097  34.120  28.218  1.00  0.00     0.251 C 
ATOM      6  H   UNL A   1      31.989  33.883  26.565  1.00  0.00     0.163 HD
BRANCH   5   7
ATOM      7  C   UNL A   1      34.305  33.608  28.887  1.00  0.00     0.039 A 
ATOM      8  C   UNL A   1      34.165  32.684  29.928  1.00  0.00     0.014 A 
ATOM      9  C   UNL A   1      35.568  34.025  28.468  1.00  0.00     0.014 A 
ATOM     10  C   UNL A   1      35.278  32.263  30.630  1.00  0.00     0.010 A 
ATOM     11  C   UNL A   1      36.698  33.510  29.103  1.00  0.00     0.010 A 
ATOM     12  C   UNL A   1      36.557  32.625  30.184  1.00  0.00    -0.014 A 
BRANCH  12  13
ATOM     13  C   UNL A   1      37.722  31.918  30.760  1.00  0.00     0.031 A 
ATOM     14  C   UNL A   1      38.461  30.868  29.992  1.00  0.00     0.074 A 
ATOM     15  C   UNL A   1      38.082  32.248  32.016  1.00  0.00     0.049 A 
ATOM     16  N   UNL A   1      39.491  30.161  30.370  1.00  0.00    -0.248 NA
ATOM     17  C   UNL A   1      37.986  30.561  28.632  1.00  0.00     0.031 C 
ATOM     18  C   UNL A   1      37.389  33.229  32.862  1.00  0.00     0.029 A 
ATOM     19  N   UNL A   1      39.103  31.797  32.809  1.00  0.00    -0.354 N 
ATOM     20  C   UNL A   1      39.763  29.293  29.322  1.00  0.00     0.074 A 
ATOM     21  C   UNL A   1      38.795  29.569  28.282  1.00  0.00     0.031 C 
ATOM     22  C   UNL A   1      38.014  33.318  34.043  1.00  0.00     0.029 A 
ATOM     23  C   UNL A   1      39.101  32.350  34.068  1.00  0.00     0.049 A 
ATOM     24  H   UNL A   1      39.775  31.143  32.507  1.00  0.00     0.167 HD
ATOM     25  C   UNL A   1      40.737  28.357  29.244  1.00  0.00     0.034 A 
ATOM     26  C   UNL A   1      39.860  32.077  35.145  1.00  0.00     0.034 A 
ATOM     27  C   UNL A   1      41.709  28.122  30.279  1.00  0.00     0.049 A 
ATOM     28  C   UNL A   1      40.933  31.039  35.012  1.00  0.00     0.074 A 
ATOM     29  C   UNL A   1      42.792  27.261  30.258  1.00  0.00     0.029 A 
ATOM     30  N   UNL A   1      41.706  28.728  31.526  1.00  0.00    -0.354 N 
ATOM     31  N   UNL A   1      41.276  30.340  33.957  1.00  0.00    -0.248 NA
ATOM     32  C   UNL A   1      41.737  30.763  36.208  1.00  0.00     0.031 C 
ATOM     33  C   UNL A   1      43.418  27.314  31.507  1.00  0.00     0.029 A 
ATOM     34  C   UNL A   1      42.747  28.235  32.294  1.00  0.00     0.049 A 
ATOM     35  H   UNL A   1      41.058  29.408  31.822  1.00  0.00     0.167 HD
ATOM     36  C   UNL A   1      42.346  29.554  34.357  1.00  0.00     0.074 A 
ATOM     37  C   UNL A   1      42.620  29.894  35.740  1.00  0.00     0.031 C 
ATOM     38  C   UNL A   1      43.026  28.615  33.655  1.00  0.00     0.034 A 
BRANCH  25  39
ATOM     39  C   UNL A   1      40.827  27.514  28.000  1.00  0.00     0.023 A 
ATOM     40  C   UNL A   1      41.491  28.012  26.862  1.00  0.00     0.012 A 
ATOM     41  C   UNL A   1      40.362  26.184  28.006  1.00  0.00     0.148 A 
ATOM     42  C   UNL A   1      41.684  27.201  25.745  1.00  0.00     0.002 A 
ATOM     43  C   UNL A   1      40.595  25.369  26.906  1.00  0.00     0.091 A 
ATOM     44  F   UNL A   1      39.717  25.739  29.094  1.00  0.00    -0.205 F 
ATOM     45  C   UNL A   1      41.249  25.877  25.772  1.00  0.00     0.022 A 
BRANCH  43  46
ATOM     46  S   UNL A   1      40.149  23.629  26.873  1.00  0.00     0.127 S 
ATOM     47  O   UNL A   1      40.546  23.197  28.213  1.00  0.00    -0.237 OA
ATOM     48  O   UNL A   1      38.704  23.689  26.655  1.00  0.00    -0.237 OA
ATOM     49  O   UNL A   1      40.909  23.037  25.781  1.00  0.00    -0.744 OA
ENDBRANCH  43  46
ENDBRANCH  25  39
BRANCH  26  50
ATOM     50  C   UNL A   1      39.620  32.789  36.429  1.00  0.00     0.023 A 
ATOM     51  C   UNL A   1      40.328  33.971  36.717  1.00  0.00     0.012 A 
ATOM     52  C   UNL A   1      38.682  32.304  37.363  1.00  0.00     0.148 A 
ATOM     53  C   UNL A   1      40.135  34.635  37.930  1.00  0.00     0.002 A 
ATOM     54  C   UNL A   1      38.448  33.006  38.539  1.00  0.00     0.091 A 
ATOM     55  F   UNL A   1      38.027  31.170  37.079  1.00  0.00    -0.205 F 
ATOM     56  C   UNL A   1      39.190  34.159  38.834  1.00  0.00     0.022 A 
BRANCH  54  57
ATOM     57  S   UNL A   1      37.144  32.539  39.682  1.00  0.00     0.127 S 
ATOM     58  O   UNL A   1      35.956  32.653  38.842  1.00  0.00    -0.237 OA
ATOM     59  O   UNL A   1      37.523  31.170  40.034  1.00  0.00    -0.237 OA
ATOM     60  O   UNL A   1      37.241  33.486  40.786  1.00  0.00    -0.744 OA
ENDBRANCH  54  57
ENDBRANCH  26  50
BRANCH  38  61
ATOM     61  C   UNL A   1      44.143  27.902  34.367  1.00  0.00     0.023 A 
ATOM     62  C   UNL A   1      45.440  28.452  34.358  1.00  0.00     0.012 A 
ATOM     63  C   UNL A   1      43.896  26.718  35.088  1.00  0.00     0.148 A 
ATOM     64  C   UNL A   1      46.483  27.815  35.026  1.00  0.00     0.002 A 
ATOM     65  C   UNL A   1      44.928  26.117  35.796  1.00  0.00     0.091 A 
ATOM     66  F   UNL A   1      42.657  26.203  35.067  1.00  0.00    -0.205 F 
ATOM     67  C   UNL A   1      46.225  26.655  35.754  1.00  0.00     0.022 A 
BRANCH  65  68
ATOM     68  S   UNL A   1      44.673  24.676  36.836  1.00  0.00     0.127 S 
ATOM     69  O   UNL A   1      45.987  24.520  37.455  1.00  0.00    -0.237 OA
ATOM     70  O   UNL A   1      43.621  25.135  37.744  1.00  0.00    -0.237 OA
ATOM     71  O   UNL A   1      44.273  23.598  35.942  1.00  0.00    -0.744 OA
ENDBRANCH  65  68
ENDBRANCH  38  61
ENDBRANCH  12  13
ENDBRANCH   5   7
ENDBRANCH   2   3
ENDBRANCH   1   2
BRANCH   1  72
ATOM     72  C   UNL A   1      31.641  30.137  25.600  1.00  0.00     0.117 C 
BRANCH  72  73
ATOM     73  N   UNL A   1      30.754  30.200  24.453  1.00  0.00    -0.356 N 
ATOM     74  C   UNL A   1      30.655  29.246  23.478  1.00  0.00     0.224 C 
ATOM     75  H   UNL A   1      30.177  30.994  24.369  1.00  0.00     0.163 HD
ATOM     76  O   UNL A   1      30.094  29.504  22.417  1.00  0.00    -0.275 OA
BRANCH  74  77
ATOM     77  C   UNL A   1      31.113  27.857  23.853  1.00  0.00     0.098 C 
ATOM     78  C   UNL A   1      29.822  27.017  23.869  1.00  0.00     0.017 C 
ATOM     79  C   UNL A   1      32.223  27.329  22.930  1.00  0.00     0.133 C 
ATOM     80  C   UNL A   1      30.159  25.556  24.035  1.00  0.00     0.022 C 
ATOM     81  N   UNL A   1      32.367  25.876  23.106  1.00  0.00    -0.342 N 
ATOM     82  C   UNL A   1      31.117  25.200  22.918  1.00  0.00     0.119 C 
BRANCH  81  83
ATOM     83  C   UNL A   1      33.542  25.296  23.537  1.00  0.00     0.226 C 
ATOM     84  O   UNL A   1      34.256  24.693  22.725  1.00  0.00    -0.275 OA
BRANCH  83  85
ATOM     85  C   UNL A   1      34.019  25.335  25.021  1.00  0.00     0.090 C 
ATOM     86  C   UNL A   1      35.316  24.596  25.335  1.00  0.00     0.075 C 
ATOM     87  C   UNL A   1      33.001  25.151  26.147  1.00  0.00     0.075 C 
ATOM     88  C   UNL A   1      35.130  23.144  25.762  1.00  0.00     0.263 C 
ATOM     89  C   UNL A   1      32.903  23.752  26.783  1.00  0.00     0.263 C 
ATOM     90  N   UNL A   1      34.095  22.901  26.766  1.00  0.00    -0.329 N 
ATOM     91  H   UNL A   1      34.582  23.245  27.594  1.00  0.00     0.348 HD
BRANCH  90  92
ATOM     92  C   UNL A   1      33.789  21.462  26.984  1.00  0.00     0.338 C 
BRANCH  92  93
ATOM     93  C   UNL A   1      33.504  20.613  25.768  1.00  0.00     0.157 A 
ATOM     94  C   UNL A   1      34.217  19.641  25.086  1.00  0.00     0.052 A 
ATOM     95  O   UNL A   1      32.280  20.768  25.170  1.00  0.00    -0.463 OA
ATOM     96  C   UNL A   1      33.418  19.229  23.990  1.00  0.00     0.042 A 
ATOM     97  C   UNL A   1      32.239  19.927  24.099  1.00  0.00     0.195 A 
ENDBRANCH  92  93
ENDBRANCH  90  92
ENDBRANCH  83  85
ENDBRANCH  81  83
ENDBRANCH  74  77
ENDBRANCH  72  73
ENDBRANCH   1  72
TORSDOF 17
ENDMDL
MODEL 3
REMARK VINA RESULT:     -12.6      6.270     11.855
REMARK SMILES O=C(NCCCNC(=O)[C@H]1CCCN(C(=O)C2CC[NH+](Cc3ccco3)CC2)C1)c1ccc(-c2c3nc(c(-c4cccc(S(=O)(=O)[O-])c4F)c4ccc([nH]4)c(-c4cccc(S(=O)(=O)[O-])c4F)c4nc(c(-c5cccc(S(=O)(=O)[O-])c5F)c5ccc2[nH]5)C=C4)C=C3)cc1
REMARK SMILES IDX 5 1 4 2 3 3 1 4 2 5 30 7 31 8 92 9 32 10 91 11 33 12 34 13
REMARK SMILES IDX 35 14 85 15 36 16 90 17 84 18 86 19 37 20 89 21 83 22 82 23
REMARK SMILES IDX 38 25 70 26 50 27 69 28 51 29 54 30 68 31 87 32 52 33 53 34
REMARK SMILES IDX 67 36 88 37 55 38 39 39 40 40 48 41 41 42 43 43 49 44 42 45
REMARK SMILES IDX 44 46 45 47 46 48 47 49 71 50 72 51 80 52 73 53 75 54 81 55
REMARK SMILES IDX 74 56 76 57 77 58 78 59 79 60 56 61 57 62 65 63 58 64 60 65
REMARK SMILES IDX 66 66 59 67 61 68 62 69 63 70 64 71 6 72 7 73 8 74 9 76
REMARK SMILES IDX 10 77 11 78 29 79 12 80 14 81 13 82 15 83 16 84 17 85 18 86
REMARK SMILES IDX 28 87 19 88 27 89 20 90 21 92 22 93 23 94 26 95 24 96 25 97
REMARK H PARENT 3 6 86 24 54 35 7 75 20 91
REMARK Flexibility Score: inf
ROOT
ATOM      1  C   UNL A   1      31.651  31.568  26.759  1.00  0.00     0.042 C 
ENDROOT
BRANCH   1   2
ATOM      2  C   UNL A   1      32.907  32.222  27.310  1.00  0.00     0.118 C 
BRANCH   2   3
ATOM      3  N   UNL A   1      32.700  33.651  27.500  1.00  0.00    -0.352 N 
ATOM      4  O   UNL A   1      32.637  35.511  28.769  1.00  0.00    -0.269 OA
ATOM      5  C   UNL A   1      33.186  34.439  28.505  1.00  0.00     0.251 C 
ATOM      6  H   UNL A   1      32.144  34.102  26.826  1.00  0.00     0.163 HD
BRANCH   5   7
ATOM      7  C   UNL A   1      34.378  33.985  29.239  1.00  0.00     0.039 A 
ATOM      8  C   UNL A   1      34.217  33.114  30.322  1.00  0.00     0.014 A 
ATOM      9  C   UNL A   1      35.647  34.404  28.843  1.00  0.00     0.014 A 
ATOM     10  C   UNL A   1      35.313  32.751  31.082  1.00  0.00     0.010 A 
ATOM     11  C   UNL A   1      36.763  33.944  29.541  1.00  0.00     0.010 A 
ATOM     12  C   UNL A   1      36.600  33.113  30.662  1.00  0.00    -0.014 A 
BRANCH  12  13
ATOM     13  C   UNL A   1      37.756  32.459  31.312  1.00  0.00     0.031 A 
ATOM     14  C   UNL A   1      38.483  31.324  30.664  1.00  0.00     0.074 A 
ATOM     15  C   UNL A   1      38.120  32.918  32.527  1.00  0.00     0.049 A 
ATOM     16  N   UNL A   1      39.505  30.650  31.118  1.00  0.00    -0.248 NA
ATOM     17  C   UNL A   1      38.005  30.877  29.344  1.00  0.00     0.031 C 
ATOM     18  C   UNL A   1      37.438  33.993  33.260  1.00  0.00     0.029 A 
ATOM     19  N   UNL A   1      39.135  32.544  33.365  1.00  0.00    -0.354 N 
ATOM     20  C   UNL A   1      39.767  29.671  30.170  1.00  0.00     0.074 A 
ATOM     21  C   UNL A   1      38.802  29.843  29.105  1.00  0.00     0.031 C 
ATOM     22  C   UNL A   1      38.063  34.202  34.425  1.00  0.00     0.029 A 
ATOM     23  C   UNL A   1      39.138  33.230  34.557  1.00  0.00     0.049 A 
ATOM     24  H   UNL A   1      39.799  31.853  33.137  1.00  0.00     0.167 HD
ATOM     25  C   UNL A   1      40.730  28.720  30.196  1.00  0.00     0.034 A 
ATOM     26  C   UNL A   1      39.894  33.066  35.658  1.00  0.00     0.034 A 
ATOM     27  C   UNL A   1      41.699  28.587  31.252  1.00  0.00     0.049 A 
ATOM     28  C   UNL A   1      40.954  32.007  35.641  1.00  0.00     0.074 A 
ATOM     29  C   UNL A   1      42.771  27.716  31.326  1.00  0.00     0.029 A 
ATOM     30  N   UNL A   1      41.701  29.324  32.426  1.00  0.00    -0.354 N 
ATOM     31  N   UNL A   1      41.290  31.194  34.668  1.00  0.00    -0.248 NA
ATOM     32  C   UNL A   1      41.754  31.852  36.861  1.00  0.00     0.031 C 
ATOM     33  C   UNL A   1      43.397  27.896  32.563  1.00  0.00     0.029 A 
ATOM     34  C   UNL A   1      42.736  28.905  33.245  1.00  0.00     0.049 A 
ATOM     35  H   UNL A   1      41.062  30.039  32.646  1.00  0.00     0.167 HD
ATOM     36  C   UNL A   1      42.350  30.444  35.153  1.00  0.00     0.074 A 
ATOM     37  C   UNL A   1      42.627  30.927  36.491  1.00  0.00     0.031 C 
ATOM     38  C   UNL A   1      43.019  29.427  34.557  1.00  0.00     0.034 A 
BRANCH  25  39
ATOM     39  C   UNL A   1      40.810  27.747  29.051  1.00  0.00     0.023 A 
ATOM     40  C   UNL A   1      39.876  26.697  28.955  1.00  0.00     0.012 A 
ATOM     41  C   UNL A   1      41.734  27.952  28.006  1.00  0.00     0.148 A 
ATOM     42  C   UNL A   1      39.865  25.860  27.840  1.00  0.00     0.002 A 
ATOM     43  C   UNL A   1      41.690  27.140  26.880  1.00  0.00     0.091 A 
ATOM     44  F   UNL A   1      42.625  28.946  28.129  1.00  0.00    -0.205 F 
ATOM     45  C   UNL A   1      40.762  26.089  26.798  1.00  0.00     0.022 A 
BRANCH  43  46
ATOM     46  S   UNL A   1      42.744  27.403  25.449  1.00  0.00     0.127 S 
ATOM     47  O   UNL A   1      42.599  26.133  24.738  1.00  0.00    -0.237 OA
ATOM     48  O   UNL A   1      42.098  28.543  24.799  1.00  0.00    -0.237 OA
ATOM     49  O   UNL A   1      44.077  27.671  25.972  1.00  0.00    -0.744 OA
ENDBRANCH  43  46
ENDBRANCH  25  39
BRANCH  26  50
ATOM     50  C   UNL A   1      39.662  33.916  36.858  1.00  0.00     0.023 A 
ATOM     51  C   UNL A   1      40.040  35.271  36.840  1.00  0.00     0.012 A 
ATOM     52  C   UNL A   1      39.054  33.386  38.015  1.00  0.00     0.148 A 
ATOM     53  C   UNL A   1      39.855  36.074  37.967  1.00  0.00     0.002 A 
ATOM     54  C   UNL A   1      38.814  34.208  39.109  1.00  0.00     0.091 A 
ATOM     55  F   UNL A   1      38.712  32.090  38.020  1.00  0.00    -0.205 F 
ATOM     56  C   UNL A   1      39.234  35.545  39.095  1.00  0.00     0.022 A 
BRANCH  54  57
ATOM     57  S   UNL A   1      37.887  33.640  40.539  1.00  0.00     0.127 S 
ATOM     58  O   UNL A   1      38.797  32.654  41.112  1.00  0.00    -0.237 OA
ATOM     59  O   UNL A   1      37.742  34.872  41.317  1.00  0.00    -0.237 OA
ATOM     60  O   UNL A   1      36.633  33.122  40.007  1.00  0.00    -0.744 OA
ENDBRANCH  54  57
ENDBRANCH  26  50
BRANCH  38  61
ATOM     61  C   UNL A   1      44.127  28.781  35.345  1.00  0.00     0.023 A 
ATOM     62  C   UNL A   1      45.448  29.251  35.203  1.00  0.00     0.012 A 
ATOM     63  C   UNL A   1      43.851  27.749  36.262  1.00  0.00     0.148 A 
ATOM     64  C   UNL A   1      46.484  28.676  35.936  1.00  0.00     0.002 A 
ATOM     65  C   UNL A   1      44.880  27.219  37.028  1.00  0.00     0.091 A 
ATOM     66  F   UNL A   1      42.589  27.308  36.366  1.00  0.00    -0.205 F 
ATOM     67  C   UNL A   1      46.199  27.670  36.856  1.00  0.00     0.022 A 
BRANCH  65  68
ATOM     68  S   UNL A   1      44.596  25.988  38.304  1.00  0.00     0.127 S 
ATOM     69  O   UNL A   1      43.870  24.956  37.566  1.00  0.00    -0.237 OA
ATOM     70  O   UNL A   1      45.960  25.620  38.685  1.00  0.00    -0.237 OA
ATOM     71  O   UNL A   1      43.834  26.658  39.350  1.00  0.00    -0.744 OA
ENDBRANCH  65  68
ENDBRANCH  38  61
ENDBRANCH  12  13
ENDBRANCH   5   7
ENDBRANCH   2   3
ENDBRANCH   1   2
BRANCH   1  72
ATOM     72  C   UNL A   1      31.913  30.122  26.356  1.00  0.00     0.117 C 
BRANCH  72  73
ATOM     73  N   UNL A   1      32.075  30.029  24.917  1.00  0.00    -0.356 N 
ATOM     74  C   UNL A   1      32.215  28.866  24.211  1.00  0.00     0.224 C 
ATOM     75  H   UNL A   1      32.085  30.871  24.407  1.00  0.00     0.163 HD
ATOM     76  O   UNL A   1      32.619  28.893  23.052  1.00  0.00    -0.275 OA
BRANCH  74  77
ATOM     77  C   UNL A   1      31.693  27.614  24.875  1.00  0.00     0.098 C 
ATOM     78  C   UNL A   1      30.331  27.361  24.202  1.00  0.00     0.017 C 
ATOM     79  C   UNL A   1      32.686  26.443  24.797  1.00  0.00     0.133 C 
ATOM     80  C   UNL A   1      29.785  26.022  24.631  1.00  0.00     0.022 C 
ATOM     81  N   UNL A   1      31.998  25.185  25.122  1.00  0.00    -0.342 N 
ATOM     82  C   UNL A   1      30.843  24.992  24.296  1.00  0.00     0.119 C 
BRANCH  81  83
ATOM     83  C   UNL A   1      32.369  24.393  26.189  1.00  0.00     0.226 C 
ATOM     84  O   UNL A   1      31.670  24.384  27.211  1.00  0.00    -0.275 OA
BRANCH  83  85
ATOM     85  C   UNL A   1      33.656  23.511  26.191  1.00  0.00     0.090 C 
ATOM     86  C   UNL A   1      34.030  22.856  24.866  1.00  0.00     0.075 C 
ATOM     87  C   UNL A   1      33.918  22.562  27.361  1.00  0.00     0.075 C 
ATOM     88  C   UNL A   1      33.453  21.459  24.665  1.00  0.00     0.263 C 
ATOM     89  C   UNL A   1      33.557  21.080  27.158  1.00  0.00     0.263 C 
ATOM     90  N   UNL A   1      33.589  20.542  25.795  1.00  0.00    -0.329 N 
ATOM     91  H   UNL A   1      34.579  20.315  25.707  1.00  0.00     0.348 HD
BRANCH  90  92
ATOM     92  C   UNL A   1      32.817  19.280  25.647  1.00  0.00     0.338 C 
BRANCH  92  93
ATOM     93  C   UNL A   1      33.332  18.254  24.665  1.00  0.00     0.157 A 
ATOM     94  C   UNL A   1      33.052  17.966  23.340  1.00  0.00     0.052 A 
ATOM     95  O   UNL A   1      34.312  17.402  25.107  1.00  0.00    -0.463 OA
ATOM     96  C   UNL A   1      33.850  16.853  22.977  1.00  0.00     0.042 A 
ATOM     97  C   UNL A   1      34.617  16.563  24.079  1.00  0.00     0.195 A 
ENDBRANCH  92  93
ENDBRANCH  90  92
ENDBRANCH  83  85
ENDBRANCH  81  83
ENDBRANCH  74  77
ENDBRANCH  72  73
ENDBRANCH   1  72
TORSDOF 17
ENDMDL
