MODEL 1
REMARK VINA RESULT:     -12.9      0.000      0.000
REMARK SMILES Cc1ccc(CN(CC(=O)NCCCNC(=O)c2ccc(-c3c4nc(c(-c5cccc(S(=O)(=O)[O-])c5F)c5ccc([nH]5)c(-c5cccc(S(=O)(=O)[O-])c5F)c5nc(c(-c6cccc(S(=O)(=O)[O-])c6F)c6ccc3[nH]6)C=C5)C=C4)cc2)C(=O)c2cc3c(s2)CCOC3)cc1
REMARK SMILES IDX 13 1 12 2 11 3 9 4 10 5 8 7 7 8 6 9 5 10 1 11 2 12 3 13
REMARK SMILES IDX 93 14 4 15 92 16 81 17 82 18 83 19 84 20 87 21 85 22 86 23
REMARK SMILES IDX 91 24 88 25 90 26 89 27 14 28 15 29 16 30 17 32 18 33 19 34
REMARK SMILES IDX 80 35 20 36 79 37 21 38 22 39 23 40 73 41 24 42 78 43 72 44
REMARK SMILES IDX 74 45 25 46 77 47 71 48 70 49 26 51 58 52 38 53 57 54 39 55
REMARK SMILES IDX 42 56 56 57 75 58 40 59 41 60 55 62 76 63 43 64 27 65 28 66
REMARK SMILES IDX 36 67 29 68 31 69 37 70 30 71 32 72 33 73 34 74 35 75 59 76
REMARK SMILES IDX 60 77 68 78 61 79 63 80 69 81 62 82 64 83 65 84 66 85 67 86
REMARK SMILES IDX 44 87 45 88 53 89 46 90 48 91 54 92 47 93 49 94 50 95 51 96
REMARK SMILES IDX 52 97
REMARK H PARENT 11 6 15 31 74 50 42 61
REMARK Flexibility Score: inf
ROOT
ATOM      1  C   UNL A   1      33.269  31.203  26.864  1.00  0.00     0.042 C 
ENDROOT
BRANCH   1   2
ATOM      2  C   UNL A   1      32.567  30.257  25.910  1.00  0.00     0.117 C 
BRANCH   2   3
ATOM      3  N   UNL A   1      31.784  29.225  26.567  1.00  0.00    -0.354 N 
ATOM      4  C   UNL A   1      31.946  27.871  26.572  1.00  0.00     0.239 C 
ATOM      5  O   UNL A   1      31.491  27.260  27.548  1.00  0.00    -0.273 OA
ATOM      6  H   UNL A   1      31.017  29.555  27.088  1.00  0.00     0.163 HD
BRANCH   4   7
ATOM      7  C   UNL A   1      32.763  27.102  25.510  1.00  0.00     0.220 C 
BRANCH   7   8
ATOM      8  N   UNL A   1      32.154  25.904  24.918  1.00  0.00    -0.324 N 
BRANCH   8   9
ATOM      9  C   UNL A   1      31.634  25.999  23.556  1.00  0.00     0.156 C 
BRANCH   9  10
ATOM     10  C   UNL A   1      30.573  27.050  23.349  1.00  0.00    -0.029 A 
ATOM     11  C   UNL A   1      27.648  30.142  22.656  1.00  0.00     0.044 C 
ATOM     12  C   UNL A   1      28.663  29.063  22.879  1.00  0.00    -0.051 A 
ATOM     13  C   UNL A   1      28.296  27.860  23.500  1.00  0.00     0.004 A 
ATOM     14  C   UNL A   1      29.990  29.253  22.493  1.00  0.00     0.004 A 
ATOM     15  C   UNL A   1      29.244  26.858  23.732  1.00  0.00     0.006 A 
ATOM     16  C   UNL A   1      30.933  28.257  22.725  1.00  0.00     0.006 A 
ENDBRANCH   9  10
ENDBRANCH   8   9
BRANCH   8  17
ATOM     17  C   UNL A   1      32.098  24.644  25.552  1.00  0.00     0.264 C 
ATOM     18  O   UNL A   1      31.023  24.199  25.956  1.00  0.00    -0.268 OA
BRANCH  17  19
ATOM     19  C   UNL A   1      33.327  23.874  25.659  1.00  0.00     0.093 A 
ATOM     20  C   UNL A   1      34.610  24.259  26.006  1.00  0.00     0.032 A 
ATOM     21  S   UNL A   1      33.253  22.183  25.347  1.00  0.00    -0.135 S 
ATOM     22  C   UNL A   1      35.565  23.230  25.751  1.00  0.00    -0.008 A 
ATOM     23  C   UNL A   1      34.936  22.044  25.442  1.00  0.00     0.013 A 
ATOM     24  C   UNL A   1      37.060  23.350  25.738  1.00  0.00     0.196 C 
ATOM     25  C   UNL A   1      35.700  20.791  25.178  1.00  0.00     0.075 C 
ATOM     26  O   UNL A   1      37.739  22.083  25.557  1.00  0.00    -0.376 OA
ATOM     27  C   UNL A   1      37.072  21.210  24.630  1.00  0.00     0.166 C 
ENDBRANCH  17  19
ENDBRANCH   8  17
ENDBRANCH   7   8
ENDBRANCH   4   7
ENDBRANCH   2   3
ENDBRANCH   1   2
BRANCH   1  28
ATOM     28  C   UNL A   1      34.386  30.614  27.701  1.00  0.00     0.118 C 
BRANCH  28  29
ATOM     29  N   UNL A   1      35.401  31.590  28.081  1.00  0.00    -0.352 N 
ATOM     30  C   UNL A   1      36.712  31.364  28.466  1.00  0.00     0.251 C 
ATOM     31  H   UNL A   1      35.117  32.533  28.061  1.00  0.00     0.163 HD
ATOM     32  O   UNL A   1      37.407  32.307  28.837  1.00  0.00    -0.269 OA
BRANCH  30  33
ATOM     33  C   UNL A   1      37.276  30.004  28.304  1.00  0.00     0.039 A 
ATOM     34  C   UNL A   1      37.253  29.157  29.415  1.00  0.00     0.014 A 
ATOM     35  C   UNL A   1      38.070  29.703  27.200  1.00  0.00     0.014 A 
ATOM     36  C   UNL A   1      38.235  28.180  29.543  1.00  0.00     0.010 A 
ATOM     37  C   UNL A   1      39.107  28.812  27.367  1.00  0.00     0.010 A 
ATOM     38  C   UNL A   1      39.230  28.111  28.573  1.00  0.00    -0.014 A 
BRANCH  38  39
ATOM     39  C   UNL A   1      40.482  27.397  28.741  1.00  0.00     0.031 A 
ATOM     40  C   UNL A   1      40.544  25.946  28.535  1.00  0.00     0.074 A 
ATOM     41  C   UNL A   1      41.618  28.108  28.911  1.00  0.00     0.049 A 
ATOM     42  N   UNL A   1      41.481  25.198  29.007  1.00  0.00    -0.248 NA
ATOM     43  C   UNL A   1      39.536  25.225  27.770  1.00  0.00     0.031 C 
ATOM     44  C   UNL A   1      42.988  27.656  28.709  1.00  0.00     0.029 A 
ATOM     45  N   UNL A   1      41.757  29.365  29.504  1.00  0.00    -0.354 N 
ATOM     46  C   UNL A   1      41.377  23.983  28.372  1.00  0.00     0.074 A 
ATOM     47  C   UNL A   1      40.104  24.019  27.685  1.00  0.00     0.031 C 
ATOM     48  C   UNL A   1      43.814  28.464  29.393  1.00  0.00     0.029 A 
ATOM     49  C   UNL A   1      42.984  29.343  30.195  1.00  0.00     0.049 A 
ATOM     50  H   UNL A   1      41.124  30.117  29.450  1.00  0.00     0.167 HD
ATOM     51  C   UNL A   1      42.456  23.152  28.338  1.00  0.00     0.034 A 
ATOM     52  C   UNL A   1      43.093  29.541  31.543  1.00  0.00     0.034 A 
ATOM     53  C   UNL A   1      43.607  23.731  29.047  1.00  0.00     0.049 A 
ATOM     54  C   UNL A   1      43.714  28.354  32.272  1.00  0.00     0.074 A 
ATOM     55  C   UNL A   1      44.750  24.401  28.636  1.00  0.00     0.029 A 
ATOM     56  N   UNL A   1      43.531  23.929  30.417  1.00  0.00    -0.354 N 
ATOM     57  N   UNL A   1      44.191  27.284  31.696  1.00  0.00    -0.248 NA
ATOM     58  C   UNL A   1      43.725  28.244  33.729  1.00  0.00     0.031 C 
ATOM     59  C   UNL A   1      45.356  25.003  29.775  1.00  0.00     0.029 A 
ATOM     60  C   UNL A   1      44.596  24.687  30.885  1.00  0.00     0.049 A 
ATOM     61  H   UNL A   1      42.810  23.575  30.988  1.00  0.00     0.167 HD
ATOM     62  C   UNL A   1      44.378  26.300  32.638  1.00  0.00     0.074 A 
ATOM     63  C   UNL A   1      44.098  26.966  33.900  1.00  0.00     0.031 C 
ATOM     64  C   UNL A   1      44.664  24.997  32.310  1.00  0.00     0.034 A 
BRANCH  51  65
ATOM     65  C   UNL A   1      42.558  21.996  27.363  1.00  0.00     0.023 A 
ATOM     66  C   UNL A   1      41.756  20.859  27.607  1.00  0.00     0.012 A 
ATOM     67  C   UNL A   1      43.435  21.915  26.257  1.00  0.00     0.148 A 
ATOM     68  C   UNL A   1      41.899  19.671  26.886  1.00  0.00     0.002 A 
ATOM     69  C   UNL A   1      43.638  20.704  25.588  1.00  0.00     0.091 A 
ATOM     70  F   UNL A   1      44.032  23.027  25.806  1.00  0.00    -0.205 F 
ATOM     71  C   UNL A   1      42.873  19.578  25.904  1.00  0.00     0.022 A 
BRANCH  69  72
ATOM     72  S   UNL A   1      44.965  20.472  24.391  1.00  0.00     0.127 S 
ATOM     73  O   UNL A   1      44.836  19.050  24.056  1.00  0.00    -0.237 OA
ATOM     74  O   UNL A   1      44.585  21.383  23.314  1.00  0.00    -0.237 OA
ATOM     75  O   UNL A   1      46.197  20.799  25.099  1.00  0.00    -0.744 OA
ENDBRANCH  69  72
ENDBRANCH  51  65
BRANCH  52  76
ATOM     76  C   UNL A   1      42.001  30.409  32.087  1.00  0.00     0.023 A 
ATOM     77  C   UNL A   1      41.933  31.737  31.597  1.00  0.00     0.012 A 
ATOM     78  C   UNL A   1      40.858  29.849  32.679  1.00  0.00     0.148 A 
ATOM     79  C   UNL A   1      40.709  32.407  31.525  1.00  0.00     0.002 A 
ATOM     80  C   UNL A   1      39.648  30.534  32.623  1.00  0.00     0.091 A 
ATOM     81  F   UNL A   1      40.932  28.621  33.209  1.00  0.00    -0.205 F 
ATOM     82  C   UNL A   1      39.559  31.786  31.998  1.00  0.00     0.022 A 
BRANCH  80  83
ATOM     83  S   UNL A   1      38.151  29.761  33.245  1.00  0.00     0.127 S 
ATOM     84  O   UNL A   1      38.240  30.059  34.670  1.00  0.00    -0.237 OA
ATOM     85  O   UNL A   1      37.098  30.480  32.530  1.00  0.00    -0.237 OA
ATOM     86  O   UNL A   1      38.286  28.364  32.860  1.00  0.00    -0.744 OA
ENDBRANCH  80  83
ENDBRANCH  52  76
BRANCH  64  87
ATOM     87  C   UNL A   1      44.961  23.878  33.308  1.00  0.00     0.023 A 
ATOM     88  C   UNL A   1      43.963  22.986  33.743  1.00  0.00     0.012 A 
ATOM     89  C   UNL A   1      46.233  23.733  33.932  1.00  0.00     0.148 A 
ATOM     90  C   UNL A   1      44.234  21.920  34.609  1.00  0.00     0.002 A 
ATOM     91  C   UNL A   1      46.497  22.691  34.819  1.00  0.00     0.091 A 
ATOM     92  F   UNL A   1      47.192  24.637  33.717  1.00  0.00    -0.205 F 
ATOM     93  C   UNL A   1      45.508  21.760  35.131  1.00  0.00     0.022 A 
BRANCH  91  94
ATOM     94  S   UNL A   1      48.086  22.500  35.644  1.00  0.00     0.127 S 
ATOM     95  O   UNL A   1      48.996  22.393  34.503  1.00  0.00    -0.237 OA
ATOM     96  O   UNL A   1      48.190  23.754  36.390  1.00  0.00    -0.237 OA
ATOM     97  O   UNL A   1      47.980  21.307  36.469  1.00  0.00    -0.744 OA
ENDBRANCH  91  94
ENDBRANCH  64  87
ENDBRANCH  38  39
ENDBRANCH  30  33
ENDBRANCH  28  29
ENDBRANCH   1  28
TORSDOF 18
ENDMDL
MODEL 2
REMARK VINA RESULT:     -12.9      1.225      2.597
REMARK SMILES Cc1ccc(CN(CC(=O)NCCCNC(=O)c2ccc(-c3c4nc(c(-c5cccc(S(=O)(=O)[O-])c5F)c5ccc([nH]5)c(-c5cccc(S(=O)(=O)[O-])c5F)c5nc(c(-c6cccc(S(=O)(=O)[O-])c6F)c6ccc3[nH]6)C=C5)C=C4)cc2)C(=O)c2cc3c(s2)CCOC3)cc1
REMARK SMILES IDX 13 1 12 2 11 3 9 4 10 5 8 7 7 8 6 9 5 10 1 11 2 12 3 13
REMARK SMILES IDX 93 14 4 15 92 16 81 17 82 18 83 19 84 20 87 21 85 22 86 23
REMARK SMILES IDX 91 24 88 25 90 26 89 27 14 28 15 29 16 30 17 32 18 33 19 34
REMARK SMILES IDX 80 35 20 36 79 37 21 38 22 39 23 40 73 41 24 42 78 43 72 44
REMARK SMILES IDX 74 45 25 46 77 47 71 48 70 49 26 51 58 52 38 53 57 54 39 55
REMARK SMILES IDX 42 56 56 57 75 58 40 59 41 60 55 62 76 63 43 64 27 65 28 66
REMARK SMILES IDX 36 67 29 68 31 69 37 70 30 71 32 72 33 73 34 74 35 75 59 76
REMARK SMILES IDX 60 77 68 78 61 79 63 80 69 81 62 82 64 83 65 84 66 85 67 86
REMARK SMILES IDX 44 87 45 88 53 89 46 90 48 91 54 92 47 93 49 94 50 95 51 96
REMARK SMILES IDX 52 97
REMARK H PARENT 11 6 15 31 74 50 42 61
REMARK Flexibility Score: inf
ROOT
ATOM      1  C   UNL A   1      33.202  31.206  26.979  1.00  0.00     0.042 C 
ENDROOT
BRANCH   1   2
ATOM      2  C   UNL A   1      32.266  30.244  26.273  1.00  0.00     0.117 C 
BRANCH   2   3
ATOM      3  N   UNL A   1      32.764  29.763  24.996  1.00  0.00    -0.354 N 
ATOM      4  C   UNL A   1      32.270  28.797  24.170  1.00  0.00     0.239 C 
ATOM      5  O   UNL A   1      32.553  28.895  22.969  1.00  0.00    -0.273 OA
ATOM      6  H   UNL A   1      33.586  30.202  24.679  1.00  0.00     0.163 HD
BRANCH   4   7
ATOM      7  C   UNL A   1      31.293  27.693  24.631  1.00  0.00     0.220 C 
BRANCH   7   8
ATOM      8  N   UNL A   1      31.815  26.652  25.526  1.00  0.00    -0.324 N 
BRANCH   8   9
ATOM      9  C   UNL A   1      33.234  26.691  25.871  1.00  0.00     0.156 C 
BRANCH   9  10
ATOM     10  C   UNL A   1      34.081  25.629  25.216  1.00  0.00    -0.029 A 
ATOM     11  C   UNL A   1      36.455  22.652  23.193  1.00  0.00     0.044 C 
ATOM     12  C   UNL A   1      35.642  23.700  23.890  1.00  0.00    -0.051 A 
ATOM     13  C   UNL A   1      35.782  23.907  25.269  1.00  0.00     0.004 A 
ATOM     14  C   UNL A   1      34.718  24.464  23.176  1.00  0.00     0.004 A 
ATOM     15  C   UNL A   1      35.008  24.867  25.930  1.00  0.00     0.006 A 
ATOM     16  C   UNL A   1      33.947  25.419  23.834  1.00  0.00     0.006 A 
ENDBRANCH   9  10
ENDBRANCH   8   9
BRANCH   8  17
ATOM     17  C   UNL A   1      31.024  25.652  26.131  1.00  0.00     0.264 C 
ATOM     18  O   UNL A   1      29.993  25.955  26.733  1.00  0.00    -0.268 OA
BRANCH  17  19
ATOM     19  C   UNL A   1      31.431  24.265  25.975  1.00  0.00     0.093 A 
ATOM     20  C   UNL A   1      32.028  23.391  26.865  1.00  0.00     0.032 A 
ATOM     21  S   UNL A   1      31.127  23.497  24.465  1.00  0.00    -0.135 S 
ATOM     22  C   UNL A   1      32.476  22.197  26.224  1.00  0.00    -0.008 A 
ATOM     23  C   UNL A   1      31.994  22.123  24.935  1.00  0.00     0.013 A 
ATOM     24  C   UNL A   1      33.391  21.146  26.778  1.00  0.00     0.196 C 
ATOM     25  C   UNL A   1      32.270  20.952  24.054  1.00  0.00     0.075 C 
ATOM     26  O   UNL A   1      33.551  20.001  25.906  1.00  0.00    -0.376 OA
ATOM     27  C   UNL A   1      33.608  20.352  24.513  1.00  0.00     0.166 C 
ENDBRANCH  17  19
ENDBRANCH   8  17
ENDBRANCH   7   8
ENDBRANCH   4   7
ENDBRANCH   2   3
ENDBRANCH   1   2
BRANCH   1  28
ATOM     28  C   UNL A   1      34.397  30.596  27.679  1.00  0.00     0.118 C 
BRANCH  28  29
ATOM     29  N   UNL A   1      35.407  31.576  28.062  1.00  0.00    -0.352 N 
ATOM     30  C   UNL A   1      36.719  31.355  28.446  1.00  0.00     0.251 C 
ATOM     31  H   UNL A   1      35.118  32.517  28.044  1.00  0.00     0.163 HD
ATOM     32  O   UNL A   1      37.410  32.302  28.820  1.00  0.00    -0.269 OA
BRANCH  30  33
ATOM     33  C   UNL A   1      37.290  29.999  28.281  1.00  0.00     0.039 A 
ATOM     34  C   UNL A   1      37.276  29.151  29.391  1.00  0.00     0.014 A 
ATOM     35  C   UNL A   1      38.083  29.703  27.175  1.00  0.00     0.014 A 
ATOM     36  C   UNL A   1      38.263  28.179  29.515  1.00  0.00     0.010 A 
ATOM     37  C   UNL A   1      39.125  28.818  27.338  1.00  0.00     0.010 A 
ATOM     38  C   UNL A   1      39.255  28.117  28.542  1.00  0.00    -0.014 A 
BRANCH  38  39
ATOM     39  C   UNL A   1      40.512  27.409  28.705  1.00  0.00     0.031 A 
ATOM     40  C   UNL A   1      40.578  25.956  28.511  1.00  0.00     0.074 A 
ATOM     41  C   UNL A   1      41.647  28.126  28.860  1.00  0.00     0.049 A 
ATOM     42  N   UNL A   1      41.522  25.217  28.981  1.00  0.00    -0.248 NA
ATOM     43  C   UNL A   1      39.567  25.225  27.761  1.00  0.00     0.031 C 
ATOM     44  C   UNL A   1      43.017  27.679  28.650  1.00  0.00     0.029 A 
ATOM     45  N   UNL A   1      41.785  29.389  29.441  1.00  0.00    -0.354 N 
ATOM     46  C   UNL A   1      41.418  23.996  28.357  1.00  0.00     0.074 A 
ATOM     47  C   UNL A   1      40.139  24.020  27.680  1.00  0.00     0.031 C 
ATOM     48  C   UNL A   1      43.844  28.495  29.320  1.00  0.00     0.029 A 
ATOM     49  C   UNL A   1      43.018  29.378  30.122  1.00  0.00     0.049 A 
ATOM     50  H   UNL A   1      41.148  30.138  29.386  1.00  0.00     0.167 HD
ATOM     51  C   UNL A   1      42.501  23.170  28.320  1.00  0.00     0.034 A 
ATOM     52  C   UNL A   1      43.137  29.587  31.467  1.00  0.00     0.034 A 
ATOM     53  C   UNL A   1      43.655  23.759  29.015  1.00  0.00     0.049 A 
ATOM     54  C   UNL A   1      43.770  28.409  32.201  1.00  0.00     0.074 A 
ATOM     55  C   UNL A   1      44.792  24.431  28.589  1.00  0.00     0.029 A 
ATOM     56  N   UNL A   1      43.590  23.968  30.384  1.00  0.00    -0.354 N 
ATOM     57  N   UNL A   1      44.246  27.337  31.629  1.00  0.00    -0.248 NA
ATOM     58  C   UNL A   1      43.793  28.311  33.659  1.00  0.00     0.031 C 
ATOM     59  C   UNL A   1      45.405  25.044  29.718  1.00  0.00     0.029 A 
ATOM     60  C   UNL A   1      44.655  24.735  30.837  1.00  0.00     0.049 A 
ATOM     61  H   UNL A   1      42.875  23.616  30.964  1.00  0.00     0.167 HD
ATOM     62  C   UNL A   1      44.446  26.361  32.578  1.00  0.00     0.074 A 
ATOM     63  C   UNL A   1      44.173  27.036  33.836  1.00  0.00     0.031 C 
ATOM     64  C   UNL A   1      44.734  25.056  32.258  1.00  0.00     0.034 A 
BRANCH  51  65
ATOM     65  C   UNL A   1      42.599  22.006  27.355  1.00  0.00     0.023 A 
ATOM     66  C   UNL A   1      41.778  20.882  27.595  1.00  0.00     0.012 A 
ATOM     67  C   UNL A   1      43.490  21.906  26.261  1.00  0.00     0.148 A 
ATOM     68  C   UNL A   1      41.915  19.687  26.884  1.00  0.00     0.002 A 
ATOM     69  C   UNL A   1      43.685  20.687  25.602  1.00  0.00     0.091 A 
ATOM     70  F   UNL A   1      44.108  23.006  25.811  1.00  0.00    -0.205 F 
ATOM     71  C   UNL A   1      42.900  19.574  25.916  1.00  0.00     0.022 A 
BRANCH  69  72
ATOM     72  S   UNL A   1      45.024  20.429  24.425  1.00  0.00     0.127 S 
ATOM     73  O   UNL A   1      46.204  20.810  25.207  1.00  0.00    -0.237 OA
ATOM     74  O   UNL A   1      44.925  19.000  24.138  1.00  0.00    -0.237 OA
ATOM     75  O   UNL A   1      44.745  21.325  23.308  1.00  0.00    -0.744 OA
ENDBRANCH  69  72
ENDBRANCH  51  65
BRANCH  52  76
ATOM     76  C   UNL A   1      42.046  30.455  32.013  1.00  0.00     0.023 A 
ATOM     77  C   UNL A   1      41.950  31.769  31.492  1.00  0.00     0.012 A 
ATOM     78  C   UNL A   1      40.924  29.896  32.644  1.00  0.00     0.148 A 
ATOM     79  C   UNL A   1      40.717  32.422  31.430  1.00  0.00     0.002 A 
ATOM     80  C   UNL A   1      39.704  30.565  32.598  1.00  0.00     0.091 A 
ATOM     81  F   UNL A   1      41.025  28.684  33.202  1.00  0.00    -0.205 F 
ATOM     82  C   UNL A   1      39.585  31.799  31.943  1.00  0.00     0.022 A 
BRANCH  80  83
ATOM     83  S   UNL A   1      38.231  29.789  33.271  1.00  0.00     0.127 S 
ATOM     84  O   UNL A   1      37.175  30.555  32.619  1.00  0.00    -0.237 OA
ATOM     85  O   UNL A   1      38.359  28.406  32.816  1.00  0.00    -0.237 OA
ATOM     86  O   UNL A   1      38.366  29.958  34.711  1.00  0.00    -0.744 OA
ENDBRANCH  80  83
ENDBRANCH  52  76
BRANCH  64  87
ATOM     87  C   UNL A   1      45.045  23.948  33.263  1.00  0.00     0.023 A 
ATOM     88  C   UNL A   1      44.044  23.087  33.752  1.00  0.00     0.012 A 
ATOM     89  C   UNL A   1      46.336  23.782  33.839  1.00  0.00     0.148 A 
ATOM     90  C   UNL A   1      44.325  22.029  34.626  1.00  0.00     0.002 A 
ATOM     91  C   UNL A   1      46.611  22.748  34.733  1.00  0.00     0.091 A 
ATOM     92  F   UNL A   1      47.307  24.659  33.571  1.00  0.00    -0.205 F 
ATOM     93  C   UNL A   1      45.614  21.847  35.100  1.00  0.00     0.022 A 
BRANCH  91  94
ATOM     94  S   UNL A   1      48.227  22.533  35.497  1.00  0.00     0.127 S 
ATOM     95  O   UNL A   1      48.338  23.756  36.293  1.00  0.00    -0.237 OA
ATOM     96  O   UNL A   1      48.029  21.313  36.280  1.00  0.00    -0.237 OA
ATOM     97  O   UNL A   1      49.184  22.411  34.408  1.00  0.00    -0.744 OA
ENDBRANCH  91  94
ENDBRANCH  64  87
ENDBRANCH  38  39
ENDBRANCH  30  33
ENDBRANCH  28  29
ENDBRANCH   1  28
TORSDOF 18
ENDMDL
MODEL 3
REMARK VINA RESULT:     -12.9      4.271      9.997
REMARK SMILES Cc1ccc(CN(CC(=O)NCCCNC(=O)c2ccc(-c3c4nc(c(-c5cccc(S(=O)(=O)[O-])c5F)c5ccc([nH]5)c(-c5cccc(S(=O)(=O)[O-])c5F)c5nc(c(-c6cccc(S(=O)(=O)[O-])c6F)c6ccc3[nH]6)C=C5)C=C4)cc2)C(=O)c2cc3c(s2)CCOC3)cc1
REMARK SMILES IDX 13 1 12 2 11 3 9 4 10 5 8 7 7 8 6 9 5 10 1 11 2 12 3 13
REMARK SMILES IDX 93 14 4 15 92 16 81 17 82 18 83 19 84 20 87 21 85 22 86 23
REMARK SMILES IDX 91 24 88 25 90 26 89 27 14 28 15 29 16 30 17 32 18 33 19 34
REMARK SMILES IDX 80 35 20 36 79 37 21 38 22 39 23 40 73 41 24 42 78 43 72 44
REMARK SMILES IDX 74 45 25 46 77 47 71 48 70 49 26 51 58 52 38 53 57 54 39 55
REMARK SMILES IDX 42 56 56 57 75 58 40 59 41 60 55 62 76 63 43 64 27 65 28 66
REMARK SMILES IDX 36 67 29 68 31 69 37 70 30 71 32 72 33 73 34 74 35 75 59 76
REMARK SMILES IDX 60 77 68 78 61 79 63 80 69 81 62 82 64 83 65 84 66 85 67 86
REMARK SMILES IDX 44 87 45 88 53 89 46 90 48 91 54 92 47 93 49 94 50 95 51 96
REMARK SMILES IDX 52 97
REMARK H PARENT 11 6 15 31 74 50 42 61
REMARK Flexibility Score: inf
ROOT
ATOM      1  C   UNL A   1      37.693  22.914  24.815  1.00  0.00     0.042 C 
ENDROOT
BRANCH   1   2
ATOM      2  C   UNL A   1      36.369  23.652  24.867  1.00  0.00     0.117 C 
BRANCH   2   3
ATOM      3  N   UNL A   1      35.209  22.805  24.648  1.00  0.00    -0.354 N 
ATOM      4  C   UNL A   1      33.997  23.103  24.098  1.00  0.00     0.239 C 
ATOM      5  O   UNL A   1      33.376  22.165  23.580  1.00  0.00    -0.273 OA
ATOM      6  H   UNL A   1      35.315  21.873  24.943  1.00  0.00     0.163 HD
BRANCH   4   7
ATOM      7  C   UNL A   1      33.441  24.539  23.978  1.00  0.00     0.220 C 
BRANCH   7   8
ATOM      8  N   UNL A   1      32.093  24.793  24.503  1.00  0.00    -0.324 N 
BRANCH   8   9
ATOM      9  C   UNL A   1      31.956  25.097  25.926  1.00  0.00     0.156 C 
BRANCH   9  10
ATOM     10  C   UNL A   1      32.331  26.504  26.318  1.00  0.00    -0.029 A 
ATOM     11  C   UNL A   1      33.547  30.509  27.355  1.00  0.00     0.044 C 
ATOM     12  C   UNL A   1      33.122  29.123  26.977  1.00  0.00    -0.051 A 
ATOM     13  C   UNL A   1      31.806  28.696  27.202  1.00  0.00     0.004 A 
ATOM     14  C   UNL A   1      34.041  28.233  26.419  1.00  0.00     0.004 A 
ATOM     15  C   UNL A   1      31.410  27.395  26.873  1.00  0.00     0.006 A 
ATOM     16  C   UNL A   1      33.648  26.938  26.093  1.00  0.00     0.006 A 
ENDBRANCH   9  10
ENDBRANCH   8   9
BRANCH   8  17
ATOM     17  C   UNL A   1      30.925  24.832  23.712  1.00  0.00     0.264 C 
ATOM     18  O   UNL A   1      30.482  23.801  23.207  1.00  0.00    -0.268 OA
BRANCH  17  19
ATOM     19  C   UNL A   1      30.239  26.106  23.563  1.00  0.00     0.093 A 
ATOM     20  C   UNL A   1      28.974  26.505  23.955  1.00  0.00     0.032 A 
ATOM     21  S   UNL A   1      31.087  27.398  22.805  1.00  0.00    -0.135 S 
ATOM     22  C   UNL A   1      28.613  27.767  23.395  1.00  0.00    -0.008 A 
ATOM     23  C   UNL A   1      29.700  28.367  22.798  1.00  0.00     0.013 A 
ATOM     24  C   UNL A   1      27.254  28.400  23.361  1.00  0.00     0.196 C 
ATOM     25  C   UNL A   1      29.614  29.719  22.176  1.00  0.00     0.075 C 
ATOM     26  O   UNL A   1      27.256  29.743  22.818  1.00  0.00    -0.376 OA
ATOM     27  C   UNL A   1      28.161  29.907  21.714  1.00  0.00     0.166 C 
ENDBRANCH  17  19
ENDBRANCH   8  17
ENDBRANCH   7   8
ENDBRANCH   4   7
ENDBRANCH   2   3
ENDBRANCH   1   2
BRANCH   1  28
ATOM     28  C   UNL A   1      38.184  22.313  26.115  1.00  0.00     0.118 C 
BRANCH  28  29
ATOM     29  N   UNL A   1      39.637  22.318  26.242  1.00  0.00    -0.352 N 
ATOM     30  C   UNL A   1      40.480  23.396  26.456  1.00  0.00     0.251 C 
ATOM     31  H   UNL A   1      40.076  21.439  26.166  1.00  0.00     0.163 HD
ATOM     32  O   UNL A   1      41.697  23.226  26.451  1.00  0.00    -0.269 OA
BRANCH  30  33
ATOM     33  C   UNL A   1      39.883  24.706  26.804  1.00  0.00     0.039 A 
ATOM     34  C   UNL A   1      40.426  25.845  26.202  1.00  0.00     0.014 A 
ATOM     35  C   UNL A   1      39.044  24.822  27.909  1.00  0.00     0.014 A 
ATOM     36  C   UNL A   1      40.368  27.061  26.875  1.00  0.00     0.010 A 
ATOM     37  C   UNL A   1      39.074  25.994  28.630  1.00  0.00     0.010 A 
ATOM     38  C   UNL A   1      39.804  27.086  28.147  1.00  0.00    -0.014 A 
BRANCH  38  39
ATOM     39  C   UNL A   1      39.978  28.173  29.092  1.00  0.00     0.031 A 
ATOM     40  C   UNL A   1      39.099  29.347  29.046  1.00  0.00     0.074 A 
ATOM     41  C   UNL A   1      40.837  28.009  30.122  1.00  0.00     0.049 A 
ATOM     42  N   UNL A   1      39.398  30.483  29.573  1.00  0.00    -0.248 NA
ATOM     43  C   UNL A   1      37.799  29.320  28.390  1.00  0.00     0.031 C 
ATOM     44  C   UNL A   1      40.885  28.760  31.369  1.00  0.00     0.029 A 
ATOM     45  N   UNL A   1      41.993  27.224  30.152  1.00  0.00    -0.354 N 
ATOM     46  C   UNL A   1      38.241  31.226  29.599  1.00  0.00     0.074 A 
ATOM     47  C   UNL A   1      37.302  30.499  28.773  1.00  0.00     0.031 C 
ATOM     48  C   UNL A   1      42.105  28.621  31.910  1.00  0.00     0.029 A 
ATOM     49  C   UNL A   1      42.928  27.926  30.937  1.00  0.00     0.049 A 
ATOM     50  H   UNL A   1      42.127  26.354  29.712  1.00  0.00     0.167 HD
ATOM     51  C   UNL A   1      38.139  32.274  30.464  1.00  0.00     0.034 A 
ATOM     52  C   UNL A   1      44.142  28.343  30.469  1.00  0.00     0.034 A 
ATOM     53  C   UNL A   1      39.368  32.446  31.253  1.00  0.00     0.049 A 
ATOM     54  C   UNL A   1      44.324  29.855  30.546  1.00  0.00     0.074 A 
ATOM     55  C   UNL A   1      39.743  32.082  32.538  1.00  0.00     0.029 A 
ATOM     56  N   UNL A   1      40.541  32.811  30.611  1.00  0.00    -0.354 N 
ATOM     57  N   UNL A   1      43.474  30.688  31.081  1.00  0.00    -0.248 NA
ATOM     58  C   UNL A   1      45.439  30.546  29.902  1.00  0.00     0.031 C 
ATOM     59  C   UNL A   1      41.154  32.232  32.657  1.00  0.00     0.029 A 
ATOM     60  C   UNL A   1      41.640  32.704  31.453  1.00  0.00     0.049 A 
ATOM     61  H   UNL A   1      40.589  33.110  29.673  1.00  0.00     0.167 HD
ATOM     62  C   UNL A   1      43.791  31.973  30.704  1.00  0.00     0.074 A 
ATOM     63  C   UNL A   1      45.049  31.827  29.990  1.00  0.00     0.031 C 
ATOM     64  C   UNL A   1      42.960  33.044  30.930  1.00  0.00     0.034 A 
BRANCH  51  65
ATOM     65  C   UNL A   1      36.805  32.895  30.828  1.00  0.00     0.023 A 
ATOM     66  C   UNL A   1      36.234  32.542  32.071  1.00  0.00     0.012 A 
ATOM     67  C   UNL A   1      36.036  33.753  30.009  1.00  0.00     0.148 A 
ATOM     68  C   UNL A   1      34.935  32.907  32.430  1.00  0.00     0.002 A 
ATOM     69  C   UNL A   1      34.707  34.053  30.330  1.00  0.00     0.091 A 
ATOM     70  F   UNL A   1      36.607  34.338  28.947  1.00  0.00    -0.205 F 
ATOM     71  C   UNL A   1      34.153  33.626  31.539  1.00  0.00     0.022 A 
BRANCH  69  72
ATOM     72  S   UNL A   1      33.596  34.872  29.173  1.00  0.00     0.127 S 
ATOM     73  O   UNL A   1      33.259  33.788  28.244  1.00  0.00    -0.237 OA
ATOM     74  O   UNL A   1      32.495  35.294  30.034  1.00  0.00    -0.237 OA
ATOM     75  O   UNL A   1      34.378  35.943  28.565  1.00  0.00    -0.744 OA
ENDBRANCH  69  72
ENDBRANCH  51  65
BRANCH  52  76
ATOM     76  C   UNL A   1      44.668  27.467  29.375  1.00  0.00     0.023 A 
ATOM     77  C   UNL A   1      44.952  26.120  29.711  1.00  0.00     0.012 A 
ATOM     78  C   UNL A   1      44.471  27.798  28.025  1.00  0.00     0.148 A 
ATOM     79  C   UNL A   1      44.846  25.109  28.753  1.00  0.00     0.002 A 
ATOM     80  C   UNL A   1      44.390  26.786  27.073  1.00  0.00     0.091 A 
ATOM     81  F   UNL A   1      44.272  29.079  27.689  1.00  0.00    -0.205 F 
ATOM     82  C   UNL A   1      44.520  25.439  27.442  1.00  0.00     0.022 A 
BRANCH  80  83
ATOM     83  S   UNL A   1      43.989  27.188  25.369  1.00  0.00     0.127 S 
ATOM     84  O   UNL A   1      42.991  28.237  25.545  1.00  0.00    -0.237 OA
ATOM     85  O   UNL A   1      45.272  27.643  24.837  1.00  0.00    -0.237 OA
ATOM     86  O   UNL A   1      43.523  25.929  24.807  1.00  0.00    -0.744 OA
ENDBRANCH  80  83
ENDBRANCH  52  76
BRANCH  64  87
ATOM     87  C   UNL A   1      43.289  34.501  30.610  1.00  0.00     0.023 A 
ATOM     88  C   UNL A   1      43.626  35.425  31.617  1.00  0.00     0.012 A 
ATOM     89  C   UNL A   1      43.179  35.035  29.295  1.00  0.00     0.148 A 
ATOM     90  C   UNL A   1      43.989  36.748  31.332  1.00  0.00     0.002 A 
ATOM     91  C   UNL A   1      43.510  36.359  29.013  1.00  0.00     0.091 A 
ATOM     92  F   UNL A   1      42.698  34.280  28.303  1.00  0.00    -0.205 F 
ATOM     93  C   UNL A   1      43.951  37.209  30.026  1.00  0.00     0.022 A 
BRANCH  91  94
ATOM     94  S   UNL A   1      43.353  37.067  27.365  1.00  0.00     0.127 S 
ATOM     95  O   UNL A   1      44.222  36.185  26.585  1.00  0.00    -0.237 OA
ATOM     96  O   UNL A   1      41.924  36.903  27.102  1.00  0.00    -0.237 OA
ATOM     97  O   UNL A   1      43.800  38.449  27.468  1.00  0.00    -0.744 OA
ENDBRANCH  91  94
ENDBRANCH  64  87
ENDBRANCH  38  39
ENDBRANCH  30  33
ENDBRANCH  28  29
ENDBRANCH   1  28
TORSDOF 18
ENDMDL
