MODEL 1
REMARK VINA RESULT:     -14.2      0.000      0.000
REMARK SMILES Cc1coc2cc3c(cc12)[C@@H](C)[C@H](CCC(=O)N[C@@H](Cc1c[nH]c2ccccc12)C(=O)NCCCNC(=O)c1ccc(-c2c4nc(c(-c5cccc(S(=O)(=O)[O-])c5F)c5ccc([nH]5)c(-c5cccc(S(=O)(=O)[O-])c5F)c5nc(c(-c6cccc(S(=O)(=O)[O-])c6F)c6ccc2[nH]6)C=C5)C=C4)cc1)C(=O)O3
REMARK SMILES IDX 33 1 32 2 30 3 31 4 19 6 18 7 16 8 17 9 15 11 14 12 13 13
REMARK SMILES IDX 1 14 2 15 3 16 10 17 4 18 5 19 9 20 6 21 8 22 7 23 11 24
REMARK SMILES IDX 104 25 12 26 102 27 103 28 20 29 21 30 22 31 29 32 23 33
REMARK SMILES IDX 24 34 28 35 25 37 27 38 26 39 34 40 35 41 36 42 37 43 38 45
REMARK SMILES IDX 39 46 40 47 101 48 41 49 100 50 42 51 43 52 44 53 94 54
REMARK SMILES IDX 45 55 99 56 93 57 95 58 46 59 98 60 92 61 91 62 47 64 79 65
REMARK SMILES IDX 59 66 78 67 60 68 63 69 77 70 96 71 61 72 62 73 76 75 97 76
REMARK SMILES IDX 64 77 48 78 49 79 57 80 50 81 52 82 58 83 51 84 53 85 54 86
REMARK SMILES IDX 55 87 56 88 80 89 81 90 89 91 82 92 84 93 90 94 83 95 85 96
REMARK SMILES IDX 86 97 87 98 88 99 65 100 66 101 74 102 67 103 69 104 75 105
REMARK SMILES IDX 68 106 70 107 71 108 72 109 73 110
REMARK H PARENT 32 5 18 10 23 36 36 44 95 63 63 74
REMARK Flexibility Score: inf
ROOT
ATOM      1  C   UNL A   1      37.611  23.963  25.759  1.00  0.00     0.117 C 
ENDROOT
BRANCH   1   2
ATOM      2  N   UNL A   1      37.632  23.288  24.491  1.00  0.00    -0.354 N 
ATOM      3  C   UNL A   1      36.577  23.238  23.617  1.00  0.00     0.242 C 
ATOM      4  O   UNL A   1      36.793  22.893  22.451  1.00  0.00    -0.273 OA
ATOM      5  H   UNL A   1      38.463  22.827  24.232  1.00  0.00     0.163 HD
BRANCH   3   6
ATOM      6  C   UNL A   1      35.147  23.594  24.091  1.00  0.00     0.175 C 
BRANCH   6   7
ATOM      7  N   UNL A   1      34.434  24.280  22.987  1.00  0.00    -0.344 N 
ATOM      8  C   UNL A   1      33.184  24.214  22.441  1.00  0.00     0.220 C 
ATOM      9  O   UNL A   1      32.937  24.988  21.511  1.00  0.00    -0.275 OA
ATOM     10  H   UNL A   1      35.001  24.948  22.535  1.00  0.00     0.164 HD
BRANCH   8  11
ATOM     11  C   UNL A   1      32.099  23.225  22.892  1.00  0.00     0.101 C 
BRANCH  11  12
ATOM     12  C   UNL A   1      30.671  23.743  23.258  1.00  0.00     0.026 C 
BRANCH  12  13
ATOM     13  C   UNL A   1      30.644  24.491  24.585  1.00  0.00     0.107 C 
ATOM     14  C   UNL A   1      35.003  29.297  27.721  1.00  0.00     0.048 C 
ATOM     15  C   UNL A   1      33.732  29.487  26.998  1.00  0.00    -0.005 A 
ATOM     16  C   UNL A   1      33.124  30.688  26.685  1.00  0.00     0.199 A 
ATOM     17  C   UNL A   1      32.956  28.473  26.365  1.00  0.00     0.024 A 
ATOM     18  O   UNL A   1      32.088  30.494  25.836  1.00  0.00    -0.464 OA
ATOM     19  C   UNL A   1      32.038  29.163  25.583  1.00  0.00     0.137 A 
ATOM     20  C   UNL A   1      32.981  27.057  26.323  1.00  0.00     0.020 A 
ATOM     21  C   UNL A   1      31.238  28.575  24.630  1.00  0.00     0.095 A 
ATOM     22  C   UNL A   1      32.159  26.397  25.402  1.00  0.00    -0.001 A 
ATOM     23  C   UNL A   1      31.397  27.195  24.520  1.00  0.00     0.138 A 
ATOM     24  C   UNL A   1      31.934  24.868  25.382  1.00  0.00     0.034 C 
ATOM     25  O   UNL A   1      30.692  26.592  23.507  1.00  0.00    -0.426 OA
ATOM     26  C   UNL A   1      31.746  24.351  26.833  1.00  0.00     0.014 C 
ATOM     27  C   UNL A   1      29.977  25.791  24.311  1.00  0.00     0.314 C 
ATOM     28  O   UNL A   1      28.946  26.137  24.855  1.00  0.00    -0.251 OA
ENDBRANCH  12  13
ENDBRANCH  11  12
ENDBRANCH   8  11
ENDBRANCH   6   7
BRANCH   6  29
ATOM     29  C   UNL A   1      34.480  22.429  24.932  1.00  0.00     0.072 C 
BRANCH  29  30
ATOM     30  C   UNL A   1      34.719  20.908  24.825  1.00  0.00    -0.020 A 
ATOM     31  C   UNL A   1      35.913  20.359  25.282  1.00  0.00     0.087 A 
ATOM     32  C   UNL A   1      33.929  19.749  24.364  1.00  0.00     0.003 A 
ATOM     33  N   UNL A   1      35.941  19.022  25.011  1.00  0.00    -0.361 N 
ATOM     34  C   UNL A   1      34.764  18.624  24.437  1.00  0.00     0.046 A 
ATOM     35  C   UNL A   1      32.642  19.495  23.812  1.00  0.00     0.010 A 
ATOM     36  H   UNL A   1      36.702  18.427  25.201  1.00  0.00     0.166 HD
ATOM     37  C   UNL A   1      34.403  17.348  23.969  1.00  0.00     0.026 A 
ATOM     38  C   UNL A   1      32.237  18.216  23.403  1.00  0.00     0.001 A 
ATOM     39  C   UNL A   1      33.121  17.158  23.457  1.00  0.00     0.002 A 
ENDBRANCH  29  30
ENDBRANCH   6  29
ENDBRANCH   3   6
ENDBRANCH   1   2
BRANCH   1  40
ATOM     40  C   UNL A   1      38.574  23.509  26.824  1.00  0.00     0.042 C 
BRANCH  40  41
ATOM     41  C   UNL A   1      39.363  22.269  26.437  1.00  0.00     0.118 C 
BRANCH  41  42
ATOM     42  N   UNL A   1      40.747  22.535  26.092  1.00  0.00    -0.352 N 
ATOM     43  C   UNL A   1      41.624  23.547  26.354  1.00  0.00     0.251 C 
ATOM     44  H   UNL A   1      41.145  21.821  25.542  1.00  0.00     0.163 HD
ATOM     45  O   UNL A   1      42.800  23.335  26.042  1.00  0.00    -0.269 OA
BRANCH  43  46
ATOM     46  C   UNL A   1      41.262  24.881  26.894  1.00  0.00     0.039 A 
ATOM     47  C   UNL A   1      40.793  25.945  26.130  1.00  0.00     0.014 A 
ATOM     48  C   UNL A   1      41.589  25.110  28.245  1.00  0.00     0.014 A 
ATOM     49  C   UNL A   1      40.816  27.233  26.647  1.00  0.00     0.010 A 
ATOM     50  C   UNL A   1      41.581  26.391  28.779  1.00  0.00     0.010 A 
ATOM     51  C   UNL A   1      41.270  27.460  27.952  1.00  0.00    -0.014 A 
BRANCH  51  52
ATOM     52  C   UNL A   1      41.240  28.831  28.450  1.00  0.00     0.031 A 
ATOM     53  C   UNL A   1      42.468  29.588  28.085  1.00  0.00     0.074 A 
ATOM     54  C   UNL A   1      40.206  29.380  29.125  1.00  0.00     0.049 A 
ATOM     55  N   UNL A   1      43.412  29.972  28.880  1.00  0.00    -0.248 NA
ATOM     56  C   UNL A   1      42.792  29.739  26.657  1.00  0.00     0.031 C 
ATOM     57  C   UNL A   1      38.866  28.825  29.338  1.00  0.00     0.029 A 
ATOM     58  N   UNL A   1      40.105  30.618  29.689  1.00  0.00    -0.354 N 
ATOM     59  C   UNL A   1      44.333  30.635  28.074  1.00  0.00     0.074 A 
ATOM     60  C   UNL A   1      44.007  30.283  26.718  1.00  0.00     0.031 C 
ATOM     61  C   UNL A   1      38.030  29.812  29.744  1.00  0.00     0.029 A 
ATOM     62  C   UNL A   1      38.798  31.023  29.965  1.00  0.00     0.049 A 
ATOM     63  H   UNL A   1      40.889  31.181  29.884  1.00  0.00     0.167 HD
ATOM     64  C   UNL A   1      45.114  31.626  28.582  1.00  0.00     0.034 A 
ATOM     65  C   UNL A   1      38.383  32.275  30.301  1.00  0.00     0.034 A 
ATOM     66  C   UNL A   1      45.171  31.551  30.020  1.00  0.00     0.049 A 
ATOM     67  C   UNL A   1      39.566  32.989  30.828  1.00  0.00     0.074 A 
ATOM     68  C   UNL A   1      45.617  30.626  30.940  1.00  0.00     0.029 A 
ATOM     69  N   UNL A   1      44.338  32.401  30.705  1.00  0.00    -0.354 N 
ATOM     70  N   UNL A   1      40.166  32.662  31.937  1.00  0.00    -0.248 NA
ATOM     71  C   UNL A   1      40.345  33.779  29.891  1.00  0.00     0.031 C 
ATOM     72  C   UNL A   1      44.682  30.692  32.013  1.00  0.00     0.029 A 
ATOM     73  C   UNL A   1      43.759  31.701  31.726  1.00  0.00     0.049 A 
ATOM     74  H   UNL A   1      44.185  33.351  30.497  1.00  0.00     0.167 HD
ATOM     75  C   UNL A   1      41.514  32.780  31.634  1.00  0.00     0.074 A 
ATOM     76  C   UNL A   1      41.561  33.563  30.397  1.00  0.00     0.031 C 
ATOM     77  C   UNL A   1      42.440  31.986  32.244  1.00  0.00     0.034 A 
BRANCH  64  78
ATOM     78  C   UNL A   1      45.473  32.900  27.842  1.00  0.00     0.023 A 
ATOM     79  C   UNL A   1      44.411  33.604  27.227  1.00  0.00     0.012 A 
ATOM     80  C   UNL A   1      46.785  33.280  27.472  1.00  0.00     0.148 A 
ATOM     81  C   UNL A   1      44.640  34.575  26.248  1.00  0.00     0.002 A 
ATOM     82  C   UNL A   1      47.010  34.298  26.552  1.00  0.00     0.091 A 
ATOM     83  F   UNL A   1      47.836  32.585  27.907  1.00  0.00    -0.205 F 
ATOM     84  C   UNL A   1      45.940  34.924  25.910  1.00  0.00     0.022 A 
BRANCH  82  85
ATOM     85  S   UNL A   1      48.671  34.826  26.107  1.00  0.00     0.127 S 
ATOM     86  O   UNL A   1      49.116  33.717  25.267  1.00  0.00    -0.237 OA
ATOM     87  O   UNL A   1      48.400  36.074  25.393  1.00  0.00    -0.237 OA
ATOM     88  O   UNL A   1      49.384  34.999  27.365  1.00  0.00    -0.744 OA
ENDBRANCH  82  85
ENDBRANCH  64  78
BRANCH  65  89
ATOM     89  C   UNL A   1      37.158  33.031  29.917  1.00  0.00     0.023 A 
ATOM     90  C   UNL A   1      36.616  32.873  28.620  1.00  0.00     0.012 A 
ATOM     91  C   UNL A   1      36.340  33.622  30.903  1.00  0.00     0.148 A 
ATOM     92  C   UNL A   1      35.295  33.244  28.331  1.00  0.00     0.002 A 
ATOM     93  C   UNL A   1      35.025  33.983  30.614  1.00  0.00     0.091 A 
ATOM     94  F   UNL A   1      36.820  33.742  32.148  1.00  0.00    -0.205 F 
ATOM     95  C   UNL A   1      34.495  33.785  29.332  1.00  0.00     0.022 A 
BRANCH  93  96
ATOM     96  S   UNL A   1      33.906  34.628  31.867  1.00  0.00     0.127 S 
ATOM     97  O   UNL A   1      32.756  35.037  31.060  1.00  0.00    -0.237 OA
ATOM     98  O   UNL A   1      33.680  33.452  32.703  1.00  0.00    -0.237 OA
ATOM     99  O   UNL A   1      34.615  35.728  32.507  1.00  0.00    -0.744 OA
ENDBRANCH  93  96
ENDBRANCH  65  89
BRANCH  77 100
ATOM    100  C   UNL A   1      42.005  31.159  33.431  1.00  0.00     0.023 A 
ATOM    101  C   UNL A   1      41.394  29.894  33.298  1.00  0.00     0.012 A 
ATOM    102  C   UNL A   1      42.426  31.583  34.701  1.00  0.00     0.148 A 
ATOM    103  C   UNL A   1      41.213  29.069  34.415  1.00  0.00     0.002 A 
ATOM    104  C   UNL A   1      42.294  30.741  35.797  1.00  0.00     0.091 A 
ATOM    105  F   UNL A   1      43.000  32.791  34.803  1.00  0.00    -0.205 F 
ATOM    106  C   UNL A   1      41.681  29.485  35.661  1.00  0.00     0.022 A 
BRANCH 104 107
ATOM    107  S   UNL A   1      43.009  31.159  37.388  1.00  0.00     0.127 S 
ATOM    108  O   UNL A   1      41.828  31.534  38.164  1.00  0.00    -0.237 OA
ATOM    109  O   UNL A   1      43.632  29.897  37.789  1.00  0.00    -0.237 OA
ATOM    110  O   UNL A   1      43.957  32.237  37.137  1.00  0.00    -0.744 OA
ENDBRANCH 104 107
ENDBRANCH  77 100
ENDBRANCH  51  52
ENDBRANCH  43  46
ENDBRANCH  41  42
ENDBRANCH  40  41
ENDBRANCH   1  40
TORSDOF 19
ENDMDL
MODEL 2
REMARK VINA RESULT:     -14.1      1.945      2.303
REMARK SMILES Cc1coc2cc3c(cc12)[C@@H](C)[C@H](CCC(=O)N[C@@H](Cc1c[nH]c2ccccc12)C(=O)NCCCNC(=O)c1ccc(-c2c4nc(c(-c5cccc(S(=O)(=O)[O-])c5F)c5ccc([nH]5)c(-c5cccc(S(=O)(=O)[O-])c5F)c5nc(c(-c6cccc(S(=O)(=O)[O-])c6F)c6ccc2[nH]6)C=C5)C=C4)cc1)C(=O)O3
REMARK SMILES IDX 33 1 32 2 30 3 31 4 19 6 18 7 16 8 17 9 15 11 14 12 13 13
REMARK SMILES IDX 1 14 2 15 3 16 10 17 4 18 5 19 9 20 6 21 8 22 7 23 11 24
REMARK SMILES IDX 104 25 12 26 102 27 103 28 20 29 21 30 22 31 29 32 23 33
REMARK SMILES IDX 24 34 28 35 25 37 27 38 26 39 34 40 35 41 36 42 37 43 38 45
REMARK SMILES IDX 39 46 40 47 101 48 41 49 100 50 42 51 43 52 44 53 94 54
REMARK SMILES IDX 45 55 99 56 93 57 95 58 46 59 98 60 92 61 91 62 47 64 79 65
REMARK SMILES IDX 59 66 78 67 60 68 63 69 77 70 96 71 61 72 62 73 76 75 97 76
REMARK SMILES IDX 64 77 48 78 49 79 57 80 50 81 52 82 58 83 51 84 53 85 54 86
REMARK SMILES IDX 55 87 56 88 80 89 81 90 89 91 82 92 84 93 90 94 83 95 85 96
REMARK SMILES IDX 86 97 87 98 88 99 65 100 66 101 74 102 67 103 69 104 75 105
REMARK SMILES IDX 68 106 70 107 71 108 72 109 73 110
REMARK H PARENT 32 5 18 10 23 36 36 44 95 63 63 74
REMARK Flexibility Score: inf
ROOT
ATOM      1  C   UNL A   1      37.633  23.466  25.909  1.00  0.00     0.117 C 
ENDROOT
BRANCH   1   2
ATOM      2  N   UNL A   1      37.673  22.965  24.563  1.00  0.00    -0.354 N 
ATOM      3  C   UNL A   1      36.651  23.084  23.656  1.00  0.00     0.242 C 
ATOM      4  O   UNL A   1      36.897  22.887  22.462  1.00  0.00    -0.273 OA
ATOM      5  H   UNL A   1      38.492  22.503  24.271  1.00  0.00     0.163 HD
BRANCH   3   6
ATOM      6  C   UNL A   1      35.222  23.444  24.127  1.00  0.00     0.175 C 
BRANCH   6   7
ATOM      7  N   UNL A   1      34.520  24.152  23.029  1.00  0.00    -0.344 N 
ATOM      8  C   UNL A   1      33.270  24.112  22.483  1.00  0.00     0.220 C 
ATOM      9  O   UNL A   1      33.035  24.898  21.560  1.00  0.00    -0.275 OA
ATOM     10  H   UNL A   1      35.098  24.814  22.584  1.00  0.00     0.164 HD
BRANCH   8  11
ATOM     11  C   UNL A   1      32.167  23.138  22.926  1.00  0.00     0.101 C 
BRANCH  11  12
ATOM     12  C   UNL A   1      30.738  23.672  23.260  1.00  0.00     0.026 C 
BRANCH  12  13
ATOM     13  C   UNL A   1      30.692  24.426  24.583  1.00  0.00     0.107 C 
ATOM     14  C   UNL A   1      35.007  29.249  27.756  1.00  0.00     0.048 C 
ATOM     15  C   UNL A   1      33.746  29.435  27.013  1.00  0.00    -0.005 A 
ATOM     16  C   UNL A   1      33.143  30.635  26.686  1.00  0.00     0.199 A 
ATOM     17  C   UNL A   1      32.978  28.418  26.375  1.00  0.00     0.024 A 
ATOM     18  O   UNL A   1      32.119  30.436  25.822  1.00  0.00    -0.464 OA
ATOM     19  C   UNL A   1      32.073  29.104  25.576  1.00  0.00     0.137 A 
ATOM     20  C   UNL A   1      33.004  27.001  26.341  1.00  0.00     0.020 A 
ATOM     21  C   UNL A   1      31.286  28.511  24.615  1.00  0.00     0.095 A 
ATOM     22  C   UNL A   1      32.195  26.337  25.412  1.00  0.00    -0.001 A 
ATOM     23  C   UNL A   1      31.447  27.131  24.514  1.00  0.00     0.138 A 
ATOM     24  C   UNL A   1      31.971  24.808  25.396  1.00  0.00     0.034 C 
ATOM     25  O   UNL A   1      30.756  26.522  23.494  1.00  0.00    -0.426 OA
ATOM     26  C   UNL A   1      31.761  24.298  26.848  1.00  0.00     0.014 C 
ATOM     27  C   UNL A   1      30.029  25.726  24.292  1.00  0.00     0.314 C 
ATOM     28  O   UNL A   1      28.990  26.074  24.820  1.00  0.00    -0.251 OA
ENDBRANCH  12  13
ENDBRANCH  11  12
ENDBRANCH   8  11
ENDBRANCH   6   7
BRANCH   6  29
ATOM     29  C   UNL A   1      34.541  22.272  24.946  1.00  0.00     0.072 C 
BRANCH  29  30
ATOM     30  C   UNL A   1      34.763  20.751  24.812  1.00  0.00    -0.020 A 
ATOM     31  C   UNL A   1      35.958  20.182  25.240  1.00  0.00     0.087 A 
ATOM     32  C   UNL A   1      33.953  19.606  24.346  1.00  0.00     0.003 A 
ATOM     33  N   UNL A   1      35.968  18.849  24.948  1.00  0.00    -0.361 N 
ATOM     34  C   UNL A   1      34.777  18.473  24.387  1.00  0.00     0.046 A 
ATOM     35  C   UNL A   1      32.655  19.375  23.811  1.00  0.00     0.010 A 
ATOM     36  H   UNL A   1      36.726  18.244  25.116  1.00  0.00     0.166 HD
ATOM     37  C   UNL A   1      34.395  17.208  23.905  1.00  0.00     0.026 A 
ATOM     38  C   UNL A   1      32.229  18.107  23.390  1.00  0.00     0.001 A 
ATOM     39  C   UNL A   1      33.103  17.039  23.412  1.00  0.00     0.002 A 
ENDBRANCH  29  30
ENDBRANCH   6  29
ENDBRANCH   3   6
ENDBRANCH   1   2
BRANCH   1  40
ATOM     40  C   UNL A   1      38.924  23.534  26.682  1.00  0.00     0.042 C 
BRANCH  40  41
ATOM     41  C   UNL A   1      39.725  22.244  26.638  1.00  0.00     0.118 C 
BRANCH  41  42
ATOM     42  N   UNL A   1      40.888  22.301  25.773  1.00  0.00    -0.352 N 
ATOM     43  C   UNL A   1      41.989  23.103  25.698  1.00  0.00     0.251 C 
ATOM     44  H   UNL A   1      40.881  21.601  25.080  1.00  0.00     0.163 HD
ATOM     45  O   UNL A   1      42.878  22.727  24.929  1.00  0.00    -0.269 OA
BRANCH  43  46
ATOM     46  C   UNL A   1      42.155  24.405  26.392  1.00  0.00     0.039 A 
ATOM     47  C   UNL A   1      42.712  24.564  27.657  1.00  0.00     0.014 A 
ATOM     48  C   UNL A   1      41.541  25.514  25.778  1.00  0.00     0.014 A 
ATOM     49  C   UNL A   1      42.508  25.743  28.361  1.00  0.00     0.010 A 
ATOM     50  C   UNL A   1      41.365  26.708  26.464  1.00  0.00     0.010 A 
ATOM     51  C   UNL A   1      41.780  26.791  27.784  1.00  0.00    -0.014 A 
BRANCH  51  52
ATOM     52  C   UNL A   1      41.628  28.017  28.561  1.00  0.00     0.031 A 
ATOM     53  C   UNL A   1      42.672  29.024  28.230  1.00  0.00     0.074 A 
ATOM     54  C   UNL A   1      40.633  28.245  29.445  1.00  0.00     0.049 A 
ATOM     55  N   UNL A   1      43.655  29.402  28.979  1.00  0.00    -0.248 NA
ATOM     56  C   UNL A   1      42.765  29.497  26.839  1.00  0.00     0.031 C 
ATOM     57  C   UNL A   1      39.429  27.444  29.684  1.00  0.00     0.029 A 
ATOM     58  N   UNL A   1      40.438  29.319  30.265  1.00  0.00    -0.354 N 
ATOM     59  C   UNL A   1      44.348  30.351  28.234  1.00  0.00     0.074 A 
ATOM     60  C   UNL A   1      43.887  30.215  26.879  1.00  0.00     0.031 C 
ATOM     61  C   UNL A   1      38.527  28.180  30.378  1.00  0.00     0.029 A 
ATOM     62  C   UNL A   1      39.139  29.439  30.763  1.00  0.00     0.049 A 
ATOM     63  H   UNL A   1      41.154  29.957  30.487  1.00  0.00     0.167 HD
ATOM     64  C   UNL A   1      45.046  31.344  28.851  1.00  0.00     0.034 A 
ATOM     65  C   UNL A   1      38.603  30.516  31.399  1.00  0.00     0.034 A 
ATOM     66  C   UNL A   1      45.316  31.007  30.225  1.00  0.00     0.049 A 
ATOM     67  C   UNL A   1      39.735  31.304  31.931  1.00  0.00     0.074 A 
ATOM     68  C   UNL A   1      46.015  30.011  30.875  1.00  0.00     0.029 A 
ATOM     69  N   UNL A   1      44.477  31.558  31.161  1.00  0.00    -0.354 N 
ATOM     70  N   UNL A   1      40.527  30.877  32.873  1.00  0.00    -0.248 NA
ATOM     71  C   UNL A   1      40.254  32.378  31.102  1.00  0.00     0.031 C 
ATOM     72  C   UNL A   1      45.241  29.713  32.034  1.00  0.00     0.029 A 
ATOM     73  C   UNL A   1      44.154  30.589  32.070  1.00  0.00     0.049 A 
ATOM     74  H   UNL A   1      44.163  32.491  31.176  1.00  0.00     0.167 HD
ATOM     75  C   UNL A   1      41.788  31.274  32.455  1.00  0.00     0.074 A 
ATOM     76  C   UNL A   1      41.548  32.276  31.414  1.00  0.00     0.031 C 
ATOM     77  C   UNL A   1      42.894  30.545  32.778  1.00  0.00     0.034 A 
BRANCH  64  78
ATOM     78  C   UNL A   1      45.112  32.778  28.361  1.00  0.00     0.023 A 
ATOM     79  C   UNL A   1      46.400  33.340  28.200  1.00  0.00     0.012 A 
ATOM     80  C   UNL A   1      44.020  33.676  28.334  1.00  0.00     0.148 A 
ATOM     81  C   UNL A   1      46.593  34.720  28.093  1.00  0.00     0.002 A 
ATOM     82  C   UNL A   1      44.211  35.041  28.154  1.00  0.00     0.091 A 
ATOM     83  F   UNL A   1      42.786  33.247  28.604  1.00  0.00    -0.205 F 
ATOM     84  C   UNL A   1      45.499  35.573  28.069  1.00  0.00     0.022 A 
BRANCH  82  85
ATOM     85  S   UNL A   1      42.830  36.191  28.068  1.00  0.00     0.127 S 
ATOM     86  O   UNL A   1      42.125  35.714  26.881  1.00  0.00    -0.237 OA
ATOM     87  O   UNL A   1      42.152  35.928  29.338  1.00  0.00    -0.237 OA
ATOM     88  O   UNL A   1      43.421  37.518  27.969  1.00  0.00    -0.744 OA
ENDBRANCH  82  85
ENDBRANCH  64  78
BRANCH  65  89
ATOM     89  C   UNL A   1      37.241  31.115  31.320  1.00  0.00     0.023 A 
ATOM     90  C   UNL A   1      36.535  31.406  32.511  1.00  0.00     0.012 A 
ATOM     91  C   UNL A   1      36.786  31.708  30.124  1.00  0.00     0.148 A 
ATOM     92  C   UNL A   1      35.449  32.293  32.516  1.00  0.00     0.002 A 
ATOM     93  C   UNL A   1      35.711  32.596  30.135  1.00  0.00     0.091 A 
ATOM     94  F   UNL A   1      37.467  31.479  28.994  1.00  0.00    -0.205 F 
ATOM     95  C   UNL A   1      35.046  32.899  31.331  1.00  0.00     0.022 A 
BRANCH  93  96
ATOM     96  S   UNL A   1      35.170  33.470  28.658  1.00  0.00     0.127 S 
ATOM     97  O   UNL A   1      33.714  33.418  28.795  1.00  0.00    -0.237 OA
ATOM     98  O   UNL A   1      35.756  34.792  28.860  1.00  0.00    -0.237 OA
ATOM     99  O   UNL A   1      35.697  32.713  27.531  1.00  0.00    -0.744 OA
ENDBRANCH  93  96
ENDBRANCH  65  89
BRANCH  77 100
ATOM    100  C   UNL A   1      42.753  29.446  33.804  1.00  0.00     0.023 A 
ATOM    101  C   UNL A   1      42.206  28.181  33.500  1.00  0.00     0.012 A 
ATOM    102  C   UNL A   1      43.391  29.633  35.041  1.00  0.00     0.148 A 
ATOM    103  C   UNL A   1      42.300  27.125  34.414  1.00  0.00     0.002 A 
ATOM    104  C   UNL A   1      43.530  28.569  35.922  1.00  0.00     0.091 A 
ATOM    105  F   UNL A   1      43.900  30.844  35.309  1.00  0.00    -0.205 F 
ATOM    106  C   UNL A   1      42.980  27.314  35.617  1.00  0.00     0.022 A 
BRANCH 104 107
ATOM    107  S   UNL A   1      44.519  28.713  37.411  1.00  0.00     0.127 S 
ATOM    108  O   UNL A   1      43.928  29.882  38.059  1.00  0.00    -0.237 OA
ATOM    109  O   UNL A   1      44.255  27.440  38.084  1.00  0.00    -0.237 OA
ATOM    110  O   UNL A   1      45.899  28.877  36.969  1.00  0.00    -0.744 OA
ENDBRANCH 104 107
ENDBRANCH  77 100
ENDBRANCH  51  52
ENDBRANCH  43  46
ENDBRANCH  41  42
ENDBRANCH  40  41
ENDBRANCH   1  40
TORSDOF 19
ENDMDL
MODEL 3
REMARK VINA RESULT:     -13.7      2.274      3.317
REMARK SMILES Cc1coc2cc3c(cc12)[C@@H](C)[C@H](CCC(=O)N[C@@H](Cc1c[nH]c2ccccc12)C(=O)NCCCNC(=O)c1ccc(-c2c4nc(c(-c5cccc(S(=O)(=O)[O-])c5F)c5ccc([nH]5)c(-c5cccc(S(=O)(=O)[O-])c5F)c5nc(c(-c6cccc(S(=O)(=O)[O-])c6F)c6ccc2[nH]6)C=C5)C=C4)cc1)C(=O)O3
REMARK SMILES IDX 33 1 32 2 30 3 31 4 19 6 18 7 16 8 17 9 15 11 14 12 13 13
REMARK SMILES IDX 1 14 2 15 3 16 10 17 4 18 5 19 9 20 6 21 8 22 7 23 11 24
REMARK SMILES IDX 104 25 12 26 102 27 103 28 20 29 21 30 22 31 29 32 23 33
REMARK SMILES IDX 24 34 28 35 25 37 27 38 26 39 34 40 35 41 36 42 37 43 38 45
REMARK SMILES IDX 39 46 40 47 101 48 41 49 100 50 42 51 43 52 44 53 94 54
REMARK SMILES IDX 45 55 99 56 93 57 95 58 46 59 98 60 92 61 91 62 47 64 79 65
REMARK SMILES IDX 59 66 78 67 60 68 63 69 77 70 96 71 61 72 62 73 76 75 97 76
REMARK SMILES IDX 64 77 48 78 49 79 57 80 50 81 52 82 58 83 51 84 53 85 54 86
REMARK SMILES IDX 55 87 56 88 80 89 81 90 89 91 82 92 84 93 90 94 83 95 85 96
REMARK SMILES IDX 86 97 87 98 88 99 65 100 66 101 74 102 67 103 69 104 75 105
REMARK SMILES IDX 68 106 70 107 71 108 72 109 73 110
REMARK H PARENT 32 5 18 10 23 36 36 44 95 63 63 74
REMARK Flexibility Score: inf
ROOT
ATOM      1  C   UNL A   1      35.303  22.921  24.076  1.00  0.00     0.117 C 
ENDROOT
BRANCH   1   2
ATOM      2  N   UNL A   1      34.882  23.271  22.747  1.00  0.00    -0.354 N 
ATOM      3  C   UNL A   1      33.577  23.445  22.363  1.00  0.00     0.242 C 
ATOM      4  O   UNL A   1      33.349  24.023  21.296  1.00  0.00    -0.273 OA
ATOM      5  H   UNL A   1      35.580  23.393  22.063  1.00  0.00     0.163 HD
BRANCH   3   6
ATOM      6  C   UNL A   1      32.422  22.915  23.245  1.00  0.00     0.175 C 
BRANCH   6   7
ATOM      7  N   UNL A   1      31.312  23.898  23.222  1.00  0.00    -0.344 N 
ATOM      8  C   UNL A   1      30.858  24.879  24.055  1.00  0.00     0.220 C 
ATOM      9  O   UNL A   1      29.883  25.533  23.674  1.00  0.00    -0.275 OA
ATOM     10  H   UNL A   1      30.767  23.825  22.404  1.00  0.00     0.164 HD
BRANCH   8  11
ATOM     11  C   UNL A   1      31.467  25.188  25.432  1.00  0.00     0.101 C 
BRANCH  11  12
ATOM     12  C   UNL A   1      31.055  26.488  26.196  1.00  0.00     0.026 C 
BRANCH  12  13
ATOM     13  C   UNL A   1      31.694  27.739  25.605  1.00  0.00     0.107 C 
ATOM     14  C   UNL A   1      33.952  33.998  28.373  1.00  0.00     0.048 C 
ATOM     15  C   UNL A   1      34.711  32.796  27.979  1.00  0.00    -0.005 A 
ATOM     16  C   UNL A   1      36.066  32.579  28.140  1.00  0.00     0.199 A 
ATOM     17  C   UNL A   1      34.170  31.576  27.479  1.00  0.00     0.024 A 
ATOM     18  O   UNL A   1      36.381  31.292  27.863  1.00  0.00    -0.464 OA
ATOM     19  C   UNL A   1      35.221  30.670  27.540  1.00  0.00     0.137 A 
ATOM     20  C   UNL A   1      32.893  31.136  27.050  1.00  0.00     0.020 A 
ATOM     21  C   UNL A   1      35.081  29.312  27.362  1.00  0.00     0.095 A 
ATOM     22  C   UNL A   1      32.698  29.770  26.814  1.00  0.00    -0.001 A 
ATOM     23  C   UNL A   1      33.779  28.901  27.084  1.00  0.00     0.138 A 
ATOM     24  C   UNL A   1      31.432  29.177  26.157  1.00  0.00     0.034 C 
ATOM     25  O   UNL A   1      33.586  27.543  27.007  1.00  0.00    -0.426 OA
ATOM     26  C   UNL A   1      31.008  30.060  24.953  1.00  0.00     0.014 C 
ATOM     27  C   UNL A   1      33.164  27.548  25.733  1.00  0.00     0.314 C 
ATOM     28  O   UNL A   1      33.916  27.519  24.779  1.00  0.00    -0.251 OA
ENDBRANCH  12  13
ENDBRANCH  11  12
ENDBRANCH   8  11
ENDBRANCH   6   7
BRANCH   6  29
ATOM     29  C   UNL A   1      32.178  21.362  23.054  1.00  0.00     0.072 C 
BRANCH  29  30
ATOM     30  C   UNL A   1      32.504  20.210  24.029  1.00  0.00    -0.020 A 
ATOM     31  C   UNL A   1      32.395  20.410  25.401  1.00  0.00     0.087 A 
ATOM     32  C   UNL A   1      32.898  18.794  23.890  1.00  0.00     0.003 A 
ATOM     33  N   UNL A   1      32.812  19.294  26.066  1.00  0.00    -0.361 N 
ATOM     34  C   UNL A   1      33.143  18.304  25.180  1.00  0.00     0.046 A 
ATOM     35  C   UNL A   1      33.166  17.866  22.844  1.00  0.00     0.010 A 
ATOM     36  H   UNL A   1      32.867  19.213  27.046  1.00  0.00     0.166 HD
ATOM     37  C   UNL A   1      33.654  17.022  25.448  1.00  0.00     0.026 A 
ATOM     38  C   UNL A   1      33.611  16.559  23.093  1.00  0.00     0.001 A 
ATOM     39  C   UNL A   1      33.878  16.151  24.383  1.00  0.00     0.002 A 
ENDBRANCH  29  30
ENDBRANCH   6  29
ENDBRANCH   3   6
ENDBRANCH   1   2
BRANCH   1  40
ATOM     40  C   UNL A   1      36.689  22.362  24.260  1.00  0.00     0.042 C 
BRANCH  40  41
ATOM     41  C   UNL A   1      37.257  22.596  25.649  1.00  0.00     0.118 C 
BRANCH  41  42
ATOM     42  N   UNL A   1      38.416  21.780  25.958  1.00  0.00    -0.352 N 
ATOM     43  C   UNL A   1      39.585  21.989  26.630  1.00  0.00     0.251 C 
ATOM     44  H   UNL A   1      38.343  20.866  25.599  1.00  0.00     0.163 HD
ATOM     45  O   UNL A   1      40.266  20.983  26.852  1.00  0.00    -0.269 OA
BRANCH  43  46
ATOM     46  C   UNL A   1      40.124  23.313  27.028  1.00  0.00     0.039 A 
ATOM     47  C   UNL A   1      41.257  23.505  27.814  1.00  0.00     0.014 A 
ATOM     48  C   UNL A   1      39.319  24.426  26.718  1.00  0.00     0.014 A 
ATOM     49  C   UNL A   1      41.480  24.734  28.419  1.00  0.00     0.010 A 
ATOM     50  C   UNL A   1      39.557  25.667  27.292  1.00  0.00     0.010 A 
ATOM     51  C   UNL A   1      40.594  25.797  28.204  1.00  0.00    -0.014 A 
BRANCH  51  52
ATOM     52  C   UNL A   1      40.900  27.074  28.841  1.00  0.00     0.031 A 
ATOM     53  C   UNL A   1      42.076  27.742  28.221  1.00  0.00     0.074 A 
ATOM     54  C   UNL A   1      40.182  27.622  29.844  1.00  0.00     0.049 A 
ATOM     55  N   UNL A   1      43.247  27.900  28.745  1.00  0.00    -0.248 NA
ATOM     56  C   UNL A   1      42.014  28.069  26.787  1.00  0.00     0.031 C 
ATOM     57  C   UNL A   1      38.886  27.187  30.376  1.00  0.00     0.029 A 
ATOM     58  N   UNL A   1      40.418  28.766  30.549  1.00  0.00    -0.354 N 
ATOM     59  C   UNL A   1      43.997  28.575  27.784  1.00  0.00     0.074 A 
ATOM     60  C   UNL A   1      43.265  28.465  26.552  1.00  0.00     0.031 C 
ATOM     61  C   UNL A   1      38.345  28.185  31.116  1.00  0.00     0.029 A 
ATOM     62  C   UNL A   1      39.310  29.262  31.239  1.00  0.00     0.049 A 
ATOM     63  H   UNL A   1      41.299  29.207  30.570  1.00  0.00     0.167 HD
ATOM     64  C   UNL A   1      45.022  29.391  28.151  1.00  0.00     0.034 A 
ATOM     65  C   UNL A   1      39.189  30.487  31.820  1.00  0.00     0.034 A 
ATOM     66  C   UNL A   1      45.460  29.097  29.492  1.00  0.00     0.049 A 
ATOM     67  C   UNL A   1      40.561  30.984  32.056  1.00  0.00     0.074 A 
ATOM     68  C   UNL A   1      46.004  28.002  30.132  1.00  0.00     0.029 A 
ATOM     69  N   UNL A   1      44.980  29.918  30.481  1.00  0.00    -0.354 N 
ATOM     70  N   UNL A   1      41.389  30.434  32.897  1.00  0.00    -0.248 NA
ATOM     71  C   UNL A   1      41.158  31.818  31.028  1.00  0.00     0.031 C 
ATOM     72  C   UNL A   1      45.419  28.006  31.432  1.00  0.00     0.029 A 
ATOM     73  C   UNL A   1      44.609  29.139  31.541  1.00  0.00     0.049 A 
ATOM     74  H   UNL A   1      44.914  30.899  30.435  1.00  0.00     0.167 HD
ATOM     75  C   UNL A   1      42.604  30.452  32.230  1.00  0.00     0.074 A 
ATOM     76  C   UNL A   1      42.422  31.401  31.130  1.00  0.00     0.031 C 
ATOM     77  C   UNL A   1      43.538  29.482  32.450  1.00  0.00     0.034 A 
BRANCH  64  78
ATOM     78  C   UNL A   1      45.344  30.715  27.487  1.00  0.00     0.023 A 
ATOM     79  C   UNL A   1      46.678  30.909  27.059  1.00  0.00     0.012 A 
ATOM     80  C   UNL A   1      44.517  31.862  27.524  1.00  0.00     0.148 A 
ATOM     81  C   UNL A   1      47.178  32.179  26.756  1.00  0.00     0.002 A 
ATOM     82  C   UNL A   1      44.998  33.113  27.152  1.00  0.00     0.091 A 
ATOM     83  F   UNL A   1      43.287  31.791  28.035  1.00  0.00    -0.205 F 
ATOM     84  C   UNL A   1      46.339  33.282  26.801  1.00  0.00     0.022 A 
BRANCH  82  85
ATOM     85  S   UNL A   1      43.946  34.572  27.146  1.00  0.00     0.127 S 
ATOM     86  O   UNL A   1      44.934  35.646  27.162  1.00  0.00    -0.237 OA
ATOM     87  O   UNL A   1      43.227  34.409  25.881  1.00  0.00    -0.237 OA
ATOM     88  O   UNL A   1      43.105  34.461  28.329  1.00  0.00    -0.744 OA
ENDBRANCH  82  85
ENDBRANCH  64  78
BRANCH  65  89
ATOM     89  C   UNL A   1      38.028  31.416  31.897  1.00  0.00     0.023 A 
ATOM     90  C   UNL A   1      36.820  31.084  31.240  1.00  0.00     0.012 A 
ATOM     91  C   UNL A   1      37.986  32.433  32.874  1.00  0.00     0.148 A 
ATOM     92  C   UNL A   1      35.610  31.706  31.580  1.00  0.00     0.002 A 
ATOM     93  C   UNL A   1      36.779  33.044  33.215  1.00  0.00     0.091 A 
ATOM     94  F   UNL A   1      39.110  32.733  33.537  1.00  0.00    -0.205 F 
ATOM     95  C   UNL A   1      35.587  32.675  32.577  1.00  0.00     0.022 A 
BRANCH  93  96
ATOM     96  S   UNL A   1      36.655  34.258  34.537  1.00  0.00     0.127 S 
ATOM     97  O   UNL A   1      35.490  35.038  34.118  1.00  0.00    -0.237 OA
ATOM     98  O   UNL A   1      36.435  33.409  35.704  1.00  0.00    -0.237 OA
ATOM     99  O   UNL A   1      37.911  34.995  34.521  1.00  0.00    -0.744 OA
ENDBRANCH  93  96
ENDBRANCH  65  89
BRANCH  77 100
ATOM    100  C   UNL A   1      43.330  28.539  33.611  1.00  0.00     0.023 A 
ATOM    101  C   UNL A   1      42.840  27.225  33.450  1.00  0.00     0.012 A 
ATOM    102  C   UNL A   1      43.852  28.924  34.856  1.00  0.00     0.148 A 
ATOM    103  C   UNL A   1      42.876  26.315  34.515  1.00  0.00     0.002 A 
ATOM    104  C   UNL A   1      43.936  28.004  35.893  1.00  0.00     0.091 A 
ATOM    105  F   UNL A   1      44.308  30.178  34.986  1.00  0.00    -0.205 F 
ATOM    106  C   UNL A   1      43.442  26.700  35.729  1.00  0.00     0.022 A 
BRANCH 104 107
ATOM    107  S   UNL A   1      44.785  28.396  37.423  1.00  0.00     0.127 S 
ATOM    108  O   UNL A   1      46.183  28.423  36.997  1.00  0.00    -0.237 OA
ATOM    109  O   UNL A   1      44.222  29.702  37.765  1.00  0.00    -0.237 OA
ATOM    110  O   UNL A   1      44.441  27.335  38.362  1.00  0.00    -0.744 OA
ENDBRANCH 104 107
ENDBRANCH  77 100
ENDBRANCH  51  52
ENDBRANCH  43  46
ENDBRANCH  41  42
ENDBRANCH  40  41
ENDBRANCH   1  40
TORSDOF 19
ENDMDL
