MODEL 1
REMARK VINA RESULT:     -12.8      0.000      0.000
REMARK SMILES CC(C)CSc1cc2c(cc1Cl)C=C(C(=O)NCCCNC(=O)c1ccc(-c3c4nc(c(-c5cccc(S(=O)(=O)[O-])c5F)c5ccc([nH]5)c(-c5cccc(S(=O)(=O)[O-])c5F)c5nc(c(-c6cccc(S(=O)(=O)[O-])c6F)c6ccc3[nH]6)C=C5)C=C4)cc1)[C@H](C(F)(F)F)O2
REMARK SMILES IDX 19 1 18 2 17 3 15 4 16 5 14 7 6 8 7 9 11 10 8 11 10 12 12 13
REMARK SMILES IDX 9 14 92 15 13 16 87 17 5 18 4 19 2 20 1 21 3 22 88 23 89 24
REMARK SMILES IDX 90 25 91 26 20 27 21 28 22 29 23 31 24 32 25 33 86 34 26 35
REMARK SMILES IDX 85 36 27 37 28 38 29 39 79 40 30 41 84 42 78 43 80 44 31 45
REMARK SMILES IDX 83 46 77 47 76 48 32 50 64 51 44 52 63 53 45 54 48 55 62 56
REMARK SMILES IDX 81 57 46 58 47 59 61 61 82 62 49 63 33 64 34 65 42 66 35 67
REMARK SMILES IDX 37 68 43 69 36 70 38 71 39 72 40 73 41 74 65 75 66 76 74 77
REMARK SMILES IDX 67 78 69 79 75 80 68 81 70 82 71 83 72 84 73 85 50 86 51 87
REMARK SMILES IDX 59 88 52 89 54 90 60 91 53 92 55 93 56 94 57 95 58 96
REMARK H PARENT 17 6 21 30 80 49 48 60
REMARK Flexibility Score: inf
ROOT
ATOM      1  C   UNL A   1      31.347  30.368  25.904  1.00  0.00     0.042 C 
ENDROOT
BRANCH   1   2
ATOM      2  C   UNL A   1      31.547  29.151  25.013  1.00  0.00     0.118 C 
BRANCH   2   3
ATOM      3  N   UNL A   1      32.669  29.331  24.107  1.00  0.00    -0.352 N 
ATOM      4  C   UNL A   1      33.536  28.548  23.428  1.00  0.00     0.251 C 
ATOM      5  O   UNL A   1      34.338  29.162  22.715  1.00  0.00    -0.270 OA
ATOM      6  H   UNL A   1      32.844  30.285  23.941  1.00  0.00     0.163 HD
BRANCH   4   7
ATOM      7  C   UNL A   1      33.584  27.058  23.475  1.00  0.00     0.067 C 
ATOM      8  C   UNL A   1      33.951  22.286  25.093  1.00  0.00     0.030 A 
ATOM      9  C   UNL A   1      33.907  22.901  23.833  1.00  0.00     0.063 A 
ATOM     10  C   UNL A   1      33.862  23.099  26.237  1.00  0.00     0.055 A 
ATOM     11  C   UNL A   1      33.839  24.286  23.720  1.00  0.00     0.129 A 
ATOM     12  C   UNL A   1      33.822  24.495  26.113  1.00  0.00     0.033 A 
ATOM     13  Cl  UNL A   1      33.766  22.465  27.842  1.00  0.00    -0.083 Cl
ATOM     14  C   UNL A   1      33.820  25.092  24.853  1.00  0.00     0.019 A 
ATOM     15  O   UNL A   1      33.851  24.797  22.456  1.00  0.00    -0.475 OA
ATOM     16  C   UNL A   1      33.821  26.538  24.694  1.00  0.00     0.025 C 
ATOM     17  C   UNL A   1      33.316  26.142  22.309  1.00  0.00     0.314 C 
BRANCH   8  18
ATOM     18  S   UNL A   1      34.121  20.506  25.056  1.00  0.00    -0.124 SA
BRANCH  18  19
ATOM     19  C   UNL A   1      32.829  19.977  23.873  1.00  0.00     0.078 C 
BRANCH  19  20
ATOM     20  C   UNL A   1      32.655  18.469  23.606  1.00  0.00    -0.007 C 
ATOM     21  C   UNL A   1      32.298  18.110  22.164  1.00  0.00     0.008 C 
ATOM     22  C   UNL A   1      33.971  17.766  23.966  1.00  0.00     0.008 C 
ENDBRANCH  19  20
ENDBRANCH  18  19
ENDBRANCH   8  18
BRANCH  17  23
ATOM     23  C   UNL A   1      31.833  26.082  21.896  1.00  0.00     0.429 C 
ATOM     24  F   UNL A   1      31.210  27.276  22.009  1.00  0.00    -0.167 F 
ATOM     25  F   UNL A   1      31.725  25.698  20.599  1.00  0.00    -0.167 F 
ATOM     26  F   UNL A   1      31.124  25.197  22.633  1.00  0.00    -0.167 F 
ENDBRANCH  17  23
ENDBRANCH   4   7
ENDBRANCH   2   3
ENDBRANCH   1   2
BRANCH   1  27
ATOM     27  C   UNL A   1      32.617  30.769  26.642  1.00  0.00     0.118 C 
BRANCH  27  28
ATOM     28  N   UNL A   1      32.659  32.200  26.922  1.00  0.00    -0.352 N 
ATOM     29  C   UNL A   1      33.518  32.934  27.707  1.00  0.00     0.251 C 
ATOM     30  H   UNL A   1      31.959  32.728  26.474  1.00  0.00     0.163 HD
ATOM     31  O   UNL A   1      33.219  34.086  28.003  1.00  0.00    -0.269 OA
BRANCH  29  32
ATOM     32  C   UNL A   1      34.774  32.333  28.209  1.00  0.00     0.039 A 
ATOM     33  C   UNL A   1      34.788  31.035  28.715  1.00  0.00     0.014 A 
ATOM     34  C   UNL A   1      35.962  33.070  28.159  1.00  0.00     0.014 A 
ATOM     35  C   UNL A   1      35.919  30.557  29.363  1.00  0.00     0.010 A 
ATOM     36  C   UNL A   1      37.136  32.534  28.699  1.00  0.00     0.010 A 
ATOM     37  C   UNL A   1      37.112  31.295  29.355  1.00  0.00    -0.014 A 
BRANCH  37  38
ATOM     38  C   UNL A   1      38.318  30.724  30.011  1.00  0.00     0.031 A 
ATOM     39  C   UNL A   1      38.685  31.091  31.424  1.00  0.00     0.074 A 
ATOM     40  C   UNL A   1      39.066  29.831  29.333  1.00  0.00     0.049 A 
ATOM     41  N   UNL A   1      39.680  30.651  32.149  1.00  0.00    -0.248 NA
ATOM     42  C   UNL A   1      37.839  32.081  32.111  1.00  0.00     0.031 C 
ATOM     43  C   UNL A   1      38.824  29.408  27.951  1.00  0.00     0.029 A 
ATOM     44  N   UNL A   1      40.165  29.102  29.713  1.00  0.00    -0.354 N 
ATOM     45  C   UNL A   1      39.613  31.343  33.351  1.00  0.00     0.074 A 
ATOM     46  C   UNL A   1      38.478  32.234  33.263  1.00  0.00     0.031 C 
ATOM     47  C   UNL A   1      39.706  28.456  27.620  1.00  0.00     0.029 A 
ATOM     48  C   UNL A   1      40.621  28.249  28.737  1.00  0.00     0.049 A 
ATOM     49  H   UNL A   1      40.586  29.184  30.600  1.00  0.00     0.167 HD
ATOM     50  C   UNL A   1      40.419  31.237  34.434  1.00  0.00     0.034 A 
ATOM     51  C   UNL A   1      41.666  27.401  28.726  1.00  0.00     0.034 A 
ATOM     52  C   UNL A   1      41.514  30.311  34.541  1.00  0.00     0.049 A 
ATOM     53  C   UNL A   1      42.535  27.292  29.941  1.00  0.00     0.074 A 
ATOM     54  C   UNL A   1      42.336  30.082  35.630  1.00  0.00     0.029 A 
ATOM     55  N   UNL A   1      41.944  29.471  33.527  1.00  0.00    -0.354 N 
ATOM     56  N   UNL A   1      42.402  27.895  31.096  1.00  0.00    -0.248 NA
ATOM     57  C   UNL A   1      43.687  26.385  29.860  1.00  0.00     0.031 C 
ATOM     58  C   UNL A   1      43.284  29.124  35.264  1.00  0.00     0.029 A 
ATOM     59  C   UNL A   1      43.034  28.735  33.958  1.00  0.00     0.049 A 
ATOM     60  H   UNL A   1      41.536  29.408  32.634  1.00  0.00     0.167 HD
ATOM     61  C   UNL A   1      43.444  27.433  31.888  1.00  0.00     0.074 A 
ATOM     62  C   UNL A   1      44.194  26.489  31.084  1.00  0.00     0.031 C 
ATOM     63  C   UNL A   1      43.752  27.773  33.162  1.00  0.00     0.034 A 
BRANCH  50  64
ATOM     64  C   UNL A   1      40.139  32.126  35.615  1.00  0.00     0.023 A 
ATOM     65  C   UNL A   1      40.871  33.318  35.784  1.00  0.00     0.012 A 
ATOM     66  C   UNL A   1      39.087  31.825  36.503  1.00  0.00     0.148 A 
ATOM     67  C   UNL A   1      40.570  34.190  36.829  1.00  0.00     0.002 A 
ATOM     68  C   UNL A   1      38.772  32.715  37.523  1.00  0.00     0.091 A 
ATOM     69  F   UNL A   1      38.414  30.679  36.330  1.00  0.00    -0.205 F 
ATOM     70  C   UNL A   1      39.516  33.895  37.690  1.00  0.00     0.022 A 
BRANCH  68  71
ATOM     71  S   UNL A   1      37.400  32.454  38.652  1.00  0.00     0.127 S 
ATOM     72  O   UNL A   1      37.759  33.337  39.760  1.00  0.00    -0.237 OA
ATOM     73  O   UNL A   1      36.258  32.906  37.857  1.00  0.00    -0.237 OA
ATOM     74  O   UNL A   1      37.401  31.033  38.968  1.00  0.00    -0.744 OA
ENDBRANCH  68  71
ENDBRANCH  50  64
BRANCH  51  75
ATOM     75  C   UNL A   1      41.890  26.563  27.518  1.00  0.00     0.023 A 
ATOM     76  C   UNL A   1      42.597  27.104  26.428  1.00  0.00     0.012 A 
ATOM     77  C   UNL A   1      41.529  25.201  27.505  1.00  0.00     0.148 A 
ATOM     78  C   UNL A   1      42.950  26.298  25.346  1.00  0.00     0.002 A 
ATOM     79  C   UNL A   1      41.920  24.395  26.444  1.00  0.00     0.091 A 
ATOM     80  F   UNL A   1      40.867  24.713  28.563  1.00  0.00    -0.205 F 
ATOM     81  C   UNL A   1      42.624  24.943  25.359  1.00  0.00     0.022 A 
BRANCH  79  82
ATOM     82  S   UNL A   1      41.648  22.621  26.421  1.00  0.00     0.127 S 
ATOM     83  O   UNL A   1      40.190  22.543  26.374  1.00  0.00    -0.237 OA
ATOM     84  O   UNL A   1      42.326  22.233  25.184  1.00  0.00    -0.237 OA
ATOM     85  O   UNL A   1      42.258  22.107  27.640  1.00  0.00    -0.744 OA
ENDBRANCH  79  82
ENDBRANCH  51  75
BRANCH  63  86
ATOM     86  C   UNL A   1      44.946  27.122  33.801  1.00  0.00     0.023 A 
ATOM     87  C   UNL A   1      46.192  27.776  33.766  1.00  0.00     0.012 A 
ATOM     88  C   UNL A   1      44.796  25.943  34.557  1.00  0.00     0.148 A 
ATOM     89  C   UNL A   1      47.276  27.262  34.476  1.00  0.00     0.002 A 
ATOM     90  C   UNL A   1      45.871  25.457  35.290  1.00  0.00     0.091 A 
ATOM     91  F   UNL A   1      43.598  25.341  34.567  1.00  0.00    -0.205 F 
ATOM     92  C   UNL A   1      47.112  26.114  35.248  1.00  0.00     0.022 A 
BRANCH  90  93
ATOM     93  S   UNL A   1      45.740  24.029  36.372  1.00  0.00     0.127 S 
ATOM     94  O   UNL A   1      47.082  23.969  36.947  1.00  0.00    -0.237 OA
ATOM     95  O   UNL A   1      44.693  24.444  37.304  1.00  0.00    -0.237 OA
ATOM     96  O   UNL A   1      45.385  22.904  35.517  1.00  0.00    -0.744 OA
ENDBRANCH  90  93
ENDBRANCH  63  86
ENDBRANCH  37  38
ENDBRANCH  29  32
ENDBRANCH  27  28
ENDBRANCH   1  27
TORSDOF 17
ENDMDL
MODEL 2
REMARK VINA RESULT:     -12.6      5.362     10.382
REMARK SMILES CC(C)CSc1cc2c(cc1Cl)C=C(C(=O)NCCCNC(=O)c1ccc(-c3c4nc(c(-c5cccc(S(=O)(=O)[O-])c5F)c5ccc([nH]5)c(-c5cccc(S(=O)(=O)[O-])c5F)c5nc(c(-c6cccc(S(=O)(=O)[O-])c6F)c6ccc3[nH]6)C=C5)C=C4)cc1)[C@H](C(F)(F)F)O2
REMARK SMILES IDX 19 1 18 2 17 3 15 4 16 5 14 7 6 8 7 9 11 10 8 11 10 12 12 13
REMARK SMILES IDX 9 14 92 15 13 16 87 17 5 18 4 19 2 20 1 21 3 22 88 23 89 24
REMARK SMILES IDX 90 25 91 26 20 27 21 28 22 29 23 31 24 32 25 33 86 34 26 35
REMARK SMILES IDX 85 36 27 37 28 38 29 39 79 40 30 41 84 42 78 43 80 44 31 45
REMARK SMILES IDX 83 46 77 47 76 48 32 50 64 51 44 52 63 53 45 54 48 55 62 56
REMARK SMILES IDX 81 57 46 58 47 59 61 61 82 62 49 63 33 64 34 65 42 66 35 67
REMARK SMILES IDX 37 68 43 69 36 70 38 71 39 72 40 73 41 74 65 75 66 76 74 77
REMARK SMILES IDX 67 78 69 79 75 80 68 81 70 82 71 83 72 84 73 85 50 86 51 87
REMARK SMILES IDX 59 88 52 89 54 90 60 91 53 92 55 93 56 94 57 95 58 96
REMARK H PARENT 17 6 21 30 80 49 48 60
REMARK Flexibility Score: inf
ROOT
ATOM      1  C   UNL A   1      35.919  21.167  25.284  1.00  0.00     0.042 C 
ENDROOT
BRANCH   1   2
ATOM      2  C   UNL A   1      34.850  22.073  25.876  1.00  0.00     0.118 C 
BRANCH   2   3
ATOM      3  N   UNL A   1      33.524  21.493  25.742  1.00  0.00    -0.352 N 
ATOM      4  C   UNL A   1      32.304  21.884  25.311  1.00  0.00     0.251 C 
ATOM      5  O   UNL A   1      31.437  21.004  25.345  1.00  0.00    -0.270 OA
ATOM      6  H   UNL A   1      33.511  20.557  26.048  1.00  0.00     0.163 HD
BRANCH   4   7
ATOM      7  C   UNL A   1      31.953  23.246  24.814  1.00  0.00     0.067 C 
ATOM      8  C   UNL A   1      30.962  28.194  24.576  1.00  0.00     0.030 A 
ATOM      9  C   UNL A   1      30.844  27.120  23.683  1.00  0.00     0.063 A 
ATOM     10  C   UNL A   1      31.484  27.944  25.857  1.00  0.00     0.055 A 
ATOM     11  C   UNL A   1      31.177  25.828  24.077  1.00  0.00     0.129 A 
ATOM     12  C   UNL A   1      31.791  26.634  26.255  1.00  0.00     0.033 A 
ATOM     13  Cl  UNL A   1      31.811  29.194  27.006  1.00  0.00    -0.083 Cl
ATOM     14  C   UNL A   1      31.628  25.572  25.368  1.00  0.00     0.019 A 
ATOM     15  O   UNL A   1      30.982  24.839  23.159  1.00  0.00    -0.475 OA
ATOM     16  C   UNL A   1      31.898  24.198  25.765  1.00  0.00     0.025 C 
ATOM     17  C   UNL A   1      31.743  23.616  23.369  1.00  0.00     0.314 C 
BRANCH   8  18
ATOM     18  S   UNL A   1      30.413  29.771  23.934  1.00  0.00    -0.124 SA
BRANCH  18  19
ATOM     19  C   UNL A   1      29.308  29.308  22.551  1.00  0.00     0.078 C 
BRANCH  19  20
ATOM     20  C   UNL A   1      27.808  29.642  22.672  1.00  0.00    -0.007 C 
ATOM     21  C   UNL A   1      26.964  28.565  23.353  1.00  0.00     0.008 C 
ATOM     22  C   UNL A   1      27.671  30.941  23.478  1.00  0.00     0.008 C 
ENDBRANCH  19  20
ENDBRANCH  18  19
ENDBRANCH   8  18
BRANCH  17  23
ATOM     23  C   UNL A   1      33.043  23.650  22.542  1.00  0.00     0.429 C 
ATOM     24  F   UNL A   1      34.122  23.993  23.281  1.00  0.00    -0.167 F 
ATOM     25  F   UNL A   1      33.293  22.425  22.017  1.00  0.00    -0.167 F 
ATOM     26  F   UNL A   1      32.980  24.520  21.509  1.00  0.00    -0.167 F 
ENDBRANCH  17  23
ENDBRANCH   4   7
ENDBRANCH   2   3
ENDBRANCH   1   2
BRANCH   1  27
ATOM     27  C   UNL A   1      37.313  21.774  25.367  1.00  0.00     0.118 C 
BRANCH  27  28
ATOM     28  N   UNL A   1      38.320  20.785  25.738  1.00  0.00    -0.352 N 
ATOM     29  C   UNL A   1      39.592  20.946  26.237  1.00  0.00     0.251 C 
ATOM     30  H   UNL A   1      38.044  19.849  25.609  1.00  0.00     0.163 HD
ATOM     31  O   UNL A   1      40.358  19.989  26.239  1.00  0.00    -0.269 OA
BRANCH  29  32
ATOM     32  C   UNL A   1      40.037  22.264  26.744  1.00  0.00     0.039 A 
ATOM     33  C   UNL A   1      39.529  23.442  26.200  1.00  0.00     0.014 A 
ATOM     34  C   UNL A   1      40.965  22.326  27.789  1.00  0.00     0.014 A 
ATOM     35  C   UNL A   1      40.098  24.662  26.541  1.00  0.00     0.010 A 
ATOM     36  C   UNL A   1      41.443  23.567  28.221  1.00  0.00     0.010 A 
ATOM     37  C   UNL A   1      41.055  24.744  27.563  1.00  0.00    -0.014 A 
BRANCH  37  38
ATOM     38  C   UNL A   1      41.599  26.075  27.938  1.00  0.00     0.031 A 
ATOM     39  C   UNL A   1      42.993  26.486  27.549  1.00  0.00     0.074 A 
ATOM     40  C   UNL A   1      40.805  26.938  28.604  1.00  0.00     0.049 A 
ATOM     41  N   UNL A   1      43.598  27.625  27.765  1.00  0.00    -0.248 NA
ATOM     42  C   UNL A   1      43.818  25.499  26.834  1.00  0.00     0.031 C 
ATOM     43  C   UNL A   1      39.441  26.651  29.055  1.00  0.00     0.029 A 
ATOM     44  N   UNL A   1      41.017  28.235  29.000  1.00  0.00    -0.354 N 
ATOM     45  C   UNL A   1      44.886  27.475  27.265  1.00  0.00     0.074 A 
ATOM     46  C   UNL A   1      44.977  26.135  26.729  1.00  0.00     0.031 C 
ATOM     47  C   UNL A   1      38.918  27.751  29.611  1.00  0.00     0.029 A 
ATOM     48  C   UNL A   1      39.930  28.802  29.621  1.00  0.00     0.049 A 
ATOM     49  H   UNL A   1      41.865  28.713  28.855  1.00  0.00     0.167 HD
ATOM     50  C   UNL A   1      45.895  28.377  27.243  1.00  0.00     0.034 A 
ATOM     51  C   UNL A   1      39.759  30.025  30.157  1.00  0.00     0.034 A 
ATOM     52  C   UNL A   1      45.785  29.727  27.726  1.00  0.00     0.049 A 
ATOM     53  C   UNL A   1      40.886  31.010  30.110  1.00  0.00     0.074 A 
ATOM     54  C   UNL A   1      46.733  30.733  27.675  1.00  0.00     0.029 A 
ATOM     55  N   UNL A   1      44.669  30.257  28.353  1.00  0.00    -0.354 N 
ATOM     56  N   UNL A   1      42.066  30.874  29.556  1.00  0.00    -0.248 NA
ATOM     57  C   UNL A   1      40.664  32.313  30.747  1.00  0.00     0.031 C 
ATOM     58  C   UNL A   1      46.201  31.864  28.298  1.00  0.00     0.029 A 
ATOM     59  C   UNL A   1      44.911  31.571  28.712  1.00  0.00     0.049 A 
ATOM     60  H   UNL A   1      43.829  29.771  28.519  1.00  0.00     0.167 HD
ATOM     61  C   UNL A   1      42.724  32.078  29.764  1.00  0.00     0.074 A 
ATOM     62  C   UNL A   1      41.807  32.937  30.485  1.00  0.00     0.031 C 
ATOM     63  C   UNL A   1      43.980  32.429  29.398  1.00  0.00     0.034 A 
BRANCH  50  64
ATOM     64  C   UNL A   1      47.212  27.952  26.654  1.00  0.00     0.023 A 
ATOM     65  C   UNL A   1      48.243  27.496  27.499  1.00  0.00     0.012 A 
ATOM     66  C   UNL A   1      47.393  27.917  25.257  1.00  0.00     0.148 A 
ATOM     67  C   UNL A   1      49.441  27.025  26.962  1.00  0.00     0.002 A 
ATOM     68  C   UNL A   1      48.577  27.417  24.729  1.00  0.00     0.091 A 
ATOM     69  F   UNL A   1      46.403  28.369  24.474  1.00  0.00    -0.205 F 
ATOM     70  C   UNL A   1      49.603  26.976  25.580  1.00  0.00     0.022 A 
BRANCH  68  71
ATOM     71  S   UNL A   1      48.864  27.260  22.963  1.00  0.00     0.127 S 
ATOM     72  O   UNL A   1      48.265  25.957  22.682  1.00  0.00    -0.237 OA
ATOM     73  O   UNL A   1      48.119  28.401  22.429  1.00  0.00    -0.237 OA
ATOM     74  O   UNL A   1      50.307  27.332  22.779  1.00  0.00    -0.744 OA
ENDBRANCH  68  71
ENDBRANCH  50  64
BRANCH  51  75
ATOM     75  C   UNL A   1      38.434  30.371  30.735  1.00  0.00     0.023 A 
ATOM     76  C   UNL A   1      38.181  30.092  32.091  1.00  0.00     0.012 A 
ATOM     77  C   UNL A   1      37.484  31.095  29.986  1.00  0.00     0.148 A 
ATOM     78  C   UNL A   1      37.006  30.538  32.696  1.00  0.00     0.002 A 
ATOM     79  C   UNL A   1      36.337  31.571  30.606  1.00  0.00     0.091 A 
ATOM     80  F   UNL A   1      37.760  31.355  28.700  1.00  0.00    -0.205 F 
ATOM     81  C   UNL A   1      36.092  31.287  31.959  1.00  0.00     0.022 A 
BRANCH  79  82
ATOM     82  S   UNL A   1      35.157  32.639  29.774  1.00  0.00     0.127 S 
ATOM     83  O   UNL A   1      34.611  31.744  28.755  1.00  0.00    -0.237 OA
ATOM     84  O   UNL A   1      34.236  32.967  30.863  1.00  0.00    -0.237 OA
ATOM     85  O   UNL A   1      35.927  33.765  29.264  1.00  0.00    -0.744 OA
ENDBRANCH  79  82
ENDBRANCH  51  75
BRANCH  63  86
ATOM     86  C   UNL A   1      44.461  33.809  29.747  1.00  0.00     0.023 A 
ATOM     87  C   UNL A   1      45.187  34.008  30.937  1.00  0.00     0.012 A 
ATOM     88  C   UNL A   1      44.321  34.867  28.829  1.00  0.00     0.148 A 
ATOM     89  C   UNL A   1      45.767  35.246  31.208  1.00  0.00     0.002 A 
ATOM     90  C   UNL A   1      44.932  36.087  29.089  1.00  0.00     0.091 A 
ATOM     91  F   UNL A   1      43.620  34.648  27.707  1.00  0.00    -0.205 F 
ATOM     92  C   UNL A   1      45.652  36.278  30.280  1.00  0.00     0.022 A 
BRANCH  90  93
ATOM     93  S   UNL A   1      44.904  37.453  27.924  1.00  0.00     0.127 S 
ATOM     94  O   UNL A   1      45.567  36.866  26.762  1.00  0.00    -0.237 OA
ATOM     95  O   UNL A   1      43.470  37.686  27.757  1.00  0.00    -0.237 OA
ATOM     96  O   UNL A   1      45.629  38.545  28.560  1.00  0.00    -0.744 OA
ENDBRANCH  90  93
ENDBRANCH  63  86
ENDBRANCH  37  38
ENDBRANCH  29  32
ENDBRANCH  27  28
ENDBRANCH   1  27
TORSDOF 17
ENDMDL
MODEL 3
REMARK VINA RESULT:     -12.4      2.332      3.058
REMARK SMILES CC(C)CSc1cc2c(cc1Cl)C=C(C(=O)NCCCNC(=O)c1ccc(-c3c4nc(c(-c5cccc(S(=O)(=O)[O-])c5F)c5ccc([nH]5)c(-c5cccc(S(=O)(=O)[O-])c5F)c5nc(c(-c6cccc(S(=O)(=O)[O-])c6F)c6ccc3[nH]6)C=C5)C=C4)cc1)[C@H](C(F)(F)F)O2
REMARK SMILES IDX 19 1 18 2 17 3 15 4 16 5 14 7 6 8 7 9 11 10 8 11 10 12 12 13
REMARK SMILES IDX 9 14 92 15 13 16 87 17 5 18 4 19 2 20 1 21 3 22 88 23 89 24
REMARK SMILES IDX 90 25 91 26 20 27 21 28 22 29 23 31 24 32 25 33 86 34 26 35
REMARK SMILES IDX 85 36 27 37 28 38 29 39 79 40 30 41 84 42 78 43 80 44 31 45
REMARK SMILES IDX 83 46 77 47 76 48 32 50 64 51 44 52 63 53 45 54 48 55 62 56
REMARK SMILES IDX 81 57 46 58 47 59 61 61 82 62 49 63 33 64 34 65 42 66 35 67
REMARK SMILES IDX 37 68 43 69 36 70 38 71 39 72 40 73 41 74 65 75 66 76 74 77
REMARK SMILES IDX 67 78 69 79 75 80 68 81 70 82 71 83 72 84 73 85 50 86 51 87
REMARK SMILES IDX 59 88 52 89 54 90 60 91 53 92 55 93 56 94 57 95 58 96
REMARK H PARENT 17 6 21 30 80 49 48 60
REMARK Flexibility Score: inf
ROOT
ATOM      1  C   UNL A   1      31.672  32.303  26.512  1.00  0.00     0.042 C 
ENDROOT
BRANCH   1   2
ATOM      2  C   UNL A   1      31.703  30.795  26.308  1.00  0.00     0.118 C 
BRANCH   2   3
ATOM      3  N   UNL A   1      31.225  30.426  24.986  1.00  0.00    -0.352 N 
ATOM      4  C   UNL A   1      31.203  29.322  24.208  1.00  0.00     0.251 C 
ATOM      5  O   UNL A   1      30.632  29.465  23.121  1.00  0.00    -0.270 OA
ATOM      6  H   UNL A   1      30.799  31.189  24.534  1.00  0.00     0.163 HD
BRANCH   4   7
ATOM      7  C   UNL A   1      31.792  27.997  24.559  1.00  0.00     0.067 C 
ATOM      8  C   UNL A   1      32.433  23.323  26.366  1.00  0.00     0.030 A 
ATOM      9  C   UNL A   1      33.277  24.283  25.791  1.00  0.00     0.063 A 
ATOM     10  C   UNL A   1      31.067  23.628  26.500  1.00  0.00     0.055 A 
ATOM     11  C   UNL A   1      32.786  25.530  25.419  1.00  0.00     0.129 A 
ATOM     12  C   UNL A   1      30.586  24.897  26.149  1.00  0.00     0.033 A 
ATOM     13  Cl  UNL A   1      29.895  22.489  27.063  1.00  0.00    -0.083 Cl
ATOM     14  C   UNL A   1      31.448  25.855  25.616  1.00  0.00     0.019 A 
ATOM     15  O   UNL A   1      33.690  26.418  24.915  1.00  0.00    -0.475 OA
ATOM     16  C   UNL A   1      30.987  27.194  25.282  1.00  0.00     0.025 C 
ATOM     17  C   UNL A   1      33.140  27.497  24.108  1.00  0.00     0.314 C 
BRANCH   8  18
ATOM     18  S   UNL A   1      33.244  21.806  26.860  1.00  0.00    -0.124 SA
BRANCH  18  19
ATOM     19  C   UNL A   1      34.942  21.997  26.207  1.00  0.00     0.078 C 
BRANCH  19  20
ATOM     20  C   UNL A   1      35.343  21.180  24.963  1.00  0.00    -0.007 C 
ATOM     21  C   UNL A   1      36.797  20.708  24.946  1.00  0.00     0.008 C 
ATOM     22  C   UNL A   1      34.435  19.945  24.891  1.00  0.00     0.008 C 
ENDBRANCH  19  20
ENDBRANCH  18  19
ENDBRANCH   8  18
BRANCH  17  23
ATOM     23  C   UNL A   1      33.195  27.125  22.614  1.00  0.00     0.429 C 
ATOM     24  F   UNL A   1      31.975  26.852  22.099  1.00  0.00    -0.167 F 
ATOM     25  F   UNL A   1      33.709  28.154  21.895  1.00  0.00    -0.167 F 
ATOM     26  F   UNL A   1      33.973  26.046  22.375  1.00  0.00    -0.167 F 
ENDBRANCH  17  23
ENDBRANCH   4   7
ENDBRANCH   2   3
ENDBRANCH   1   2
BRANCH   1  27
ATOM     27  C   UNL A   1      32.706  32.779  27.524  1.00  0.00     0.118 C 
BRANCH  27  28
ATOM     28  N   UNL A   1      32.542  34.191  27.852  1.00  0.00    -0.352 N 
ATOM     29  C   UNL A   1      33.128  34.955  28.834  1.00  0.00     0.251 C 
ATOM     30  H   UNL A   1      31.907  34.676  27.277  1.00  0.00     0.163 HD
ATOM     31  O   UNL A   1      32.658  36.058  29.093  1.00  0.00    -0.269 OA
BRANCH  29  32
ATOM     32  C   UNL A   1      34.298  34.445  29.584  1.00  0.00     0.039 A 
ATOM     33  C   UNL A   1      35.585  34.572  29.065  1.00  0.00     0.014 A 
ATOM     34  C   UNL A   1      34.110  33.843  30.833  1.00  0.00     0.014 A 
ATOM     35  C   UNL A   1      36.645  33.916  29.677  1.00  0.00     0.010 A 
ATOM     36  C   UNL A   1      35.203  33.294  31.511  1.00  0.00     0.010 A 
ATOM     37  C   UNL A   1      36.472  33.277  30.914  1.00  0.00    -0.014 A 
BRANCH  37  38
ATOM     38  C   UNL A   1      37.644  32.635  31.565  1.00  0.00     0.031 A 
ATOM     39  C   UNL A   1      38.106  33.060  32.933  1.00  0.00     0.074 A 
ATOM     40  C   UNL A   1      38.272  31.627  30.927  1.00  0.00     0.049 A 
ATOM     41  N   UNL A   1      39.084  32.573  33.651  1.00  0.00    -0.248 NA
ATOM     42  C   UNL A   1      37.391  34.174  33.576  1.00  0.00     0.031 C 
ATOM     43  C   UNL A   1      37.930  31.136  29.589  1.00  0.00     0.029 A 
ATOM     44  N   UNL A   1      39.309  30.820  31.319  1.00  0.00    -0.354 N 
ATOM     45  C   UNL A   1      39.137  33.350  34.802  1.00  0.00     0.074 A 
ATOM     46  C   UNL A   1      38.091  34.342  34.691  1.00  0.00     0.031 C 
ATOM     47  C   UNL A   1      38.700  30.080  29.297  1.00  0.00     0.029 A 
ATOM     48  C   UNL A   1      39.637  29.860  30.392  1.00  0.00     0.049 A 
ATOM     49  H   UNL A   1      39.775  30.919  32.181  1.00  0.00     0.167 HD
ATOM     50  C   UNL A   1      39.975  33.238  35.860  1.00  0.00     0.034 A 
ATOM     51  C   UNL A   1      40.593  28.912  30.404  1.00  0.00     0.034 A 
ATOM     52  C   UNL A   1      40.978  32.217  35.994  1.00  0.00     0.049 A 
ATOM     53  C   UNL A   1      41.500  28.800  31.591  1.00  0.00     0.074 A 
ATOM     54  C   UNL A   1      41.820  31.982  37.066  1.00  0.00     0.029 A 
ATOM     55  N   UNL A   1      41.280  31.270  35.028  1.00  0.00    -0.354 N 
ATOM     56  N   UNL A   1      41.476  29.492  32.704  1.00  0.00    -0.248 NA
ATOM     57  C   UNL A   1      42.553  27.780  31.535  1.00  0.00     0.031 C 
ATOM     58  C   UNL A   1      42.654  30.910  36.737  1.00  0.00     0.029 A 
ATOM     59  C   UNL A   1      42.310  30.460  35.472  1.00  0.00     0.049 A 
ATOM     60  H   UNL A   1      40.829  31.186  34.158  1.00  0.00     0.167 HD
ATOM     61  C   UNL A   1      42.501  28.984  33.489  1.00  0.00     0.074 A 
ATOM     62  C   UNL A   1      43.120  27.916  32.729  1.00  0.00     0.031 C 
ATOM     63  C   UNL A   1      42.896  29.378  34.723  1.00  0.00     0.034 A 
BRANCH  50  64
ATOM     64  C   UNL A   1      39.835  34.230  36.982  1.00  0.00     0.023 A 
ATOM     65  C   UNL A   1      40.183  35.579  36.773  1.00  0.00     0.012 A 
ATOM     66  C   UNL A   1      39.269  33.841  38.213  1.00  0.00     0.148 A 
ATOM     67  C   UNL A   1      39.985  36.524  37.779  1.00  0.00     0.002 A 
ATOM     68  C   UNL A   1      39.045  34.795  39.199  1.00  0.00     0.091 A 
ATOM     69  F   UNL A   1      38.959  32.550  38.393  1.00  0.00    -0.205 F 
ATOM     70  C   UNL A   1      39.407  36.135  38.985  1.00  0.00     0.022 A 
BRANCH  68  71
ATOM     71  S   UNL A   1      38.259  34.407  40.766  1.00  0.00     0.127 S 
ATOM     72  O   UNL A   1      39.335  33.712  41.470  1.00  0.00    -0.237 OA
ATOM     73  O   UNL A   1      37.946  35.736  41.290  1.00  0.00    -0.237 OA
ATOM     74  O   UNL A   1      37.099  33.587  40.445  1.00  0.00    -0.744 OA
ENDBRANCH  68  71
ENDBRANCH  50  64
BRANCH  51  75
ATOM     75  C   UNL A   1      40.682  27.975  29.253  1.00  0.00     0.023 A 
ATOM     76  C   UNL A   1      39.755  26.921  29.153  1.00  0.00     0.012 A 
ATOM     77  C   UNL A   1      41.585  28.208  28.198  1.00  0.00     0.148 A 
ATOM     78  C   UNL A   1      39.720  26.118  28.014  1.00  0.00     0.002 A 
ATOM     79  C   UNL A   1      41.517  27.431  27.049  1.00  0.00     0.091 A 
ATOM     80  F   UNL A   1      42.448  29.227  28.318  1.00  0.00    -0.205 F 
ATOM     81  C   UNL A   1      40.590  26.380  26.958  1.00  0.00     0.022 A 
BRANCH  79  82
ATOM     82  S   UNL A   1      42.514  27.761  25.593  1.00  0.00     0.127 S 
ATOM     83  O   UNL A   1      41.961  29.034  25.134  1.00  0.00    -0.237 OA
ATOM     84  O   UNL A   1      43.857  27.845  26.167  1.00  0.00    -0.237 OA
ATOM     85  O   UNL A   1      42.301  26.633  24.698  1.00  0.00    -0.744 OA
ENDBRANCH  79  82
ENDBRANCH  51  75
BRANCH  63  86
ATOM     86  C   UNL A   1      44.048  28.656  35.364  1.00  0.00     0.023 A 
ATOM     87  C   UNL A   1      45.357  29.135  35.173  1.00  0.00     0.012 A 
ATOM     88  C   UNL A   1      43.814  27.600  36.266  1.00  0.00     0.148 A 
ATOM     89  C   UNL A   1      46.422  28.571  35.874  1.00  0.00     0.002 A 
ATOM     90  C   UNL A   1      44.875  27.067  36.987  1.00  0.00     0.091 A 
ATOM     91  F   UNL A   1      42.557  27.163  36.422  1.00  0.00    -0.205 F 
ATOM     92  C   UNL A   1      46.179  27.549  36.790  1.00  0.00     0.022 A 
BRANCH  90  93
ATOM     93  S   UNL A   1      44.655  25.801  38.242  1.00  0.00     0.127 S 
ATOM     94  O   UNL A   1      44.173  26.588  39.376  1.00  0.00    -0.237 OA
ATOM     95  O   UNL A   1      43.650  24.932  37.630  1.00  0.00    -0.237 OA
ATOM     96  O   UNL A   1      45.961  25.184  38.431  1.00  0.00    -0.744 OA
ENDBRANCH  90  93
ENDBRANCH  63  86
ENDBRANCH  37  38
ENDBRANCH  29  32
ENDBRANCH  27  28
ENDBRANCH   1  27
TORSDOF 17
ENDMDL
