MODEL 1
REMARK VINA RESULT:     -11.8      0.000      0.000
REMARK SMILES COc1cc(-c2cc(C(=O)NCCCNC(=O)c3ccc(-c4c5nc(c(-c6cccc(S(=O)(=O)[O-])c6F)c6ccc([nH]6)c(-c6cccc(S(=O)(=O)[O-])c6F)c6nc(c(-c7cccc(S(=O)(=O)[O-])c7F)c7ccc4[nH]7)C=C6)C=C5)cc3)c3cc(C)ccc3n2)cc(OC)c1OC
REMARK SMILES IDX 13 1 12 2 11 3 9 4 10 5 8 7 6 8 7 9 88 10 87 11 81 12 86 13
REMARK SMILES IDX 82 14 85 15 83 16 84 17 5 18 3 19 4 20 93 21 90 22 89 23
REMARK SMILES IDX 2 24 1 25 94 26 95 27 91 28 92 29 14 30 15 31 16 32 17 34
REMARK SMILES IDX 18 35 19 36 80 37 20 38 79 39 21 40 22 41 23 42 73 43 24 44
REMARK SMILES IDX 78 45 72 46 74 47 25 48 77 49 71 50 70 51 26 53 58 54 38 55
REMARK SMILES IDX 57 56 39 57 42 58 56 59 75 60 40 61 41 62 55 64 76 65 43 66
REMARK SMILES IDX 27 67 28 68 36 69 29 70 31 71 37 72 30 73 32 74 33 75 34 76
REMARK SMILES IDX 35 77 59 78 60 79 68 80 61 81 63 82 69 83 62 84 64 85 65 86
REMARK SMILES IDX 66 87 67 88 44 89 45 90 53 91 46 92 48 93 54 94 47 95 49 96
REMARK SMILES IDX 50 97 51 98 52 99
REMARK H PARENT 11 6 15 33 74 52 42 63
REMARK Flexibility Score: inf
ROOT
ATOM      1  C   UNL A   1      36.661  23.705  24.486  1.00  0.00     0.042 C 
ENDROOT
BRANCH   1   2
ATOM      2  C   UNL A   1      35.204  23.912  24.077  1.00  0.00     0.118 C 
BRANCH   2   3
ATOM      3  N   UNL A   1      34.334  23.232  25.017  1.00  0.00    -0.352 N 
ATOM      4  C   UNL A   1      33.538  23.799  25.980  1.00  0.00     0.252 C 
ATOM      5  O   UNL A   1      33.517  23.291  27.099  1.00  0.00    -0.269 OA
ATOM      6  H   UNL A   1      34.312  22.250  24.957  1.00  0.00     0.163 HD
BRANCH   4   7
ATOM      7  C   UNL A   1      32.507  24.766  25.544  1.00  0.00     0.051 A 
ATOM      8  C   UNL A   1      30.434  25.386  24.651  1.00  0.00     0.072 A 
ATOM      9  C   UNL A   1      31.511  24.524  24.602  1.00  0.00     0.043 A 
ATOM     10  N   UNL A   1      30.176  26.041  25.814  1.00  0.00    -0.248 NA
ATOM     11  C   UNL A   1      31.245  26.567  26.405  1.00  0.00     0.072 A 
ATOM     12  C   UNL A   1      32.503  26.019  26.179  1.00  0.00     0.013 A 
ATOM     13  C   UNL A   1      31.133  27.801  27.020  1.00  0.00     0.029 A 
ATOM     14  C   UNL A   1      33.642  26.830  26.351  1.00  0.00     0.014 A 
ATOM     15  C   UNL A   1      32.254  28.625  27.140  1.00  0.00     0.005 A 
ATOM     16  C   UNL A   1      33.494  28.178  26.687  1.00  0.00    -0.050 A 
ATOM     17  C   UNL A   1      34.619  29.135  26.430  1.00  0.00     0.044 C 
BRANCH   8  18
ATOM     18  C   UNL A   1      30.048  26.302  23.527  1.00  0.00     0.008 A 
ATOM     19  C   UNL A   1      28.537  28.149  23.204  1.00  0.00     0.165 A 
ATOM     20  C   UNL A   1      28.744  26.787  23.444  1.00  0.00     0.061 A 
ATOM     21  C   UNL A   1      29.620  29.046  23.161  1.00  0.00     0.203 A 
ATOM     22  C   UNL A   1      30.905  28.532  22.996  1.00  0.00     0.165 A 
ATOM     23  C   UNL A   1      31.085  27.143  23.037  1.00  0.00     0.061 A 
BRANCH  19  24
ATOM     24  O   UNL A   1      27.229  28.565  23.141  1.00  0.00    -0.493 OA
ATOM     25  C   UNL A   1      26.387  27.735  23.947  1.00  0.00     0.278 C 
ENDBRANCH  19  24
BRANCH  21  26
ATOM     26  O   UNL A   1      29.373  30.324  23.599  1.00  0.00    -0.490 OA
ATOM     27  C   UNL A   1      29.032  31.272  22.604  1.00  0.00     0.278 C 
ENDBRANCH  21  26
BRANCH  22  28
ATOM     28  O   UNL A   1      32.052  29.260  22.833  1.00  0.00    -0.493 OA
ATOM     29  C   UNL A   1      33.261  28.506  22.820  1.00  0.00     0.278 C 
ENDBRANCH  22  28
ENDBRANCH   8  18
ENDBRANCH   4   7
ENDBRANCH   2   3
ENDBRANCH   1   2
BRANCH   1  30
ATOM     30  C   UNL A   1      36.833  23.316  25.956  1.00  0.00     0.118 C 
BRANCH  30  31
ATOM     31  N   UNL A   1      37.880  22.320  26.148  1.00  0.00    -0.352 N 
ATOM     32  C   UNL A   1      39.201  22.505  26.457  1.00  0.00     0.251 C 
ATOM     33  H   UNL A   1      37.598  21.383  26.041  1.00  0.00     0.163 HD
ATOM     34  O   UNL A   1      39.990  21.560  26.366  1.00  0.00    -0.269 OA
BRANCH  32  35
ATOM     35  C   UNL A   1      39.682  23.833  26.887  1.00  0.00     0.039 A 
ATOM     36  C   UNL A   1      40.000  24.787  25.919  1.00  0.00     0.014 A 
ATOM     37  C   UNL A   1      39.828  24.131  28.245  1.00  0.00     0.014 A 
ATOM     38  C   UNL A   1      40.425  26.056  26.315  1.00  0.00     0.010 A 
ATOM     39  C   UNL A   1      40.169  25.421  28.638  1.00  0.00     0.010 A 
ATOM     40  C   UNL A   1      40.490  26.392  27.679  1.00  0.00    -0.014 A 
BRANCH  40  41
ATOM     41  C   UNL A   1      40.902  27.749  28.115  1.00  0.00     0.031 A 
ATOM     42  C   UNL A   1      42.357  28.134  28.125  1.00  0.00     0.074 A 
ATOM     43  C   UNL A   1      39.974  28.608  28.580  1.00  0.00     0.049 A 
ATOM     44  N   UNL A   1      42.908  29.260  28.498  1.00  0.00    -0.248 NA
ATOM     45  C   UNL A   1      43.322  27.111  27.689  1.00  0.00     0.031 C 
ATOM     46  C   UNL A   1      38.544  28.317  28.711  1.00  0.00     0.029 A 
ATOM     47  N   UNL A   1      40.096  29.889  29.056  1.00  0.00    -0.354 N 
ATOM     48  C   UNL A   1      44.280  29.067  28.386  1.00  0.00     0.074 A 
ATOM     49  C   UNL A   1      44.479  27.705  27.943  1.00  0.00     0.031 C 
ATOM     50  C   UNL A   1      37.923  29.389  29.227  1.00  0.00     0.029 A 
ATOM     51  C   UNL A   1      38.910  30.431  29.490  1.00  0.00     0.049 A 
ATOM     52  H   UNL A   1      40.953  30.374  29.084  1.00  0.00     0.167 HD
ATOM     53  C   UNL A   1      45.284  29.950  28.604  1.00  0.00     0.034 A 
ATOM     54  C   UNL A   1      38.646  31.631  30.044  1.00  0.00     0.034 A 
ATOM     55  C   UNL A   1      45.077  31.316  29.001  1.00  0.00     0.049 A 
ATOM     56  C   UNL A   1      39.768  32.618  30.215  1.00  0.00     0.074 A 
ATOM     57  C   UNL A   1      46.015  32.324  29.140  1.00  0.00     0.029 A 
ATOM     58  N   UNL A   1      43.848  31.863  29.339  1.00  0.00    -0.354 N 
ATOM     59  N   UNL A   1      41.040  32.477  29.933  1.00  0.00    -0.248 NA
ATOM     60  C   UNL A   1      39.412  33.944  30.739  1.00  0.00     0.031 C 
ATOM     61  C   UNL A   1      45.357  33.470  29.598  1.00  0.00     0.029 A 
ATOM     62  C   UNL A   1      44.004  33.189  29.704  1.00  0.00     0.049 A 
ATOM     63  H   UNL A   1      42.991  31.380  29.322  1.00  0.00     0.167 HD
ATOM     64  C   UNL A   1      41.633  33.703  30.213  1.00  0.00     0.074 A 
ATOM     65  C   UNL A   1      40.573  34.581  30.667  1.00  0.00     0.031 C 
ATOM     66  C   UNL A   1      42.935  34.065  30.114  1.00  0.00     0.034 A 
BRANCH  53  67
ATOM     67  C   UNL A   1      46.696  29.472  28.378  1.00  0.00     0.023 A 
ATOM     68  C   UNL A   1      47.310  29.660  27.122  1.00  0.00     0.012 A 
ATOM     69  C   UNL A   1      47.430  28.870  29.420  1.00  0.00     0.148 A 
ATOM     70  C   UNL A   1      48.612  29.215  26.892  1.00  0.00     0.002 A 
ATOM     71  C   UNL A   1      48.745  28.476  29.198  1.00  0.00     0.091 A 
ATOM     72  F   UNL A   1      46.826  28.679  30.601  1.00  0.00    -0.205 F 
ATOM     73  C   UNL A   1      49.331  28.633  27.931  1.00  0.00     0.022 A 
BRANCH  71  74
ATOM     74  S   UNL A   1      49.783  27.797  30.496  1.00  0.00     0.127 S 
ATOM     75  O   UNL A   1      49.820  28.901  31.453  1.00  0.00    -0.237 OA
ATOM     76  O   UNL A   1      49.007  26.637  30.936  1.00  0.00    -0.237 OA
ATOM     77  O   UNL A   1      51.054  27.472  29.864  1.00  0.00    -0.744 OA
ENDBRANCH  71  74
ENDBRANCH  53  67
BRANCH  54  78
ATOM     78  C   UNL A   1      37.246  31.979  30.415  1.00  0.00     0.023 A 
ATOM     79  C   UNL A   1      36.787  31.714  31.720  1.00  0.00     0.012 A 
ATOM     80  C   UNL A   1      36.387  32.618  29.499  1.00  0.00     0.148 A 
ATOM     81  C   UNL A   1      35.487  32.057  32.099  1.00  0.00     0.002 A 
ATOM     82  C   UNL A   1      35.116  33.007  29.901  1.00  0.00     0.091 A 
ATOM     83  F   UNL A   1      36.843  32.854  28.261  1.00  0.00    -0.205 F 
ATOM     84  C   UNL A   1      34.657  32.712  31.194  1.00  0.00     0.022 A 
BRANCH  82  85
ATOM     85  S   UNL A   1      34.027  33.979  28.852  1.00  0.00     0.127 S 
ATOM     86  O   UNL A   1      33.091  34.533  29.825  1.00  0.00    -0.237 OA
ATOM     87  O   UNL A   1      34.958  34.947  28.270  1.00  0.00    -0.237 OA
ATOM     88  O   UNL A   1      33.460  33.040  27.894  1.00  0.00    -0.744 OA
ENDBRANCH  82  85
ENDBRANCH  54  78
BRANCH  66  89
ATOM     89  C   UNL A   1      43.295  35.485  30.470  1.00  0.00     0.023 A 
ATOM     90  C   UNL A   1      43.765  35.791  31.762  1.00  0.00     0.012 A 
ATOM     91  C   UNL A   1      43.232  36.503  29.498  1.00  0.00     0.148 A 
ATOM     92  C   UNL A   1      44.133  37.095  32.092  1.00  0.00     0.002 A 
ATOM     93  C   UNL A   1      43.650  37.789  29.818  1.00  0.00     0.091 A 
ATOM     94  F   UNL A   1      42.764  36.197  28.280  1.00  0.00    -0.205 F 
ATOM     95  C   UNL A   1      44.087  38.091  31.118  1.00  0.00     0.022 A 
BRANCH  93  96
ATOM     96  S   UNL A   1      43.720  39.107  28.600  1.00  0.00     0.127 S 
ATOM     97  O   UNL A   1      42.302  39.338  28.329  1.00  0.00    -0.237 OA
ATOM     98  O   UNL A   1      44.381  40.181  29.343  1.00  0.00    -0.237 OA
ATOM     99  O   UNL A   1      44.493  38.583  27.483  1.00  0.00    -0.744 OA
ENDBRANCH  93  96
ENDBRANCH  66  89
ENDBRANCH  40  41
ENDBRANCH  32  35
ENDBRANCH  30  31
ENDBRANCH   1  30
TORSDOF 17
ENDMDL
MODEL 2
REMARK VINA RESULT:     -11.6      4.637      9.559
REMARK SMILES COc1cc(-c2cc(C(=O)NCCCNC(=O)c3ccc(-c4c5nc(c(-c6cccc(S(=O)(=O)[O-])c6F)c6ccc([nH]6)c(-c6cccc(S(=O)(=O)[O-])c6F)c6nc(c(-c7cccc(S(=O)(=O)[O-])c7F)c7ccc4[nH]7)C=C6)C=C5)cc3)c3cc(C)ccc3n2)cc(OC)c1OC
REMARK SMILES IDX 13 1 12 2 11 3 9 4 10 5 8 7 6 8 7 9 88 10 87 11 81 12 86 13
REMARK SMILES IDX 82 14 85 15 83 16 84 17 5 18 3 19 4 20 93 21 90 22 89 23
REMARK SMILES IDX 2 24 1 25 94 26 95 27 91 28 92 29 14 30 15 31 16 32 17 34
REMARK SMILES IDX 18 35 19 36 80 37 20 38 79 39 21 40 22 41 23 42 73 43 24 44
REMARK SMILES IDX 78 45 72 46 74 47 25 48 77 49 71 50 70 51 26 53 58 54 38 55
REMARK SMILES IDX 57 56 39 57 42 58 56 59 75 60 40 61 41 62 55 64 76 65 43 66
REMARK SMILES IDX 27 67 28 68 36 69 29 70 31 71 37 72 30 73 32 74 33 75 34 76
REMARK SMILES IDX 35 77 59 78 60 79 68 80 61 81 63 82 69 83 62 84 64 85 65 86
REMARK SMILES IDX 66 87 67 88 44 89 45 90 53 91 46 92 48 93 54 94 47 95 49 96
REMARK SMILES IDX 50 97 51 98 52 99
REMARK H PARENT 11 6 15 33 74 52 42 63
REMARK Flexibility Score: inf
ROOT
ATOM      1  C   UNL A   1      33.777  27.959  25.931  1.00  0.00     0.042 C 
ENDROOT
BRANCH   1   2
ATOM      2  C   UNL A   1      32.455  27.580  25.267  1.00  0.00     0.118 C 
BRANCH   2   3
ATOM      3  N   UNL A   1      32.593  27.660  23.826  1.00  0.00    -0.352 N 
ATOM      4  C   UNL A   1      33.439  26.937  23.025  1.00  0.00     0.252 C 
ATOM      5  O   UNL A   1      34.051  27.522  22.135  1.00  0.00    -0.269 OA
ATOM      6  H   UNL A   1      32.011  28.310  23.369  1.00  0.00     0.163 HD
BRANCH   4   7
ATOM      7  C   UNL A   1      33.323  25.462  23.049  1.00  0.00     0.051 A 
ATOM      8  C   UNL A   1      32.437  23.401  22.380  1.00  0.00     0.072 A 
ATOM      9  C   UNL A   1      32.200  24.729  22.675  1.00  0.00     0.043 A 
ATOM     10  N   UNL A   1      33.691  23.029  22.010  1.00  0.00    -0.248 NA
ATOM     11  C   UNL A   1      34.665  23.541  22.757  1.00  0.00     0.072 A 
ATOM     12  C   UNL A   1      34.465  24.740  23.432  1.00  0.00     0.013 A 
ATOM     13  C   UNL A   1      35.760  22.754  23.064  1.00  0.00     0.029 A 
ATOM     14  C   UNL A   1      35.234  25.014  24.581  1.00  0.00     0.014 A 
ATOM     15  C   UNL A   1      36.487  22.994  24.232  1.00  0.00     0.005 A 
ATOM     16  C   UNL A   1      36.138  24.062  25.058  1.00  0.00    -0.050 A 
ATOM     17  C   UNL A   1      36.607  24.131  26.480  1.00  0.00     0.044 C 
BRANCH   8  18
ATOM     18  C   UNL A   1      31.840  22.258  23.147  1.00  0.00     0.008 A 
ATOM     19  C   UNL A   1      32.639  20.269  24.245  1.00  0.00     0.165 A 
ATOM     20  C   UNL A   1      32.418  20.993  23.068  1.00  0.00     0.061 A 
ATOM     21  C   UNL A   1      32.391  20.848  25.504  1.00  0.00     0.203 A 
ATOM     22  C   UNL A   1      31.594  21.990  25.567  1.00  0.00     0.165 A 
ATOM     23  C   UNL A   1      31.203  22.606  24.370  1.00  0.00     0.061 A 
BRANCH  19  24
ATOM     24  O   UNL A   1      33.219  19.033  24.101  1.00  0.00    -0.493 OA
ATOM     25  C   UNL A   1      32.249  17.990  24.228  1.00  0.00     0.278 C 
ENDBRANCH  19  24
BRANCH  21  26
ATOM     26  O   UNL A   1      33.201  20.440  26.535  1.00  0.00    -0.490 OA
ATOM     27  C   UNL A   1      34.131  21.393  27.015  1.00  0.00     0.278 C 
ENDBRANCH  21  26
BRANCH  22  28
ATOM     28  O   UNL A   1      31.172  22.619  26.707  1.00  0.00    -0.493 OA
ATOM     29  C   UNL A   1      31.277  24.040  26.698  1.00  0.00     0.278 C 
ENDBRANCH  22  28
ENDBRANCH   8  18
ENDBRANCH   4   7
ENDBRANCH   2   3
ENDBRANCH   1   2
BRANCH   1  30
ATOM     30  C   UNL A   1      33.612  28.513  27.348  1.00  0.00     0.118 C 
BRANCH  30  31
ATOM     31  N   UNL A   1      33.554  29.969  27.372  1.00  0.00    -0.352 N 
ATOM     32  C   UNL A   1      34.426  30.859  27.940  1.00  0.00     0.251 C 
ATOM     33  H   UNL A   1      32.779  30.370  26.914  1.00  0.00     0.163 HD
ATOM     34  O   UNL A   1      34.105  32.045  28.052  1.00  0.00    -0.269 OA
BRANCH  32  35
ATOM     35  C   UNL A   1      35.740  30.398  28.428  1.00  0.00     0.039 A 
ATOM     36  C   UNL A   1      35.820  29.760  29.667  1.00  0.00     0.014 A 
ATOM     37  C   UNL A   1      36.894  30.606  27.666  1.00  0.00     0.014 A 
ATOM     38  C   UNL A   1      37.054  29.292  30.123  1.00  0.00     0.010 A 
ATOM     39  C   UNL A   1      38.105  30.063  28.083  1.00  0.00     0.010 A 
ATOM     40  C   UNL A   1      38.203  29.418  29.324  1.00  0.00    -0.014 A 
BRANCH  40  41
ATOM     41  C   UNL A   1      39.514  28.890  29.778  1.00  0.00     0.031 A 
ATOM     42  C   UNL A   1      40.263  29.573  30.891  1.00  0.00     0.074 A 
ATOM     43  C   UNL A   1      40.068  27.845  29.134  1.00  0.00     0.049 A 
ATOM     44  N   UNL A   1      41.429  29.275  31.402  1.00  0.00    -0.248 NA
ATOM     45  C   UNL A   1      39.636  30.765  31.485  1.00  0.00     0.031 C 
ATOM     46  C   UNL A   1      39.485  27.158  27.979  1.00  0.00     0.029 A 
ATOM     47  N   UNL A   1      41.258  27.194  29.340  1.00  0.00    -0.354 N 
ATOM     48  C   UNL A   1      41.695  30.263  32.343  1.00  0.00     0.074 A 
ATOM     49  C   UNL A   1      40.585  31.189  32.306  1.00  0.00     0.031 C 
ATOM     50  C   UNL A   1      40.315  26.181  27.582  1.00  0.00     0.029 A 
ATOM     51  C   UNL A   1      41.500  26.188  28.434  1.00  0.00     0.049 A 
ATOM     52  H   UNL A   1      41.880  27.425  30.067  1.00  0.00     0.167 HD
ATOM     53  C   UNL A   1      42.753  30.376  33.181  1.00  0.00     0.034 A 
ATOM     54  C   UNL A   1      42.561  25.368  28.299  1.00  0.00     0.034 A 
ATOM     55  C   UNL A   1      43.832  29.428  33.242  1.00  0.00     0.049 A 
ATOM     56  C   UNL A   1      43.693  25.471  29.283  1.00  0.00     0.074 A 
ATOM     57  C   UNL A   1      44.893  29.387  34.129  1.00  0.00     0.029 A 
ATOM     58  N   UNL A   1      43.996  28.361  32.372  1.00  0.00    -0.354 N 
ATOM     59  N   UNL A   1      43.842  26.304  30.284  1.00  0.00    -0.248 NA
ATOM     60  C   UNL A   1      44.782  24.494  29.147  1.00  0.00     0.031 C 
ATOM     61  C   UNL A   1      45.719  28.316  33.771  1.00  0.00     0.029 A 
ATOM     62  C   UNL A   1      45.151  27.665  32.688  1.00  0.00     0.049 A 
ATOM     63  H   UNL A   1      43.383  28.132  31.637  1.00  0.00     0.167 HD
ATOM     64  C   UNL A   1      45.023  25.934  30.917  1.00  0.00     0.074 A 
ATOM     65  C   UNL A   1      45.537  24.786  30.198  1.00  0.00     0.031 C 
ATOM     66  C   UNL A   1      45.630  26.499  31.990  1.00  0.00     0.034 A 
BRANCH  53  67
ATOM     67  C   UNL A   1      42.772  31.551  34.127  1.00  0.00     0.023 A 
ATOM     68  C   UNL A   1      43.383  32.760  33.735  1.00  0.00     0.012 A 
ATOM     69  C   UNL A   1      42.152  31.471  35.390  1.00  0.00     0.148 A 
ATOM     70  C   UNL A   1      43.418  33.853  34.600  1.00  0.00     0.002 A 
ATOM     71  C   UNL A   1      42.147  32.581  36.227  1.00  0.00     0.091 A 
ATOM     72  F   UNL A   1      41.594  30.309  35.757  1.00  0.00    -0.205 F 
ATOM     73  C   UNL A   1      42.793  33.767  35.840  1.00  0.00     0.022 A 
BRANCH  71  74
ATOM     74  S   UNL A   1      41.293  32.598  37.806  1.00  0.00     0.127 S 
ATOM     75  O   UNL A   1      39.955  32.146  37.424  1.00  0.00    -0.237 OA
ATOM     76  O   UNL A   1      42.063  31.628  38.584  1.00  0.00    -0.237 OA
ATOM     77  O   UNL A   1      41.376  33.968  38.292  1.00  0.00    -0.744 OA
ENDBRANCH  71  74
ENDBRANCH  53  67
BRANCH  54  78
ATOM     78  C   UNL A   1      42.561  24.338  27.222  1.00  0.00     0.023 A 
ATOM     79  C   UNL A   1      43.229  24.600  26.010  1.00  0.00     0.012 A 
ATOM     80  C   UNL A   1      41.953  23.082  27.416  1.00  0.00     0.148 A 
ATOM     81  C   UNL A   1      43.267  23.639  24.998  1.00  0.00     0.002 A 
ATOM     82  C   UNL A   1      42.044  22.111  26.427  1.00  0.00     0.091 A 
ATOM     83  F   UNL A   1      41.318  22.857  28.574  1.00  0.00    -0.205 F 
ATOM     84  C   UNL A   1      42.686  22.392  25.211  1.00  0.00     0.022 A 
BRANCH  82  85
ATOM     85  S   UNL A   1      41.448  20.433  26.665  1.00  0.00     0.127 S 
ATOM     86  O   UNL A   1      42.136  20.041  27.892  1.00  0.00    -0.237 OA
ATOM     87  O   UNL A   1      40.007  20.645  26.807  1.00  0.00    -0.237 OA
ATOM     88  O   UNL A   1      41.833  19.703  25.465  1.00  0.00    -0.744 OA
ENDBRANCH  82  85
ENDBRANCH  54  78
BRANCH  66  89
ATOM     89  C   UNL A   1      46.907  25.868  32.482  1.00  0.00     0.023 A 
ATOM     90  C   UNL A   1      48.150  26.310  31.985  1.00  0.00     0.012 A 
ATOM     91  C   UNL A   1      46.877  24.884  33.489  1.00  0.00     0.148 A 
ATOM     92  C   UNL A   1      49.339  25.757  32.458  1.00  0.00     0.002 A 
ATOM     93  C   UNL A   1      48.067  24.375  33.994  1.00  0.00     0.091 A 
ATOM     94  F   UNL A   1      45.685  24.462  33.936  1.00  0.00    -0.205 F 
ATOM     95  C   UNL A   1      49.299  24.800  33.469  1.00  0.00     0.022 A 
BRANCH  93  96
ATOM     96  S   UNL A   1      48.113  23.215  35.364  1.00  0.00     0.127 S 
ATOM     97  O   UNL A   1      49.550  22.997  35.521  1.00  0.00    -0.237 OA
ATOM     98  O   UNL A   1      47.492  23.985  36.443  1.00  0.00    -0.237 OA
ATOM     99  O   UNL A   1      47.347  22.054  34.933  1.00  0.00    -0.744 OA
ENDBRANCH  93  96
ENDBRANCH  66  89
ENDBRANCH  40  41
ENDBRANCH  32  35
ENDBRANCH  30  31
ENDBRANCH   1  30
TORSDOF 17
ENDMDL
MODEL 3
REMARK VINA RESULT:     -11.3      2.655      3.925
REMARK SMILES COc1cc(-c2cc(C(=O)NCCCNC(=O)c3ccc(-c4c5nc(c(-c6cccc(S(=O)(=O)[O-])c6F)c6ccc([nH]6)c(-c6cccc(S(=O)(=O)[O-])c6F)c6nc(c(-c7cccc(S(=O)(=O)[O-])c7F)c7ccc4[nH]7)C=C6)C=C5)cc3)c3cc(C)ccc3n2)cc(OC)c1OC
REMARK SMILES IDX 13 1 12 2 11 3 9 4 10 5 8 7 6 8 7 9 88 10 87 11 81 12 86 13
REMARK SMILES IDX 82 14 85 15 83 16 84 17 5 18 3 19 4 20 93 21 90 22 89 23
REMARK SMILES IDX 2 24 1 25 94 26 95 27 91 28 92 29 14 30 15 31 16 32 17 34
REMARK SMILES IDX 18 35 19 36 80 37 20 38 79 39 21 40 22 41 23 42 73 43 24 44
REMARK SMILES IDX 78 45 72 46 74 47 25 48 77 49 71 50 70 51 26 53 58 54 38 55
REMARK SMILES IDX 57 56 39 57 42 58 56 59 75 60 40 61 41 62 55 64 76 65 43 66
REMARK SMILES IDX 27 67 28 68 36 69 29 70 31 71 37 72 30 73 32 74 33 75 34 76
REMARK SMILES IDX 35 77 59 78 60 79 68 80 61 81 63 82 69 83 62 84 64 85 65 86
REMARK SMILES IDX 66 87 67 88 44 89 45 90 53 91 46 92 48 93 54 94 47 95 49 96
REMARK SMILES IDX 50 97 51 98 52 99
REMARK H PARENT 11 6 15 33 74 52 42 63
REMARK Flexibility Score: inf
ROOT
ATOM      1  C   UNL A   1      36.940  21.290  25.782  1.00  0.00     0.042 C 
ENDROOT
BRANCH   1   2
ATOM      2  C   UNL A   1      36.391  22.702  25.980  1.00  0.00     0.118 C 
BRANCH   2   3
ATOM      3  N   UNL A   1      36.710  23.514  24.822  1.00  0.00    -0.352 N 
ATOM      4  C   UNL A   1      36.158  23.436  23.568  1.00  0.00     0.252 C 
ATOM      5  O   UNL A   1      36.903  23.496  22.593  1.00  0.00    -0.269 OA
ATOM      6  H   UNL A   1      37.402  24.202  24.950  1.00  0.00     0.163 HD
BRANCH   4   7
ATOM      7  C   UNL A   1      34.696  23.621  23.443  1.00  0.00     0.051 A 
ATOM      8  C   UNL A   1      32.756  24.799  22.865  1.00  0.00     0.072 A 
ATOM      9  C   UNL A   1      34.032  24.844  23.391  1.00  0.00     0.043 A 
ATOM     10  N   UNL A   1      32.428  23.770  22.040  1.00  0.00    -0.248 NA
ATOM     11  C   UNL A   1      32.822  22.571  22.461  1.00  0.00     0.072 A 
ATOM     12  C   UNL A   1      33.917  22.460  23.311  1.00  0.00     0.013 A 
ATOM     13  C   UNL A   1      31.989  21.484  22.267  1.00  0.00     0.029 A 
ATOM     14  C   UNL A   1      34.020  21.330  24.148  1.00  0.00     0.014 A 
ATOM     15  C   UNL A   1      32.058  20.390  23.131  1.00  0.00     0.005 A 
ATOM     16  C   UNL A   1      33.003  20.374  24.156  1.00  0.00    -0.050 A 
ATOM     17  C   UNL A   1      32.869  19.444  25.324  1.00  0.00     0.044 C 
BRANCH   8  18
ATOM     18  C   UNL A   1      31.523  25.162  23.639  1.00  0.00     0.008 A 
ATOM     19  C   UNL A   1      30.796  25.069  25.933  1.00  0.00     0.165 A 
ATOM     20  C   UNL A   1      31.158  24.409  24.753  1.00  0.00     0.061 A 
ATOM     21  C   UNL A   1      30.910  26.467  26.040  1.00  0.00     0.203 A 
ATOM     22  C   UNL A   1      31.030  27.217  24.872  1.00  0.00     0.165 A 
ATOM     23  C   UNL A   1      31.193  26.545  23.653  1.00  0.00     0.061 A 
BRANCH  19  24
ATOM     24  O   UNL A   1      30.455  24.270  26.997  1.00  0.00    -0.493 OA
ATOM     25  C   UNL A   1      30.953  22.941  26.824  1.00  0.00     0.278 C 
ENDBRANCH  19  24
BRANCH  21  26
ATOM     26  O   UNL A   1      31.210  26.963  27.285  1.00  0.00    -0.490 OA
ATOM     27  C   UNL A   1      31.696  28.292  27.329  1.00  0.00     0.278 C 
ENDBRANCH  21  26
BRANCH  22  28
ATOM     28  O   UNL A   1      31.048  28.583  24.786  1.00  0.00    -0.493 OA
ATOM     29  C   UNL A   1      30.108  29.154  23.881  1.00  0.00     0.278 C 
ENDBRANCH  22  28
ENDBRANCH   8  18
ENDBRANCH   4   7
ENDBRANCH   2   3
ENDBRANCH   1   2
BRANCH   1  30
ATOM     30  C   UNL A   1      38.384  21.262  25.275  1.00  0.00     0.118 C 
BRANCH  30  31
ATOM     31  N   UNL A   1      39.219  20.335  26.028  1.00  0.00    -0.352 N 
ATOM     32  C   UNL A   1      40.341  20.591  26.771  1.00  0.00     0.251 C 
ATOM     33  H   UNL A   1      38.937  19.392  25.999  1.00  0.00     0.163 HD
ATOM     34  O   UNL A   1      41.045  19.655  27.160  1.00  0.00    -0.269 OA
BRANCH  32  35
ATOM     35  C   UNL A   1      40.711  21.982  27.096  1.00  0.00     0.039 A 
ATOM     36  C   UNL A   1      41.588  22.223  28.156  1.00  0.00     0.014 A 
ATOM     37  C   UNL A   1      40.185  23.049  26.362  1.00  0.00     0.014 A 
ATOM     38  C   UNL A   1      41.970  23.532  28.451  1.00  0.00     0.010 A 
ATOM     39  C   UNL A   1      40.633  24.343  26.603  1.00  0.00     0.010 A 
ATOM     40  C   UNL A   1      41.514  24.602  27.662  1.00  0.00    -0.014 A 
BRANCH  40  41
ATOM     41  C   UNL A   1      41.943  25.996  27.939  1.00  0.00     0.031 A 
ATOM     42  C   UNL A   1      43.331  26.449  27.573  1.00  0.00     0.074 A 
ATOM     43  C   UNL A   1      41.111  26.830  28.592  1.00  0.00     0.049 A 
ATOM     44  N   UNL A   1      43.892  27.615  27.762  1.00  0.00    -0.248 NA
ATOM     45  C   UNL A   1      44.215  25.454  26.944  1.00  0.00     0.031 C 
ATOM     46  C   UNL A   1      39.777  26.478  29.084  1.00  0.00     0.029 A 
ATOM     47  N   UNL A   1      41.274  28.135  28.981  1.00  0.00    -0.354 N 
ATOM     48  C   UNL A   1      45.203  27.483  27.318  1.00  0.00     0.074 A 
ATOM     49  C   UNL A   1      45.364  26.113  26.884  1.00  0.00     0.031 C 
ATOM     50  C   UNL A   1      39.242  27.542  29.703  1.00  0.00     0.029 A 
ATOM     51  C   UNL A   1      40.202  28.640  29.679  1.00  0.00     0.049 A 
ATOM     52  H   UNL A   1      42.082  28.661  28.780  1.00  0.00     0.167 HD
ATOM     53  C   UNL A   1      46.178  28.421  27.251  1.00  0.00     0.034 A 
ATOM     54  C   UNL A   1      40.015  29.850  30.242  1.00  0.00     0.034 A 
ATOM     55  C   UNL A   1      45.997  29.792  27.644  1.00  0.00     0.049 A 
ATOM     56  C   UNL A   1      41.087  30.896  30.097  1.00  0.00     0.074 A 
ATOM     57  C   UNL A   1      46.882  30.848  27.513  1.00  0.00     0.029 A 
ATOM     58  N   UNL A   1      44.861  30.295  28.259  1.00  0.00    -0.354 N 
ATOM     59  N   UNL A   1      42.256  30.802  29.512  1.00  0.00    -0.248 NA
ATOM     60  C   UNL A   1      40.796  32.226  30.650  1.00  0.00     0.031 C 
ATOM     61  C   UNL A   1      46.293  31.982  28.082  1.00  0.00     0.029 A 
ATOM     62  C   UNL A   1      45.026  31.643  28.531  1.00  0.00     0.049 A 
ATOM     63  H   UNL A   1      44.055  29.772  28.471  1.00  0.00     0.167 HD
ATOM     64  C   UNL A   1      42.829  32.066  29.597  1.00  0.00     0.074 A 
ATOM     65  C   UNL A   1      41.866  32.913  30.272  1.00  0.00     0.031 C 
ATOM     66  C   UNL A   1      44.044  32.485  29.166  1.00  0.00     0.034 A 
BRANCH  53  67
ATOM     67  C   UNL A   1      47.515  28.000  26.696  1.00  0.00     0.023 A 
ATOM     68  C   UNL A   1      48.575  27.690  27.574  1.00  0.00     0.012 A 
ATOM     69  C   UNL A   1      47.713  27.874  25.307  1.00  0.00     0.148 A 
ATOM     70  C   UNL A   1      49.821  27.309  27.079  1.00  0.00     0.002 A 
ATOM     71  C   UNL A   1      48.943  27.445  24.822  1.00  0.00     0.091 A 
ATOM     72  F   UNL A   1      46.704  28.193  24.484  1.00  0.00    -0.205 F 
ATOM     73  C   UNL A   1      50.003  27.177  25.705  1.00  0.00     0.022 A 
BRANCH  71  74
ATOM     74  S   UNL A   1      49.249  27.159  23.076  1.00  0.00     0.127 S 
ATOM     75  O   UNL A   1      48.458  25.954  22.830  1.00  0.00    -0.237 OA
ATOM     76  O   UNL A   1      48.711  28.375  22.466  1.00  0.00    -0.237 OA
ATOM     77  O   UNL A   1      50.690  27.001  22.942  1.00  0.00    -0.744 OA
ENDBRANCH  71  74
ENDBRANCH  53  67
BRANCH  54  78
ATOM     78  C   UNL A   1      38.732  30.148  30.938  1.00  0.00     0.023 A 
ATOM     79  C   UNL A   1      38.523  29.665  32.245  1.00  0.00     0.012 A 
ATOM     80  C   UNL A   1      37.745  30.950  30.334  1.00  0.00     0.148 A 
ATOM     81  C   UNL A   1      37.340  29.955  32.928  1.00  0.00     0.002 A 
ATOM     82  C   UNL A   1      36.596  31.282  31.041  1.00  0.00     0.091 A 
ATOM     83  F   UNL A   1      37.963  31.393  29.088  1.00  0.00    -0.205 F 
ATOM     84  C   UNL A   1      36.384  30.771  32.331  1.00  0.00     0.022 A 
BRANCH  82  85
ATOM     85  S   UNL A   1      35.374  32.437  30.410  1.00  0.00     0.127 S 
ATOM     86  O   UNL A   1      36.174  33.644  30.219  1.00  0.00    -0.237 OA
ATOM     87  O   UNL A   1      34.948  31.777  29.176  1.00  0.00    -0.237 OA
ATOM     88  O   UNL A   1      34.343  32.520  31.434  1.00  0.00    -0.744 OA
ENDBRANCH  82  85
ENDBRANCH  54  78
BRANCH  66  89
ATOM     89  C   UNL A   1      44.399  33.934  29.375  1.00  0.00     0.023 A 
ATOM     90  C   UNL A   1      45.077  34.333  30.543  1.00  0.00     0.012 A 
ATOM     91  C   UNL A   1      44.120  34.889  28.378  1.00  0.00     0.148 A 
ATOM     92  C   UNL A   1      45.440  35.666  30.732  1.00  0.00     0.002 A 
ATOM     93  C   UNL A   1      44.531  36.205  28.548  1.00  0.00     0.091 A 
ATOM     94  F   UNL A   1      43.456  34.495  27.281  1.00  0.00    -0.205 F 
ATOM     95  C   UNL A   1      45.179  36.599  29.731  1.00  0.00     0.022 A 
BRANCH  93  96
ATOM     96  S   UNL A   1      44.326  37.450  27.270  1.00  0.00     0.127 S 
ATOM     97  O   UNL A   1      44.340  38.685  28.052  1.00  0.00    -0.237 OA
ATOM     98  O   UNL A   1      45.513  37.242  26.441  1.00  0.00    -0.237 OA
ATOM     99  O   UNL A   1      43.066  37.143  26.608  1.00  0.00    -0.744 OA
ENDBRANCH  93  96
ENDBRANCH  66  89
ENDBRANCH  40  41
ENDBRANCH  32  35
ENDBRANCH  30  31
ENDBRANCH   1  30
TORSDOF 17
ENDMDL
