MODEL 1
REMARK VINA RESULT:     -11.8      0.000      0.000
REMARK SMILES Cc1cccc(C)c1Nc1ccccc1CC(=O)NCCCNC(=O)c1ccc(-c2c3nc(c(-c4cccc(S(=O)(=O)[O-])c4F)c4ccc([nH]4)c(-c4cccc(S(=O)(=O)[O-])c4F)c4nc(c(-c5cccc(S(=O)(=O)[O-])c5F)c5ccc2[nH]5)C=C4)C=C3)cc1
REMARK SMILES IDX 21 1 20 2 19 3 17 4 18 5 16 7 15 8 10 9 11 10 12 11 14 12
REMARK SMILES IDX 13 13 9 14 8 16 1 17 2 18 3 19 4 20 6 21 5 22 7 23 22 24
REMARK SMILES IDX 23 25 24 26 25 28 26 29 27 30 88 31 28 32 87 33 29 34 30 35
REMARK SMILES IDX 31 36 81 37 32 38 86 39 80 40 82 41 33 42 85 43 79 44 78 45
REMARK SMILES IDX 34 47 66 48 46 49 65 50 47 51 50 52 64 53 83 54 48 55 49 56
REMARK SMILES IDX 63 58 84 59 51 60 35 61 36 62 44 63 37 64 39 65 45 66 38 67
REMARK SMILES IDX 40 68 41 69 42 70 43 71 67 72 68 73 76 74 69 75 71 76 77 77
REMARK SMILES IDX 70 78 72 79 73 80 74 81 75 82 52 83 53 84 61 85 54 86 56 87
REMARK SMILES IDX 62 88 55 89 57 90 58 91 59 92 60 93
REMARK H PARENT 19 6 9 15 23 27 82 46 50 57
REMARK Flexibility Score: inf
ROOT
ATOM      1  C   UNL A   1      30.934  31.905  26.565  1.00  0.00     0.042 C 
ENDROOT
BRANCH   1   2
ATOM      2  C   UNL A   1      30.659  31.291  25.197  1.00  0.00     0.117 C 
BRANCH   2   3
ATOM      3  N   UNL A   1      29.566  31.955  24.514  1.00  0.00    -0.356 N 
ATOM      4  C   UNL A   1      29.041  31.672  23.285  1.00  0.00     0.224 C 
ATOM      5  O   UNL A   1      28.164  32.413  22.836  1.00  0.00    -0.275 OA
ATOM      6  H   UNL A   1      29.149  32.706  24.997  1.00  0.00     0.163 HD
BRANCH   4   7
ATOM      7  C   UNL A   1      29.494  30.430  22.539  1.00  0.00     0.137 C 
BRANCH   7   8
ATOM      8  C   UNL A   1      28.925  29.131  23.074  1.00  0.00    -0.015 A 
ATOM      9  C   UNL A   1      29.731  28.049  23.490  1.00  0.00     0.042 A 
ATOM     10  C   UNL A   1      29.104  26.847  23.871  1.00  0.00     0.026 A 
ATOM     11  C   UNL A   1      27.716  26.720  23.885  1.00  0.00     0.002 A 
ATOM     12  C   UNL A   1      27.521  28.996  23.121  1.00  0.00     0.006 A 
ATOM     13  C   UNL A   1      26.924  27.803  23.525  1.00  0.00     0.000 A 
BRANCH   9  14
ATOM     14  N   UNL A   1      31.135  28.096  23.610  1.00  0.00    -0.355 N 
ATOM     15  H   UNL A   1      31.530  28.928  23.263  1.00  0.00     0.167 HD
BRANCH  14  16
ATOM     16  C   UNL A   1      32.091  27.191  24.126  1.00  0.00     0.044 A 
ATOM     17  C   UNL A   1      32.283  26.186  21.779  1.00  0.00     0.046 C 
ATOM     18  C   UNL A   1      32.691  26.266  23.228  1.00  0.00    -0.027 A 
ATOM     19  C   UNL A   1      33.715  25.413  23.672  1.00  0.00     0.005 A 
ATOM     20  C   UNL A   1      34.156  25.460  24.987  1.00  0.00     0.001 A 
ATOM     21  C   UNL A   1      32.513  27.192  25.477  1.00  0.00    -0.027 A 
ATOM     22  C   UNL A   1      33.562  26.343  25.880  1.00  0.00     0.005 A 
ATOM     23  C   UNL A   1      31.875  28.037  26.549  1.00  0.00     0.046 C 
ENDBRANCH  14  16
ENDBRANCH   9  14
ENDBRANCH   7   8
ENDBRANCH   4   7
ENDBRANCH   2   3
ENDBRANCH   1   2
BRANCH   1  24
ATOM     24  C   UNL A   1      32.342  32.476  26.708  1.00  0.00     0.118 C 
BRANCH  24  25
ATOM     25  N   UNL A   1      32.337  33.825  27.264  1.00  0.00    -0.352 N 
ATOM     26  C   UNL A   1      33.098  34.365  28.267  1.00  0.00     0.251 C 
ATOM     27  H   UNL A   1      31.689  34.442  26.855  1.00  0.00     0.163 HD
ATOM     28  O   UNL A   1      32.790  35.461  28.736  1.00  0.00    -0.269 OA
BRANCH  26  29
ATOM     29  C   UNL A   1      34.272  33.639  28.792  1.00  0.00     0.039 A 
ATOM     30  C   UNL A   1      35.551  34.074  28.435  1.00  0.00     0.014 A 
ATOM     31  C   UNL A   1      34.116  32.523  29.619  1.00  0.00     0.014 A 
ATOM     32  C   UNL A   1      36.673  33.432  28.962  1.00  0.00     0.010 A 
ATOM     33  C   UNL A   1      35.233  31.932  30.202  1.00  0.00     0.010 A 
ATOM     34  C   UNL A   1      36.522  32.381  29.882  1.00  0.00    -0.014 A 
BRANCH  34  35
ATOM     35  C   UNL A   1      37.698  31.774  30.554  1.00  0.00     0.031 A 
ATOM     36  C   UNL A   1      38.517  30.719  29.864  1.00  0.00     0.074 A 
ATOM     37  C   UNL A   1      37.967  32.111  31.832  1.00  0.00     0.049 A 
ATOM     38  N   UNL A   1      39.539  30.043  30.320  1.00  0.00    -0.248 NA
ATOM     39  C   UNL A   1      38.125  30.361  28.491  1.00  0.00     0.031 C 
ATOM     40  C   UNL A   1      37.198  33.066  32.633  1.00  0.00     0.029 A 
ATOM     41  N   UNL A   1      38.943  31.670  32.690  1.00  0.00    -0.354 N 
ATOM     42  C   UNL A   1      39.890  29.156  29.309  1.00  0.00     0.074 A 
ATOM     43  C   UNL A   1      38.956  29.362  28.224  1.00  0.00     0.031 C 
ATOM     44  C   UNL A   1      37.731  33.142  33.861  1.00  0.00     0.029 A 
ATOM     45  C   UNL A   1      38.855  32.215  33.950  1.00  0.00     0.049 A 
ATOM     46  H   UNL A   1      39.640  31.025  32.429  1.00  0.00     0.167 HD
ATOM     47  C   UNL A   1      40.913  28.268  29.278  1.00  0.00     0.034 A 
ATOM     48  C   UNL A   1      39.585  31.984  35.058  1.00  0.00     0.034 A 
ATOM     49  C   UNL A   1      41.857  28.089  30.349  1.00  0.00     0.049 A 
ATOM     50  C   UNL A   1      40.723  31.003  34.990  1.00  0.00     0.074 A 
ATOM     51  C   UNL A   1      42.983  27.287  30.376  1.00  0.00     0.029 A 
ATOM     52  N   UNL A   1      41.776  28.704  31.589  1.00  0.00    -0.354 N 
ATOM     53  N   UNL A   1      41.146  30.300  33.968  1.00  0.00    -0.248 NA
ATOM     54  C   UNL A   1      41.503  30.804  36.219  1.00  0.00     0.031 C 
ATOM     55  C   UNL A   1      43.561  27.387  31.645  1.00  0.00     0.029 A 
ATOM     56  C   UNL A   1      42.816  28.280  32.398  1.00  0.00     0.049 A 
ATOM     57  H   UNL A   1      41.080  29.348  31.855  1.00  0.00     0.167 HD
ATOM     58  C   UNL A   1      42.255  29.595  34.421  1.00  0.00     0.074 A 
ATOM     59  C   UNL A   1      42.456  29.981  35.804  1.00  0.00     0.031 C 
ATOM     60  C   UNL A   1      43.027  28.697  33.761  1.00  0.00     0.034 A 
BRANCH  47  61
ATOM     61  C   UNL A   1      41.091  27.445  28.028  1.00  0.00     0.023 A 
ATOM     62  C   UNL A   1      41.661  28.032  26.880  1.00  0.00     0.012 A 
ATOM     63  C   UNL A   1      40.758  26.076  28.009  1.00  0.00     0.148 A 
ATOM     64  C   UNL A   1      41.863  27.281  25.722  1.00  0.00     0.002 A 
ATOM     65  C   UNL A   1      41.006  25.322  26.868  1.00  0.00     0.091 A 
ATOM     66  F   UNL A   1      40.200  25.538  29.103  1.00  0.00    -0.205 F 
ATOM     67  C   UNL A   1      41.547  25.926  25.720  1.00  0.00     0.022 A 
BRANCH  65  68
ATOM     68  S   UNL A   1      40.710  23.553  26.788  1.00  0.00     0.127 S 
ATOM     69  O   UNL A   1      39.291  23.506  26.439  1.00  0.00    -0.237 OA
ATOM     70  O   UNL A   1      41.615  23.137  25.717  1.00  0.00    -0.237 OA
ATOM     71  O   UNL A   1      41.045  23.029  28.104  1.00  0.00    -0.744 OA
ENDBRANCH  65  68
ENDBRANCH  47  61
BRANCH  48  72
ATOM     72  C   UNL A   1      39.291  32.732  36.313  1.00  0.00     0.023 A 
ATOM     73  C   UNL A   1      39.857  34.006  36.507  1.00  0.00     0.012 A 
ATOM     74  C   UNL A   1      38.434  32.203  37.299  1.00  0.00     0.148 A 
ATOM     75  C   UNL A   1      39.602  34.728  37.674  1.00  0.00     0.002 A 
ATOM     76  C   UNL A   1      38.138  32.951  38.431  1.00  0.00     0.091 A 
ATOM     77  F   UNL A   1      37.914  30.984  37.100  1.00  0.00    -0.205 F 
ATOM     78  C   UNL A   1      38.735  34.205  38.630  1.00  0.00     0.022 A 
BRANCH  76  79
ATOM     79  S   UNL A   1      36.928  32.419  39.649  1.00  0.00     0.127 S 
ATOM     80  O   UNL A   1      37.480  31.138  40.080  1.00  0.00    -0.237 OA
ATOM     81  O   UNL A   1      37.009  33.492  40.642  1.00  0.00    -0.237 OA
ATOM     82  O   UNL A   1      35.657  32.354  38.940  1.00  0.00    -0.744 OA
ENDBRANCH  76  79
ENDBRANCH  48  72
BRANCH  60  83
ATOM     83  C   UNL A   1      44.173  28.077  34.516  1.00  0.00     0.023 A 
ATOM     84  C   UNL A   1      45.420  28.731  34.554  1.00  0.00     0.012 A 
ATOM     85  C   UNL A   1      43.997  26.882  35.242  1.00  0.00     0.148 A 
ATOM     86  C   UNL A   1      46.485  28.189  35.274  1.00  0.00     0.002 A 
ATOM     87  C   UNL A   1      45.046  26.374  35.999  1.00  0.00     0.091 A 
ATOM     88  F   UNL A   1      42.807  26.265  35.181  1.00  0.00    -0.205 F 
ATOM     89  C   UNL A   1      46.294  27.019  36.005  1.00  0.00     0.022 A 
BRANCH  87  90
ATOM     90  S   UNL A   1      44.869  24.927  37.048  1.00  0.00     0.127 S 
ATOM     91  O   UNL A   1      43.826  25.358  37.978  1.00  0.00    -0.237 OA
ATOM     92  O   UNL A   1      44.448  23.903  36.092  1.00  0.00    -0.237 OA
ATOM     93  O   UNL A   1      46.178  24.698  37.645  1.00  0.00    -0.744 OA
ENDBRANCH  87  90
ENDBRANCH  60  83
ENDBRANCH  34  35
ENDBRANCH  26  29
ENDBRANCH  24  25
ENDBRANCH   1  24
TORSDOF 16
ENDMDL
MODEL 2
REMARK VINA RESULT:     -11.8      2.762      4.153
REMARK SMILES Cc1cccc(C)c1Nc1ccccc1CC(=O)NCCCNC(=O)c1ccc(-c2c3nc(c(-c4cccc(S(=O)(=O)[O-])c4F)c4ccc([nH]4)c(-c4cccc(S(=O)(=O)[O-])c4F)c4nc(c(-c5cccc(S(=O)(=O)[O-])c5F)c5ccc2[nH]5)C=C4)C=C3)cc1
REMARK SMILES IDX 21 1 20 2 19 3 17 4 18 5 16 7 15 8 10 9 11 10 12 11 14 12
REMARK SMILES IDX 13 13 9 14 8 16 1 17 2 18 3 19 4 20 6 21 5 22 7 23 22 24
REMARK SMILES IDX 23 25 24 26 25 28 26 29 27 30 88 31 28 32 87 33 29 34 30 35
REMARK SMILES IDX 31 36 81 37 32 38 86 39 80 40 82 41 33 42 85 43 79 44 78 45
REMARK SMILES IDX 34 47 66 48 46 49 65 50 47 51 50 52 64 53 83 54 48 55 49 56
REMARK SMILES IDX 63 58 84 59 51 60 35 61 36 62 44 63 37 64 39 65 45 66 38 67
REMARK SMILES IDX 40 68 41 69 42 70 43 71 67 72 68 73 76 74 69 75 71 76 77 77
REMARK SMILES IDX 70 78 72 79 73 80 74 81 75 82 52 83 53 84 61 85 54 86 56 87
REMARK SMILES IDX 62 88 55 89 57 90 58 91 59 92 60 93
REMARK H PARENT 19 6 9 15 23 27 82 46 50 57
REMARK Flexibility Score: inf
ROOT
ATOM      1  C   UNL A   1      31.832  28.137  26.755  1.00  0.00     0.042 C 
ENDROOT
BRANCH   1   2
ATOM      2  C   UNL A   1      31.198  26.965  26.013  1.00  0.00     0.117 C 
BRANCH   2   3
ATOM      3  N   UNL A   1      31.175  25.760  26.818  1.00  0.00    -0.356 N 
ATOM      4  C   UNL A   1      31.609  24.510  26.480  1.00  0.00     0.224 C 
ATOM      5  O   UNL A   1      31.421  23.588  27.277  1.00  0.00    -0.275 OA
ATOM      6  H   UNL A   1      30.797  25.854  27.724  1.00  0.00     0.163 HD
BRANCH   4   7
ATOM      7  C   UNL A   1      32.363  24.299  25.180  1.00  0.00     0.137 C 
BRANCH   7   8
ATOM      8  C   UNL A   1      33.678  23.561  25.328  1.00  0.00    -0.015 A 
ATOM      9  C   UNL A   1      33.772  22.153  25.370  1.00  0.00     0.042 A 
ATOM     10  C   UNL A   1      35.029  21.566  25.617  1.00  0.00     0.026 A 
ATOM     11  C   UNL A   1      36.177  22.341  25.778  1.00  0.00     0.002 A 
ATOM     12  C   UNL A   1      34.854  24.329  25.465  1.00  0.00     0.006 A 
ATOM     13  C   UNL A   1      36.091  23.724  25.685  1.00  0.00     0.000 A 
BRANCH   9  14
ATOM     14  N   UNL A   1      32.700  21.270  25.124  1.00  0.00    -0.355 N 
ATOM     15  H   UNL A   1      31.903  21.463  25.668  1.00  0.00     0.167 HD
BRANCH  14  16
ATOM     16  C   UNL A   1      32.537  20.167  24.255  1.00  0.00     0.044 A 
ATOM     17  C   UNL A   1      32.025  21.831  22.377  1.00  0.00     0.046 C 
ATOM     18  C   UNL A   1      32.238  20.429  22.890  1.00  0.00    -0.027 A 
ATOM     19  C   UNL A   1      32.161  19.372  21.968  1.00  0.00     0.005 A 
ATOM     20  C   UNL A   1      32.377  18.062  22.373  1.00  0.00     0.001 A 
ATOM     21  C   UNL A   1      32.702  18.822  24.665  1.00  0.00    -0.027 A 
ATOM     22  C   UNL A   1      32.647  17.791  23.708  1.00  0.00     0.005 A 
ATOM     23  C   UNL A   1      32.903  18.407  26.099  1.00  0.00     0.046 C 
ENDBRANCH  14  16
ENDBRANCH   9  14
ENDBRANCH   7   8
ENDBRANCH   4   7
ENDBRANCH   2   3
ENDBRANCH   1   2
BRANCH   1  24
ATOM     24  C   UNL A   1      32.604  29.090  25.849  1.00  0.00     0.118 C 
BRANCH  24  25
ATOM     25  N   UNL A   1      32.310  30.489  26.139  1.00  0.00    -0.352 N 
ATOM     26  C   UNL A   1      32.940  31.363  26.986  1.00  0.00     0.251 C 
ATOM     27  H   UNL A   1      31.542  30.864  25.652  1.00  0.00     0.163 HD
ATOM     28  O   UNL A   1      32.404  32.439  27.254  1.00  0.00    -0.269 OA
BRANCH  26  29
ATOM     29  C   UNL A   1      34.245  31.017  27.585  1.00  0.00     0.039 A 
ATOM     30  C   UNL A   1      35.211  32.019  27.725  1.00  0.00     0.014 A 
ATOM     31  C   UNL A   1      34.527  29.710  27.991  1.00  0.00     0.014 A 
ATOM     32  C   UNL A   1      36.431  31.723  28.334  1.00  0.00     0.010 A 
ATOM     33  C   UNL A   1      35.713  29.435  28.665  1.00  0.00     0.010 A 
ATOM     34  C   UNL A   1      36.676  30.438  28.845  1.00  0.00    -0.014 A 
BRANCH  34  35
ATOM     35  C   UNL A   1      37.911  30.139  29.613  1.00  0.00     0.031 A 
ATOM     36  C   UNL A   1      38.939  29.185  29.072  1.00  0.00     0.074 A 
ATOM     37  C   UNL A   1      38.056  30.660  30.848  1.00  0.00     0.049 A 
ATOM     38  N   UNL A   1      40.045  28.765  29.629  1.00  0.00    -0.248 NA
ATOM     39  C   UNL A   1      38.683  28.609  27.742  1.00  0.00     0.031 C 
ATOM     40  C   UNL A   1      37.089  31.538  31.512  1.00  0.00     0.029 A 
ATOM     41  N   UNL A   1      39.055  30.507  31.776  1.00  0.00    -0.354 N 
ATOM     42  C   UNL A   1      40.598  27.853  28.740  1.00  0.00     0.074 A 
ATOM     43  C   UNL A   1      39.692  27.759  27.615  1.00  0.00     0.031 C 
ATOM     44  C   UNL A   1      37.543  31.849  32.736  1.00  0.00     0.029 A 
ATOM     45  C   UNL A   1      38.811  31.163  32.961  1.00  0.00     0.049 A 
ATOM     46  H   UNL A   1      39.868  29.978  31.610  1.00  0.00     0.167 HD
ATOM     47  C   UNL A   1      41.765  27.172  28.839  1.00  0.00     0.034 A 
ATOM     48  C   UNL A   1      39.520  31.196  34.106  1.00  0.00     0.034 A 
ATOM     49  C   UNL A   1      42.676  27.293  29.946  1.00  0.00     0.049 A 
ATOM     50  C   UNL A   1      40.819  30.443  34.182  1.00  0.00     0.074 A 
ATOM     51  C   UNL A   1      43.927  26.722  30.095  1.00  0.00     0.029 A 
ATOM     52  N   UNL A   1      42.427  28.016  31.102  1.00  0.00    -0.354 N 
ATOM     53  N   UNL A   1      41.409  29.722  33.260  1.00  0.00    -0.248 NA
ATOM     54  C   UNL A   1      41.564  30.531  35.445  1.00  0.00     0.031 C 
ATOM     55  C   UNL A   1      44.419  27.069  31.358  1.00  0.00     0.029 A 
ATOM     56  C   UNL A   1      43.489  27.885  31.981  1.00  0.00     0.049 A 
ATOM     57  H   UNL A   1      41.615  28.545  31.274  1.00  0.00     0.167 HD
ATOM     58  C   UNL A   1      42.606  29.291  33.821  1.00  0.00     0.074 A 
ATOM     59  C   UNL A   1      42.670  29.859  35.153  1.00  0.00     0.031 C 
ATOM     60  C   UNL A   1      43.558  28.484  33.290  1.00  0.00     0.034 A 
BRANCH  47  61
ATOM     61  C   UNL A   1      42.147  26.263  27.699  1.00  0.00     0.023 A 
ATOM     62  C   UNL A   1      42.997  26.740  26.679  1.00  0.00     0.012 A 
ATOM     63  C   UNL A   1      41.723  24.920  27.671  1.00  0.00     0.148 A 
ATOM     64  C   UNL A   1      43.388  25.906  25.632  1.00  0.00     0.002 A 
ATOM     65  C   UNL A   1      42.155  24.082  26.650  1.00  0.00     0.091 A 
ATOM     66  F   UNL A   1      40.901  24.488  28.639  1.00  0.00    -0.205 F 
ATOM     67  C   UNL A   1      42.977  24.576  25.623  1.00  0.00     0.022 A 
BRANCH  65  68
ATOM     68  S   UNL A   1      41.749  22.333  26.590  1.00  0.00     0.127 S 
ATOM     69  O   UNL A   1      42.328  21.852  27.843  1.00  0.00    -0.237 OA
ATOM     70  O   UNL A   1      40.286  22.358  26.565  1.00  0.00    -0.237 OA
ATOM     71  O   UNL A   1      42.369  21.818  25.378  1.00  0.00    -0.744 OA
ENDBRANCH  65  68
ENDBRANCH  47  61
BRANCH  48  72
ATOM     72  C   UNL A   1      39.037  32.012  35.257  1.00  0.00     0.023 A 
ATOM     73  C   UNL A   1      39.155  33.414  35.208  1.00  0.00     0.012 A 
ATOM     74  C   UNL A   1      38.438  31.411  36.381  1.00  0.00     0.148 A 
ATOM     75  C   UNL A   1      38.715  34.202  36.272  1.00  0.00     0.002 A 
ATOM     76  C   UNL A   1      37.949  32.204  37.411  1.00  0.00     0.091 A 
ATOM     77  F   UNL A   1      38.345  30.074  36.413  1.00  0.00    -0.205 F 
ATOM     78  C   UNL A   1      38.103  33.599  37.368  1.00  0.00     0.022 A 
BRANCH  76  79
ATOM     79  S   UNL A   1      37.026  31.527  38.796  1.00  0.00     0.127 S 
ATOM     80  O   UNL A   1      36.837  30.139  38.380  1.00  0.00    -0.237 OA
ATOM     81  O   UNL A   1      37.963  31.717  39.904  1.00  0.00    -0.237 OA
ATOM     82  O   UNL A   1      35.813  32.328  38.892  1.00  0.00    -0.744 OA
ENDBRANCH  76  79
ENDBRANCH  48  72
BRANCH  60  83
ATOM     83  C   UNL A   1      44.762  28.176  34.141  1.00  0.00     0.023 A 
ATOM     84  C   UNL A   1      45.830  29.092  34.198  1.00  0.00     0.012 A 
ATOM     85  C   UNL A   1      44.806  27.012  34.935  1.00  0.00     0.148 A 
ATOM     86  C   UNL A   1      46.940  28.840  35.004  1.00  0.00     0.002 A 
ATOM     87  C   UNL A   1      45.891  26.792  35.776  1.00  0.00     0.091 A 
ATOM     88  F   UNL A   1      43.787  26.144  34.855  1.00  0.00    -0.205 F 
ATOM     89  C   UNL A   1      46.964  27.698  35.801  1.00  0.00     0.022 A 
BRANCH  87  90
ATOM     90  S   UNL A   1      45.970  25.400  36.908  1.00  0.00     0.127 S 
ATOM     91  O   UNL A   1      46.025  24.267  35.983  1.00  0.00    -0.237 OA
ATOM     92  O   UNL A   1      47.216  25.659  37.628  1.00  0.00    -0.237 OA
ATOM     93  O   UNL A   1      44.768  25.476  37.726  1.00  0.00    -0.744 OA
ENDBRANCH  87  90
ENDBRANCH  60  83
ENDBRANCH  34  35
ENDBRANCH  26  29
ENDBRANCH  24  25
ENDBRANCH   1  24
TORSDOF 16
ENDMDL
MODEL 3
REMARK VINA RESULT:     -11.8      2.497      8.376
REMARK SMILES Cc1cccc(C)c1Nc1ccccc1CC(=O)NCCCNC(=O)c1ccc(-c2c3nc(c(-c4cccc(S(=O)(=O)[O-])c4F)c4ccc([nH]4)c(-c4cccc(S(=O)(=O)[O-])c4F)c4nc(c(-c5cccc(S(=O)(=O)[O-])c5F)c5ccc2[nH]5)C=C4)C=C3)cc1
REMARK SMILES IDX 21 1 20 2 19 3 17 4 18 5 16 7 15 8 10 9 11 10 12 11 14 12
REMARK SMILES IDX 13 13 9 14 8 16 1 17 2 18 3 19 4 20 6 21 5 22 7 23 22 24
REMARK SMILES IDX 23 25 24 26 25 28 26 29 27 30 88 31 28 32 87 33 29 34 30 35
REMARK SMILES IDX 31 36 81 37 32 38 86 39 80 40 82 41 33 42 85 43 79 44 78 45
REMARK SMILES IDX 34 47 66 48 46 49 65 50 47 51 50 52 64 53 83 54 48 55 49 56
REMARK SMILES IDX 63 58 84 59 51 60 35 61 36 62 44 63 37 64 39 65 45 66 38 67
REMARK SMILES IDX 40 68 41 69 42 70 43 71 67 72 68 73 76 74 69 75 71 76 77 77
REMARK SMILES IDX 70 78 72 79 73 80 74 81 75 82 52 83 53 84 61 85 54 86 56 87
REMARK SMILES IDX 62 88 55 89 57 90 58 91 59 92 60 93
REMARK H PARENT 19 6 9 15 23 27 82 46 50 57
REMARK Flexibility Score: inf
ROOT
ATOM      1  C   UNL A   1      31.810  28.823  26.917  1.00  0.00     0.042 C 
ENDROOT
BRANCH   1   2
ATOM      2  C   UNL A   1      31.204  27.789  25.974  1.00  0.00     0.117 C 
BRANCH   2   3
ATOM      3  N   UNL A   1      31.022  26.504  26.621  1.00  0.00    -0.356 N 
ATOM      4  C   UNL A   1      31.806  25.391  26.522  1.00  0.00     0.224 C 
ATOM      5  O   UNL A   1      31.433  24.358  27.085  1.00  0.00    -0.275 OA
ATOM      6  H   UNL A   1      30.233  26.424  27.206  1.00  0.00     0.163 HD
BRANCH   4   7
ATOM      7  C   UNL A   1      33.133  25.464  25.789  1.00  0.00     0.137 C 
BRANCH   7   8
ATOM      8  C   UNL A   1      33.126  24.837  24.410  1.00  0.00    -0.015 A 
ATOM      9  C   UNL A   1      33.729  23.593  24.125  1.00  0.00     0.042 A 
ATOM     10  C   UNL A   1      33.761  23.147  22.789  1.00  0.00     0.026 A 
ATOM     11  C   UNL A   1      33.177  23.884  21.760  1.00  0.00     0.002 A 
ATOM     12  C   UNL A   1      32.515  25.557  23.361  1.00  0.00     0.006 A 
ATOM     13  C   UNL A   1      32.539  25.083  22.050  1.00  0.00     0.000 A 
BRANCH   9  14
ATOM     14  N   UNL A   1      34.262  22.720  25.096  1.00  0.00    -0.355 N 
ATOM     15  H   UNL A   1      33.760  22.722  25.942  1.00  0.00     0.167 HD
BRANCH  14  16
ATOM     16  C   UNL A   1      35.371  21.842  25.101  1.00  0.00     0.044 A 
ATOM     17  C   UNL A   1      33.723  19.897  24.855  1.00  0.00     0.046 C 
ATOM     18  C   UNL A   1      35.122  20.450  24.949  1.00  0.00    -0.027 A 
ATOM     19  C   UNL A   1      36.195  19.548  24.851  1.00  0.00     0.005 A 
ATOM     20  C   UNL A   1      37.507  19.999  24.900  1.00  0.00     0.001 A 
ATOM     21  C   UNL A   1      36.712  22.282  25.202  1.00  0.00    -0.027 A 
ATOM     22  C   UNL A   1      37.762  21.353  25.072  1.00  0.00     0.005 A 
ATOM     23  C   UNL A   1      37.101  23.710  25.483  1.00  0.00     0.046 C 
ENDBRANCH  14  16
ENDBRANCH   9  14
ENDBRANCH   7   8
ENDBRANCH   4   7
ENDBRANCH   2   3
ENDBRANCH   1   2
BRANCH   1  24
ATOM     24  C   UNL A   1      32.974  29.599  26.307  1.00  0.00     0.118 C 
BRANCH  24  25
ATOM     25  N   UNL A   1      32.916  31.022  26.625  1.00  0.00    -0.352 N 
ATOM     26  C   UNL A   1      33.713  31.771  27.450  1.00  0.00     0.251 C 
ATOM     27  H   UNL A   1      32.196  31.520  26.177  1.00  0.00     0.163 HD
ATOM     28  O   UNL A   1      33.365  32.913  27.753  1.00  0.00    -0.269 OA
BRANCH  26  29
ATOM     29  C   UNL A   1      34.972  31.215  27.985  1.00  0.00     0.039 A 
ATOM     30  C   UNL A   1      36.107  32.030  28.023  1.00  0.00     0.014 A 
ATOM     31  C   UNL A   1      35.043  29.892  28.431  1.00  0.00     0.014 A 
ATOM     32  C   UNL A   1      37.294  31.538  28.571  1.00  0.00     0.010 A 
ATOM     33  C   UNL A   1      36.203  29.429  29.044  1.00  0.00     0.010 A 
ATOM     34  C   UNL A   1      37.339  30.247  29.123  1.00  0.00    -0.014 A 
BRANCH  34  35
ATOM     35  C   UNL A   1      38.549  29.756  29.828  1.00  0.00     0.031 A 
ATOM     36  C   UNL A   1      38.924  30.301  31.179  1.00  0.00     0.074 A 
ATOM     37  C   UNL A   1      39.364  28.884  29.202  1.00  0.00     0.049 A 
ATOM     38  N   UNL A   1      39.971  30.030  31.913  1.00  0.00    -0.248 NA
ATOM     39  C   UNL A   1      38.016  31.295  31.774  1.00  0.00     0.031 C 
ATOM     40  C   UNL A   1      39.146  28.343  27.858  1.00  0.00     0.029 A 
ATOM     41  N   UNL A   1      40.551  28.320  29.597  1.00  0.00    -0.354 N 
ATOM     42  C   UNL A   1      39.870  30.841  33.036  1.00  0.00     0.074 A 
ATOM     43  C   UNL A   1      38.671  31.635  32.875  1.00  0.00     0.031 C 
ATOM     44  C   UNL A   1      40.162  27.524  27.542  1.00  0.00     0.029 A 
ATOM     45  C   UNL A   1      41.121  27.511  28.641  1.00  0.00     0.049 A 
ATOM     46  H   UNL A   1      40.956  28.480  30.480  1.00  0.00     0.167 HD
ATOM     47  C   UNL A   1      40.689  30.904  34.114  1.00  0.00     0.034 A 
ATOM     48  C   UNL A   1      42.292  26.846  28.642  1.00  0.00     0.034 A 
ATOM     49  C   UNL A   1      41.864  30.090  34.281  1.00  0.00     0.049 A 
ATOM     50  C   UNL A   1      43.173  26.922  29.858  1.00  0.00     0.074 A 
ATOM     51  C   UNL A   1      42.703  30.008  35.377  1.00  0.00     0.029 A 
ATOM     52  N   UNL A   1      42.378  29.233  33.320  1.00  0.00    -0.354 N 
ATOM     53  N   UNL A   1      42.973  27.563  30.983  1.00  0.00    -0.248 NA
ATOM     54  C   UNL A   1      44.429  26.160  29.817  1.00  0.00     0.031 C 
ATOM     55  C   UNL A   1      43.746  29.131  35.065  1.00  0.00     0.029 A 
ATOM     56  C   UNL A   1      43.538  28.639  33.787  1.00  0.00     0.049 A 
ATOM     57  H   UNL A   1      41.978  29.072  32.435  1.00  0.00     0.167 HD
ATOM     58  C   UNL A   1      44.062  27.263  31.793  1.00  0.00     0.074 A 
ATOM     59  C   UNL A   1      44.904  26.356  31.039  1.00  0.00     0.031 C 
ATOM     60  C   UNL A   1      44.349  27.711  33.041  1.00  0.00     0.034 A 
BRANCH  47  61
ATOM     61  C   UNL A   1      40.322  31.859  35.220  1.00  0.00     0.023 A 
ATOM     62  C   UNL A   1      40.999  33.091  35.333  1.00  0.00     0.012 A 
ATOM     63  C   UNL A   1      39.265  31.569  36.106  1.00  0.00     0.148 A 
ATOM     64  C   UNL A   1      40.655  34.003  36.331  1.00  0.00     0.002 A 
ATOM     65  C   UNL A   1      38.897  32.502  37.068  1.00  0.00     0.091 A 
ATOM     66  F   UNL A   1      38.645  30.386  35.996  1.00  0.00    -0.205 F 
ATOM     67  C   UNL A   1      39.598  33.714  37.189  1.00  0.00     0.022 A 
BRANCH  65  68
ATOM     68  S   UNL A   1      37.499  32.263  38.170  1.00  0.00     0.127 S 
ATOM     69  O   UNL A   1      36.444  32.996  37.473  1.00  0.00    -0.237 OA
ATOM     70  O   UNL A   1      37.342  30.808  38.155  1.00  0.00    -0.237 OA
ATOM     71  O   UNL A   1      37.900  32.817  39.455  1.00  0.00    -0.744 OA
ENDBRANCH  65  68
ENDBRANCH  47  61
BRANCH  48  72
ATOM     72  C   UNL A   1      42.675  26.011  27.468  1.00  0.00     0.023 A 
ATOM     73  C   UNL A   1      43.459  26.575  26.444  1.00  0.00     0.012 A 
ATOM     74  C   UNL A   1      42.293  24.657  27.375  1.00  0.00     0.148 A 
ATOM     75  C   UNL A   1      43.829  25.818  25.332  1.00  0.00     0.002 A 
ATOM     76  C   UNL A   1      42.714  23.893  26.294  1.00  0.00     0.091 A 
ATOM     77  F   UNL A   1      41.539  24.142  28.355  1.00  0.00    -0.205 F 
ATOM     78  C   UNL A   1      43.466  24.476  25.262  1.00  0.00     0.022 A 
BRANCH  76  79
ATOM     79  S   UNL A   1      42.411  22.126  26.187  1.00  0.00     0.127 S 
ATOM     80  O   UNL A   1      42.843  21.667  27.505  1.00  0.00    -0.237 OA
ATOM     81  O   UNL A   1      40.965  22.081  25.961  1.00  0.00    -0.237 OA
ATOM     82  O   UNL A   1      43.208  21.656  25.061  1.00  0.00    -0.744 OA
ENDBRANCH  76  79
ENDBRANCH  48  72
BRANCH  60  83
ATOM     83  C   UNL A   1      45.620  27.216  33.682  1.00  0.00     0.023 A 
ATOM     84  C   UNL A   1      46.802  27.973  33.565  1.00  0.00     0.012 A 
ATOM     85  C   UNL A   1      45.627  26.038  34.455  1.00  0.00     0.148 A 
ATOM     86  C   UNL A   1      47.981  27.548  34.176  1.00  0.00     0.002 A 
ATOM     87  C   UNL A   1      46.792  25.647  35.105  1.00  0.00     0.091 A 
ATOM     88  F   UNL A   1      44.496  25.322  34.542  1.00  0.00    -0.205 F 
ATOM     89  C   UNL A   1      47.973  26.393  34.956  1.00  0.00     0.022 A 
BRANCH  87  90
ATOM     90  S   UNL A   1      46.856  24.229  36.205  1.00  0.00     0.127 S 
ATOM     91  O   UNL A   1      46.572  23.126  35.286  1.00  0.00    -0.237 OA
ATOM     92  O   UNL A   1      48.235  24.278  36.691  1.00  0.00    -0.237 OA
ATOM     93  O   UNL A   1      45.844  24.464  37.226  1.00  0.00    -0.744 OA
ENDBRANCH  87  90
ENDBRANCH  60  83
ENDBRANCH  34  35
ENDBRANCH  26  29
ENDBRANCH  24  25
ENDBRANCH   1  24
TORSDOF 16
ENDMDL
