MODEL 1
REMARK VINA RESULT:     -12.7      0.000      0.000
REMARK SMILES CC(=O)N[C@H]1[C@@H](Oc2ccc(C)c(C)c2)O[C@H]2CO[C@H](c3ccco3)O[C@@H]2[C@H]1OCC(=O)NCCCNC(=O)c1ccc(-c2c3nc(c(-c4cccc(S(=O)(=O)[O-])c4F)c4ccc([nH]4)c(-c4cccc(S(=O)(=O)[O-])c4F)c4nc(c(-c5cccc(S(=O)(=O)[O-])c5F)c5ccc2[nH]5)C=C4)C=C3)cc1
REMARK SMILES IDX 34 1 33 2 31 3 32 4 30 6 29 7 28 8 5 9 6 10 16 11 27 12
REMARK SMILES IDX 17 13 26 14 18 15 20 16 19 17 4 18 1 19 2 20 3 21 7 23 8 24
REMARK SMILES IDX 9 25 15 26 10 27 13 28 11 29 14 30 12 31 21 32 22 33 25 34
REMARK SMILES IDX 23 35 24 36 35 37 36 38 37 39 38 40 39 42 40 43 41 44 102 45
REMARK SMILES IDX 42 46 101 47 43 48 44 49 45 50 95 51 46 52 100 53 94 54
REMARK SMILES IDX 96 55 47 56 99 57 93 58 92 59 48 61 80 62 60 63 79 64 61 65
REMARK SMILES IDX 64 66 78 67 97 68 62 69 63 70 77 72 98 73 65 74 49 75 50 76
REMARK SMILES IDX 58 77 51 78 53 79 59 80 52 81 54 82 55 83 56 84 57 85 81 86
REMARK SMILES IDX 82 87 90 88 83 89 85 90 91 91 84 92 86 93 87 94 88 95 89 96
REMARK SMILES IDX 66 97 67 98 75 99 68 100 70 101 76 102 69 103 71 104 72 105
REMARK SMILES IDX 73 106 74 107
REMARK H PARENT 33 5 4 22 37 41 96 60 64 71
REMARK Flexibility Score: inf
ROOT
ATOM      1  C   UNL A   1      32.041  30.724  27.036  1.00  0.00     0.117 C 
ENDROOT
BRANCH   1   2
ATOM      2  N   UNL A   1      33.222  30.474  27.838  1.00  0.00    -0.354 N 
ATOM      3  C   UNL A   1      34.281  29.652  27.598  1.00  0.00     0.246 C 
ATOM      4  O   UNL A   1      35.222  29.688  28.394  1.00  0.00    -0.272 OA
ATOM      5  H   UNL A   1      33.265  30.976  28.686  1.00  0.00     0.163 HD
BRANCH   3   6
ATOM      6  C   UNL A   1      34.350  28.834  26.299  1.00  0.00     0.260 C 
BRANCH   6   7
ATOM      7  O   UNL A   1      33.551  27.701  26.053  1.00  0.00    -0.363 OA
BRANCH   7   8
ATOM      8  C   UNL A   1      33.668  27.009  24.799  1.00  0.00     0.179 C 
ATOM      9  C   UNL A   1      33.881  25.509  25.227  1.00  0.00     0.182 C 
ATOM     10  C   UNL A   1      34.353  24.690  24.026  1.00  0.00     0.333 C 
ATOM     11  O   UNL A   1      33.325  24.746  22.984  1.00  0.00    -0.332 OA
ATOM     12  C   UNL A   1      32.435  26.947  23.896  1.00  0.00     0.184 C 
ATOM     13  C   UNL A   1      32.741  26.046  22.678  1.00  0.00     0.180 C 
ATOM     14  O   UNL A   1      31.785  28.155  23.504  1.00  0.00    -0.337 OA
ATOM     15  C   UNL A   1      31.388  25.864  21.938  1.00  0.00     0.199 C 
ATOM     16  C   UNL A   1      30.490  27.731  23.035  1.00  0.00     0.319 C 
ATOM     17  O   UNL A   1      30.643  27.085  21.772  1.00  0.00    -0.343 OA
BRANCH   9  18
ATOM     18  N   UNL A   1      32.561  25.087  25.851  1.00  0.00    -0.345 N 
ATOM     19  C   UNL A   1      32.916  22.902  27.141  1.00  0.00     0.114 C 
ATOM     20  C   UNL A   1      32.073  23.935  26.421  1.00  0.00     0.217 C 
ATOM     21  O   UNL A   1      30.849  23.780  26.374  1.00  0.00    -0.275 OA
ATOM     22  H   UNL A   1      31.897  25.812  25.846  1.00  0.00     0.164 HD
ENDBRANCH   9  18
BRANCH  10  23
ATOM     23  O   UNL A   1      34.933  23.360  24.311  1.00  0.00    -0.463 OA
BRANCH  23  24
ATOM     24  C   UNL A   1      36.178  22.964  24.739  1.00  0.00     0.123 A 
ATOM     25  C   UNL A   1      37.126  23.718  25.404  1.00  0.00     0.047 A 
ATOM     26  C   UNL A   1      36.553  21.620  24.573  1.00  0.00     0.050 A 
ATOM     27  C   UNL A   1      38.282  23.224  26.007  1.00  0.00     0.007 A 
ATOM     28  C   UNL A   1      37.778  21.085  25.109  1.00  0.00    -0.045 A 
ATOM     29  C   UNL A   1      38.634  21.900  25.868  1.00  0.00    -0.048 A 
ATOM     30  C   UNL A   1      38.115  19.638  24.863  1.00  0.00     0.045 C 
ATOM     31  C   UNL A   1      39.899  21.451  26.543  1.00  0.00     0.044 C 
ENDBRANCH  23  24
ENDBRANCH  10  23
BRANCH  16  32
ATOM     32  C   UNL A   1      29.489  28.831  22.961  1.00  0.00     0.159 A 
ATOM     33  C   UNL A   1      28.104  28.784  22.937  1.00  0.00     0.051 A 
ATOM     34  O   UNL A   1      29.898  30.124  23.109  1.00  0.00    -0.464 OA
ATOM     35  C   UNL A   1      27.649  30.116  23.053  1.00  0.00     0.042 A 
ATOM     36  C   UNL A   1      28.778  30.894  23.153  1.00  0.00     0.195 A 
ENDBRANCH  16  32
ENDBRANCH   7   8
ENDBRANCH   6   7
ENDBRANCH   3   6
ENDBRANCH   1   2
BRANCH   1  37
ATOM     37  C   UNL A   1      31.751  32.212  26.895  1.00  0.00     0.042 C 
BRANCH  37  38
ATOM     38  C   UNL A   1      32.972  33.112  27.064  1.00  0.00     0.118 C 
BRANCH  38  39
ATOM     39  N   UNL A   1      32.691  34.291  27.871  1.00  0.00    -0.352 N 
ATOM     40  C   UNL A   1      33.228  34.675  29.073  1.00  0.00     0.251 C 
ATOM     41  H   UNL A   1      32.016  34.903  27.500  1.00  0.00     0.163 HD
ATOM     42  O   UNL A   1      32.719  35.614  29.689  1.00  0.00    -0.269 OA
BRANCH  40  43
ATOM     43  C   UNL A   1      34.394  33.964  29.642  1.00  0.00     0.039 A 
ATOM     44  C   UNL A   1      35.679  34.414  29.322  1.00  0.00     0.014 A 
ATOM     45  C   UNL A   1      34.232  32.851  30.471  1.00  0.00     0.014 A 
ATOM     46  C   UNL A   1      36.793  33.786  29.881  1.00  0.00     0.010 A 
ATOM     47  C   UNL A   1      35.340  32.277  31.090  1.00  0.00     0.010 A 
ATOM     48  C   UNL A   1      36.634  32.733  30.797  1.00  0.00    -0.014 A 
BRANCH  48  49
ATOM     49  C   UNL A   1      37.807  32.113  31.468  1.00  0.00     0.031 A 
ATOM     50  C   UNL A   1      38.571  31.001  30.800  1.00  0.00     0.074 A 
ATOM     51  C   UNL A   1      38.135  32.495  32.719  1.00  0.00     0.049 A 
ATOM     52  N   UNL A   1      39.585  30.311  31.253  1.00  0.00    -0.248 NA
ATOM     53  C   UNL A   1      38.124  30.593  29.457  1.00  0.00     0.031 C 
ATOM     54  C   UNL A   1      37.423  33.503  33.508  1.00  0.00     0.029 A 
ATOM     55  N   UNL A   1      39.130  32.058  33.560  1.00  0.00    -0.354 N 
ATOM     56  C   UNL A   1      39.870  29.364  30.277  1.00  0.00     0.074 A 
ATOM     57  C   UNL A   1      38.905  29.551  29.215  1.00  0.00     0.031 C 
ATOM     58  C   UNL A   1      38.002  33.608  34.715  1.00  0.00     0.029 A 
ATOM     59  C   UNL A   1      39.101  32.652  34.801  1.00  0.00     0.049 A 
ATOM     60  H   UNL A   1      39.799  31.386  33.299  1.00  0.00     0.167 HD
ATOM     61  C   UNL A   1      40.858  28.438  30.254  1.00  0.00     0.034 A 
ATOM     62  C   UNL A   1      39.862  32.439  35.894  1.00  0.00     0.034 A 
ATOM     63  C   UNL A   1      41.841  28.281  31.292  1.00  0.00     0.049 A 
ATOM     64  C   UNL A   1      40.979  31.433  35.825  1.00  0.00     0.074 A 
ATOM     65  C   UNL A   1      42.943  27.443  31.313  1.00  0.00     0.029 A 
ATOM     66  N   UNL A   1      41.834  28.961  32.499  1.00  0.00    -0.354 N 
ATOM     67  N   UNL A   1      41.338  30.668  34.822  1.00  0.00    -0.248 NA
ATOM     68  C   UNL A   1      41.819  31.288  37.021  1.00  0.00     0.031 C 
ATOM     69  C   UNL A   1      43.580  27.588  32.548  1.00  0.00     0.029 A 
ATOM     70  C   UNL A   1      42.901  28.549  33.281  1.00  0.00     0.049 A 
ATOM     71  H   UNL A   1      41.170  29.639  32.763  1.00  0.00     0.167 HD
ATOM     72  C   UNL A   1      42.465  29.979  35.255  1.00  0.00     0.074 A 
ATOM     73  C   UNL A   1      42.742  30.433  36.601  1.00  0.00     0.031 C 
ATOM     74  C   UNL A   1      43.197  29.043  34.601  1.00  0.00     0.034 A 
BRANCH  61  75
ATOM     75  C   UNL A   1      40.955  27.538  29.049  1.00  0.00     0.023 A 
ATOM     76  C   UNL A   1      40.078  26.443  28.918  1.00  0.00     0.012 A 
ATOM     77  C   UNL A   1      41.863  27.824  28.009  1.00  0.00     0.148 A 
ATOM     78  C   UNL A   1      40.123  25.627  27.788  1.00  0.00     0.002 A 
ATOM     79  C   UNL A   1      41.869  27.035  26.865  1.00  0.00     0.091 A 
ATOM     80  F   UNL A   1      42.703  28.858  28.159  1.00  0.00    -0.205 F 
ATOM     81  C   UNL A   1      41.010  25.930  26.759  1.00  0.00     0.022 A 
BRANCH  79  82
ATOM     82  S   UNL A   1      42.912  27.390  25.446  1.00  0.00     0.127 S 
ATOM     83  O   UNL A   1      44.143  27.842  26.090  1.00  0.00    -0.237 OA
ATOM     84  O   UNL A   1      43.005  26.081  24.800  1.00  0.00    -0.237 OA
ATOM     85  O   UNL A   1      42.206  28.403  24.672  1.00  0.00    -0.744 OA
ENDBRANCH  79  82
ENDBRANCH  61  75
BRANCH  62  86
ATOM     86  C   UNL A   1      39.619  33.226  37.136  1.00  0.00     0.023 A 
ATOM     87  C   UNL A   1      38.572  32.859  38.003  1.00  0.00     0.012 A 
ATOM     88  C   UNL A   1      40.432  34.326  37.470  1.00  0.00     0.148 A 
ATOM     89  C   UNL A   1      38.315  33.595  39.160  1.00  0.00     0.002 A 
ATOM     90  C   UNL A   1      40.209  35.019  38.654  1.00  0.00     0.091 A 
ATOM     91  F   UNL A   1      41.418  34.668  36.628  1.00  0.00    -0.205 F 
ATOM     92  C   UNL A   1      39.138  34.668  39.490  1.00  0.00     0.022 A 
BRANCH  90  93
ATOM     93  S   UNL A   1      41.304  36.323  39.227  1.00  0.00     0.127 S 
ATOM     94  O   UNL A   1      41.302  37.237  38.089  1.00  0.00    -0.237 OA
ATOM     95  O   UNL A   1      40.599  36.812  40.413  1.00  0.00    -0.237 OA
ATOM     96  O   UNL A   1      42.575  35.670  39.514  1.00  0.00    -0.744 OA
ENDBRANCH  90  93
ENDBRANCH  62  86
BRANCH  74  97
ATOM     97  C   UNL A   1      44.399  28.472  35.307  1.00  0.00     0.023 A 
ATOM     98  C   UNL A   1      45.680  29.005  35.063  1.00  0.00     0.012 A 
ATOM     99  C   UNL A   1      44.245  27.453  36.268  1.00  0.00     0.148 A 
ATOM    100  C   UNL A   1      46.795  28.508  35.739  1.00  0.00     0.002 A 
ATOM    101  C   UNL A   1      45.352  27.000  36.977  1.00  0.00     0.091 A 
ATOM    102  F   UNL A   1      43.021  26.946  36.474  1.00  0.00    -0.205 F 
ATOM    103  C   UNL A   1      46.629  27.516  36.703  1.00  0.00     0.022 A 
BRANCH 101 104
ATOM    104  S   UNL A   1      45.217  25.798  38.304  1.00  0.00     0.127 S 
ATOM    105  O   UNL A   1      46.603  25.715  38.771  1.00  0.00    -0.237 OA
ATOM    106  O   UNL A   1      44.304  26.469  39.234  1.00  0.00    -0.237 OA
ATOM    107  O   UNL A   1      44.687  24.588  37.704  1.00  0.00    -0.744 OA
ENDBRANCH 101 104
ENDBRANCH  74  97
ENDBRANCH  48  49
ENDBRANCH  40  43
ENDBRANCH  38  39
ENDBRANCH  37  38
ENDBRANCH   1  37
TORSDOF 19
ENDMDL
MODEL 2
REMARK VINA RESULT:     -12.6      2.041      2.602
REMARK SMILES CC(=O)N[C@H]1[C@@H](Oc2ccc(C)c(C)c2)O[C@H]2CO[C@H](c3ccco3)O[C@@H]2[C@H]1OCC(=O)NCCCNC(=O)c1ccc(-c2c3nc(c(-c4cccc(S(=O)(=O)[O-])c4F)c4ccc([nH]4)c(-c4cccc(S(=O)(=O)[O-])c4F)c4nc(c(-c5cccc(S(=O)(=O)[O-])c5F)c5ccc2[nH]5)C=C4)C=C3)cc1
REMARK SMILES IDX 34 1 33 2 31 3 32 4 30 6 29 7 28 8 5 9 6 10 16 11 27 12
REMARK SMILES IDX 17 13 26 14 18 15 20 16 19 17 4 18 1 19 2 20 3 21 7 23 8 24
REMARK SMILES IDX 9 25 15 26 10 27 13 28 11 29 14 30 12 31 21 32 22 33 25 34
REMARK SMILES IDX 23 35 24 36 35 37 36 38 37 39 38 40 39 42 40 43 41 44 102 45
REMARK SMILES IDX 42 46 101 47 43 48 44 49 45 50 95 51 46 52 100 53 94 54
REMARK SMILES IDX 96 55 47 56 99 57 93 58 92 59 48 61 80 62 60 63 79 64 61 65
REMARK SMILES IDX 64 66 78 67 97 68 62 69 63 70 77 72 98 73 65 74 49 75 50 76
REMARK SMILES IDX 58 77 51 78 53 79 59 80 52 81 54 82 55 83 56 84 57 85 81 86
REMARK SMILES IDX 82 87 90 88 83 89 85 90 91 91 84 92 86 93 87 94 88 95 89 96
REMARK SMILES IDX 66 97 67 98 75 99 68 100 70 101 76 102 69 103 71 104 72 105
REMARK SMILES IDX 73 106 74 107
REMARK H PARENT 33 5 4 22 37 41 96 60 64 71
REMARK Flexibility Score: inf
ROOT
ATOM      1  C   UNL A   1      32.029  30.473  26.901  1.00  0.00     0.117 C 
ENDROOT
BRANCH   1   2
ATOM      2  N   UNL A   1      33.199  30.213  27.714  1.00  0.00    -0.354 N 
ATOM      3  C   UNL A   1      34.254  29.381  27.485  1.00  0.00     0.246 C 
ATOM      4  O   UNL A   1      35.186  29.409  28.290  1.00  0.00    -0.272 OA
ATOM      5  H   UNL A   1      33.238  30.713  28.562  1.00  0.00     0.163 HD
BRANCH   3   6
ATOM      6  C   UNL A   1      34.328  28.564  26.186  1.00  0.00     0.260 C 
BRANCH   6   7
ATOM      7  O   UNL A   1      33.909  27.224  26.087  1.00  0.00    -0.363 OA
BRANCH   7   8
ATOM      8  C   UNL A   1      34.010  26.539  24.828  1.00  0.00     0.179 C 
ATOM      9  C   UNL A   1      34.035  25.019  25.239  1.00  0.00     0.182 C 
ATOM     10  C   UNL A   1      34.472  24.168  24.047  1.00  0.00     0.333 C 
ATOM     11  O   UNL A   1      33.508  24.350  22.959  1.00  0.00    -0.332 OA
ATOM     12  C   UNL A   1      32.824  26.625  23.867  1.00  0.00     0.184 C 
ATOM     13  C   UNL A   1      33.088  25.711  22.649  1.00  0.00     0.180 C 
ATOM     14  O   UNL A   1      32.330  27.903  23.467  1.00  0.00    -0.337 OA
ATOM     15  C   UNL A   1      31.760  25.690  21.843  1.00  0.00     0.199 C 
ATOM     16  C   UNL A   1      31.021  27.631  22.929  1.00  0.00     0.319 C 
ATOM     17  O   UNL A   1      31.164  26.988  21.664  1.00  0.00    -0.343 OA
BRANCH   9  18
ATOM     18  N   UNL A   1      32.648  24.738  25.792  1.00  0.00    -0.345 N 
ATOM     19  C   UNL A   1      32.812  22.858  27.525  1.00  0.00     0.114 C 
ATOM     20  C   UNL A   1      32.074  23.728  26.527  1.00  0.00     0.217 C 
ATOM     21  O   UNL A   1      30.857  23.572  26.383  1.00  0.00    -0.275 OA
ATOM     22  H   UNL A   1      32.006  25.451  25.572  1.00  0.00     0.164 HD
ENDBRANCH   9  18
BRANCH  10  23
ATOM     23  O   UNL A   1      34.887  22.778  24.335  1.00  0.00    -0.463 OA
BRANCH  23  24
ATOM     24  C   UNL A   1      34.196  21.590  24.359  1.00  0.00     0.123 A 
ATOM     25  C   UNL A   1      32.860  21.380  24.074  1.00  0.00     0.047 A 
ATOM     26  C   UNL A   1      34.901  20.405  24.628  1.00  0.00     0.050 A 
ATOM     27  C   UNL A   1      32.251  20.137  23.902  1.00  0.00     0.007 A 
ATOM     28  C   UNL A   1      34.290  19.104  24.542  1.00  0.00    -0.045 A 
ATOM     29  C   UNL A   1      32.951  18.975  24.137  1.00  0.00    -0.048 A 
ATOM     30  C   UNL A   1      35.111  17.885  24.870  1.00  0.00     0.045 C 
ATOM     31  C   UNL A   1      32.217  17.679  23.936  1.00  0.00     0.044 C 
ENDBRANCH  23  24
ENDBRANCH  10  23
BRANCH  16  32
ATOM     32  C   UNL A   1      30.153  28.836  22.829  1.00  0.00     0.159 A 
ATOM     33  C   UNL A   1      29.885  29.829  23.758  1.00  0.00     0.051 A 
ATOM     34  O   UNL A   1      29.634  29.194  21.619  1.00  0.00    -0.464 OA
ATOM     35  C   UNL A   1      29.148  30.830  23.085  1.00  0.00     0.042 A 
ATOM     36  C   UNL A   1      29.021  30.396  21.787  1.00  0.00     0.195 A 
ENDBRANCH  16  32
ENDBRANCH   7   8
ENDBRANCH   6   7
ENDBRANCH   3   6
ENDBRANCH   1   2
BRANCH   1  37
ATOM     37  C   UNL A   1      31.685  31.957  26.853  1.00  0.00     0.042 C 
BRANCH  37  38
ATOM     38  C   UNL A   1      32.890  32.887  26.951  1.00  0.00     0.118 C 
BRANCH  38  39
ATOM     39  N   UNL A   1      32.557  34.174  27.544  1.00  0.00    -0.352 N 
ATOM     40  C   UNL A   1      33.074  34.782  28.660  1.00  0.00     0.251 C 
ATOM     41  H   UNL A   1      31.858  34.684  27.076  1.00  0.00     0.163 HD
ATOM     42  O   UNL A   1      32.523  35.790  29.107  1.00  0.00    -0.269 OA
BRANCH  40  43
ATOM     43  C   UNL A   1      34.266  34.229  29.338  1.00  0.00     0.039 A 
ATOM     44  C   UNL A   1      34.094  33.508  30.523  1.00  0.00     0.014 A 
ATOM     45  C   UNL A   1      35.551  34.430  28.824  1.00  0.00     0.014 A 
ATOM     46  C   UNL A   1      35.200  32.940  31.157  1.00  0.00     0.010 A 
ATOM     47  C   UNL A   1      36.642  33.795  29.414  1.00  0.00     0.010 A 
ATOM     48  C   UNL A   1      36.481  33.049  30.591  1.00  0.00    -0.014 A 
BRANCH  48  49
ATOM     49  C   UNL A   1      37.655  32.375  31.207  1.00  0.00     0.031 A 
ATOM     50  C   UNL A   1      38.448  31.358  30.429  1.00  0.00     0.074 A 
ATOM     51  C   UNL A   1      37.958  32.618  32.498  1.00  0.00     0.049 A 
ATOM     52  N   UNL A   1      39.467  30.637  30.819  1.00  0.00    -0.248 NA
ATOM     53  C   UNL A   1      38.027  31.098  29.042  1.00  0.00     0.031 C 
ATOM     54  C   UNL A   1      37.218  33.520  33.384  1.00  0.00     0.029 A 
ATOM     55  N   UNL A   1      38.948  32.106  33.300  1.00  0.00    -0.354 N 
ATOM     56  C   UNL A   1      39.782  29.811  29.747  1.00  0.00     0.074 A 
ATOM     57  C   UNL A   1      38.829  30.101  28.697  1.00  0.00     0.031 C 
ATOM     58  C   UNL A   1      37.777  33.497  34.604  1.00  0.00     0.029 A 
ATOM     59  C   UNL A   1      38.892  32.554  34.600  1.00  0.00     0.049 A 
ATOM     60  H   UNL A   1      39.632  31.478  32.976  1.00  0.00     0.167 HD
ATOM     61  C   UNL A   1      40.787  28.909  29.635  1.00  0.00     0.034 A 
ATOM     62  C   UNL A   1      39.640  32.232  35.673  1.00  0.00     0.034 A 
ATOM     63  C   UNL A   1      41.756  28.652  30.665  1.00  0.00     0.049 A 
ATOM     64  C   UNL A   1      40.775  31.257  35.509  1.00  0.00     0.074 A 
ATOM     65  C   UNL A   1      42.872  27.834  30.609  1.00  0.00     0.029 A 
ATOM     66  N   UNL A   1      41.721  29.191  31.941  1.00  0.00    -0.354 N 
ATOM     67  N   UNL A   1      41.162  30.616  34.433  1.00  0.00    -0.248 NA
ATOM     68  C   UNL A   1      41.601  30.991  36.695  1.00  0.00     0.031 C 
ATOM     69  C   UNL A   1      43.489  27.848  31.863  1.00  0.00     0.029 A 
ATOM     70  C   UNL A   1      42.783  28.709  32.688  1.00  0.00     0.049 A 
ATOM     71  H   UNL A   1      41.041  29.823  32.268  1.00  0.00     0.167 HD
ATOM     72  C   UNL A   1      42.295  29.900  34.804  1.00  0.00     0.074 A 
ATOM     73  C   UNL A   1      42.544  30.204  36.196  1.00  0.00     0.031 C 
ATOM     74  C   UNL A   1      43.052  29.055  34.060  1.00  0.00     0.034 A 
BRANCH  61  75
ATOM     75  C   UNL A   1      40.916  28.153  28.338  1.00  0.00     0.023 A 
ATOM     76  C   UNL A   1      41.530  28.766  27.227  1.00  0.00     0.012 A 
ATOM     77  C   UNL A   1      40.500  26.810  28.243  1.00  0.00     0.148 A 
ATOM     78  C   UNL A   1      41.699  28.067  26.032  1.00  0.00     0.002 A 
ATOM     79  C   UNL A   1      40.715  26.104  27.065  1.00  0.00     0.091 A 
ATOM     80  F   UNL A   1      39.901  26.250  29.303  1.00  0.00    -0.205 F 
ATOM     81  C   UNL A   1      41.302  26.734  25.956  1.00  0.00     0.022 A 
BRANCH  79  82
ATOM     82  S   UNL A   1      40.319  24.361  26.891  1.00  0.00     0.127 S 
ATOM     83  O   UNL A   1      38.922  24.417  26.467  1.00  0.00    -0.237 OA
ATOM     84  O   UNL A   1      41.258  23.936  25.852  1.00  0.00    -0.237 OA
ATOM     85  O   UNL A   1      40.549  23.764  28.201  1.00  0.00    -0.744 OA
ENDBRANCH  79  82
ENDBRANCH  61  75
BRANCH  62  86
ATOM     86  C   UNL A   1      39.366  32.870  36.992  1.00  0.00     0.023 A 
ATOM     87  C   UNL A   1      40.059  34.038  37.361  1.00  0.00     0.012 A 
ATOM     88  C   UNL A   1      38.409  32.332  37.875  1.00  0.00     0.148 A 
ATOM     89  C   UNL A   1      39.833  34.639  38.600  1.00  0.00     0.002 A 
ATOM     90  C   UNL A   1      38.145  32.968  39.081  1.00  0.00     0.091 A 
ATOM     91  F   UNL A   1      37.767  31.213  37.511  1.00  0.00    -0.205 F 
ATOM     92  C   UNL A   1      38.870  34.110  39.455  1.00  0.00     0.022 A 
BRANCH  90  93
ATOM     93  S   UNL A   1      36.825  32.438  40.180  1.00  0.00     0.127 S 
ATOM     94  O   UNL A   1      35.677  32.417  39.280  1.00  0.00    -0.237 OA
ATOM     95  O   UNL A   1      37.299  31.122  40.609  1.00  0.00    -0.237 OA
ATOM     96  O   UNL A   1      36.779  33.433  41.245  1.00  0.00    -0.744 OA
ENDBRANCH  90  93
ENDBRANCH  62  86
BRANCH  74  97
ATOM     97  C   UNL A   1      44.253  28.428  34.717  1.00  0.00     0.023 A 
ATOM     98  C   UNL A   1      45.491  29.101  34.717  1.00  0.00     0.012 A 
ATOM     99  C   UNL A   1      44.135  27.199  35.398  1.00  0.00     0.148 A 
ATOM    100  C   UNL A   1      46.600  28.545  35.353  1.00  0.00     0.002 A 
ATOM    101  C   UNL A   1      45.230  26.678  36.075  1.00  0.00     0.091 A 
ATOM    102  F   UNL A   1      42.954  26.565  35.372  1.00  0.00    -0.205 F 
ATOM    103  C   UNL A   1      46.467  27.341  36.042  1.00  0.00     0.022 A 
BRANCH 101 104
ATOM    104  S   UNL A   1      45.123  25.186  37.070  1.00  0.00     0.127 S 
ATOM    105  O   UNL A   1      45.227  24.141  36.049  1.00  0.00    -0.237 OA
ATOM    106  O   UNL A   1      46.301  25.308  37.934  1.00  0.00    -0.237 OA
ATOM    107  O   UNL A   1      43.852  25.253  37.767  1.00  0.00    -0.744 OA
ENDBRANCH 101 104
ENDBRANCH  74  97
ENDBRANCH  48  49
ENDBRANCH  40  43
ENDBRANCH  38  39
ENDBRANCH  37  38
ENDBRANCH   1  37
TORSDOF 19
ENDMDL
MODEL 3
REMARK VINA RESULT:     -12.6      5.987     11.357
REMARK SMILES CC(=O)N[C@H]1[C@@H](Oc2ccc(C)c(C)c2)O[C@H]2CO[C@H](c3ccco3)O[C@@H]2[C@H]1OCC(=O)NCCCNC(=O)c1ccc(-c2c3nc(c(-c4cccc(S(=O)(=O)[O-])c4F)c4ccc([nH]4)c(-c4cccc(S(=O)(=O)[O-])c4F)c4nc(c(-c5cccc(S(=O)(=O)[O-])c5F)c5ccc2[nH]5)C=C4)C=C3)cc1
REMARK SMILES IDX 34 1 33 2 31 3 32 4 30 6 29 7 28 8 5 9 6 10 16 11 27 12
REMARK SMILES IDX 17 13 26 14 18 15 20 16 19 17 4 18 1 19 2 20 3 21 7 23 8 24
REMARK SMILES IDX 9 25 15 26 10 27 13 28 11 29 14 30 12 31 21 32 22 33 25 34
REMARK SMILES IDX 23 35 24 36 35 37 36 38 37 39 38 40 39 42 40 43 41 44 102 45
REMARK SMILES IDX 42 46 101 47 43 48 44 49 45 50 95 51 46 52 100 53 94 54
REMARK SMILES IDX 96 55 47 56 99 57 93 58 92 59 48 61 80 62 60 63 79 64 61 65
REMARK SMILES IDX 64 66 78 67 97 68 62 69 63 70 77 72 98 73 65 74 49 75 50 76
REMARK SMILES IDX 58 77 51 78 53 79 59 80 52 81 54 82 55 83 56 84 57 85 81 86
REMARK SMILES IDX 82 87 90 88 83 89 85 90 91 91 84 92 86 93 87 94 88 95 89 96
REMARK SMILES IDX 66 97 67 98 75 99 68 100 70 101 76 102 69 103 71 104 72 105
REMARK SMILES IDX 73 106 74 107
REMARK H PARENT 33 5 4 22 37 41 96 60 64 71
REMARK Flexibility Score: inf
ROOT
ATOM      1  C   UNL A   1      36.460  20.520  25.022  1.00  0.00     0.117 C 
ENDROOT
BRANCH   1   2
ATOM      2  N   UNL A   1      36.520  21.501  23.957  1.00  0.00    -0.354 N 
ATOM      3  C   UNL A   1      36.297  22.845  23.996  1.00  0.00     0.246 C 
ATOM      4  O   UNL A   1      36.510  23.487  22.966  1.00  0.00    -0.272 OA
ATOM      5  H   UNL A   1      36.757  21.142  23.071  1.00  0.00     0.163 HD
BRANCH   3   6
ATOM      6  C   UNL A   1      35.946  23.535  25.324  1.00  0.00     0.260 C 
BRANCH   6   7
ATOM      7  O   UNL A   1      35.601  24.896  25.424  1.00  0.00    -0.363 OA
BRANCH   7   8
ATOM      8  C   UNL A   1      34.258  25.263  25.783  1.00  0.00     0.179 C 
ATOM      9  C   UNL A   1      34.024  26.607  24.998  1.00  0.00     0.182 C 
ATOM     10  C   UNL A   1      32.770  27.303  25.526  1.00  0.00     0.333 C 
ATOM     11  O   UNL A   1      31.618  26.423  25.317  1.00  0.00    -0.332 OA
ATOM     12  C   UNL A   1      33.117  24.368  25.302  1.00  0.00     0.184 C 
ATOM     13  C   UNL A   1      31.766  25.019  25.678  1.00  0.00     0.180 C 
ATOM     14  O   UNL A   1      33.132  22.975  25.610  1.00  0.00    -0.337 OA
ATOM     15  C   UNL A   1      30.676  24.167  24.971  1.00  0.00     0.199 C 
ATOM     16  C   UNL A   1      32.183  22.393  24.695  1.00  0.00     0.319 C 
ATOM     17  O   UNL A   1      30.864  22.747  25.108  1.00  0.00    -0.343 OA
BRANCH   9  18
ATOM     18  N   UNL A   1      34.002  26.207  23.532  1.00  0.00    -0.345 N 
ATOM     19  C   UNL A   1      34.066  28.327  22.093  1.00  0.00     0.114 C 
ATOM     20  C   UNL A   1      33.777  26.860  22.343  1.00  0.00     0.217 C 
ATOM     21  O   UNL A   1      33.356  26.167  21.412  1.00  0.00    -0.275 OA
ATOM     22  H   UNL A   1      34.196  25.252  23.402  1.00  0.00     0.164 HD
ENDBRANCH   9  18
BRANCH  10  23
ATOM     23  O   UNL A   1      32.591  28.725  25.159  1.00  0.00    -0.463 OA
BRANCH  23  24
ATOM     24  C   UNL A   1      31.478  29.465  24.834  1.00  0.00     0.123 A 
ATOM     25  C   UNL A   1      31.088  30.683  25.357  1.00  0.00     0.047 A 
ATOM     26  C   UNL A   1      30.643  29.010  23.800  1.00  0.00     0.050 A 
ATOM     27  C   UNL A   1      30.076  31.498  24.852  1.00  0.00     0.007 A 
ATOM     28  C   UNL A   1      29.536  29.783  23.302  1.00  0.00    -0.045 A 
ATOM     29  C   UNL A   1      29.276  31.064  23.818  1.00  0.00    -0.048 A 
ATOM     30  C   UNL A   1      28.675  29.210  22.207  1.00  0.00     0.045 C 
ATOM     31  C   UNL A   1      28.204  32.001  23.339  1.00  0.00     0.044 C 
ENDBRANCH  23  24
ENDBRANCH  10  23
BRANCH  16  32
ATOM     32  C   UNL A   1      32.325  20.919  24.543  1.00  0.00     0.159 A 
ATOM     33  C   UNL A   1      32.309  20.129  23.404  1.00  0.00     0.051 A 
ATOM     34  O   UNL A   1      32.702  20.164  25.614  1.00  0.00    -0.464 OA
ATOM     35  C   UNL A   1      32.673  18.824  23.807  1.00  0.00     0.042 A 
ATOM     36  C   UNL A   1      32.900  18.897  25.161  1.00  0.00     0.195 A 
ENDBRANCH  16  32
ENDBRANCH   7   8
ENDBRANCH   6   7
ENDBRANCH   3   6
ENDBRANCH   1   2
BRANCH   1  37
ATOM     37  C   UNL A   1      37.671  19.596  25.016  1.00  0.00     0.042 C 
BRANCH  37  38
ATOM     38  C   UNL A   1      38.928  20.200  25.636  1.00  0.00     0.118 C 
BRANCH  38  39
ATOM     39  N   UNL A   1      39.973  19.211  25.858  1.00  0.00    -0.352 N 
ATOM     40  C   UNL A   1      41.305  19.394  26.129  1.00  0.00     0.251 C 
ATOM     41  H   UNL A   1      39.681  18.273  25.807  1.00  0.00     0.163 HD
ATOM     42  O   UNL A   1      42.066  18.424  26.096  1.00  0.00    -0.269 OA
BRANCH  40  43
ATOM     43  C   UNL A   1      41.836  20.739  26.438  1.00  0.00     0.039 A 
ATOM     44  C   UNL A   1      42.153  21.598  25.381  1.00  0.00     0.014 A 
ATOM     45  C   UNL A   1      42.038  21.154  27.757  1.00  0.00     0.014 A 
ATOM     46  C   UNL A   1      42.614  22.888  25.649  1.00  0.00     0.010 A 
ATOM     47  C   UNL A   1      42.421  22.467  28.023  1.00  0.00     0.010 A 
ATOM     48  C   UNL A   1      42.720  23.347  26.972  1.00  0.00    -0.014 A 
BRANCH  48  49
ATOM     49  C   UNL A   1      43.125  24.746  27.271  1.00  0.00     0.031 A 
ATOM     50  C   UNL A   1      42.149  25.707  27.897  1.00  0.00     0.074 A 
ATOM     51  C   UNL A   1      44.348  25.178  26.902  1.00  0.00     0.049 A 
ATOM     52  N   UNL A   1      42.310  26.974  28.182  1.00  0.00    -0.248 NA
ATOM     53  C   UNL A   1      40.810  25.187  28.222  1.00  0.00     0.031 C 
ATOM     54  C   UNL A   1      45.356  24.367  26.214  1.00  0.00     0.029 A 
ATOM     55  N   UNL A   1      44.941  26.410  27.025  1.00  0.00    -0.354 N 
ATOM     56  C   UNL A   1      41.088  27.412  28.678  1.00  0.00     0.074 A 
ATOM     57  C   UNL A   1      40.185  26.282  28.632  1.00  0.00     0.031 C 
ATOM     58  C   UNL A   1      46.440  25.123  25.975  1.00  0.00     0.029 A 
ATOM     59  C   UNL A   1      46.193  26.478  26.458  1.00  0.00     0.049 A 
ATOM     60  H   UNL A   1      44.511  27.172  27.474  1.00  0.00     0.167 HD
ATOM     61  C   UNL A   1      40.752  28.636  29.152  1.00  0.00     0.034 A 
ATOM     62  C   UNL A   1      47.042  27.516  26.325  1.00  0.00     0.034 A 
ATOM     63  C   UNL A   1      41.662  29.746  29.234  1.00  0.00     0.049 A 
ATOM     64  C   UNL A   1      46.658  28.854  26.897  1.00  0.00     0.074 A 
ATOM     65  C   UNL A   1      41.446  30.993  29.794  1.00  0.00     0.029 A 
ATOM     66  N   UNL A   1      42.953  29.752  28.731  1.00  0.00    -0.354 N 
ATOM     67  N   UNL A   1      45.557  29.199  27.520  1.00  0.00    -0.248 NA
ATOM     68  C   UNL A   1      47.647  29.935  26.784  1.00  0.00     0.031 C 
ATOM     69  C   UNL A   1      42.593  31.767  29.594  1.00  0.00     0.029 A 
ATOM     70  C   UNL A   1      43.540  30.987  28.949  1.00  0.00     0.049 A 
ATOM     71  H   UNL A   1      43.389  28.991  28.284  1.00  0.00     0.167 HD
ATOM     72  C   UNL A   1      45.736  30.524  27.903  1.00  0.00     0.074 A 
ATOM     73  C   UNL A   1      47.059  30.912  27.462  1.00  0.00     0.031 C 
ATOM     74  C   UNL A   1      44.876  31.349  28.549  1.00  0.00     0.034 A 
BRANCH  61  75
ATOM     75  C   UNL A   1      39.346  28.837  29.655  1.00  0.00     0.023 A 
ATOM     76  C   UNL A   1      39.028  28.527  30.994  1.00  0.00     0.012 A 
ATOM     77  C   UNL A   1      38.358  29.404  28.825  1.00  0.00     0.148 A 
ATOM     78  C   UNL A   1      37.744  28.748  31.489  1.00  0.00     0.002 A 
ATOM     79  C   UNL A   1      37.094  29.667  29.339  1.00  0.00     0.091 A 
ATOM     80  F   UNL A   1      38.673  29.674  27.550  1.00  0.00    -0.205 F 
ATOM     81  C   UNL A   1      36.782  29.328  30.666  1.00  0.00     0.022 A 
BRANCH  79  82
ATOM     82  S   UNL A   1      35.810  30.488  28.389  1.00  0.00     0.127 S 
ATOM     83  O   UNL A   1      34.947  31.008  29.447  1.00  0.00    -0.237 OA
ATOM     84  O   UNL A   1      36.569  31.506  27.664  1.00  0.00    -0.237 OA
ATOM     85  O   UNL A   1      35.213  29.458  27.548  1.00  0.00    -0.744 OA
ENDBRANCH  79  82
ENDBRANCH  61  75
BRANCH  62  86
ATOM     86  C   UNL A   1      48.360  27.322  25.656  1.00  0.00     0.023 A 
ATOM     87  C   UNL A   1      49.482  26.947  26.418  1.00  0.00     0.012 A 
ATOM     88  C   UNL A   1      48.501  27.489  24.265  1.00  0.00     0.148 A 
ATOM     89  C   UNL A   1      50.730  26.781  25.815  1.00  0.00     0.002 A 
ATOM     90  C   UNL A   1      49.731  27.263  23.660  1.00  0.00     0.091 A 
ATOM     91  F   UNL A   1      47.423  27.856  23.556  1.00  0.00    -0.205 F 
ATOM     92  C   UNL A   1      50.852  26.929  24.436  1.00  0.00     0.022 A 
BRANCH  90  93
ATOM     93  S   UNL A   1      49.948  27.295  21.877  1.00  0.00     0.127 S 
ATOM     94  O   UNL A   1      48.940  26.336  21.436  1.00  0.00    -0.237 OA
ATOM     95  O   UNL A   1      49.652  28.692  21.560  1.00  0.00    -0.237 OA
ATOM     96  O   UNL A   1      51.335  26.910  21.644  1.00  0.00    -0.744 OA
ENDBRANCH  90  93
ENDBRANCH  62  86
BRANCH  74  97
ATOM     97  C   UNL A   1      45.346  32.745  28.865  1.00  0.00     0.023 A 
ATOM     98  C   UNL A   1      46.136  32.983  30.006  1.00  0.00     0.012 A 
ATOM     99  C   UNL A   1      45.061  33.810  27.987  1.00  0.00     0.148 A 
ATOM    100  C   UNL A   1      46.607  34.265  30.288  1.00  0.00     0.002 A 
ATOM    101  C   UNL A   1      45.578  35.074  28.245  1.00  0.00     0.091 A 
ATOM    102  F   UNL A   1      44.292  33.568  26.915  1.00  0.00    -0.205 F 
ATOM    103  C   UNL A   1      46.338  35.306  29.402  1.00  0.00     0.022 A 
BRANCH 101 104
ATOM    104  S   UNL A   1      45.367  36.448  27.108  1.00  0.00     0.127 S 
ATOM    105  O   UNL A   1      43.961  36.302  26.724  1.00  0.00    -0.237 OA
ATOM    106  O   UNL A   1      45.643  37.603  27.968  1.00  0.00    -0.237 OA
ATOM    107  O   UNL A   1      46.330  36.245  26.042  1.00  0.00    -0.744 OA
ENDBRANCH 101 104
ENDBRANCH  74  97
ENDBRANCH  48  49
ENDBRANCH  40  43
ENDBRANCH  38  39
ENDBRANCH  37  38
ENDBRANCH   1  37
TORSDOF 19
ENDMDL
