MODEL 1
REMARK VINA RESULT:     -12.0      0.000      0.000
REMARK SMILES Cc1nn(C)c2c1nc(SCC(=O)NCCCNC(=O)c1ccc(-c3c4nc(c(-c5cccc(S(=O)(=O)[O-])c5F)c5ccc([nH]5)c(-c5cccc(S(=O)(=O)[O-])c5F)c5nc(c(-c6cccc(S(=O)(=O)[O-])c6F)c6ccc3[nH]6)C=C5)C=C4)cc1)n2[C@H]1CC[N@@H+](C)C1
REMARK SMILES IDX 16 1 15 2 14 3 12 4 13 5 11 7 10 8 9 9 1 10 2 11 3 12 7 13
REMARK SMILES IDX 4 14 6 15 8 16 5 17 84 18 85 19 86 20 90 21 87 22 88 23
REMARK SMILES IDX 89 24 17 26 18 27 19 28 20 30 21 31 22 32 83 33 23 34 82 35
REMARK SMILES IDX 24 36 25 37 26 38 76 39 27 40 81 41 75 42 77 43 28 44 80 45
REMARK SMILES IDX 74 46 73 47 29 49 61 50 41 51 60 52 42 53 45 54 59 55 78 56
REMARK SMILES IDX 43 57 44 58 58 60 79 61 46 62 30 63 31 64 39 65 32 66 34 67
REMARK SMILES IDX 40 68 33 69 35 70 36 71 37 72 38 73 62 74 63 75 71 76 64 77
REMARK SMILES IDX 66 78 72 79 65 80 67 81 68 82 69 83 70 84 47 85 48 86 56 87
REMARK SMILES IDX 49 88 51 89 57 90 50 91 52 92 53 93 54 94 55 95
REMARK H PARENT 14 6 88 25 18 29 77 48 45 59
REMARK Flexibility Score: inf
ROOT
ATOM      1  C   UNL A   1      38.268  19.719  25.001  1.00  0.00     0.042 C 
ENDROOT
BRANCH   1   2
ATOM      2  C   UNL A   1      37.103  20.703  25.141  1.00  0.00     0.117 C 
BRANCH   2   3
ATOM      3  N   UNL A   1      36.858  21.488  23.943  1.00  0.00    -0.355 N 
ATOM      4  C   UNL A   1      36.520  22.804  23.793  1.00  0.00     0.230 C 
ATOM      5  O   UNL A   1      36.594  23.271  22.655  1.00  0.00    -0.274 OA
ATOM      6  H   UNL A   1      36.954  20.989  23.099  1.00  0.00     0.163 HD
BRANCH   4   7
ATOM      7  C   UNL A   1      36.242  23.697  24.987  1.00  0.00     0.178 C 
BRANCH   7   8
ATOM      8  S   UNL A   1      34.749  23.268  25.905  1.00  0.00    -0.078 SA
BRANCH   8   9
ATOM      9  C   UNL A   1      33.681  24.602  25.611  1.00  0.00     0.171 A 
ATOM     10  C   UNL A   1      33.187  29.125  25.606  1.00  0.00     0.071 C 
ATOM     11  C   UNL A   1      32.485  27.859  25.317  1.00  0.00     0.087 A 
ATOM     12  N   UNL A   1      31.222  27.882  24.852  1.00  0.00    -0.174 NA
ATOM     13  C   UNL A   1      32.907  26.535  25.430  1.00  0.00     0.132 A 
ATOM     14  N   UNL A   1      30.955  26.599  24.514  1.00  0.00    -0.250 N 
ATOM     15  C   UNL A   1      31.921  25.739  24.955  1.00  0.00     0.159 A 
ATOM     16  N   UNL A   1      33.995  25.861  25.847  1.00  0.00    -0.219 NA
ATOM     17  C   UNL A   1      29.754  26.367  23.747  1.00  0.00     0.176 C 
ATOM     18  N   UNL A   1      32.382  24.454  25.113  1.00  0.00    -0.295 N 
BRANCH  18  19
ATOM     19  C   UNL A   1      31.710  23.209  24.749  1.00  0.00     0.152 C 
ATOM     20  C   UNL A   1      32.005  22.628  23.347  1.00  0.00     0.093 C 
ATOM     21  C   UNL A   1      32.056  22.028  25.663  1.00  0.00     0.288 C 
ATOM     22  C   UNL A   1      32.632  21.259  23.565  1.00  0.00     0.264 C 
ATOM     23  N   UNL A   1      32.064  20.817  24.834  1.00  0.00    -0.336 N 
ATOM     24  C   UNL A   1      32.894  19.790  25.464  1.00  0.00     0.332 C 
ATOM     25  H   UNL A   1      31.139  20.404  24.712  1.00  0.00     0.347 HD
ENDBRANCH  18  19
ENDBRANCH   8   9
ENDBRANCH   7   8
ENDBRANCH   4   7
ENDBRANCH   2   3
ENDBRANCH   1   2
BRANCH   1  26
ATOM     26  C   UNL A   1      39.390  19.965  25.996  1.00  0.00     0.118 C 
BRANCH  26  27
ATOM     27  N   UNL A   1      40.530  19.067  25.813  1.00  0.00    -0.352 N 
ATOM     28  C   UNL A   1      41.877  19.389  25.866  1.00  0.00     0.251 C 
ATOM     29  H   UNL A   1      40.315  18.123  25.631  1.00  0.00     0.163 HD
ATOM     30  O   UNL A   1      42.717  18.657  25.382  1.00  0.00    -0.269 OA
BRANCH  28  31
ATOM     31  C   UNL A   1      42.258  20.662  26.513  1.00  0.00     0.039 A 
ATOM     32  C   UNL A   1      42.696  21.749  25.753  1.00  0.00     0.014 A 
ATOM     33  C   UNL A   1      42.091  20.771  27.889  1.00  0.00     0.014 A 
ATOM     34  C   UNL A   1      42.869  22.983  26.381  1.00  0.00     0.010 A 
ATOM     35  C   UNL A   1      42.118  22.014  28.474  1.00  0.00     0.010 A 
ATOM     36  C   UNL A   1      42.549  23.118  27.740  1.00  0.00    -0.014 A 
BRANCH  36  37
ATOM     37  C   UNL A   1      42.553  24.435  28.378  1.00  0.00     0.031 A 
ATOM     38  C   UNL A   1      41.350  25.273  28.114  1.00  0.00     0.074 A 
ATOM     39  C   UNL A   1      43.439  24.787  29.337  1.00  0.00     0.049 A 
ATOM     40  N   UNL A   1      41.282  26.384  27.456  1.00  0.00    -0.248 NA
ATOM     41  C   UNL A   1      40.039  24.756  28.540  1.00  0.00     0.031 C 
ATOM     42  C   UNL A   1      44.445  23.922  29.971  1.00  0.00     0.029 A 
ATOM     43  N   UNL A   1      43.523  25.935  30.070  1.00  0.00    -0.354 N 
ATOM     44  C   UNL A   1      39.966  26.828  27.607  1.00  0.00     0.074 A 
ATOM     45  C   UNL A   1      39.214  25.701  28.083  1.00  0.00     0.031 C 
ATOM     46  C   UNL A   1      44.815  24.458  31.152  1.00  0.00     0.029 A 
ATOM     47  C   UNL A   1      44.248  25.787  31.248  1.00  0.00     0.049 A 
ATOM     48  H   UNL A   1      43.110  26.784  29.792  1.00  0.00     0.167 HD
ATOM     49  C   UNL A   1      39.673  28.159  27.610  1.00  0.00     0.034 A 
ATOM     50  C   UNL A   1      44.368  26.681  32.253  1.00  0.00     0.034 A 
ATOM     51  C   UNL A   1      40.811  28.940  27.203  1.00  0.00     0.049 A 
ATOM     52  C   UNL A   1      44.082  28.020  31.699  1.00  0.00     0.074 A 
ATOM     53  C   UNL A   1      41.463  29.261  26.036  1.00  0.00     0.029 A 
ATOM     54  N   UNL A   1      41.636  29.267  28.245  1.00  0.00    -0.354 N 
ATOM     55  N   UNL A   1      44.817  28.590  30.784  1.00  0.00    -0.248 NA
ATOM     56  C   UNL A   1      42.789  28.646  31.947  1.00  0.00     0.031 C 
ATOM     57  C   UNL A   1      42.787  29.635  26.416  1.00  0.00     0.029 A 
ATOM     58  C   UNL A   1      42.898  29.548  27.803  1.00  0.00     0.049 A 
ATOM     59  H   UNL A   1      41.356  29.296  29.189  1.00  0.00     0.167 HD
ATOM     60  C   UNL A   1      43.913  29.336  30.052  1.00  0.00     0.074 A 
ATOM     61  C   UNL A   1      42.753  29.495  30.917  1.00  0.00     0.031 C 
ATOM     62  C   UNL A   1      44.032  29.456  28.699  1.00  0.00     0.034 A 
BRANCH  49  63
ATOM     63  C   UNL A   1      38.561  28.841  28.396  1.00  0.00     0.023 A 
ATOM     64  C   UNL A   1      37.730  29.737  27.678  1.00  0.00     0.012 A 
ATOM     65  C   UNL A   1      38.471  28.891  29.804  1.00  0.00     0.148 A 
ATOM     66  C   UNL A   1      36.903  30.665  28.323  1.00  0.00     0.002 A 
ATOM     67  C   UNL A   1      37.588  29.762  30.441  1.00  0.00     0.091 A 
ATOM     68  F   UNL A   1      39.332  28.204  30.558  1.00  0.00    -0.205 F 
ATOM     69  C   UNL A   1      36.826  30.673  29.708  1.00  0.00     0.022 A 
BRANCH  67  70
ATOM     70  S   UNL A   1      37.407  29.769  32.230  1.00  0.00     0.127 S 
ATOM     71  O   UNL A   1      38.623  30.460  32.643  1.00  0.00    -0.237 OA
ATOM     72  O   UNL A   1      36.170  30.531  32.405  1.00  0.00    -0.237 OA
ATOM     73  O   UNL A   1      37.294  28.365  32.610  1.00  0.00    -0.744 OA
ENDBRANCH  67  70
ENDBRANCH  49  63
BRANCH  50  74
ATOM     74  C   UNL A   1      44.578  26.455  33.697  1.00  0.00     0.023 A 
ATOM     75  C   UNL A   1      45.853  26.660  34.255  1.00  0.00     0.012 A 
ATOM     76  C   UNL A   1      43.475  26.312  34.569  1.00  0.00     0.148 A 
ATOM     77  C   UNL A   1      46.023  26.767  35.639  1.00  0.00     0.002 A 
ATOM     78  C   UNL A   1      43.649  26.419  35.946  1.00  0.00     0.091 A 
ATOM     79  F   UNL A   1      42.253  26.160  34.041  1.00  0.00    -0.205 F 
ATOM     80  C   UNL A   1      44.920  26.660  36.482  1.00  0.00     0.022 A 
BRANCH  78  81
ATOM     81  S   UNL A   1      42.278  26.326  37.105  1.00  0.00     0.127 S 
ATOM     82  O   UNL A   1      41.722  25.005  36.807  1.00  0.00    -0.237 OA
ATOM     83  O   UNL A   1      42.964  26.424  38.390  1.00  0.00    -0.237 OA
ATOM     84  O   UNL A   1      41.399  27.437  36.768  1.00  0.00    -0.744 OA
ENDBRANCH  78  81
ENDBRANCH  50  74
BRANCH  62  85
ATOM     85  C   UNL A   1      45.387  29.258  28.086  1.00  0.00     0.023 A 
ATOM     86  C   UNL A   1      46.399  30.236  28.136  1.00  0.00     0.012 A 
ATOM     87  C   UNL A   1      45.681  27.995  27.547  1.00  0.00     0.148 A 
ATOM     88  C   UNL A   1      47.678  29.960  27.642  1.00  0.00     0.002 A 
ATOM     89  C   UNL A   1      46.963  27.708  27.102  1.00  0.00     0.091 A 
ATOM     90  F   UNL A   1      44.698  27.082  27.499  1.00  0.00    -0.205 F 
ATOM     91  C   UNL A   1      47.964  28.692  27.138  1.00  0.00     0.022 A 
BRANCH  89  92
ATOM     92  S   UNL A   1      47.415  26.057  26.564  1.00  0.00     0.127 S 
ATOM     93  O   UNL A   1      48.804  26.240  26.148  1.00  0.00    -0.237 OA
ATOM     94  O   UNL A   1      47.239  25.269  27.785  1.00  0.00    -0.237 OA
ATOM     95  O   UNL A   1      46.478  25.716  25.500  1.00  0.00    -0.744 OA
ENDBRANCH  89  92
ENDBRANCH  62  85
ENDBRANCH  36  37
ENDBRANCH  28  31
ENDBRANCH  26  27
ENDBRANCH   1  26
TORSDOF 16
ENDMDL
MODEL 2
REMARK VINA RESULT:     -12.0      3.759      9.415
REMARK SMILES Cc1nn(C)c2c1nc(SCC(=O)NCCCNC(=O)c1ccc(-c3c4nc(c(-c5cccc(S(=O)(=O)[O-])c5F)c5ccc([nH]5)c(-c5cccc(S(=O)(=O)[O-])c5F)c5nc(c(-c6cccc(S(=O)(=O)[O-])c6F)c6ccc3[nH]6)C=C5)C=C4)cc1)n2[C@H]1CC[N@@H+](C)C1
REMARK SMILES IDX 16 1 15 2 14 3 12 4 13 5 11 7 10 8 9 9 1 10 2 11 3 12 7 13
REMARK SMILES IDX 4 14 6 15 8 16 5 17 84 18 85 19 86 20 90 21 87 22 88 23
REMARK SMILES IDX 89 24 17 26 18 27 19 28 20 30 21 31 22 32 83 33 23 34 82 35
REMARK SMILES IDX 24 36 25 37 26 38 76 39 27 40 81 41 75 42 77 43 28 44 80 45
REMARK SMILES IDX 74 46 73 47 29 49 61 50 41 51 60 52 42 53 45 54 59 55 78 56
REMARK SMILES IDX 43 57 44 58 58 60 79 61 46 62 30 63 31 64 39 65 32 66 34 67
REMARK SMILES IDX 40 68 33 69 35 70 36 71 37 72 38 73 62 74 63 75 71 76 64 77
REMARK SMILES IDX 66 78 72 79 65 80 67 81 68 82 69 83 70 84 47 85 48 86 56 87
REMARK SMILES IDX 49 88 51 89 57 90 50 91 52 92 53 93 54 94 55 95
REMARK H PARENT 14 6 88 25 18 29 77 48 45 59
REMARK Flexibility Score: inf
ROOT
ATOM      1  C   UNL A   1      31.403  31.825  26.482  1.00  0.00     0.042 C 
ENDROOT
BRANCH   1   2
ATOM      2  C   UNL A   1      31.621  30.333  26.211  1.00  0.00     0.117 C 
BRANCH   2   3
ATOM      3  N   UNL A   1      31.598  29.991  24.800  1.00  0.00    -0.355 N 
ATOM      4  C   UNL A   1      32.300  29.048  24.100  1.00  0.00     0.230 C 
ATOM      5  O   UNL A   1      31.923  28.816  22.950  1.00  0.00    -0.274 OA
ATOM      6  H   UNL A   1      30.973  30.525  24.257  1.00  0.00     0.163 HD
BRANCH   4   7
ATOM      7  C   UNL A   1      33.370  28.200  24.758  1.00  0.00     0.178 C 
BRANCH   7   8
ATOM      8  S   UNL A   1      32.738  26.996  25.946  1.00  0.00    -0.078 SA
BRANCH   8   9
ATOM      9  C   UNL A   1      33.554  25.525  25.522  1.00  0.00     0.171 A 
ATOM     10  C   UNL A   1      37.522  23.303  25.377  1.00  0.00     0.071 C 
ATOM     11  C   UNL A   1      36.080  23.169  25.088  1.00  0.00     0.087 A 
ATOM     12  N   UNL A   1      35.596  22.005  24.615  1.00  0.00    -0.174 NA
ATOM     13  C   UNL A   1      35.032  24.078  25.228  1.00  0.00     0.132 A 
ATOM     14  N   UNL A   1      34.250  22.153  24.646  1.00  0.00    -0.250 N 
ATOM     15  C   UNL A   1      33.881  23.442  24.911  1.00  0.00     0.159 A 
ATOM     16  N   UNL A   1      34.860  25.361  25.597  1.00  0.00    -0.219 NA
ATOM     17  C   UNL A   1      33.462  20.963  24.433  1.00  0.00     0.176 C 
ATOM     18  N   UNL A   1      32.893  24.388  25.044  1.00  0.00    -0.295 N 
BRANCH  18  19
ATOM     19  C   UNL A   1      31.457  24.223  24.832  1.00  0.00     0.152 C 
ATOM     20  C   UNL A   1      30.534  24.404  26.059  1.00  0.00     0.093 C 
ATOM     21  C   UNL A   1      30.859  25.219  23.833  1.00  0.00     0.288 C 
ATOM     22  C   UNL A   1      29.609  25.568  25.740  1.00  0.00     0.264 C 
ATOM     23  N   UNL A   1      29.500  25.534  24.286  1.00  0.00    -0.336 N 
ATOM     24  C   UNL A   1      29.086  26.832  23.749  1.00  0.00     0.332 C 
ATOM     25  H   UNL A   1      28.802  24.859  23.973  1.00  0.00     0.347 HD
ENDBRANCH  18  19
ENDBRANCH   8   9
ENDBRANCH   7   8
ENDBRANCH   4   7
ENDBRANCH   2   3
ENDBRANCH   1   2
BRANCH   1  26
ATOM     26  C   UNL A   1      32.559  32.480  27.220  1.00  0.00     0.118 C 
BRANCH  26  27
ATOM     27  N   UNL A   1      32.292  33.869  27.592  1.00  0.00    -0.352 N 
ATOM     28  C   UNL A   1      32.957  34.635  28.537  1.00  0.00     0.251 C 
ATOM     29  H   UNL A   1      31.553  34.313  27.114  1.00  0.00     0.163 HD
ATOM     30  O   UNL A   1      32.456  35.642  28.995  1.00  0.00    -0.269 OA
BRANCH  28  31
ATOM     31  C   UNL A   1      34.288  34.175  28.986  1.00  0.00     0.039 A 
ATOM     32  C   UNL A   1      34.426  33.386  30.129  1.00  0.00     0.014 A 
ATOM     33  C   UNL A   1      35.388  34.483  28.191  1.00  0.00     0.014 A 
ATOM     34  C   UNL A   1      35.671  32.823  30.412  1.00  0.00     0.010 A 
ATOM     35  C   UNL A   1      36.570  33.812  28.388  1.00  0.00     0.010 A 
ATOM     36  C   UNL A   1      36.736  33.016  29.520  1.00  0.00    -0.014 A 
BRANCH  36  37
ATOM     37  C   UNL A   1      37.997  32.296  29.701  1.00  0.00     0.031 A 
ATOM     38  C   UNL A   1      38.021  30.909  29.158  1.00  0.00     0.074 A 
ATOM     39  C   UNL A   1      39.141  32.901  30.092  1.00  0.00     0.049 A 
ATOM     40  N   UNL A   1      38.120  29.798  29.815  1.00  0.00    -0.248 NA
ATOM     41  C   UNL A   1      37.794  30.725  27.715  1.00  0.00     0.031 C 
ATOM     42  C   UNL A   1      39.356  34.341  30.292  1.00  0.00     0.029 A 
ATOM     43  N   UNL A   1      40.398  32.386  30.231  1.00  0.00    -0.354 N 
ATOM     44  C   UNL A   1      38.225  28.799  28.845  1.00  0.00     0.074 A 
ATOM     45  C   UNL A   1      37.804  29.394  27.607  1.00  0.00     0.031 C 
ATOM     46  C   UNL A   1      40.676  34.610  30.230  1.00  0.00     0.029 A 
ATOM     47  C   UNL A   1      41.397  33.354  30.209  1.00  0.00     0.049 A 
ATOM     48  H   UNL A   1      40.579  31.425  30.336  1.00  0.00     0.167 HD
ATOM     49  C   UNL A   1      38.930  27.658  29.088  1.00  0.00     0.034 A 
ATOM     50  C   UNL A   1      42.732  33.152  30.158  1.00  0.00     0.034 A 
ATOM     51  C   UNL A   1      39.287  27.558  30.479  1.00  0.00     0.049 A 
ATOM     52  C   UNL A   1      43.000  31.794  30.672  1.00  0.00     0.074 A 
ATOM     53  C   UNL A   1      38.678  27.233  31.668  1.00  0.00     0.029 A 
ATOM     54  N   UNL A   1      40.470  28.180  30.773  1.00  0.00    -0.354 N 
ATOM     55  N   UNL A   1      42.751  31.429  31.900  1.00  0.00    -0.248 NA
ATOM     56  C   UNL A   1      43.290  30.710  29.741  1.00  0.00     0.031 C 
ATOM     57  C   UNL A   1      39.465  27.841  32.692  1.00  0.00     0.029 A 
ATOM     58  C   UNL A   1      40.539  28.504  32.099  1.00  0.00     0.049 A 
ATOM     59  H   UNL A   1      41.178  28.369  30.116  1.00  0.00     0.167 HD
ATOM     60  C   UNL A   1      42.411  30.094  31.785  1.00  0.00     0.074 A 
ATOM     61  C   UNL A   1      42.951  29.667  30.502  1.00  0.00     0.031 C 
ATOM     62  C   UNL A   1      41.430  29.549  32.559  1.00  0.00     0.034 A 
BRANCH  49  63
ATOM     63  C   UNL A   1      39.716  26.842  28.071  1.00  0.00     0.023 A 
ATOM     64  C   UNL A   1      39.530  25.438  28.099  1.00  0.00     0.012 A 
ATOM     65  C   UNL A   1      40.814  27.316  27.320  1.00  0.00     0.148 A 
ATOM     66  C   UNL A   1      40.414  24.556  27.465  1.00  0.00     0.002 A 
ATOM     67  C   UNL A   1      41.646  26.440  26.625  1.00  0.00     0.091 A 
ATOM     68  F   UNL A   1      41.160  28.604  27.374  1.00  0.00    -0.205 F 
ATOM     69  C   UNL A   1      41.472  25.058  26.721  1.00  0.00     0.022 A 
BRANCH  67  70
ATOM     70  S   UNL A   1      42.992  27.043  25.598  1.00  0.00     0.127 S 
ATOM     71  O   UNL A   1      43.497  25.802  25.020  1.00  0.00    -0.237 OA
ATOM     72  O   UNL A   1      42.288  27.921  24.663  1.00  0.00    -0.237 OA
ATOM     73  O   UNL A   1      43.886  27.747  26.510  1.00  0.00    -0.744 OA
ENDBRANCH  67  70
ENDBRANCH  49  63
BRANCH  50  74
ATOM     74  C   UNL A   1      43.792  33.994  29.568  1.00  0.00     0.023 A 
ATOM     75  C   UNL A   1      44.572  34.815  30.402  1.00  0.00     0.012 A 
ATOM     76  C   UNL A   1      44.219  33.782  28.238  1.00  0.00     0.148 A 
ATOM     77  C   UNL A   1      45.768  35.374  29.942  1.00  0.00     0.002 A 
ATOM     78  C   UNL A   1      45.411  34.340  27.785  1.00  0.00     0.091 A 
ATOM     79  F   UNL A   1      43.501  32.966  27.453  1.00  0.00    -0.205 F 
ATOM     80  C   UNL A   1      46.195  35.126  28.641  1.00  0.00     0.022 A 
BRANCH  78  81
ATOM     81  S   UNL A   1      46.051  34.047  26.131  1.00  0.00     0.127 S 
ATOM     82  O   UNL A   1      46.172  32.588  26.110  1.00  0.00    -0.237 OA
ATOM     83  O   UNL A   1      44.980  34.583  25.295  1.00  0.00    -0.237 OA
ATOM     84  O   UNL A   1      47.321  34.756  26.067  1.00  0.00    -0.744 OA
ENDBRANCH  78  81
ENDBRANCH  50  74
BRANCH  62  85
ATOM     85  C   UNL A   1      41.108  30.210  33.866  1.00  0.00     0.023 A 
ATOM     86  C   UNL A   1      41.939  30.110  34.999  1.00  0.00     0.012 A 
ATOM     87  C   UNL A   1      39.989  31.056  33.911  1.00  0.00     0.148 A 
ATOM     88  C   UNL A   1      41.646  30.832  36.160  1.00  0.00     0.002 A 
ATOM     89  C   UNL A   1      39.727  31.808  35.047  1.00  0.00     0.091 A 
ATOM     90  F   UNL A   1      39.204  31.127  32.824  1.00  0.00    -0.205 F 
ATOM     91  C   UNL A   1      40.549  31.692  36.179  1.00  0.00     0.022 A 
BRANCH  89  92
ATOM     92  S   UNL A   1      38.406  33.022  35.078  1.00  0.00     0.127 S 
ATOM     93  O   UNL A   1      38.680  33.804  33.876  1.00  0.00    -0.237 OA
ATOM     94  O   UNL A   1      37.207  32.184  35.005  1.00  0.00    -0.237 OA
ATOM     95  O   UNL A   1      38.552  33.735  36.341  1.00  0.00    -0.744 OA
ENDBRANCH  89  92
ENDBRANCH  62  85
ENDBRANCH  36  37
ENDBRANCH  28  31
ENDBRANCH  26  27
ENDBRANCH   1  26
TORSDOF 16
ENDMDL
MODEL 3
REMARK VINA RESULT:     -11.9      4.155      9.419
REMARK SMILES Cc1nn(C)c2c1nc(SCC(=O)NCCCNC(=O)c1ccc(-c3c4nc(c(-c5cccc(S(=O)(=O)[O-])c5F)c5ccc([nH]5)c(-c5cccc(S(=O)(=O)[O-])c5F)c5nc(c(-c6cccc(S(=O)(=O)[O-])c6F)c6ccc3[nH]6)C=C5)C=C4)cc1)n2[C@H]1CC[N@@H+](C)C1
REMARK SMILES IDX 16 1 15 2 14 3 12 4 13 5 11 7 10 8 9 9 1 10 2 11 3 12 7 13
REMARK SMILES IDX 4 14 6 15 8 16 5 17 84 18 85 19 86 20 90 21 87 22 88 23
REMARK SMILES IDX 89 24 17 26 18 27 19 28 20 30 21 31 22 32 83 33 23 34 82 35
REMARK SMILES IDX 24 36 25 37 26 38 76 39 27 40 81 41 75 42 77 43 28 44 80 45
REMARK SMILES IDX 74 46 73 47 29 49 61 50 41 51 60 52 42 53 45 54 59 55 78 56
REMARK SMILES IDX 43 57 44 58 58 60 79 61 46 62 30 63 31 64 39 65 32 66 34 67
REMARK SMILES IDX 40 68 33 69 35 70 36 71 37 72 38 73 62 74 63 75 71 76 64 77
REMARK SMILES IDX 66 78 72 79 65 80 67 81 68 82 69 83 70 84 47 85 48 86 56 87
REMARK SMILES IDX 49 88 51 89 57 90 50 91 52 92 53 93 54 94 55 95
REMARK H PARENT 14 6 88 25 18 29 77 48 45 59
REMARK Flexibility Score: inf
ROOT
ATOM      1  C   UNL A   1      31.347  31.675  26.700  1.00  0.00     0.042 C 
ENDROOT
BRANCH   1   2
ATOM      2  C   UNL A   1      31.669  30.611  25.646  1.00  0.00     0.117 C 
BRANCH   2   3
ATOM      3  N   UNL A   1      32.531  29.550  26.137  1.00  0.00    -0.355 N 
ATOM      4  C   UNL A   1      33.419  28.745  25.477  1.00  0.00     0.230 C 
ATOM      5  O   UNL A   1      34.187  28.078  26.174  1.00  0.00    -0.274 OA
ATOM      6  H   UNL A   1      32.466  29.383  27.106  1.00  0.00     0.163 HD
BRANCH   4   7
ATOM      7  C   UNL A   1      33.579  28.803  23.972  1.00  0.00     0.178 C 
BRANCH   7   8
ATOM      8  S   UNL A   1      32.615  27.568  23.073  1.00  0.00    -0.078 SA
BRANCH   8   9
ATOM      9  C   UNL A   1      31.028  28.263  22.985  1.00  0.00     0.171 A 
ATOM     10  C   UNL A   1      28.445  31.596  21.277  1.00  0.00     0.071 C 
ATOM     11  C   UNL A   1      28.406  30.384  22.120  1.00  0.00     0.087 A 
ATOM     12  N   UNL A   1      27.237  29.964  22.639  1.00  0.00    -0.174 NA
ATOM     13  C   UNL A   1      29.421  29.511  22.508  1.00  0.00     0.132 A 
ATOM     14  N   UNL A   1      27.515  28.753  23.178  1.00  0.00    -0.250 N 
ATOM     15  C   UNL A   1      28.857  28.500  23.209  1.00  0.00     0.159 A 
ATOM     16  N   UNL A   1      30.754  29.393  22.365  1.00  0.00    -0.219 NA
ATOM     17  C   UNL A   1      26.386  27.951  23.584  1.00  0.00     0.176 C 
ATOM     18  N   UNL A   1      29.902  27.689  23.584  1.00  0.00    -0.295 N 
BRANCH  18  19
ATOM     19  C   UNL A   1      29.843  26.447  24.352  1.00  0.00     0.152 C 
ATOM     20  C   UNL A   1      30.146  25.133  23.596  1.00  0.00     0.093 C 
ATOM     21  C   UNL A   1      30.844  26.387  25.510  1.00  0.00     0.288 C 
ATOM     22  C   UNL A   1      31.367  24.518  24.263  1.00  0.00     0.264 C 
ATOM     23  N   UNL A   1      31.285  24.994  25.640  1.00  0.00    -0.336 N 
ATOM     24  C   UNL A   1      32.589  24.945  26.303  1.00  0.00     0.332 C 
ATOM     25  H   UNL A   1      30.656  24.420  26.202  1.00  0.00     0.347 HD
ENDBRANCH  18  19
ENDBRANCH   8   9
ENDBRANCH   7   8
ENDBRANCH   4   7
ENDBRANCH   2   3
ENDBRANCH   1   2
BRANCH   1  26
ATOM     26  C   UNL A   1      32.572  32.426  27.194  1.00  0.00     0.118 C 
BRANCH  26  27
ATOM     27  N   UNL A   1      32.291  33.817  27.550  1.00  0.00    -0.352 N 
ATOM     28  C   UNL A   1      32.944  34.598  28.490  1.00  0.00     0.251 C 
ATOM     29  H   UNL A   1      31.550  34.249  27.064  1.00  0.00     0.163 HD
ATOM     30  O   UNL A   1      32.431  35.605  28.935  1.00  0.00    -0.269 OA
BRANCH  28  31
ATOM     31  C   UNL A   1      34.276  34.155  28.951  1.00  0.00     0.039 A 
ATOM     32  C   UNL A   1      34.415  33.380  30.105  1.00  0.00     0.014 A 
ATOM     33  C   UNL A   1      35.377  34.464  28.159  1.00  0.00     0.014 A 
ATOM     34  C   UNL A   1      35.663  32.832  30.401  1.00  0.00     0.010 A 
ATOM     35  C   UNL A   1      36.564  33.805  28.370  1.00  0.00     0.010 A 
ATOM     36  C   UNL A   1      36.731  33.023  29.511  1.00  0.00    -0.014 A 
BRANCH  36  37
ATOM     37  C   UNL A   1      37.998  32.316  29.707  1.00  0.00     0.031 A 
ATOM     38  C   UNL A   1      38.033  30.920  29.190  1.00  0.00     0.074 A 
ATOM     39  C   UNL A   1      39.137  32.937  30.089  1.00  0.00     0.049 A 
ATOM     40  N   UNL A   1      38.140  29.823  29.866  1.00  0.00    -0.248 NA
ATOM     41  C   UNL A   1      37.810  30.708  27.750  1.00  0.00     0.031 C 
ATOM     42  C   UNL A   1      39.340  34.383  30.263  1.00  0.00     0.029 A 
ATOM     43  N   UNL A   1      40.397  32.435  30.239  1.00  0.00    -0.354 N 
ATOM     44  C   UNL A   1      38.254  28.806  28.915  1.00  0.00     0.074 A 
ATOM     45  C   UNL A   1      37.830  29.376  27.666  1.00  0.00     0.031 C 
ATOM     46  C   UNL A   1      40.658  34.661  30.197  1.00  0.00     0.029 A 
ATOM     47  C   UNL A   1      41.389  33.410  30.201  1.00  0.00     0.049 A 
ATOM     48  H   UNL A   1      40.585  31.477  30.361  1.00  0.00     0.167 HD
ATOM     49  C   UNL A   1      38.967  27.676  29.180  1.00  0.00     0.034 A 
ATOM     50  C   UNL A   1      42.725  33.217  30.155  1.00  0.00     0.034 A 
ATOM     51  C   UNL A   1      39.323  27.604  30.573  1.00  0.00     0.049 A 
ATOM     52  C   UNL A   1      43.003  31.871  30.694  1.00  0.00     0.074 A 
ATOM     53  C   UNL A   1      38.715  27.295  31.767  1.00  0.00     0.029 A 
ATOM     54  N   UNL A   1      40.500  28.240  30.857  1.00  0.00    -0.354 N 
ATOM     55  N   UNL A   1      42.754  31.526  31.928  1.00  0.00    -0.248 NA
ATOM     56  C   UNL A   1      43.302  30.773  29.783  1.00  0.00     0.031 C 
ATOM     57  C   UNL A   1      39.495  27.929  32.780  1.00  0.00     0.029 A 
ATOM     58  C   UNL A   1      40.565  28.588  32.177  1.00  0.00     0.049 A 
ATOM     59  H   UNL A   1      41.209  28.422  30.197  1.00  0.00     0.167 HD
ATOM     60  C   UNL A   1      42.425  30.187  31.837  1.00  0.00     0.074 A 
ATOM     61  C   UNL A   1      42.970  29.741  30.563  1.00  0.00     0.031 C 
ATOM     62  C   UNL A   1      41.447  29.648  32.619  1.00  0.00     0.034 A 
BRANCH  49  63
ATOM     63  C   UNL A   1      39.761  26.848  28.179  1.00  0.00     0.023 A 
ATOM     64  C   UNL A   1      39.622  25.440  28.263  1.00  0.00     0.012 A 
ATOM     65  C   UNL A   1      40.828  27.329  27.388  1.00  0.00     0.148 A 
ATOM     66  C   UNL A   1      40.524  24.564  27.645  1.00  0.00     0.002 A 
ATOM     67  C   UNL A   1      41.676  26.454  26.711  1.00  0.00     0.091 A 
ATOM     68  F   UNL A   1      41.131  28.628  27.387  1.00  0.00    -0.205 F 
ATOM     69  C   UNL A   1      41.550  25.072  26.862  1.00  0.00     0.022 A 
BRANCH  67  70
ATOM     70  S   UNL A   1      42.982  27.061  25.635  1.00  0.00     0.127 S 
ATOM     71  O   UNL A   1      43.441  25.826  25.007  1.00  0.00    -0.237 OA
ATOM     72  O   UNL A   1      42.248  27.970  24.753  1.00  0.00    -0.237 OA
ATOM     73  O   UNL A   1      43.928  27.732  26.519  1.00  0.00    -0.744 OA
ENDBRANCH  67  70
ENDBRANCH  49  63
BRANCH  50  74
ATOM     74  C   UNL A   1      43.779  34.056  29.551  1.00  0.00     0.023 A 
ATOM     75  C   UNL A   1      44.615  34.827  30.381  1.00  0.00     0.012 A 
ATOM     76  C   UNL A   1      44.144  33.887  28.197  1.00  0.00     0.148 A 
ATOM     77  C   UNL A   1      45.804  35.375  29.891  1.00  0.00     0.002 A 
ATOM     78  C   UNL A   1      45.329  34.435  27.714  1.00  0.00     0.091 A 
ATOM     79  F   UNL A   1      43.372  33.119  27.414  1.00  0.00    -0.205 F 
ATOM     80  C   UNL A   1      46.168  35.167  28.563  1.00  0.00     0.022 A 
BRANCH  78  81
ATOM     81  S   UNL A   1      45.889  34.191  26.023  1.00  0.00     0.127 S 
ATOM     82  O   UNL A   1      44.622  34.080  25.299  1.00  0.00    -0.237 OA
ATOM     83  O   UNL A   1      46.631  35.424  25.772  1.00  0.00    -0.237 OA
ATOM     84  O   UNL A   1      46.680  32.968  26.042  1.00  0.00    -0.744 OA
ENDBRANCH  78  81
ENDBRANCH  50  74
BRANCH  62  85
ATOM     85  C   UNL A   1      41.118  30.330  33.914  1.00  0.00     0.023 A 
ATOM     86  C   UNL A   1      41.948  30.257  35.049  1.00  0.00     0.012 A 
ATOM     87  C   UNL A   1      39.993  31.169  33.941  1.00  0.00     0.148 A 
ATOM     88  C   UNL A   1      41.648  30.998  36.197  1.00  0.00     0.002 A 
ATOM     89  C   UNL A   1      39.724  31.940  35.063  1.00  0.00     0.091 A 
ATOM     90  F   UNL A   1      39.209  31.214  32.852  1.00  0.00    -0.205 F 
ATOM     91  C   UNL A   1      40.545  31.850  36.198  1.00  0.00     0.022 A 
BRANCH  89  92
ATOM     92  S   UNL A   1      38.393  33.143  35.071  1.00  0.00     0.127 S 
ATOM     93  O   UNL A   1      38.674  33.917  33.864  1.00  0.00    -0.237 OA
ATOM     94  O   UNL A   1      37.201  32.296  34.993  1.00  0.00    -0.237 OA
ATOM     95  O   UNL A   1      38.522  33.869  36.329  1.00  0.00    -0.744 OA
ENDBRANCH  89  92
ENDBRANCH  62  85
ENDBRANCH  36  37
ENDBRANCH  28  31
ENDBRANCH  26  27
ENDBRANCH   1  26
TORSDOF 16
ENDMDL
