MODEL 1
REMARK VINA RESULT:     -11.1      0.000      0.000
REMARK SMILES CC(C)Oc1ccc([C@H](O)[C@H](F)C(=O)NCCCNC(=O)c2ccc(-c3c4nc(c(-c5cccc(S(=O)(=O)[O-])c5F)c5ccc([nH]5)c(-c5cccc(S(=O)(=O)[O-])c5F)c5nc(c(-c6cccc(S(=O)(=O)[O-])c6F)c6ccc3[nH]6)C=C5)C=C4)cc2)cc1
REMARK SMILES IDX 16 1 15 2 13 3 14 4 11 6 12 7 9 8 8 9 5 10 6 11 86 12 7 13
REMARK SMILES IDX 85 14 4 15 2 16 1 17 3 18 10 19 17 21 18 22 19 23 20 24
REMARK SMILES IDX 21 26 22 27 23 28 84 29 24 30 83 31 25 32 26 33 27 34 77 35
REMARK SMILES IDX 28 36 82 37 76 38 78 39 29 40 81 41 75 42 74 43 30 45 62 46
REMARK SMILES IDX 42 47 61 48 43 49 46 50 60 51 79 52 44 53 45 54 59 56 80 57
REMARK SMILES IDX 47 58 31 59 32 60 40 61 33 62 35 63 41 64 34 65 36 66 37 67
REMARK SMILES IDX 38 68 39 69 63 70 64 71 72 72 65 73 67 74 73 75 66 76 68 77
REMARK SMILES IDX 69 78 70 79 71 80 48 81 49 82 57 83 50 84 52 85 58 86 51 87
REMARK SMILES IDX 53 88 54 89 55 90 56 91
REMARK H PARENT 15 5 10 20 19 25 78 44 46 55
REMARK Flexibility Score: inf
ROOT
ATOM      1  C   UNL A   1      33.317  26.632  25.733  1.00  0.00     0.117 C 
ENDROOT
BRANCH   1   2
ATOM      2  N   UNL A   1      32.952  25.442  26.475  1.00  0.00    -0.353 N 
ATOM      3  C   UNL A   1      31.721  24.868  26.567  1.00  0.00     0.257 C 
ATOM      4  O   UNL A   1      31.625  23.798  27.181  1.00  0.00    -0.272 OA
ATOM      5  H   UNL A   1      33.678  24.996  26.969  1.00  0.00     0.163 HD
BRANCH   3   6
ATOM      6  C   UNL A   1      30.497  25.499  25.900  1.00  0.00     0.288 C 
ATOM      7  F   UNL A   1      30.185  26.698  26.481  1.00  0.00    -0.234 F 
BRANCH   6   8
ATOM      8  C   UNL A   1      30.518  25.635  24.346  1.00  0.00     0.188 C 
BRANCH   8   9
ATOM      9  C   UNL A   1      29.946  26.917  23.753  1.00  0.00    -0.016 A 
ATOM     10  C   UNL A   1      28.809  29.103  22.382  1.00  0.00     0.119 A 
ATOM     11  C   UNL A   1      30.192  28.969  22.456  1.00  0.00     0.047 A 
ATOM     12  C   UNL A   1      27.998  28.160  23.001  1.00  0.00     0.047 A 
ATOM     13  C   UNL A   1      30.758  27.889  23.142  1.00  0.00     0.010 A 
ATOM     14  C   UNL A   1      28.559  27.114  23.731  1.00  0.00     0.010 A 
BRANCH  10  15
ATOM     15  O   UNL A   1      28.326  30.113  21.605  1.00  0.00    -0.491 OA
BRANCH  15  16
ATOM     16  C   UNL A   1      28.396  31.454  22.118  1.00  0.00     0.167 C 
ATOM     17  C   UNL A   1      28.018  32.520  21.093  1.00  0.00     0.052 C 
ATOM     18  C   UNL A   1      27.680  31.635  23.456  1.00  0.00     0.052 C 
ENDBRANCH  15  16
ENDBRANCH  10  15
ENDBRANCH   8   9
BRANCH   8  19
ATOM     19  O   UNL A   1      29.874  24.497  23.746  1.00  0.00    -0.385 OA
ATOM     20  H   UNL A   1      30.534  23.964  23.275  1.00  0.00     0.211 HD
ENDBRANCH   8  19
ENDBRANCH   6   8
ENDBRANCH   3   6
ENDBRANCH   1   2
BRANCH   1  21
ATOM     21  C   UNL A   1      33.349  27.871  26.601  1.00  0.00     0.042 C 
BRANCH  21  22
ATOM     22  C   UNL A   1      34.241  28.973  26.057  1.00  0.00     0.118 C 
BRANCH  22  23
ATOM     23  N   UNL A   1      33.951  30.289  26.619  1.00  0.00    -0.352 N 
ATOM     24  C   UNL A   1      34.592  30.961  27.631  1.00  0.00     0.251 C 
ATOM     25  H   UNL A   1      33.187  30.761  26.215  1.00  0.00     0.163 HD
ATOM     26  O   UNL A   1      34.109  32.002  28.078  1.00  0.00    -0.269 OA
BRANCH  24  27
ATOM     27  C   UNL A   1      35.847  30.423  28.196  1.00  0.00     0.039 A 
ATOM     28  C   UNL A   1      35.798  29.650  29.358  1.00  0.00     0.014 A 
ATOM     29  C   UNL A   1      37.074  30.673  27.577  1.00  0.00     0.014 A 
ATOM     30  C   UNL A   1      36.973  29.091  29.866  1.00  0.00     0.010 A 
ATOM     31  C   UNL A   1      38.216  30.012  28.008  1.00  0.00     0.010 A 
ATOM     32  C   UNL A   1      38.189  29.246  29.181  1.00  0.00    -0.014 A 
BRANCH  32  33
ATOM     33  C   UNL A   1      39.454  28.673  29.709  1.00  0.00     0.031 A 
ATOM     34  C   UNL A   1      40.098  29.282  30.932  1.00  0.00     0.074 A 
ATOM     35  C   UNL A   1      40.056  27.657  29.062  1.00  0.00     0.049 A 
ATOM     36  N   UNL A   1      41.212  28.948  31.529  1.00  0.00    -0.248 NA
ATOM     37  C   UNL A   1      39.420  30.437  31.547  1.00  0.00     0.031 C 
ATOM     38  C   UNL A   1      39.585  27.042  27.818  1.00  0.00     0.029 A 
ATOM     39  N   UNL A   1      41.209  26.971  29.352  1.00  0.00    -0.354 N 
ATOM     40  C   UNL A   1      41.388  29.874  32.551  1.00  0.00     0.074 A 
ATOM     41  C   UNL A   1      40.293  30.813  32.468  1.00  0.00     0.031 C 
ATOM     42  C   UNL A   1      40.432  26.063  27.461  1.00  0.00     0.029 A 
ATOM     43  C   UNL A   1      41.520  25.997  28.431  1.00  0.00     0.049 A 
ATOM     44  H   UNL A   1      41.762  27.159  30.144  1.00  0.00     0.167 HD
ATOM     45  C   UNL A   1      42.352  29.920  33.499  1.00  0.00     0.034 A 
ATOM     46  C   UNL A   1      42.566  25.149  28.376  1.00  0.00     0.034 A 
ATOM     47  C   UNL A   1      43.405  28.951  33.616  1.00  0.00     0.049 A 
ATOM     48  C   UNL A   1      43.584  25.178  29.486  1.00  0.00     0.074 A 
ATOM     49  C   UNL A   1      44.377  28.853  34.595  1.00  0.00     0.029 A 
ATOM     50  N   UNL A   1      43.625  27.914  32.724  1.00  0.00    -0.354 N 
ATOM     51  N   UNL A   1      43.643  25.964  30.533  1.00  0.00    -0.248 NA
ATOM     52  C   UNL A   1      44.653  24.170  29.431  1.00  0.00     0.031 C 
ATOM     53  C   UNL A   1      45.205  27.771  34.278  1.00  0.00     0.029 A 
ATOM     54  C   UNL A   1      44.718  27.170  33.129  1.00  0.00     0.049 A 
ATOM     55  H   UNL A   1      43.083  27.733  31.923  1.00  0.00     0.167 HD
ATOM     56  C   UNL A   1      44.721  25.513  31.287  1.00  0.00     0.074 A 
ATOM     57  C   UNL A   1      45.274  24.374  30.585  1.00  0.00     0.031 C 
ATOM     58  C   UNL A   1      45.215  26.002  32.451  1.00  0.00     0.034 A 
BRANCH  45  59
ATOM     59  C   UNL A   1      42.286  31.027  34.520  1.00  0.00     0.023 A 
ATOM     60  C   UNL A   1      41.654  30.801  35.760  1.00  0.00     0.012 A 
ATOM     61  C   UNL A   1      42.915  32.265  34.280  1.00  0.00     0.148 A 
ATOM     62  C   UNL A   1      41.620  31.800  36.733  1.00  0.00     0.002 A 
ATOM     63  C   UNL A   1      42.923  33.235  35.274  1.00  0.00     0.091 A 
ATOM     64  F   UNL A   1      43.492  32.467  33.087  1.00  0.00    -0.205 F 
ATOM     65  C   UNL A   1      42.265  33.010  36.494  1.00  0.00     0.022 A 
BRANCH  63  66
ATOM     66  S   UNL A   1      43.800  34.793  35.102  1.00  0.00     0.127 S 
ATOM     67  O   UNL A   1      43.066  35.426  34.007  1.00  0.00    -0.237 OA
ATOM     68  O   UNL A   1      43.589  35.408  36.413  1.00  0.00    -0.237 OA
ATOM     69  O   UNL A   1      45.183  34.448  34.804  1.00  0.00    -0.744 OA
ENDBRANCH  63  66
ENDBRANCH  45  59
BRANCH  46  70
ATOM     70  C   UNL A   1      42.675  24.155  27.270  1.00  0.00     0.023 A 
ATOM     71  C   UNL A   1      43.388  24.489  26.101  1.00  0.00     0.012 A 
ATOM     72  C   UNL A   1      42.070  22.888  27.365  1.00  0.00     0.148 A 
ATOM     73  C   UNL A   1      43.452  23.600  25.027  1.00  0.00     0.002 A 
ATOM     74  C   UNL A   1      42.188  21.984  26.315  1.00  0.00     0.091 A 
ATOM     75  F   UNL A   1      41.390  22.591  28.481  1.00  0.00    -0.205 F 
ATOM     76  C   UNL A   1      42.858  22.346  25.137  1.00  0.00     0.022 A 
BRANCH  74  77
ATOM     77  S   UNL A   1      41.566  20.303  26.422  1.00  0.00     0.127 S 
ATOM     78  O   UNL A   1      40.125  20.509  26.302  1.00  0.00    -0.237 OA
ATOM     79  O   UNL A   1      42.197  19.673  25.262  1.00  0.00    -0.237 OA
ATOM     80  O   UNL A   1      42.029  19.794  27.705  1.00  0.00    -0.744 OA
ENDBRANCH  74  77
ENDBRANCH  46  70
BRANCH  58  81
ATOM     81  C   UNL A   1      46.366  25.266  33.084  1.00  0.00     0.023 A 
ATOM     82  C   UNL A   1      47.693  25.675  32.845  1.00  0.00     0.012 A 
ATOM     83  C   UNL A   1      46.121  24.194  33.965  1.00  0.00     0.148 A 
ATOM     84  C   UNL A   1      48.760  24.996  33.434  1.00  0.00     0.002 A 
ATOM     85  C   UNL A   1      47.186  23.559  34.593  1.00  0.00     0.091 A 
ATOM     86  F   UNL A   1      44.854  23.806  34.167  1.00  0.00    -0.205 F 
ATOM     87  C   UNL A   1      48.506  23.947  34.315  1.00  0.00     0.022 A 
BRANCH  85  88
ATOM     88  S   UNL A   1      46.942  22.272  35.821  1.00  0.00     0.127 S 
ATOM     89  O   UNL A   1      48.319  21.910  36.151  1.00  0.00    -0.237 OA
ATOM     90  O   UNL A   1      46.229  22.986  36.882  1.00  0.00    -0.237 OA
ATOM     91  O   UNL A   1      46.159  21.235  35.164  1.00  0.00    -0.744 OA
ENDBRANCH  85  88
ENDBRANCH  58  81
ENDBRANCH  32  33
ENDBRANCH  24  27
ENDBRANCH  22  23
ENDBRANCH  21  22
ENDBRANCH   1  21
TORSDOF 18
ENDMDL
MODEL 2
REMARK VINA RESULT:     -11.1      6.011      9.582
REMARK SMILES CC(C)Oc1ccc([C@H](O)[C@H](F)C(=O)NCCCNC(=O)c2ccc(-c3c4nc(c(-c5cccc(S(=O)(=O)[O-])c5F)c5ccc([nH]5)c(-c5cccc(S(=O)(=O)[O-])c5F)c5nc(c(-c6cccc(S(=O)(=O)[O-])c6F)c6ccc3[nH]6)C=C5)C=C4)cc2)cc1
REMARK SMILES IDX 16 1 15 2 13 3 14 4 11 6 12 7 9 8 8 9 5 10 6 11 86 12 7 13
REMARK SMILES IDX 85 14 4 15 2 16 1 17 3 18 10 19 17 21 18 22 19 23 20 24
REMARK SMILES IDX 21 26 22 27 23 28 84 29 24 30 83 31 25 32 26 33 27 34 77 35
REMARK SMILES IDX 28 36 82 37 76 38 78 39 29 40 81 41 75 42 74 43 30 45 62 46
REMARK SMILES IDX 42 47 61 48 43 49 46 50 60 51 79 52 44 53 45 54 59 56 80 57
REMARK SMILES IDX 47 58 31 59 32 60 40 61 33 62 35 63 41 64 34 65 36 66 37 67
REMARK SMILES IDX 38 68 39 69 63 70 64 71 72 72 65 73 67 74 73 75 66 76 68 77
REMARK SMILES IDX 69 78 70 79 71 80 48 81 49 82 57 83 50 84 52 85 58 86 51 87
REMARK SMILES IDX 53 88 54 89 55 90 56 91
REMARK H PARENT 15 5 10 20 19 25 78 44 46 55
REMARK Flexibility Score: inf
ROOT
ATOM      1  C   UNL A   1      37.044  20.675  25.012  1.00  0.00     0.117 C 
ENDROOT
BRANCH   1   2
ATOM      2  N   UNL A   1      37.107  21.586  23.887  1.00  0.00    -0.353 N 
ATOM      3  C   UNL A   1      36.447  22.768  23.738  1.00  0.00     0.257 C 
ATOM      4  O   UNL A   1      36.700  23.452  22.739  1.00  0.00    -0.272 OA
ATOM      5  H   UNL A   1      37.697  21.321  23.144  1.00  0.00     0.163 HD
BRANCH   3   6
ATOM      6  C   UNL A   1      35.452  23.260  24.791  1.00  0.00     0.288 C 
ATOM      7  F   UNL A   1      35.756  24.532  25.197  1.00  0.00    -0.234 F 
BRANCH   6   8
ATOM      8  C   UNL A   1      33.933  23.144  24.453  1.00  0.00     0.188 C 
BRANCH   8   9
ATOM      9  C   UNL A   1      33.307  21.758  24.538  1.00  0.00    -0.016 A 
ATOM     10  C   UNL A   1      32.460  19.070  24.640  1.00  0.00     0.119 A 
ATOM     11  C   UNL A   1      32.224  19.833  23.500  1.00  0.00     0.047 A 
ATOM     12  C   UNL A   1      33.102  19.648  25.727  1.00  0.00     0.047 A 
ATOM     13  C   UNL A   1      32.636  21.169  23.451  1.00  0.00     0.010 A 
ATOM     14  C   UNL A   1      33.465  20.993  25.702  1.00  0.00     0.010 A 
BRANCH  10  15
ATOM     15  O   UNL A   1      32.133  17.748  24.576  1.00  0.00    -0.491 OA
BRANCH  15  16
ATOM     16  C   UNL A   1      33.189  16.782  24.713  1.00  0.00     0.167 C 
ATOM     17  C   UNL A   1      32.731  15.458  25.318  1.00  0.00     0.052 C 
ATOM     18  C   UNL A   1      34.020  16.601  23.443  1.00  0.00     0.052 C 
ENDBRANCH  15  16
ENDBRANCH  10  15
ENDBRANCH   8   9
BRANCH   8  19
ATOM     19  O   UNL A   1      33.675  23.711  23.158  1.00  0.00    -0.385 OA
ATOM     20  H   UNL A   1      32.972  23.207  22.718  1.00  0.00     0.211 HD
ENDBRANCH   8  19
ENDBRANCH   6   8
ENDBRANCH   3   6
ENDBRANCH   1   2
BRANCH   1  21
ATOM     21  C   UNL A   1      38.207  19.708  25.042  1.00  0.00     0.042 C 
BRANCH  21  22
ATOM     22  C   UNL A   1      39.380  20.192  25.876  1.00  0.00     0.118 C 
BRANCH  22  23
ATOM     23  N   UNL A   1      40.425  19.189  26.050  1.00  0.00    -0.352 N 
ATOM     24  C   UNL A   1      41.775  19.363  26.239  1.00  0.00     0.251 C 
ATOM     25  H   UNL A   1      40.119  18.253  26.029  1.00  0.00     0.163 HD
ATOM     26  O   UNL A   1      42.529  18.391  26.212  1.00  0.00    -0.269 OA
BRANCH  24  27
ATOM     27  C   UNL A   1      42.321  20.720  26.452  1.00  0.00     0.039 A 
ATOM     28  C   UNL A   1      42.617  21.520  25.345  1.00  0.00     0.014 A 
ATOM     29  C   UNL A   1      42.535  21.210  27.742  1.00  0.00     0.014 A 
ATOM     30  C   UNL A   1      43.080  22.823  25.539  1.00  0.00     0.010 A 
ATOM     31  C   UNL A   1      42.870  22.544  27.932  1.00  0.00     0.010 A 
ATOM     32  C   UNL A   1      43.186  23.355  26.834  1.00  0.00    -0.014 A 
BRANCH  32  33
ATOM     33  C   UNL A   1      43.689  24.734  27.067  1.00  0.00     0.031 A 
ATOM     34  C   UNL A   1      42.770  25.776  27.658  1.00  0.00     0.074 A 
ATOM     35  C   UNL A   1      44.940  25.068  26.694  1.00  0.00     0.049 A 
ATOM     36  N   UNL A   1      43.007  27.036  27.911  1.00  0.00    -0.248 NA
ATOM     37  C   UNL A   1      41.392  25.358  27.976  1.00  0.00     0.031 C 
ATOM     38  C   UNL A   1      45.895  24.178  26.028  1.00  0.00     0.029 A 
ATOM     39  N   UNL A   1      45.619  26.255  26.806  1.00  0.00    -0.354 N 
ATOM     40  C   UNL A   1      41.806  27.565  28.369  1.00  0.00     0.074 A 
ATOM     41  C   UNL A   1      40.827  26.505  28.318  1.00  0.00     0.031 C 
ATOM     42  C   UNL A   1      47.039  24.847  25.805  1.00  0.00     0.029 A 
ATOM     43  C   UNL A   1      46.891  26.217  26.283  1.00  0.00     0.049 A 
ATOM     44  H   UNL A   1      45.231  27.060  27.220  1.00  0.00     0.167 HD
ATOM     45  C   UNL A   1      41.546  28.810  28.829  1.00  0.00     0.034 A 
ATOM     46  C   UNL A   1      47.830  27.181  26.199  1.00  0.00     0.034 A 
ATOM     47  C   UNL A   1      42.536  29.846  28.936  1.00  0.00     0.049 A 
ATOM     48  C   UNL A   1      47.534  28.536  26.784  1.00  0.00     0.074 A 
ATOM     49  C   UNL A   1      42.400  31.112  29.474  1.00  0.00     0.029 A 
ATOM     50  N   UNL A   1      43.844  29.734  28.494  1.00  0.00    -0.354 N 
ATOM     51  N   UNL A   1      46.438  28.967  27.360  1.00  0.00    -0.248 NA
ATOM     52  C   UNL A   1      48.624  29.522  26.754  1.00  0.00     0.031 C 
ATOM     53  C   UNL A   1      43.621  31.779  29.331  1.00  0.00     0.029 A 
ATOM     54  C   UNL A   1      44.527  30.910  28.746  1.00  0.00     0.049 A 
ATOM     55  H   UNL A   1      44.230  28.937  28.065  1.00  0.00     0.167 HD
ATOM     56  C   UNL A   1      46.722  30.254  27.804  1.00  0.00     0.074 A 
ATOM     57  C   UNL A   1      48.100  30.523  27.448  1.00  0.00     0.031 C 
ATOM     58  C   UNL A   1      45.915  31.137  28.441  1.00  0.00     0.034 A 
BRANCH  45  59
ATOM     59  C   UNL A   1      40.148  29.112  29.301  1.00  0.00     0.023 A 
ATOM     60  C   UNL A   1      39.152  29.465  28.366  1.00  0.00     0.012 A 
ATOM     61  C   UNL A   1      39.802  28.975  30.660  1.00  0.00     0.148 A 
ATOM     62  C   UNL A   1      37.842  29.706  28.780  1.00  0.00     0.002 A 
ATOM     63  C   UNL A   1      38.484  29.166  31.056  1.00  0.00     0.091 A 
ATOM     64  F   UNL A   1      40.766  28.661  31.536  1.00  0.00    -0.205 F 
ATOM     65  C   UNL A   1      37.507  29.544  30.121  1.00  0.00     0.022 A 
BRANCH  63  66
ATOM     66  S   UNL A   1      37.929  28.896  32.743  1.00  0.00     0.127 S 
ATOM     67  O   UNL A   1      36.557  29.401  32.686  1.00  0.00    -0.237 OA
ATOM     68  O   UNL A   1      38.038  27.443  32.871  1.00  0.00    -0.237 OA
ATOM     69  O   UNL A   1      38.834  29.655  33.594  1.00  0.00    -0.744 OA
ENDBRANCH  63  66
ENDBRANCH  45  59
BRANCH  46  70
ATOM     70  C   UNL A   1      49.161  26.886  25.595  1.00  0.00     0.023 A 
ATOM     71  C   UNL A   1      50.171  26.301  26.384  1.00  0.00     0.012 A 
ATOM     72  C   UNL A   1      49.435  27.192  24.248  1.00  0.00     0.148 A 
ATOM     73  C   UNL A   1      51.444  26.074  25.858  1.00  0.00     0.002 A 
ATOM     74  C   UNL A   1      50.686  26.909  23.714  1.00  0.00     0.091 A 
ATOM     75  F   UNL A   1      48.464  27.756  23.515  1.00  0.00    -0.205 F 
ATOM     76  C   UNL A   1      51.699  26.370  24.523  1.00  0.00     0.022 A 
BRANCH  74  77
ATOM     77  S   UNL A   1      51.062  27.138  21.973  1.00  0.00     0.127 S 
ATOM     78  O   UNL A   1      51.042  28.594  21.853  1.00  0.00    -0.237 OA
ATOM     79  O   UNL A   1      52.388  26.529  21.868  1.00  0.00    -0.237 OA
ATOM     80  O   UNL A   1      50.016  26.428  21.250  1.00  0.00    -0.744 OA
ENDBRANCH  74  77
ENDBRANCH  46  70
BRANCH  58  81
ATOM     81  C   UNL A   1      46.516  32.451  28.867  1.00  0.00     0.023 A 
ATOM     82  C   UNL A   1      47.163  32.569  30.113  1.00  0.00     0.012 A 
ATOM     83  C   UNL A   1      46.484  33.559  27.996  1.00  0.00     0.148 A 
ATOM     84  C   UNL A   1      47.723  33.785  30.507  1.00  0.00     0.002 A 
ATOM     85  C   UNL A   1      47.094  34.749  28.371  1.00  0.00     0.091 A 
ATOM     86  F   UNL A   1      45.849  33.433  26.822  1.00  0.00    -0.205 F 
ATOM     87  C   UNL A   1      47.698  34.869  29.632  1.00  0.00     0.022 A 
BRANCH  85  88
ATOM     88  S   UNL A   1      47.201  36.158  27.263  1.00  0.00     0.127 S 
ATOM     89  O   UNL A   1      48.257  36.951  27.890  1.00  0.00    -0.237 OA
ATOM     90  O   UNL A   1      47.581  35.530  25.997  1.00  0.00    -0.237 OA
ATOM     91  O   UNL A   1      45.878  36.766  27.260  1.00  0.00    -0.744 OA
ENDBRANCH  85  88
ENDBRANCH  58  81
ENDBRANCH  32  33
ENDBRANCH  24  27
ENDBRANCH  22  23
ENDBRANCH  21  22
ENDBRANCH   1  21
TORSDOF 18
ENDMDL
MODEL 3
REMARK VINA RESULT:     -11.0      5.791     12.275
REMARK SMILES CC(C)Oc1ccc([C@H](O)[C@H](F)C(=O)NCCCNC(=O)c2ccc(-c3c4nc(c(-c5cccc(S(=O)(=O)[O-])c5F)c5ccc([nH]5)c(-c5cccc(S(=O)(=O)[O-])c5F)c5nc(c(-c6cccc(S(=O)(=O)[O-])c6F)c6ccc3[nH]6)C=C5)C=C4)cc2)cc1
REMARK SMILES IDX 16 1 15 2 13 3 14 4 11 6 12 7 9 8 8 9 5 10 6 11 86 12 7 13
REMARK SMILES IDX 85 14 4 15 2 16 1 17 3 18 10 19 17 21 18 22 19 23 20 24
REMARK SMILES IDX 21 26 22 27 23 28 84 29 24 30 83 31 25 32 26 33 27 34 77 35
REMARK SMILES IDX 28 36 82 37 76 38 78 39 29 40 81 41 75 42 74 43 30 45 62 46
REMARK SMILES IDX 42 47 61 48 43 49 46 50 60 51 79 52 44 53 45 54 59 56 80 57
REMARK SMILES IDX 47 58 31 59 32 60 40 61 33 62 35 63 41 64 34 65 36 66 37 67
REMARK SMILES IDX 38 68 39 69 63 70 64 71 72 72 65 73 67 74 73 75 66 76 68 77
REMARK SMILES IDX 69 78 70 79 71 80 48 81 49 82 57 83 50 84 52 85 58 86 51 87
REMARK SMILES IDX 53 88 54 89 55 90 56 91
REMARK H PARENT 15 5 10 20 19 25 78 44 46 55
REMARK Flexibility Score: inf
ROOT
ATOM      1  C   UNL A   1      42.619  22.848  26.058  1.00  0.00     0.117 C 
ENDROOT
BRANCH   1   2
ATOM      2  N   UNL A   1      43.015  22.692  24.672  1.00  0.00    -0.353 N 
ATOM      3  C   UNL A   1      44.272  22.501  24.186  1.00  0.00     0.257 C 
ATOM      4  O   UNL A   1      44.400  22.301  22.971  1.00  0.00    -0.272 OA
ATOM      5  H   UNL A   1      42.291  22.728  24.005  1.00  0.00     0.163 HD
BRANCH   3   6
ATOM      6  C   UNL A   1      45.490  22.491  25.112  1.00  0.00     0.288 C 
ATOM      7  F   UNL A   1      46.450  21.630  24.652  1.00  0.00    -0.234 F 
BRANCH   6   8
ATOM      8  C   UNL A   1      46.124  23.868  25.479  1.00  0.00     0.188 C 
BRANCH   8   9
ATOM      9  C   UNL A   1      46.190  24.231  26.957  1.00  0.00    -0.016 A 
ATOM     10  C   UNL A   1      46.052  25.112  29.632  1.00  0.00     0.119 A 
ATOM     11  C   UNL A   1      47.044  25.601  28.787  1.00  0.00     0.047 A 
ATOM     12  C   UNL A   1      45.144  24.179  29.150  1.00  0.00     0.047 A 
ATOM     13  C   UNL A   1      47.119  25.160  27.461  1.00  0.00     0.010 A 
ATOM     14  C   UNL A   1      45.249  23.696  27.847  1.00  0.00     0.010 A 
BRANCH  10  15
ATOM     15  O   UNL A   1      45.969  25.669  30.874  1.00  0.00    -0.491 OA
BRANCH  15  16
ATOM     16  C   UNL A   1      44.702  25.626  31.551  1.00  0.00     0.167 C 
ATOM     17  C   UNL A   1      44.791  25.096  32.979  1.00  0.00     0.052 C 
ATOM     18  C   UNL A   1      43.910  26.929  31.448  1.00  0.00     0.052 C 
ENDBRANCH  15  16
ENDBRANCH  10  15
ENDBRANCH   8   9
BRANCH   8  19
ATOM     19  O   UNL A   1      45.463  24.920  24.754  1.00  0.00    -0.385 OA
ATOM     20  H   UNL A   1      45.669  25.775  25.165  1.00  0.00     0.211 HD
ENDBRANCH   8  19
ENDBRANCH   6   8
ENDBRANCH   3   6
ENDBRANCH   1   2
BRANCH   1  21
ATOM     21  C   UNL A   1      42.212  21.537  26.696  1.00  0.00     0.042 C 
BRANCH  21  22
ATOM     22  C   UNL A   1      40.920  21.623  27.490  1.00  0.00     0.118 C 
BRANCH  22  23
ATOM     23  N   UNL A   1      39.725  21.691  26.655  1.00  0.00    -0.352 N 
ATOM     24  C   UNL A   1      38.915  22.767  26.384  1.00  0.00     0.251 C 
ATOM     25  H   UNL A   1      39.463  20.845  26.224  1.00  0.00     0.163 HD
ATOM     26  O   UNL A   1      37.857  22.601  25.776  1.00  0.00    -0.269 OA
BRANCH  24  27
ATOM     27  C   UNL A   1      39.304  24.118  26.840  1.00  0.00     0.039 A 
ATOM     28  C   UNL A   1      39.103  24.472  28.176  1.00  0.00     0.014 A 
ATOM     29  C   UNL A   1      39.874  25.035  25.954  1.00  0.00     0.014 A 
ATOM     30  C   UNL A   1      39.519  25.727  28.627  1.00  0.00     0.010 A 
ATOM     31  C   UNL A   1      40.403  26.226  26.433  1.00  0.00     0.010 A 
ATOM     32  C   UNL A   1      40.197  26.605  27.766  1.00  0.00    -0.014 A 
BRANCH  32  33
ATOM     33  C   UNL A   1      40.637  27.950  28.218  1.00  0.00     0.031 A 
ATOM     34  C   UNL A   1      42.107  28.295  28.216  1.00  0.00     0.074 A 
ATOM     35  C   UNL A   1      39.734  28.833  28.688  1.00  0.00     0.049 A 
ATOM     36  N   UNL A   1      42.694  29.399  28.598  1.00  0.00    -0.248 NA
ATOM     37  C   UNL A   1      43.044  27.255  27.755  1.00  0.00     0.031 C 
ATOM     38  C   UNL A   1      38.297  28.586  28.830  1.00  0.00     0.029 A 
ATOM     39  N   UNL A   1      39.896  30.114  29.153  1.00  0.00    -0.354 N 
ATOM     40  C   UNL A   1      44.059  29.168  28.468  1.00  0.00     0.074 A 
ATOM     41  C   UNL A   1      44.219  27.806  28.016  1.00  0.00     0.031 C 
ATOM     42  C   UNL A   1      37.708  29.685  29.331  1.00  0.00     0.029 A 
ATOM     43  C   UNL A   1      38.726  30.702  29.574  1.00  0.00     0.049 A 
ATOM     44  H   UNL A   1      40.768  30.570  29.182  1.00  0.00     0.167 HD
ATOM     45  C   UNL A   1      45.089  30.022  28.668  1.00  0.00     0.034 A 
ATOM     46  C   UNL A   1      38.501  31.923  30.098  1.00  0.00     0.034 A 
ATOM     47  C   UNL A   1      44.924  31.395  29.060  1.00  0.00     0.049 A 
ATOM     48  C   UNL A   1      39.658  32.876  30.243  1.00  0.00     0.074 A 
ATOM     49  C   UNL A   1      45.894  32.370  29.200  1.00  0.00     0.029 A 
ATOM     50  N   UNL A   1      43.711  31.984  29.375  1.00  0.00    -0.354 N 
ATOM     51  N   UNL A   1      40.925  32.687  29.962  1.00  0.00    -0.248 NA
ATOM     52  C   UNL A   1      39.346  34.228  30.729  1.00  0.00     0.031 C 
ATOM     53  C   UNL A   1      45.270  33.545  29.629  1.00  0.00     0.029 A 
ATOM     54  C   UNL A   1      43.907  33.312  29.710  1.00  0.00     0.049 A 
ATOM     55  H   UNL A   1      42.840  31.527  29.361  1.00  0.00     0.167 HD
ATOM     56  C   UNL A   1      41.550  33.908  30.188  1.00  0.00     0.074 A 
ATOM     57  C   UNL A   1      40.519  34.834  30.610  1.00  0.00     0.031 C 
ATOM     58  C   UNL A   1      42.861  34.233  30.066  1.00  0.00     0.034 A 
BRANCH  45  59
ATOM     59  C   UNL A   1      46.486  29.516  28.420  1.00  0.00     0.023 A 
ATOM     60  C   UNL A   1      46.996  29.477  27.105  1.00  0.00     0.012 A 
ATOM     61  C   UNL A   1      47.319  29.147  29.495  1.00  0.00     0.148 A 
ATOM     62  C   UNL A   1      48.301  29.051  26.861  1.00  0.00     0.002 A 
ATOM     63  C   UNL A   1      48.635  28.774  29.248  1.00  0.00     0.091 A 
ATOM     64  F   UNL A   1      46.810  29.170  30.734  1.00  0.00    -0.205 F 
ATOM     65  C   UNL A   1      49.122  28.713  27.932  1.00  0.00     0.022 A 
BRANCH  63  66
ATOM     66  S   UNL A   1      49.802  28.405  30.562  1.00  0.00     0.127 S 
ATOM     67  O   UNL A   1      49.172  29.061  31.708  1.00  0.00    -0.237 OA
ATOM     68  O   UNL A   1      49.765  26.943  30.601  1.00  0.00    -0.237 OA
ATOM     69  O   UNL A   1      51.075  28.974  30.145  1.00  0.00    -0.744 OA
ENDBRANCH  63  66
ENDBRANCH  45  59
BRANCH  46  70
ATOM     70  C   UNL A   1      37.119  32.344  30.467  1.00  0.00     0.023 A 
ATOM     71  C   UNL A   1      36.654  32.138  31.781  1.00  0.00     0.012 A 
ATOM     72  C   UNL A   1      36.260  32.936  29.522  1.00  0.00     0.148 A 
ATOM     73  C   UNL A   1      35.344  32.466  32.134  1.00  0.00     0.002 A 
ATOM     74  C   UNL A   1      34.976  33.315  29.896  1.00  0.00     0.091 A 
ATOM     75  F   UNL A   1      36.717  33.117  28.275  1.00  0.00    -0.205 F 
ATOM     76  C   UNL A   1      34.508  33.061  31.194  1.00  0.00     0.022 A 
BRANCH  74  77
ATOM     77  S   UNL A   1      33.876  34.203  28.788  1.00  0.00     0.127 S 
ATOM     78  O   UNL A   1      33.484  33.154  27.851  1.00  0.00    -0.237 OA
ATOM     79  O   UNL A   1      32.819  34.643  29.699  1.00  0.00    -0.237 OA
ATOM     80  O   UNL A   1      34.674  35.286  28.229  1.00  0.00    -0.744 OA
ENDBRANCH  74  77
ENDBRANCH  46  70
BRANCH  58  81
ATOM     81  C   UNL A   1      43.251  35.666  30.318  1.00  0.00     0.023 A 
ATOM     82  C   UNL A   1      43.748  36.060  31.575  1.00  0.00     0.012 A 
ATOM     83  C   UNL A   1      43.172  36.614  29.278  1.00  0.00     0.148 A 
ATOM     84  C   UNL A   1      44.112  37.386  31.809  1.00  0.00     0.002 A 
ATOM     85  C   UNL A   1      43.591  37.920  29.500  1.00  0.00     0.091 A 
ATOM     86  F   UNL A   1      42.680  36.226  28.092  1.00  0.00    -0.205 F 
ATOM     87  C   UNL A   1      44.044  38.312  30.769  1.00  0.00     0.022 A 
BRANCH  85  88
ATOM     88  S   UNL A   1      43.637  39.145  28.189  1.00  0.00     0.127 S 
ATOM     89  O   UNL A   1      42.217  39.437  28.003  1.00  0.00    -0.237 OA
ATOM     90  O   UNL A   1      44.407  40.228  28.802  1.00  0.00    -0.237 OA
ATOM     91  O   UNL A   1      44.298  38.501  27.062  1.00  0.00    -0.744 OA
ENDBRANCH  85  88
ENDBRANCH  58  81
ENDBRANCH  32  33
ENDBRANCH  24  27
ENDBRANCH  22  23
ENDBRANCH  21  22
ENDBRANCH   1  21
TORSDOF 18
ENDMDL
