MODEL 1
REMARK VINA RESULT:     -12.3      0.000      0.000
REMARK SMILES Cc1[nH]ncc1S(=O)(=O)N1CC[C@@H](C(=O)NCCCNC(=O)c2ccc(-c3c4nc(c(-c5cccc(S(=O)(=O)[O-])c5F)c5ccc([nH]5)c(-c5cccc(S(=O)(=O)[O-])c5F)c5nc(c(-c6cccc(S(=O)(=O)[O-])c6F)c6ccc3[nH]6)C=C5)C=C4)cc2)[C@@H]1C
REMARK SMILES IDX 18 1 17 2 16 3 14 4 15 5 13 7 10 8 11 9 86 10 12 11 87 12
REMARK SMILES IDX 7 13 8 14 9 15 6 16 1 17 2 18 3 19 4 20 5 22 19 23 20 24
REMARK SMILES IDX 21 25 22 27 23 28 24 29 85 30 25 31 84 32 26 33 27 34 28 35
REMARK SMILES IDX 78 36 29 37 83 38 77 39 79 40 30 41 82 42 76 43 75 44 31 46
REMARK SMILES IDX 63 47 43 48 62 49 44 50 47 51 61 52 80 53 45 54 46 55 60 57
REMARK SMILES IDX 81 58 48 59 32 60 33 61 41 62 34 63 36 64 42 65 35 66 37 67
REMARK SMILES IDX 38 68 39 69 40 70 64 71 65 72 73 73 66 74 68 75 74 76 67 77
REMARK SMILES IDX 69 78 70 79 71 80 72 81 49 82 50 83 58 84 51 85 53 86 59 87
REMARK SMILES IDX 52 88 54 89 55 90 56 91 57 92
REMARK H PARENT 16 6 3 21 20 26 79 45 47 56
REMARK Flexibility Score: inf
ROOT
ATOM      1  C   UNL A   1      36.200  21.377  25.582  1.00  0.00     0.042 C 
ENDROOT
BRANCH   1   2
ATOM      2  C   UNL A   1      35.292  20.438  24.805  1.00  0.00     0.117 C 
BRANCH   2   3
ATOM      3  N   UNL A   1      34.194  19.869  25.557  1.00  0.00    -0.356 N 
ATOM      4  C   UNL A   1      32.873  19.838  25.236  1.00  0.00     0.224 C 
ATOM      5  O   UNL A   1      32.250  18.820  25.564  1.00  0.00    -0.275 OA
ATOM      6  H   UNL A   1      34.435  19.449  26.415  1.00  0.00     0.163 HD
BRANCH   4   7
ATOM      7  C   UNL A   1      32.119  20.968  24.533  1.00  0.00     0.098 C 
ATOM      8  N   UNL A   1      33.059  22.960  23.706  1.00  0.00    -0.194 NA
ATOM      9  C   UNL A   1      32.562  22.301  22.514  1.00  0.00     0.104 C 
ATOM     10  C   UNL A   1      32.418  22.420  24.916  1.00  0.00     0.082 C 
ATOM     11  C   UNL A   1      32.224  20.895  22.998  1.00  0.00     0.032 C 
ATOM     12  C   UNL A   1      31.118  23.177  25.208  1.00  0.00     0.026 C 
BRANCH   8  13
ATOM     13  S   UNL A   1      34.220  24.144  23.677  1.00  0.00     0.246 S 
ATOM     14  O   UNL A   1      35.208  23.772  22.687  1.00  0.00    -0.207 OA
ATOM     15  O   UNL A   1      34.575  24.457  25.043  1.00  0.00    -0.207 OA
BRANCH  13  16
ATOM     16  C   UNL A   1      33.626  25.657  23.086  1.00  0.00     0.123 A 
ATOM     17  C   UNL A   1      32.702  25.412  20.606  1.00  0.00     0.067 C 
ATOM     18  C   UNL A   1      33.043  26.061  21.890  1.00  0.00     0.052 A 
ATOM     19  N   UNL A   1      32.775  27.398  22.066  1.00  0.00    -0.281 N 
ATOM     20  N   UNL A   1      33.113  27.867  23.269  1.00  0.00    -0.183 NA
ATOM     21  H   UNL A   1      32.371  27.960  21.366  1.00  0.00     0.190 HD
ATOM     22  C   UNL A   1      33.642  26.813  23.889  1.00  0.00     0.157 A 
ENDBRANCH  13  16
ENDBRANCH   8  13
ENDBRANCH   4   7
ENDBRANCH   2   3
ENDBRANCH   1   2
BRANCH   1  23
ATOM     23  C   UNL A   1      37.595  21.506  24.987  1.00  0.00     0.118 C 
BRANCH  23  24
ATOM     24  N   UNL A   1      38.561  20.530  25.483  1.00  0.00    -0.352 N 
ATOM     25  C   UNL A   1      39.648  20.701  26.310  1.00  0.00     0.251 C 
ATOM     26  H   UNL A   1      38.413  19.606  25.177  1.00  0.00     0.163 HD
ATOM     27  O   UNL A   1      40.289  19.719  26.676  1.00  0.00    -0.269 OA
BRANCH  25  28
ATOM     28  C   UNL A   1      40.060  22.057  26.730  1.00  0.00     0.039 A 
ATOM     29  C   UNL A   1      41.079  22.193  27.680  1.00  0.00     0.014 A 
ATOM     30  C   UNL A   1      39.475  23.191  26.169  1.00  0.00     0.014 A 
ATOM     31  C   UNL A   1      41.552  23.467  28.012  1.00  0.00     0.010 A 
ATOM     32  C   UNL A   1      40.024  24.442  26.412  1.00  0.00     0.010 A 
ATOM     33  C   UNL A   1      41.053  24.599  27.352  1.00  0.00    -0.014 A 
BRANCH  33  34
ATOM     34  C   UNL A   1      41.545  25.972  27.637  1.00  0.00     0.031 A 
ATOM     35  C   UNL A   1      42.957  26.344  27.256  1.00  0.00     0.074 A 
ATOM     36  C   UNL A   1      40.787  26.832  28.346  1.00  0.00     0.049 A 
ATOM     37  N   UNL A   1      43.647  27.407  27.571  1.00  0.00    -0.248 NA
ATOM     38  C   UNL A   1      43.712  25.355  26.466  1.00  0.00     0.031 C 
ATOM     39  C   UNL A   1      39.441  26.559  28.857  1.00  0.00     0.029 A 
ATOM     40  N   UNL A   1      41.058  28.100  28.795  1.00  0.00    -0.354 N 
ATOM     41  C   UNL A   1      44.930  27.182  27.085  1.00  0.00     0.074 A 
ATOM     42  C   UNL A   1      44.933  25.865  26.490  1.00  0.00     0.031 C 
ATOM     43  C   UNL A   1      39.002  27.629  29.539  1.00  0.00     0.029 A 
ATOM     44  C   UNL A   1      40.041  28.652  29.542  1.00  0.00     0.049 A 
ATOM     45  H   UNL A   1      41.900  28.571  28.600  1.00  0.00     0.167 HD
ATOM     46  C   UNL A   1      46.002  28.010  27.096  1.00  0.00     0.034 A 
ATOM     47  C   UNL A   1      39.961  29.849  30.156  1.00  0.00     0.034 A 
ATOM     48  C   UNL A   1      45.958  29.358  27.590  1.00  0.00     0.049 A 
ATOM     49  C   UNL A   1      41.119  30.804  30.037  1.00  0.00     0.074 A 
ATOM     50  C   UNL A   1      46.946  30.325  27.546  1.00  0.00     0.029 A 
ATOM     51  N   UNL A   1      44.854  29.938  28.197  1.00  0.00    -0.354 N 
ATOM     52  N   UNL A   1      42.278  30.626  29.448  1.00  0.00    -0.248 NA
ATOM     53  C   UNL A   1      40.944  32.138  30.628  1.00  0.00     0.031 C 
ATOM     54  C   UNL A   1      46.435  31.494  28.123  1.00  0.00     0.029 A 
ATOM     55  C   UNL A   1      45.128  31.254  28.518  1.00  0.00     0.049 A 
ATOM     56  H   UNL A   1      44.001  29.479  28.373  1.00  0.00     0.167 HD
ATOM     57  C   UNL A   1      42.954  31.835  29.564  1.00  0.00     0.074 A 
ATOM     58  C   UNL A   1      42.066  32.744  30.261  1.00  0.00     0.031 C 
ATOM     59  C   UNL A   1      44.203  32.161  29.149  1.00  0.00     0.034 A 
BRANCH  46  60
ATOM     60  C   UNL A   1      47.283  27.506  26.483  1.00  0.00     0.023 A 
ATOM     61  C   UNL A   1      47.611  27.872  25.161  1.00  0.00     0.012 A 
ATOM     62  C   UNL A   1      48.177  26.703  27.217  1.00  0.00     0.148 A 
ATOM     63  C   UNL A   1      48.783  27.409  24.563  1.00  0.00     0.002 A 
ATOM     64  C   UNL A   1      49.367  26.283  26.629  1.00  0.00     0.091 A 
ATOM     65  F   UNL A   1      47.843  26.345  28.465  1.00  0.00    -0.205 F 
ATOM     66  C   UNL A   1      49.663  26.624  25.299  1.00  0.00     0.022 A 
BRANCH  64  67
ATOM     67  S   UNL A   1      50.607  25.337  27.520  1.00  0.00     0.127 S 
ATOM     68  O   UNL A   1      50.993  26.273  28.574  1.00  0.00    -0.237 OA
ATOM     69  O   UNL A   1      49.839  24.180  27.983  1.00  0.00    -0.237 OA
ATOM     70  O   UNL A   1      51.645  25.022  26.548  1.00  0.00    -0.744 OA
ENDBRANCH  64  67
ENDBRANCH  46  60
BRANCH  47  71
ATOM     71  C   UNL A   1      38.702  30.250  30.845  1.00  0.00     0.023 A 
ATOM     72  C   UNL A   1      38.532  29.916  32.203  1.00  0.00     0.012 A 
ATOM     73  C   UNL A   1      37.695  30.985  30.190  1.00  0.00     0.148 A 
ATOM     74  C   UNL A   1      37.371  30.275  32.888  1.00  0.00     0.002 A 
ATOM     75  C   UNL A   1      36.562  31.383  30.892  1.00  0.00     0.091 A 
ATOM     76  F   UNL A   1      37.868  31.285  28.895  1.00  0.00    -0.205 F 
ATOM     77  C   UNL A   1      36.391  31.018  32.236  1.00  0.00     0.022 A 
BRANCH  75  78
ATOM     78  S   UNL A   1      35.305  32.444  30.167  1.00  0.00     0.127 S 
ATOM     79  O   UNL A   1      34.787  31.603  29.092  1.00  0.00    -0.237 OA
ATOM     80  O   UNL A   1      34.389  32.643  31.289  1.00  0.00    -0.237 OA
ATOM     81  O   UNL A   1      36.009  33.649  29.748  1.00  0.00    -0.744 OA
ENDBRANCH  75  78
ENDBRANCH  47  71
BRANCH  59  82
ATOM     82  C   UNL A   1      44.676  33.568  29.394  1.00  0.00     0.023 A 
ATOM     83  C   UNL A   1      45.301  33.891  30.614  1.00  0.00     0.012 A 
ATOM     84  C   UNL A   1      44.576  34.544  28.384  1.00  0.00     0.148 A 
ATOM     85  C   UNL A   1      45.796  35.174  30.837  1.00  0.00     0.002 A 
ATOM     86  C   UNL A   1      45.113  35.809  28.596  1.00  0.00     0.091 A 
ATOM     87  F   UNL A   1      43.958  34.223  27.239  1.00  0.00    -0.205 F 
ATOM     88  C   UNL A   1      45.714  36.128  29.825  1.00  0.00     0.022 A 
BRANCH  86  89
ATOM     89  S   UNL A   1      45.134  37.062  27.310  1.00  0.00     0.127 S 
ATOM     90  O   UNL A   1      45.952  36.423  26.283  1.00  0.00    -0.237 OA
ATOM     91  O   UNL A   1      43.715  37.187  26.969  1.00  0.00    -0.237 OA
ATOM     92  O   UNL A   1      45.708  38.251  27.926  1.00  0.00    -0.744 OA
ENDBRANCH  86  89
ENDBRANCH  59  82
ENDBRANCH  33  34
ENDBRANCH  25  28
ENDBRANCH  23  24
ENDBRANCH   1  23
TORSDOF 15
ENDMDL
MODEL 2
REMARK VINA RESULT:     -12.3      5.404     10.063
REMARK SMILES Cc1[nH]ncc1S(=O)(=O)N1CC[C@@H](C(=O)NCCCNC(=O)c2ccc(-c3c4nc(c(-c5cccc(S(=O)(=O)[O-])c5F)c5ccc([nH]5)c(-c5cccc(S(=O)(=O)[O-])c5F)c5nc(c(-c6cccc(S(=O)(=O)[O-])c6F)c6ccc3[nH]6)C=C5)C=C4)cc2)[C@@H]1C
REMARK SMILES IDX 18 1 17 2 16 3 14 4 15 5 13 7 10 8 11 9 86 10 12 11 87 12
REMARK SMILES IDX 7 13 8 14 9 15 6 16 1 17 2 18 3 19 4 20 5 22 19 23 20 24
REMARK SMILES IDX 21 25 22 27 23 28 24 29 85 30 25 31 84 32 26 33 27 34 28 35
REMARK SMILES IDX 78 36 29 37 83 38 77 39 79 40 30 41 82 42 76 43 75 44 31 46
REMARK SMILES IDX 63 47 43 48 62 49 44 50 47 51 61 52 80 53 45 54 46 55 60 57
REMARK SMILES IDX 81 58 48 59 32 60 33 61 41 62 34 63 36 64 42 65 35 66 37 67
REMARK SMILES IDX 38 68 39 69 40 70 64 71 65 72 73 73 66 74 68 75 74 76 67 77
REMARK SMILES IDX 69 78 70 79 71 80 72 81 49 82 50 83 58 84 51 85 53 86 59 87
REMARK SMILES IDX 52 88 54 89 55 90 56 91 57 92
REMARK H PARENT 16 6 3 21 20 26 79 45 47 56
REMARK Flexibility Score: inf
ROOT
ATOM      1  C   UNL A   1      31.765  28.444  26.369  1.00  0.00     0.042 C 
ENDROOT
BRANCH   1   2
ATOM      2  C   UNL A   1      32.429  27.077  26.406  1.00  0.00     0.117 C 
BRANCH   2   3
ATOM      3  N   UNL A   1      31.548  25.964  26.690  1.00  0.00    -0.356 N 
ATOM      4  C   UNL A   1      31.761  24.638  26.473  1.00  0.00     0.224 C 
ATOM      5  O   UNL A   1      31.301  23.861  27.319  1.00  0.00    -0.275 OA
ATOM      6  H   UNL A   1      30.680  26.197  27.092  1.00  0.00     0.163 HD
BRANCH   4   7
ATOM      7  C   UNL A   1      32.493  24.057  25.262  1.00  0.00     0.098 C 
ATOM      8  N   UNL A   1      32.855  25.145  23.207  1.00  0.00    -0.194 NA
ATOM      9  C   UNL A   1      34.194  24.948  23.725  1.00  0.00     0.104 C 
ATOM     10  C   UNL A   1      31.895  24.243  23.865  1.00  0.00     0.082 C 
ATOM     11  C   UNL A   1      33.959  24.522  25.170  1.00  0.00     0.032 C 
ATOM     12  C   UNL A   1      31.836  22.903  23.125  1.00  0.00     0.026 C 
BRANCH   8  13
ATOM     13  S   UNL A   1      32.482  26.267  22.044  1.00  0.00     0.246 S 
ATOM     14  O   UNL A   1      31.777  25.585  20.980  1.00  0.00    -0.207 OA
ATOM     15  O   UNL A   1      33.660  27.068  21.801  1.00  0.00    -0.207 OA
BRANCH  13  16
ATOM     16  C   UNL A   1      31.333  27.441  22.585  1.00  0.00     0.123 A 
ATOM     17  C   UNL A   1      29.291  26.273  23.824  1.00  0.00     0.067 C 
ATOM     18  C   UNL A   1      30.129  27.362  23.277  1.00  0.00     0.052 A 
ATOM     19  N   UNL A   1      29.718  28.667  23.414  1.00  0.00    -0.281 N 
ATOM     20  N   UNL A   1      30.563  29.561  22.895  1.00  0.00    -0.183 NA
ATOM     21  H   UNL A   1      28.876  28.920  23.856  1.00  0.00     0.190 HD
ATOM     22  C   UNL A   1      31.541  28.818  22.378  1.00  0.00     0.157 A 
ENDBRANCH  13  16
ENDBRANCH   8  13
ENDBRANCH   4   7
ENDBRANCH   2   3
ENDBRANCH   1   2
BRANCH   1  23
ATOM     23  C   UNL A   1      32.661  29.540  25.811  1.00  0.00     0.118 C 
BRANCH  23  24
ATOM     24  N   UNL A   1      32.376  30.877  26.324  1.00  0.00    -0.352 N 
ATOM     25  C   UNL A   1      33.127  31.690  27.144  1.00  0.00     0.251 C 
ATOM     26  H   UNL A   1      31.513  31.257  26.041  1.00  0.00     0.163 HD
ATOM     27  O   UNL A   1      32.735  32.827  27.391  1.00  0.00    -0.269 OA
BRANCH  25  28
ATOM     28  C   UNL A   1      34.379  31.187  27.749  1.00  0.00     0.039 A 
ATOM     29  C   UNL A   1      35.420  32.088  28.001  1.00  0.00     0.014 A 
ATOM     30  C   UNL A   1      34.519  29.846  28.098  1.00  0.00     0.014 A 
ATOM     31  C   UNL A   1      36.570  31.651  28.666  1.00  0.00     0.010 A 
ATOM     32  C   UNL A   1      35.607  29.441  28.858  1.00  0.00     0.010 A 
ATOM     33  C   UNL A   1      36.656  30.331  29.134  1.00  0.00    -0.014 A 
BRANCH  33  34
ATOM     34  C   UNL A   1      37.837  29.821  29.878  1.00  0.00     0.031 A 
ATOM     35  C   UNL A   1      38.086  30.306  31.285  1.00  0.00     0.074 A 
ATOM     36  C   UNL A   1      38.746  29.042  29.259  1.00  0.00     0.049 A 
ATOM     37  N   UNL A   1      39.137  30.141  32.044  1.00  0.00    -0.248 NA
ATOM     38  C   UNL A   1      37.035  31.139  31.896  1.00  0.00     0.031 C 
ATOM     39  C   UNL A   1      38.669  28.583  27.870  1.00  0.00     0.029 A 
ATOM     40  N   UNL A   1      39.936  28.529  29.710  1.00  0.00    -0.354 N 
ATOM     41  C   UNL A   1      38.906  30.908  33.180  1.00  0.00     0.074 A 
ATOM     42  C   UNL A   1      37.634  31.568  32.995  1.00  0.00     0.031 C 
ATOM     43  C   UNL A   1      39.758  27.850  27.586  1.00  0.00     0.029 A 
ATOM     44  C   UNL A   1      40.625  27.811  28.759  1.00  0.00     0.049 A 
ATOM     45  H   UNL A   1      40.266  28.662  30.628  1.00  0.00     0.167 HD
ATOM     46  C   UNL A   1      39.663  31.023  34.297  1.00  0.00     0.034 A 
ATOM     47  C   UNL A   1      41.819  27.190  28.829  1.00  0.00     0.034 A 
ATOM     48  C   UNL A   1      40.870  30.277  34.518  1.00  0.00     0.049 A 
ATOM     49  C   UNL A   1      42.577  27.224  30.129  1.00  0.00     0.074 A 
ATOM     50  C   UNL A   1      41.657  30.224  35.655  1.00  0.00     0.029 A 
ATOM     51  N   UNL A   1      41.454  29.430  33.587  1.00  0.00    -0.354 N 
ATOM     52  N   UNL A   1      42.272  27.840  31.246  1.00  0.00    -0.248 NA
ATOM     53  C   UNL A   1      43.820  26.442  30.195  1.00  0.00     0.031 C 
ATOM     54  C   UNL A   1      42.713  29.340  35.412  1.00  0.00     0.029 A 
ATOM     55  C   UNL A   1      42.579  28.837  34.127  1.00  0.00     0.049 A 
ATOM     56  H   UNL A   1      41.115  29.275  32.675  1.00  0.00     0.167 HD
ATOM     57  C   UNL A   1      43.263  27.491  32.158  1.00  0.00     0.074 A 
ATOM     58  C   UNL A   1      44.166  26.593  31.467  1.00  0.00     0.031 C 
ATOM     59  C   UNL A   1      43.424  27.891  33.443  1.00  0.00     0.034 A 
BRANCH  46  60
ATOM     60  C   UNL A   1      39.162  31.927  35.393  1.00  0.00     0.023 A 
ATOM     61  C   UNL A   1      39.354  33.321  35.286  1.00  0.00     0.012 A 
ATOM     62  C   UNL A   1      38.475  31.411  36.509  1.00  0.00     0.148 A 
ATOM     63  C   UNL A   1      38.913  34.181  36.290  1.00  0.00     0.002 A 
ATOM     64  C   UNL A   1      37.996  32.281  37.486  1.00  0.00     0.091 A 
ATOM     65  F   UNL A   1      38.319  30.084  36.609  1.00  0.00    -0.205 F 
ATOM     66  C   UNL A   1      38.228  33.662  37.384  1.00  0.00     0.022 A 
BRANCH  64  67
ATOM     67  S   UNL A   1      37.030  31.720  38.892  1.00  0.00     0.127 S 
ATOM     68  O   UNL A   1      35.914  32.664  38.879  1.00  0.00    -0.237 OA
ATOM     69  O   UNL A   1      36.678  30.355  38.502  1.00  0.00    -0.237 OA
ATOM     70  O   UNL A   1      37.915  31.810  40.046  1.00  0.00    -0.744 OA
ENDBRANCH  64  67
ENDBRANCH  46  60
BRANCH  47  71
ATOM     71  C   UNL A   1      42.318  26.400  27.668  1.00  0.00     0.023 A 
ATOM     72  C   UNL A   1      43.176  27.020  26.739  1.00  0.00     0.012 A 
ATOM     73  C   UNL A   1      41.988  25.042  27.495  1.00  0.00     0.148 A 
ATOM     74  C   UNL A   1      43.670  26.316  25.641  1.00  0.00     0.002 A 
ATOM     75  C   UNL A   1      42.523  24.331  26.425  1.00  0.00     0.091 A 
ATOM     76  F   UNL A   1      41.162  24.470  28.382  1.00  0.00    -0.205 F 
ATOM     77  C   UNL A   1      43.352  24.970  25.489  1.00  0.00     0.022 A 
BRANCH  75  78
ATOM     78  S   UNL A   1      42.266  22.564  26.219  1.00  0.00     0.127 S 
ATOM     79  O   UNL A   1      42.931  22.311  24.944  1.00  0.00    -0.237 OA
ATOM     80  O   UNL A   1      42.952  22.018  27.390  1.00  0.00    -0.237 OA
ATOM     81  O   UNL A   1      40.821  22.378  26.231  1.00  0.00    -0.744 OA
ENDBRANCH  75  78
ENDBRANCH  47  71
BRANCH  59  82
ATOM     82  C   UNL A   1      44.592  27.331  34.207  1.00  0.00     0.023 A 
ATOM     83  C   UNL A   1      45.834  27.994  34.168  1.00  0.00     0.012 A 
ATOM     84  C   UNL A   1      44.435  26.200  35.031  1.00  0.00     0.148 A 
ATOM     85  C   UNL A   1      46.912  27.523  34.914  1.00  0.00     0.002 A 
ATOM     86  C   UNL A   1      45.501  25.762  35.808  1.00  0.00     0.091 A 
ATOM     87  F   UNL A   1      43.251  25.570  35.038  1.00  0.00    -0.205 F 
ATOM     88  C   UNL A   1      46.742  26.416  35.743  1.00  0.00     0.022 A 
BRANCH  86  89
ATOM     89  S   UNL A   1      45.337  24.404  36.972  1.00  0.00     0.127 S 
ATOM     90  O   UNL A   1      46.600  24.479  37.700  1.00  0.00    -0.237 OA
ATOM     91  O   UNL A   1      44.160  24.799  37.750  1.00  0.00    -0.237 OA
ATOM     92  O   UNL A   1      45.144  23.209  36.162  1.00  0.00    -0.744 OA
ENDBRANCH  86  89
ENDBRANCH  59  82
ENDBRANCH  33  34
ENDBRANCH  25  28
ENDBRANCH  23  24
ENDBRANCH   1  23
TORSDOF 15
ENDMDL
MODEL 3
REMARK VINA RESULT:     -12.3      4.854      7.359
REMARK SMILES Cc1[nH]ncc1S(=O)(=O)N1CC[C@@H](C(=O)NCCCNC(=O)c2ccc(-c3c4nc(c(-c5cccc(S(=O)(=O)[O-])c5F)c5ccc([nH]5)c(-c5cccc(S(=O)(=O)[O-])c5F)c5nc(c(-c6cccc(S(=O)(=O)[O-])c6F)c6ccc3[nH]6)C=C5)C=C4)cc2)[C@@H]1C
REMARK SMILES IDX 18 1 17 2 16 3 14 4 15 5 13 7 10 8 11 9 86 10 12 11 87 12
REMARK SMILES IDX 7 13 8 14 9 15 6 16 1 17 2 18 3 19 4 20 5 22 19 23 20 24
REMARK SMILES IDX 21 25 22 27 23 28 24 29 85 30 25 31 84 32 26 33 27 34 28 35
REMARK SMILES IDX 78 36 29 37 83 38 77 39 79 40 30 41 82 42 76 43 75 44 31 46
REMARK SMILES IDX 63 47 43 48 62 49 44 50 47 51 61 52 80 53 45 54 46 55 60 57
REMARK SMILES IDX 81 58 48 59 32 60 33 61 41 62 34 63 36 64 42 65 35 66 37 67
REMARK SMILES IDX 38 68 39 69 40 70 64 71 65 72 73 73 66 74 68 75 74 76 67 77
REMARK SMILES IDX 69 78 70 79 71 80 72 81 49 82 50 83 58 84 51 85 53 86 59 87
REMARK SMILES IDX 52 88 54 89 55 90 56 91 57 92
REMARK H PARENT 16 6 3 21 20 26 79 45 47 56
REMARK Flexibility Score: inf
ROOT
ATOM      1  C   UNL A   1      31.654  27.701  26.995  1.00  0.00     0.042 C 
ENDROOT
BRANCH   1   2
ATOM      2  C   UNL A   1      31.054  26.724  25.997  1.00  0.00     0.117 C 
BRANCH   2   3
ATOM      3  N   UNL A   1      30.798  25.393  26.505  1.00  0.00    -0.356 N 
ATOM      4  C   UNL A   1      31.673  24.362  26.660  1.00  0.00     0.224 C 
ATOM      5  O   UNL A   1      31.501  23.638  27.649  1.00  0.00    -0.275 OA
ATOM      6  H   UNL A   1      29.869  25.208  26.773  1.00  0.00     0.163 HD
BRANCH   4   7
ATOM      7  C   UNL A   1      32.815  24.034  25.696  1.00  0.00     0.098 C 
ATOM      8  N   UNL A   1      33.166  25.000  23.580  1.00  0.00    -0.194 NA
ATOM      9  C   UNL A   1      34.332  25.410  24.337  1.00  0.00     0.104 C 
ATOM     10  C   UNL A   1      32.507  23.843  24.208  1.00  0.00     0.082 C 
ATOM     11  C   UNL A   1      33.973  25.046  25.773  1.00  0.00     0.032 C 
ATOM     12  C   UNL A   1      33.128  22.539  23.696  1.00  0.00     0.026 C 
BRANCH   8  13
ATOM     13  S   UNL A   1      32.651  25.773  22.206  1.00  0.00     0.246 S 
ATOM     14  O   UNL A   1      31.438  25.122  21.760  1.00  0.00    -0.207 OA
ATOM     15  O   UNL A   1      33.794  25.954  21.339  1.00  0.00    -0.207 OA
BRANCH  13  16
ATOM     16  C   UNL A   1      32.138  27.398  22.498  1.00  0.00     0.123 A 
ATOM     17  C   UNL A   1      34.217  28.972  23.015  1.00  0.00     0.067 C 
ATOM     18  C   UNL A   1      32.808  28.580  22.794  1.00  0.00     0.052 A 
ATOM     19  N   UNL A   1      31.818  29.530  22.886  1.00  0.00    -0.281 N 
ATOM     20  N   UNL A   1      30.590  29.060  22.652  1.00  0.00    -0.183 NA
ATOM     21  H   UNL A   1      31.998  30.472  23.105  1.00  0.00     0.190 HD
ATOM     22  C   UNL A   1      30.779  27.760  22.428  1.00  0.00     0.157 A 
ENDBRANCH  13  16
ENDBRANCH   8  13
ENDBRANCH   4   7
ENDBRANCH   2   3
ENDBRANCH   1   2
BRANCH   1  23
ATOM     23  C   UNL A   1      32.593  28.716  26.361  1.00  0.00     0.118 C 
BRANCH  23  24
ATOM     24  N   UNL A   1      32.196  30.109  26.546  1.00  0.00    -0.352 N 
ATOM     25  C   UNL A   1      32.910  31.175  27.046  1.00  0.00     0.251 C 
ATOM     26  H   UNL A   1      31.275  30.319  26.271  1.00  0.00     0.163 HD
ATOM     27  O   UNL A   1      32.408  32.297  27.038  1.00  0.00    -0.269 OA
BRANCH  25  28
ATOM     28  C   UNL A   1      34.258  30.968  27.619  1.00  0.00     0.039 A 
ATOM     29  C   UNL A   1      35.110  32.069  27.763  1.00  0.00     0.014 A 
ATOM     30  C   UNL A   1      34.671  29.708  28.043  1.00  0.00     0.014 A 
ATOM     31  C   UNL A   1      36.346  31.910  28.396  1.00  0.00     0.010 A 
ATOM     32  C   UNL A   1      35.843  29.576  28.773  1.00  0.00     0.010 A 
ATOM     33  C   UNL A   1      36.706  30.669  28.940  1.00  0.00    -0.014 A 
BRANCH  33  34
ATOM     34  C   UNL A   1      37.990  30.451  29.657  1.00  0.00     0.031 A 
ATOM     35  C   UNL A   1      39.035  29.554  29.040  1.00  0.00     0.074 A 
ATOM     36  C   UNL A   1      38.165  30.938  30.901  1.00  0.00     0.049 A 
ATOM     37  N   UNL A   1      40.134  29.081  29.564  1.00  0.00    -0.248 NA
ATOM     38  C   UNL A   1      38.775  29.079  27.669  1.00  0.00     0.031 C 
ATOM     39  C   UNL A   1      37.191  31.739  31.647  1.00  0.00     0.029 A 
ATOM     40  N   UNL A   1      39.214  30.796  31.776  1.00  0.00    -0.354 N 
ATOM     41  C   UNL A   1      40.652  28.199  28.622  1.00  0.00     0.074 A 
ATOM     42  C   UNL A   1      39.727  28.173  27.512  1.00  0.00     0.031 C 
ATOM     43  C   UNL A   1      37.691  32.025  32.860  1.00  0.00     0.029 A 
ATOM     44  C   UNL A   1      39.005  31.406  32.992  1.00  0.00     0.049 A 
ATOM     45  H   UNL A   1      40.037  30.306  31.553  1.00  0.00     0.167 HD
ATOM     46  C   UNL A   1      41.813  27.502  28.657  1.00  0.00     0.034 A 
ATOM     47  C   UNL A   1      39.788  31.457  34.088  1.00  0.00     0.034 A 
ATOM     48  C   UNL A   1      42.778  27.620  29.715  1.00  0.00     0.049 A 
ATOM     49  C   UNL A   1      41.134  30.784  34.049  1.00  0.00     0.074 A 
ATOM     50  C   UNL A   1      44.037  27.053  29.801  1.00  0.00     0.029 A 
ATOM     51  N   UNL A   1      42.599  28.377  30.862  1.00  0.00    -0.354 N 
ATOM     52  N   UNL A   1      41.671  30.068  33.089  1.00  0.00    -0.248 NA
ATOM     53  C   UNL A   1      42.001  30.959  35.223  1.00  0.00     0.031 C 
ATOM     54  C   UNL A   1      44.621  27.474  31.000  1.00  0.00     0.029 A 
ATOM     55  C   UNL A   1      43.729  28.309  31.656  1.00  0.00     0.049 A 
ATOM     56  H   UNL A   1      41.786  28.889  31.080  1.00  0.00     0.167 HD
ATOM     57  C   UNL A   1      42.949  29.741  33.527  1.00  0.00     0.074 A 
ATOM     58  C   UNL A   1      43.113  30.353  34.829  1.00  0.00     0.031 C 
ATOM     59  C   UNL A   1      43.896  28.986  32.916  1.00  0.00     0.034 A 
BRANCH  46  60
ATOM     60  C   UNL A   1      42.134  26.617  27.481  1.00  0.00     0.023 A 
ATOM     61  C   UNL A   1      42.779  27.168  26.353  1.00  0.00     0.012 A 
ATOM     62  C   UNL A   1      41.833  25.241  27.497  1.00  0.00     0.148 A 
ATOM     63  C   UNL A   1      43.077  26.377  25.244  1.00  0.00     0.002 A 
ATOM     64  C   UNL A   1      42.176  24.448  26.405  1.00  0.00     0.091 A 
ATOM     65  F   UNL A   1      41.201  24.735  28.565  1.00  0.00    -0.205 F 
ATOM     66  C   UNL A   1      42.783  25.018  25.274  1.00  0.00     0.022 A 
BRANCH  64  67
ATOM     67  S   UNL A   1      41.914  22.672  26.379  1.00  0.00     0.127 S 
ATOM     68  O   UNL A   1      42.589  22.255  27.607  1.00  0.00    -0.237 OA
ATOM     69  O   UNL A   1      40.455  22.572  26.421  1.00  0.00    -0.237 OA
ATOM     70  O   UNL A   1      42.516  22.197  25.140  1.00  0.00    -0.744 OA
ENDBRANCH  64  67
ENDBRANCH  46  60
BRANCH  47  71
ATOM     71  C   UNL A   1      39.365  32.260  35.270  1.00  0.00     0.023 A 
ATOM     72  C   UNL A   1      38.530  31.665  36.236  1.00  0.00     0.012 A 
ATOM     73  C   UNL A   1      39.805  33.584  35.468  1.00  0.00     0.148 A 
ATOM     74  C   UNL A   1      38.114  32.378  37.360  1.00  0.00     0.002 A 
ATOM     75  C   UNL A   1      39.427  34.273  36.615  1.00  0.00     0.091 A 
ATOM     76  F   UNL A   1      40.590  34.139  34.534  1.00  0.00    -0.205 F 
ATOM     77  C   UNL A   1      38.571  33.678  37.555  1.00  0.00     0.022 A 
BRANCH  75  78
ATOM     78  S   UNL A   1      40.065  35.907  37.009  1.00  0.00     0.127 S 
ATOM     79  O   UNL A   1      41.494  35.645  37.153  1.00  0.00    -0.237 OA
ATOM     80  O   UNL A   1      39.697  36.673  35.818  1.00  0.00    -0.237 OA
ATOM     81  O   UNL A   1      39.367  36.314  38.221  1.00  0.00    -0.744 OA
ENDBRANCH  75  78
ENDBRANCH  47  71
BRANCH  59  82
ATOM     82  C   UNL A   1      45.212  28.811  33.623  1.00  0.00     0.023 A 
ATOM     83  C   UNL A   1      46.249  29.739  33.406  1.00  0.00     0.012 A 
ATOM     84  C   UNL A   1      45.389  27.778  34.565  1.00  0.00     0.148 A 
ATOM     85  C   UNL A   1      47.455  29.625  34.095  1.00  0.00     0.002 A 
ATOM     86  C   UNL A   1      46.578  27.698  35.281  1.00  0.00     0.091 A 
ATOM     87  F   UNL A   1      44.398  26.893  34.740  1.00  0.00    -0.205 F 
ATOM     88  C   UNL A   1      47.614  28.614  35.041  1.00  0.00     0.022 A 
BRANCH  86  89
ATOM     89  S   UNL A   1      46.824  26.486  36.584  1.00  0.00     0.127 S 
ATOM     90  O   UNL A   1      48.167  26.819  37.051  1.00  0.00    -0.237 OA
ATOM     91  O   UNL A   1      45.752  26.814  37.525  1.00  0.00    -0.237 OA
ATOM     92  O   UNL A   1      46.682  25.185  35.944  1.00  0.00    -0.744 OA
ENDBRANCH  86  89
ENDBRANCH  59  82
ENDBRANCH  33  34
ENDBRANCH  25  28
ENDBRANCH  23  24
ENDBRANCH   1  23
TORSDOF 15
ENDMDL
