MODEL 1
REMARK VINA RESULT:     -12.4      0.000      0.000
REMARK SMILES Cc1ccc([C@H](CC(=O)NCCCNC(=O)c2ccc(-c3c4nc(c(-c5cccc(S(=O)(=O)[O-])c5F)c5ccc([nH]5)c(-c5cccc(S(=O)(=O)[O-])c5F)c5nc(c(-c6cccc(S(=O)(=O)[O-])c6F)c6ccc3[nH]6)C=C5)C=C4)cc2)NC(=O)C(F)(F)F)cc1
REMARK SMILES IDX 12 1 11 2 10 3 8 4 9 5 7 7 6 8 5 9 1 10 2 11 3 12 88 13 4 14
REMARK SMILES IDX 87 15 80 16 81 17 82 19 83 20 84 21 85 22 86 23 13 24 14 25
REMARK SMILES IDX 15 26 16 28 17 29 18 30 79 31 19 32 78 33 20 34 21 35 22 36
REMARK SMILES IDX 72 37 23 38 77 39 71 40 73 41 24 42 76 43 70 44 69 45 25 47
REMARK SMILES IDX 57 48 37 49 56 50 38 51 41 52 55 53 74 54 39 55 40 56 54 58
REMARK SMILES IDX 75 59 42 60 26 61 27 62 35 63 28 64 30 65 36 66 29 67 31 68
REMARK SMILES IDX 32 69 33 70 34 71 58 72 59 73 67 74 60 75 62 76 68 77 61 78
REMARK SMILES IDX 63 79 64 80 65 81 66 82 43 83 44 84 52 85 45 86 47 87 53 88
REMARK SMILES IDX 46 89 48 90 49 91 50 92 51 93
REMARK H PARENT 10 6 80 18 14 27 73 46 41 57
REMARK Flexibility Score: inf
ROOT
ATOM      1  C   UNL A   1      37.586  21.053  25.017  1.00  0.00     0.042 C 
ENDROOT
BRANCH   1   2
ATOM      2  C   UNL A   1      36.083  21.171  24.788  1.00  0.00     0.117 C 
BRANCH   2   3
ATOM      3  N   UNL A   1      35.302  21.095  26.017  1.00  0.00    -0.356 N 
ATOM      4  C   UNL A   1      34.680  22.076  26.734  1.00  0.00     0.222 C 
ATOM      5  O   UNL A   1      34.005  21.772  27.717  1.00  0.00    -0.275 OA
ATOM      6  H   UNL A   1      35.208  20.189  26.389  1.00  0.00     0.163 HD
BRANCH   4   7
ATOM      7  C   UNL A   1      34.821  23.522  26.324  1.00  0.00     0.129 C 
BRANCH   7   8
ATOM      8  C   UNL A   1      33.639  23.974  25.459  1.00  0.00     0.122 C 
BRANCH   8   9
ATOM      9  C   UNL A   1      33.154  25.339  25.920  1.00  0.00    -0.025 A 
ATOM     10  C   UNL A   1      31.781  29.355  26.740  1.00  0.00     0.044 C 
ATOM     11  C   UNL A   1      32.253  27.953  26.499  1.00  0.00    -0.051 A 
ATOM     12  C   UNL A   1      33.588  27.725  26.161  1.00  0.00     0.004 A 
ATOM     13  C   UNL A   1      31.376  26.865  26.572  1.00  0.00     0.004 A 
ATOM     14  C   UNL A   1      34.034  26.432  25.890  1.00  0.00     0.006 A 
ATOM     15  C   UNL A   1      31.820  25.570  26.282  1.00  0.00     0.006 A 
ENDBRANCH   8   9
BRANCH   8  16
ATOM     16  N   UNL A   1      33.946  23.970  24.034  1.00  0.00    -0.341 N 
ATOM     17  C   UNL A   1      33.356  23.199  23.051  1.00  0.00     0.326 C 
ATOM     18  H   UNL A   1      34.655  24.586  23.739  1.00  0.00     0.164 HD
ATOM     19  O   UNL A   1      33.749  23.382  21.893  1.00  0.00    -0.265 OA
BRANCH  17  20
ATOM     20  C   UNL A   1      32.230  22.197  23.421  1.00  0.00     0.471 C 
ATOM     21  F   UNL A   1      31.172  22.802  24.031  1.00  0.00    -0.162 F 
ATOM     22  F   UNL A   1      31.713  21.593  22.308  1.00  0.00    -0.162 F 
ATOM     23  F   UNL A   1      32.638  21.197  24.243  1.00  0.00    -0.162 F 
ENDBRANCH  17  20
ENDBRANCH   8  16
ENDBRANCH   7   8
ENDBRANCH   4   7
ENDBRANCH   2   3
ENDBRANCH   1   2
BRANCH   1  24
ATOM     24  C   UNL A   1      38.221  22.268  25.660  1.00  0.00     0.118 C 
BRANCH  24  25
ATOM     25  N   UNL A   1      39.621  22.083  25.990  1.00  0.00    -0.352 N 
ATOM     26  C   UNL A   1      40.583  23.028  26.311  1.00  0.00     0.251 C 
ATOM     27  H   UNL A   1      39.934  21.150  25.985  1.00  0.00     0.163 HD
ATOM     28  O   UNL A   1      41.750  22.679  26.344  1.00  0.00    -0.269 OA
BRANCH  26  29
ATOM     29  C   UNL A   1      40.165  24.384  26.761  1.00  0.00     0.039 A 
ATOM     30  C   UNL A   1      40.710  25.483  26.082  1.00  0.00     0.014 A 
ATOM     31  C   UNL A   1      39.475  24.583  27.950  1.00  0.00     0.014 A 
ATOM     32  C   UNL A   1      40.797  26.717  26.724  1.00  0.00     0.010 A 
ATOM     33  C   UNL A   1      39.661  25.760  28.635  1.00  0.00     0.010 A 
ATOM     34  C   UNL A   1      40.381  26.805  28.045  1.00  0.00    -0.014 A 
BRANCH  34  35
ATOM     35  C   UNL A   1      40.605  27.927  28.937  1.00  0.00     0.031 A 
ATOM     36  C   UNL A   1      39.691  29.081  28.877  1.00  0.00     0.074 A 
ATOM     37  C   UNL A   1      41.424  27.749  29.998  1.00  0.00     0.049 A 
ATOM     38  N   UNL A   1      39.808  30.129  29.612  1.00  0.00    -0.248 NA
ATOM     39  C   UNL A   1      38.578  29.146  27.940  1.00  0.00     0.031 C 
ATOM     40  C   UNL A   1      41.385  28.459  31.271  1.00  0.00     0.029 A 
ATOM     41  N   UNL A   1      42.620  27.027  30.048  1.00  0.00    -0.354 N 
ATOM     42  C   UNL A   1      38.670  30.886  29.447  1.00  0.00     0.074 A 
ATOM     43  C   UNL A   1      37.990  30.282  28.326  1.00  0.00     0.031 C 
ATOM     44  C   UNL A   1      42.594  28.380  31.845  1.00  0.00     0.029 A 
ATOM     45  C   UNL A   1      43.484  27.781  30.867  1.00  0.00     0.049 A 
ATOM     46  H   UNL A   1      42.817  26.171  29.604  1.00  0.00     0.167 HD
ATOM     47  C   UNL A   1      38.408  31.858  30.363  1.00  0.00     0.034 A 
ATOM     48  C   UNL A   1      44.653  28.332  30.423  1.00  0.00     0.034 A 
ATOM     49  C   UNL A   1      39.568  32.065  31.248  1.00  0.00     0.049 A 
ATOM     50  C   UNL A   1      44.715  29.849  30.568  1.00  0.00     0.074 A 
ATOM     51  C   UNL A   1      39.913  31.693  32.535  1.00  0.00     0.029 A 
ATOM     52  N   UNL A   1      40.721  32.568  30.677  1.00  0.00    -0.354 N 
ATOM     53  N   UNL A   1      43.787  30.585  31.115  1.00  0.00    -0.248 NA
ATOM     54  C   UNL A   1      45.799  30.659  30.008  1.00  0.00     0.031 C 
ATOM     55  C   UNL A   1      41.312  31.941  32.705  1.00  0.00     0.029 A 
ATOM     56  C   UNL A   1      41.803  32.486  31.531  1.00  0.00     0.049 A 
ATOM     57  H   UNL A   1      40.766  32.942  29.767  1.00  0.00     0.167 HD
ATOM     58  C   UNL A   1      44.023  31.903  30.817  1.00  0.00     0.074 A 
ATOM     59  C   UNL A   1      45.327  31.905  30.180  1.00  0.00     0.031 C 
ATOM     60  C   UNL A   1      43.106  32.895  31.024  1.00  0.00     0.034 A 
BRANCH  47  61
ATOM     61  C   UNL A   1      37.080  32.560  30.602  1.00  0.00     0.023 A 
ATOM     62  C   UNL A   1      36.578  32.533  31.925  1.00  0.00     0.012 A 
ATOM     63  C   UNL A   1      36.241  33.173  29.643  1.00  0.00     0.148 A 
ATOM     64  C   UNL A   1      35.310  33.022  32.263  1.00  0.00     0.002 A 
ATOM     65  C   UNL A   1      34.972  33.655  29.974  1.00  0.00     0.091 A 
ATOM     66  F   UNL A   1      36.642  33.305  28.383  1.00  0.00    -0.205 F 
ATOM     67  C   UNL A   1      34.499  33.572  31.284  1.00  0.00     0.022 A 
BRANCH  65  68
ATOM     68  S   UNL A   1      33.852  34.362  28.747  1.00  0.00     0.127 S 
ATOM     69  O   UNL A   1      32.724  34.785  29.578  1.00  0.00    -0.237 OA
ATOM     70  O   UNL A   1      34.644  35.459  28.194  1.00  0.00    -0.237 OA
ATOM     71  O   UNL A   1      33.539  33.298  27.802  1.00  0.00    -0.744 OA
ENDBRANCH  65  68
ENDBRANCH  47  61
BRANCH  48  72
ATOM     72  C   UNL A   1      45.277  27.559  29.310  1.00  0.00     0.023 A 
ATOM     73  C   UNL A   1      45.829  26.297  29.633  1.00  0.00     0.012 A 
ATOM     74  C   UNL A   1      44.960  27.841  27.969  1.00  0.00     0.148 A 
ATOM     75  C   UNL A   1      45.936  25.295  28.668  1.00  0.00     0.002 A 
ATOM     76  C   UNL A   1      45.069  26.834  27.012  1.00  0.00     0.091 A 
ATOM     77  F   UNL A   1      44.469  29.048  27.666  1.00  0.00    -0.205 F 
ATOM     78  C   UNL A   1      45.521  25.554  27.366  1.00  0.00     0.022 A 
BRANCH  76  79
ATOM     79  S   UNL A   1      44.493  27.076  25.327  1.00  0.00     0.127 S 
ATOM     80  O   UNL A   1      45.683  27.629  24.689  1.00  0.00    -0.237 OA
ATOM     81  O   UNL A   1      44.150  25.712  24.921  1.00  0.00    -0.237 OA
ATOM     82  O   UNL A   1      43.348  27.965  25.446  1.00  0.00    -0.744 OA
ENDBRANCH  76  79
ENDBRANCH  48  72
BRANCH  60  83
ATOM     83  C   UNL A   1      43.379  34.356  30.737  1.00  0.00     0.023 A 
ATOM     84  C   UNL A   1      43.585  35.259  31.799  1.00  0.00     0.012 A 
ATOM     85  C   UNL A   1      43.274  34.904  29.434  1.00  0.00     0.148 A 
ATOM     86  C   UNL A   1      43.707  36.635  31.575  1.00  0.00     0.002 A 
ATOM     87  C   UNL A   1      43.287  36.280  29.230  1.00  0.00     0.091 A 
ATOM     88  F   UNL A   1      43.217  34.089  28.374  1.00  0.00    -0.205 F 
ATOM     89  C   UNL A   1      43.530  37.148  30.296  1.00  0.00     0.022 A 
BRANCH  87  90
ATOM     90  S   UNL A   1      42.861  37.017  27.645  1.00  0.00     0.127 S 
ATOM     91  O   UNL A   1      41.556  36.408  27.375  1.00  0.00    -0.237 OA
ATOM     92  O   UNL A   1      42.812  38.438  27.978  1.00  0.00    -0.237 OA
ATOM     93  O   UNL A   1      43.912  36.612  26.724  1.00  0.00    -0.744 OA
ENDBRANCH  87  90
ENDBRANCH  60  83
ENDBRANCH  34  35
ENDBRANCH  26  29
ENDBRANCH  24  25
ENDBRANCH   1  24
TORSDOF 17
ENDMDL
MODEL 2
REMARK VINA RESULT:     -12.2      1.896      2.404
REMARK SMILES Cc1ccc([C@H](CC(=O)NCCCNC(=O)c2ccc(-c3c4nc(c(-c5cccc(S(=O)(=O)[O-])c5F)c5ccc([nH]5)c(-c5cccc(S(=O)(=O)[O-])c5F)c5nc(c(-c6cccc(S(=O)(=O)[O-])c6F)c6ccc3[nH]6)C=C5)C=C4)cc2)NC(=O)C(F)(F)F)cc1
REMARK SMILES IDX 12 1 11 2 10 3 8 4 9 5 7 7 6 8 5 9 1 10 2 11 3 12 88 13 4 14
REMARK SMILES IDX 87 15 80 16 81 17 82 19 83 20 84 21 85 22 86 23 13 24 14 25
REMARK SMILES IDX 15 26 16 28 17 29 18 30 79 31 19 32 78 33 20 34 21 35 22 36
REMARK SMILES IDX 72 37 23 38 77 39 71 40 73 41 24 42 76 43 70 44 69 45 25 47
REMARK SMILES IDX 57 48 37 49 56 50 38 51 41 52 55 53 74 54 39 55 40 56 54 58
REMARK SMILES IDX 75 59 42 60 26 61 27 62 35 63 28 64 30 65 36 66 29 67 31 68
REMARK SMILES IDX 32 69 33 70 34 71 58 72 59 73 67 74 60 75 62 76 68 77 61 78
REMARK SMILES IDX 63 79 64 80 65 81 66 82 43 83 44 84 52 85 45 86 47 87 53 88
REMARK SMILES IDX 46 89 48 90 49 91 50 92 51 93
REMARK H PARENT 10 6 80 18 14 27 73 46 41 57
REMARK Flexibility Score: inf
ROOT
ATOM      1  C   UNL A   1      37.247  21.368  25.627  1.00  0.00     0.042 C 
ENDROOT
BRANCH   1   2
ATOM      2  C   UNL A   1      35.755  21.678  25.608  1.00  0.00     0.117 C 
BRANCH   2   3
ATOM      3  N   UNL A   1      35.300  22.267  24.355  1.00  0.00    -0.356 N 
ATOM      4  C   UNL A   1      34.924  23.545  24.060  1.00  0.00     0.222 C 
ATOM      5  O   UNL A   1      34.641  23.841  22.900  1.00  0.00    -0.275 OA
ATOM      6  H   UNL A   1      35.258  21.640  23.597  1.00  0.00     0.163 HD
BRANCH   4   7
ATOM      7  C   UNL A   1      34.854  24.587  25.151  1.00  0.00     0.129 C 
BRANCH   7   8
ATOM      8  C   UNL A   1      33.403  24.878  25.551  1.00  0.00     0.122 C 
BRANCH   8   9
ATOM      9  C   UNL A   1      33.241  26.356  25.866  1.00  0.00    -0.025 A 
ATOM     10  C   UNL A   1      32.879  30.437  27.245  1.00  0.00     0.044 C 
ATOM     11  C   UNL A   1      32.998  29.036  26.725  1.00  0.00    -0.051 A 
ATOM     12  C   UNL A   1      31.984  28.114  26.992  1.00  0.00     0.004 A 
ATOM     13  C   UNL A   1      34.122  28.618  26.003  1.00  0.00     0.004 A 
ATOM     14  C   UNL A   1      32.099  26.796  26.555  1.00  0.00     0.006 A 
ATOM     15  C   UNL A   1      34.245  27.290  25.581  1.00  0.00     0.006 A 
ENDBRANCH   8   9
BRANCH   8  16
ATOM     16  N   UNL A   1      32.440  24.437  24.549  1.00  0.00    -0.341 N 
ATOM     17  C   UNL A   1      31.443  23.493  24.702  1.00  0.00     0.326 C 
ATOM     18  H   UNL A   1      32.510  24.859  23.662  1.00  0.00     0.164 HD
ATOM     19  O   UNL A   1      30.712  23.296  23.725  1.00  0.00    -0.265 OA
BRANCH  17  20
ATOM     20  C   UNL A   1      31.258  22.773  26.064  1.00  0.00     0.471 C 
ATOM     21  F   UNL A   1      32.294  21.937  26.359  1.00  0.00    -0.162 F 
ATOM     22  F   UNL A   1      31.204  23.666  27.099  1.00  0.00    -0.162 F 
ATOM     23  F   UNL A   1      30.122  22.032  26.140  1.00  0.00    -0.162 F 
ENDBRANCH  17  20
ENDBRANCH   8  16
ENDBRANCH   7   8
ENDBRANCH   4   7
ENDBRANCH   2   3
ENDBRANCH   1   2
BRANCH   1  24
ATOM     24  C   UNL A   1      38.140  22.581  25.794  1.00  0.00     0.118 C 
BRANCH  24  25
ATOM     25  N   UNL A   1      39.260  22.356  26.686  1.00  0.00    -0.352 N 
ATOM     26  C   UNL A   1      40.071  23.277  27.332  1.00  0.00     0.251 C 
ATOM     27  H   UNL A   1      39.477  21.411  26.858  1.00  0.00     0.163 HD
ATOM     28  O   UNL A   1      41.090  22.877  27.865  1.00  0.00    -0.269 OA
BRANCH  26  29
ATOM     29  C   UNL A   1      39.605  24.681  27.498  1.00  0.00     0.039 A 
ATOM     30  C   UNL A   1      40.129  25.640  26.621  1.00  0.00     0.014 A 
ATOM     31  C   UNL A   1      38.890  25.090  28.617  1.00  0.00     0.014 A 
ATOM     32  C   UNL A   1      40.170  26.980  27.005  1.00  0.00     0.010 A 
ATOM     33  C   UNL A   1      39.030  26.385  29.055  1.00  0.00     0.010 A 
ATOM     34  C   UNL A   1      39.729  27.314  28.278  1.00  0.00    -0.014 A 
BRANCH  34  35
ATOM     35  C   UNL A   1      39.904  28.597  28.932  1.00  0.00     0.031 A 
ATOM     36  C   UNL A   1      38.923  29.667  28.681  1.00  0.00     0.074 A 
ATOM     37  C   UNL A   1      40.755  28.672  29.979  1.00  0.00     0.049 A 
ATOM     38  N   UNL A   1      38.993  30.842  29.199  1.00  0.00    -0.248 NA
ATOM     39  C   UNL A   1      37.788  29.490  27.786  1.00  0.00     0.031 C 
ATOM     40  C   UNL A   1      40.702  29.611  31.093  1.00  0.00     0.029 A 
ATOM     41  N   UNL A   1      41.993  28.039  30.128  1.00  0.00    -0.354 N 
ATOM     42  C   UNL A   1      37.808  31.490  28.928  1.00  0.00     0.074 A 
ATOM     43  C   UNL A   1      37.142  30.646  27.966  1.00  0.00     0.031 C 
ATOM     44  C   UNL A   1      41.925  29.709  31.633  1.00  0.00     0.029 A 
ATOM     45  C   UNL A   1      42.828  28.983  30.759  1.00  0.00     0.049 A 
ATOM     46  H   UNL A   1      42.231  27.125  29.849  1.00  0.00     0.167 HD
ATOM     47  C   UNL A   1      37.509  32.605  29.650  1.00  0.00     0.034 A 
ATOM     48  C   UNL A   1      43.952  29.500  30.181  1.00  0.00     0.034 A 
ATOM     49  C   UNL A   1      38.673  33.041  30.441  1.00  0.00     0.049 A 
ATOM     50  C   UNL A   1      43.927  31.017  30.031  1.00  0.00     0.074 A 
ATOM     51  C   UNL A   1      39.067  32.943  31.764  1.00  0.00     0.029 A 
ATOM     52  N   UNL A   1      39.782  33.486  29.747  1.00  0.00    -0.354 N 
ATOM     53  N   UNL A   1      42.969  31.794  30.457  1.00  0.00    -0.248 NA
ATOM     54  C   UNL A   1      44.949  31.762  29.291  1.00  0.00     0.031 C 
ATOM     55  C   UNL A   1      40.452  33.294  31.837  1.00  0.00     0.029 A 
ATOM     56  C   UNL A   1      40.885  33.629  30.566  1.00  0.00     0.049 A 
ATOM     57  H   UNL A   1      39.785  33.679  28.782  1.00  0.00     0.167 HD
ATOM     58  C   UNL A   1      43.120  33.041  29.905  1.00  0.00     0.074 A 
ATOM     59  C   UNL A   1      44.408  32.991  29.237  1.00  0.00     0.031 C 
ATOM     60  C   UNL A   1      42.150  34.003  29.948  1.00  0.00     0.034 A 
BRANCH  47  61
ATOM     61  C   UNL A   1      36.147  33.266  29.793  1.00  0.00     0.023 A 
ATOM     62  C   UNL A   1      35.532  33.714  28.600  1.00  0.00     0.012 A 
ATOM     63  C   UNL A   1      35.451  33.563  30.987  1.00  0.00     0.148 A 
ATOM     64  C   UNL A   1      34.344  34.455  28.593  1.00  0.00     0.002 A 
ATOM     65  C   UNL A   1      34.269  34.309  30.986  1.00  0.00     0.091 A 
ATOM     66  F   UNL A   1      35.910  33.137  32.159  1.00  0.00    -0.205 F 
ATOM     67  C   UNL A   1      33.717  34.765  29.788  1.00  0.00     0.022 A 
BRANCH  65  68
ATOM     68  S   UNL A   1      33.411  34.771  32.505  1.00  0.00     0.127 S 
ATOM     69  O   UNL A   1      33.283  33.481  33.183  1.00  0.00    -0.237 OA
ATOM     70  O   UNL A   1      34.355  35.695  33.131  1.00  0.00    -0.237 OA
ATOM     71  O   UNL A   1      32.144  35.371  32.105  1.00  0.00    -0.744 OA
ENDBRANCH  65  68
ENDBRANCH  47  61
BRANCH  48  72
ATOM     72  C   UNL A   1      44.597  28.562  29.216  1.00  0.00     0.023 A 
ATOM     73  C   UNL A   1      45.179  27.388  29.751  1.00  0.00     0.012 A 
ATOM     74  C   UNL A   1      44.277  28.601  27.847  1.00  0.00     0.148 A 
ATOM     75  C   UNL A   1      45.312  26.238  28.973  1.00  0.00     0.002 A 
ATOM     76  C   UNL A   1      44.412  27.448  27.078  1.00  0.00     0.091 A 
ATOM     77  F   UNL A   1      43.758  29.726  27.342  1.00  0.00    -0.205 F 
ATOM     78  C   UNL A   1      44.893  26.258  27.646  1.00  0.00     0.022 A 
BRANCH  76  79
ATOM     79  S   UNL A   1      43.834  27.381  25.377  1.00  0.00     0.127 S 
ATOM     80  O   UNL A   1      42.740  28.346  25.403  1.00  0.00    -0.237 OA
ATOM     81  O   UNL A   1      45.019  27.808  24.633  1.00  0.00    -0.237 OA
ATOM     82  O   UNL A   1      43.467  25.989  25.161  1.00  0.00    -0.744 OA
ENDBRANCH  76  79
ENDBRANCH  48  72
BRANCH  60  83
ATOM     83  C   UNL A   1      42.330  35.393  29.378  1.00  0.00     0.023 A 
ATOM     84  C   UNL A   1      41.883  35.687  28.074  1.00  0.00     0.012 A 
ATOM     85  C   UNL A   1      43.087  36.392  30.041  1.00  0.00     0.148 A 
ATOM     86  C   UNL A   1      42.152  36.919  27.468  1.00  0.00     0.002 A 
ATOM     87  C   UNL A   1      43.443  37.570  29.395  1.00  0.00     0.091 A 
ATOM     88  F   UNL A   1      43.420  36.227  31.327  1.00  0.00    -0.205 F 
ATOM     89  C   UNL A   1      42.955  37.849  28.117  1.00  0.00     0.022 A 
BRANCH  87  90
ATOM     90  S   UNL A   1      44.642  38.718  30.089  1.00  0.00     0.127 S 
ATOM     91  O   UNL A   1      45.041  39.485  28.907  1.00  0.00    -0.237 OA
ATOM     92  O   UNL A   1      43.829  39.458  31.050  1.00  0.00    -0.237 OA
ATOM     93  O   UNL A   1      45.701  37.892  30.651  1.00  0.00    -0.744 OA
ENDBRANCH  87  90
ENDBRANCH  60  83
ENDBRANCH  34  35
ENDBRANCH  26  29
ENDBRANCH  24  25
ENDBRANCH   1  24
TORSDOF 17
ENDMDL
MODEL 3
REMARK VINA RESULT:     -12.1      1.349      1.730
REMARK SMILES Cc1ccc([C@H](CC(=O)NCCCNC(=O)c2ccc(-c3c4nc(c(-c5cccc(S(=O)(=O)[O-])c5F)c5ccc([nH]5)c(-c5cccc(S(=O)(=O)[O-])c5F)c5nc(c(-c6cccc(S(=O)(=O)[O-])c6F)c6ccc3[nH]6)C=C5)C=C4)cc2)NC(=O)C(F)(F)F)cc1
REMARK SMILES IDX 12 1 11 2 10 3 8 4 9 5 7 7 6 8 5 9 1 10 2 11 3 12 88 13 4 14
REMARK SMILES IDX 87 15 80 16 81 17 82 19 83 20 84 21 85 22 86 23 13 24 14 25
REMARK SMILES IDX 15 26 16 28 17 29 18 30 79 31 19 32 78 33 20 34 21 35 22 36
REMARK SMILES IDX 72 37 23 38 77 39 71 40 73 41 24 42 76 43 70 44 69 45 25 47
REMARK SMILES IDX 57 48 37 49 56 50 38 51 41 52 55 53 74 54 39 55 40 56 54 58
REMARK SMILES IDX 75 59 42 60 26 61 27 62 35 63 28 64 30 65 36 66 29 67 31 68
REMARK SMILES IDX 32 69 33 70 34 71 58 72 59 73 67 74 60 75 62 76 68 77 61 78
REMARK SMILES IDX 63 79 64 80 65 81 66 82 43 83 44 84 52 85 45 86 47 87 53 88
REMARK SMILES IDX 46 89 48 90 49 91 50 92 51 93
REMARK H PARENT 10 6 80 18 14 27 73 46 41 57
REMARK Flexibility Score: inf
ROOT
ATOM      1  C   UNL A   1      37.774  21.160  25.062  1.00  0.00     0.042 C 
ENDROOT
BRANCH   1   2
ATOM      2  C   UNL A   1      36.303  21.315  24.691  1.00  0.00     0.117 C 
BRANCH   2   3
ATOM      3  N   UNL A   1      35.396  21.083  25.808  1.00  0.00    -0.356 N 
ATOM      4  C   UNL A   1      34.624  21.955  26.518  1.00  0.00     0.222 C 
ATOM      5  O   UNL A   1      33.866  21.524  27.387  1.00  0.00    -0.275 OA
ATOM      6  H   UNL A   1      35.329  20.144  26.095  1.00  0.00     0.163 HD
BRANCH   4   7
ATOM      7  C   UNL A   1      34.700  23.437  26.242  1.00  0.00     0.129 C 
BRANCH   7   8
ATOM      8  C   UNL A   1      33.575  23.887  25.302  1.00  0.00     0.122 C 
BRANCH   8   9
ATOM      9  C   UNL A   1      33.110  25.283  25.685  1.00  0.00    -0.025 A 
ATOM     10  C   UNL A   1      31.785  29.086  27.256  1.00  0.00     0.044 C 
ATOM     11  C   UNL A   1      32.246  27.785  26.671  1.00  0.00    -0.051 A 
ATOM     12  C   UNL A   1      31.357  26.712  26.591  1.00  0.00     0.004 A 
ATOM     13  C   UNL A   1      33.563  27.609  26.230  1.00  0.00     0.004 A 
ATOM     14  C   UNL A   1      31.781  25.482  26.091  1.00  0.00     0.006 A 
ATOM     15  C   UNL A   1      33.993  26.369  25.746  1.00  0.00     0.006 A 
ENDBRANCH   8   9
BRANCH   8  16
ATOM     16  N   UNL A   1      33.951  23.817  23.895  1.00  0.00    -0.341 N 
ATOM     17  C   UNL A   1      33.324  23.102  22.894  1.00  0.00     0.326 C 
ATOM     18  H   UNL A   1      34.743  24.338  23.629  1.00  0.00     0.164 HD
ATOM     19  O   UNL A   1      33.793  23.213  21.755  1.00  0.00    -0.265 OA
BRANCH  17  20
ATOM     20  C   UNL A   1      32.068  22.249  23.219  1.00  0.00     0.471 C 
ATOM     21  F   UNL A   1      31.747  21.387  22.213  1.00  0.00    -0.162 F 
ATOM     22  F   UNL A   1      32.268  21.465  24.322  1.00  0.00    -0.162 F 
ATOM     23  F   UNL A   1      30.958  22.988  23.473  1.00  0.00    -0.162 F 
ENDBRANCH  17  20
ENDBRANCH   8  16
ENDBRANCH   7   8
ENDBRANCH   4   7
ENDBRANCH   2   3
ENDBRANCH   1   2
BRANCH   1  24
ATOM     24  C   UNL A   1      38.330  22.286  25.910  1.00  0.00     0.118 C 
BRANCH  24  25
ATOM     25  N   UNL A   1      39.763  22.204  26.112  1.00  0.00    -0.352 N 
ATOM     26  C   UNL A   1      40.682  23.221  26.327  1.00  0.00     0.251 C 
ATOM     27  H   UNL A   1      40.139  21.295  26.093  1.00  0.00     0.163 HD
ATOM     28  O   UNL A   1      41.868  22.953  26.256  1.00  0.00    -0.269 OA
BRANCH  26  29
ATOM     29  C   UNL A   1      40.211  24.555  26.791  1.00  0.00     0.039 A 
ATOM     30  C   UNL A   1      40.700  25.680  26.113  1.00  0.00     0.014 A 
ATOM     31  C   UNL A   1      39.530  24.716  27.991  1.00  0.00     0.014 A 
ATOM     32  C   UNL A   1      40.743  26.913  26.762  1.00  0.00     0.010 A 
ATOM     33  C   UNL A   1      39.675  25.896  28.680  1.00  0.00     0.010 A 
ATOM     34  C   UNL A   1      40.341  26.974  28.089  1.00  0.00    -0.014 A 
BRANCH  34  35
ATOM     35  C   UNL A   1      40.528  28.099  28.985  1.00  0.00     0.031 A 
ATOM     36  C   UNL A   1      39.581  29.226  28.926  1.00  0.00     0.074 A 
ATOM     37  C   UNL A   1      41.349  27.942  30.048  1.00  0.00     0.049 A 
ATOM     38  N   UNL A   1      39.665  30.275  29.665  1.00  0.00    -0.248 NA
ATOM     39  C   UNL A   1      38.470  29.262  27.985  1.00  0.00     0.031 C 
ATOM     40  C   UNL A   1      41.285  28.646  31.323  1.00  0.00     0.029 A 
ATOM     41  N   UNL A   1      42.565  27.255  30.100  1.00  0.00    -0.354 N 
ATOM     42  C   UNL A   1      38.505  30.998  29.498  1.00  0.00     0.074 A 
ATOM     43  C   UNL A   1      37.848  30.378  28.373  1.00  0.00     0.031 C 
ATOM     44  C   UNL A   1      42.493  28.600  31.902  1.00  0.00     0.029 A 
ATOM     45  C   UNL A   1      43.404  28.032  30.925  1.00  0.00     0.049 A 
ATOM     46  H   UNL A   1      42.789  26.407  29.654  1.00  0.00     0.167 HD
ATOM     47  C   UNL A   1      38.211  31.959  30.417  1.00  0.00     0.034 A 
ATOM     48  C   UNL A   1      44.558  28.619  30.487  1.00  0.00     0.034 A 
ATOM     49  C   UNL A   1      39.361  32.197  31.306  1.00  0.00     0.049 A 
ATOM     50  C   UNL A   1      44.575  30.136  30.638  1.00  0.00     0.074 A 
ATOM     51  C   UNL A   1      39.713  31.831  32.594  1.00  0.00     0.029 A 
ATOM     52  N   UNL A   1      40.501  32.735  30.741  1.00  0.00    -0.354 N 
ATOM     53  N   UNL A   1      43.623  30.842  31.184  1.00  0.00    -0.248 NA
ATOM     54  C   UNL A   1      45.636  30.980  30.084  1.00  0.00     0.031 C 
ATOM     55  C   UNL A   1      41.104  32.119  32.769  1.00  0.00     0.029 A 
ATOM     56  C   UNL A   1      41.582  32.683  31.599  1.00  0.00     0.049 A 
ATOM     57  H   UNL A   1      40.538  33.114  29.833  1.00  0.00     0.167 HD
ATOM     58  C   UNL A   1      43.821  32.168  30.891  1.00  0.00     0.074 A 
ATOM     59  C   UNL A   1      45.127  32.211  30.258  1.00  0.00     0.031 C 
ATOM     60  C   UNL A   1      42.875  33.132  31.098  1.00  0.00     0.034 A 
BRANCH  47  61
ATOM     61  C   UNL A   1      36.863  32.620  30.653  1.00  0.00     0.023 A 
ATOM     62  C   UNL A   1      36.318  32.502  31.954  1.00  0.00     0.012 A 
ATOM     63  C   UNL A   1      36.044  33.277  29.706  1.00  0.00     0.148 A 
ATOM     64  C   UNL A   1      35.030  32.946  32.278  1.00  0.00     0.002 A 
ATOM     65  C   UNL A   1      34.755  33.714  30.022  1.00  0.00     0.091 A 
ATOM     66  F   UNL A   1      36.483  33.495  28.471  1.00  0.00    -0.205 F 
ATOM     67  C   UNL A   1      34.241  33.541  31.308  1.00  0.00     0.022 A 
BRANCH  65  68
ATOM     68  S   UNL A   1      33.662  34.477  28.805  1.00  0.00     0.127 S 
ATOM     69  O   UNL A   1      32.527  34.885  29.633  1.00  0.00    -0.237 OA
ATOM     70  O   UNL A   1      34.475  35.583  28.301  1.00  0.00    -0.237 OA
ATOM     71  O   UNL A   1      33.351  33.449  27.819  1.00  0.00    -0.744 OA
ENDBRANCH  65  68
ENDBRANCH  47  61
BRANCH  48  72
ATOM     72  C   UNL A   1      45.208  27.868  29.373  1.00  0.00     0.023 A 
ATOM     73  C   UNL A   1      45.814  26.631  29.699  1.00  0.00     0.012 A 
ATOM     74  C   UNL A   1      44.874  28.132  28.033  1.00  0.00     0.148 A 
ATOM     75  C   UNL A   1      45.957  25.632  28.736  1.00  0.00     0.002 A 
ATOM     76  C   UNL A   1      45.020  27.128  27.079  1.00  0.00     0.091 A 
ATOM     77  F   UNL A   1      44.332  29.317  27.729  1.00  0.00    -0.205 F 
ATOM     78  C   UNL A   1      45.526  25.868  27.435  1.00  0.00     0.022 A 
BRANCH  76  79
ATOM     79  S   UNL A   1      44.427  27.339  25.396  1.00  0.00     0.127 S 
ATOM     80  O   UNL A   1      44.031  25.977  25.054  1.00  0.00    -0.237 OA
ATOM     81  O   UNL A   1      43.321  28.280  25.575  1.00  0.00    -0.237 OA
ATOM     82  O   UNL A   1      45.560  27.887  24.666  1.00  0.00    -0.744 OA
ENDBRANCH  76  79
ENDBRANCH  48  72
BRANCH  60  83
ATOM     83  C   UNL A   1      43.106  34.601  30.817  1.00  0.00     0.023 A 
ATOM     84  C   UNL A   1      43.298  35.046  29.493  1.00  0.00     0.012 A 
ATOM     85  C   UNL A   1      43.305  35.548  31.852  1.00  0.00     0.148 A 
ATOM     86  C   UNL A   1      43.646  36.372  29.210  1.00  0.00     0.002 A 
ATOM     87  C   UNL A   1      43.755  36.834  31.572  1.00  0.00     0.091 A 
ATOM     88  F   UNL A   1      43.004  35.224  33.115  1.00  0.00    -0.205 F 
ATOM     89  C   UNL A   1      43.902  37.258  30.250  1.00  0.00     0.022 A 
BRANCH  87  90
ATOM     90  S   UNL A   1      44.302  37.959  32.865  1.00  0.00     0.127 S 
ATOM     91  O   UNL A   1      45.119  38.910  32.107  1.00  0.00    -0.237 OA
ATOM     92  O   UNL A   1      43.035  38.496  33.351  1.00  0.00    -0.237 OA
ATOM     93  O   UNL A   1      45.054  37.144  33.808  1.00  0.00    -0.744 OA
ENDBRANCH  87  90
ENDBRANCH  60  83
ENDBRANCH  34  35
ENDBRANCH  26  29
ENDBRANCH  24  25
ENDBRANCH   1  24
TORSDOF 17
ENDMDL
