MODEL 1
REMARK VINA RESULT:     -12.2      0.000      0.000
REMARK SMILES C[C@H](Cc1cccc2c1OC(C)(C)C2)C(=O)NCCCNC(=O)c1ccc(-c2c3nc(c(-c4cccc(S(=O)(=O)[O-])c4F)c4ccc([nH]4)c(-c4cccc(S(=O)(=O)[O-])c4F)c4nc(c(-c5cccc(S(=O)(=O)[O-])c5F)c5ccc2[nH]5)C=C4)C=C3)cc1
REMARK SMILES IDX 19 1 18 2 17 3 15 4 16 5 2 7 1 8 3 9 4 10 5 11 9 12 6 13
REMARK SMILES IDX 8 14 10 15 7 16 14 17 11 18 12 19 13 20 20 21 21 22 22 23
REMARK SMILES IDX 23 25 24 26 25 27 86 28 26 29 85 30 27 31 28 32 29 33 79 34
REMARK SMILES IDX 30 35 84 36 78 37 80 38 31 39 83 40 77 41 76 42 32 44 64 45
REMARK SMILES IDX 44 46 63 47 45 48 48 49 62 50 81 51 46 52 47 53 61 55 82 56
REMARK SMILES IDX 49 57 33 58 34 59 42 60 35 61 37 62 43 63 36 64 38 65 39 66
REMARK SMILES IDX 40 67 41 68 65 69 66 70 74 71 67 72 69 73 75 74 68 75 70 76
REMARK SMILES IDX 71 77 72 78 73 79 50 80 51 81 59 82 52 83 54 84 60 85 53 86
REMARK SMILES IDX 55 87 56 88 57 89 58 90
REMARK H PARENT 17 6 21 24 80 43 48 54
REMARK Flexibility Score: inf
ROOT
ATOM      1  C   UNL A   1      31.846  28.223  25.699  1.00  0.00     0.042 C 
ENDROOT
BRANCH   1   2
ATOM      2  C   UNL A   1      32.328  26.912  26.312  1.00  0.00     0.117 C 
BRANCH   2   3
ATOM      3  N   UNL A   1      31.230  26.088  26.787  1.00  0.00    -0.356 N 
ATOM      4  C   UNL A   1      30.641  24.984  26.250  1.00  0.00     0.223 C 
ATOM      5  O   UNL A   1      29.700  24.484  26.872  1.00  0.00    -0.275 OA
ATOM      6  H   UNL A   1      30.846  26.378  27.646  1.00  0.00     0.163 HD
BRANCH   4   7
ATOM      7  C   UNL A   1      31.150  24.342  24.965  1.00  0.00     0.080 C 
ATOM      8  C   UNL A   1      30.289  24.802  23.785  1.00  0.00     0.018 C 
BRANCH   7   9
ATOM      9  C   UNL A   1      31.388  22.830  25.142  1.00  0.00     0.052 C 
BRANCH   9  10
ATOM     10  C   UNL A   1      32.795  22.355  24.912  1.00  0.00    -0.005 A 
ATOM     11  C   UNL A   1      33.850  23.269  24.754  1.00  0.00     0.007 A 
ATOM     12  C   UNL A   1      33.113  21.011  24.828  1.00  0.00     0.126 A 
ATOM     13  C   UNL A   1      35.171  22.832  24.569  1.00  0.00     0.001 A 
ATOM     14  C   UNL A   1      34.415  20.574  24.635  1.00  0.00    -0.002 A 
ATOM     15  O   UNL A   1      32.202  19.990  24.912  1.00  0.00    -0.487 OA
ATOM     16  C   UNL A   1      35.463  21.470  24.518  1.00  0.00     0.008 A 
ATOM     17  C   UNL A   1      34.447  19.094  24.628  1.00  0.00     0.087 C 
ATOM     18  C   UNL A   1      32.936  18.797  24.520  1.00  0.00     0.108 C 
ATOM     19  C   UNL A   1      32.533  18.438  23.082  1.00  0.00     0.057 C 
ATOM     20  C   UNL A   1      32.520  17.677  25.473  1.00  0.00     0.057 C 
ENDBRANCH   9  10
ENDBRANCH   7   9
ENDBRANCH   4   7
ENDBRANCH   2   3
ENDBRANCH   1   2
BRANCH   1  21
ATOM     21  C   UNL A   1      32.959  29.228  25.437  1.00  0.00     0.118 C 
BRANCH  21  22
ATOM     22  N   UNL A   1      32.589  30.576  25.838  1.00  0.00    -0.352 N 
ATOM     23  C   UNL A   1      33.047  31.349  26.874  1.00  0.00     0.251 C 
ATOM     24  H   UNL A   1      31.901  31.001  25.278  1.00  0.00     0.163 HD
ATOM     25  O   UNL A   1      32.439  32.380  27.157  1.00  0.00    -0.269 OA
BRANCH  23  26
ATOM     26  C   UNL A   1      34.250  30.962  27.647  1.00  0.00     0.039 A 
ATOM     27  C   UNL A   1      35.239  31.925  27.873  1.00  0.00     0.014 A 
ATOM     28  C   UNL A   1      34.444  29.652  28.093  1.00  0.00     0.014 A 
ATOM     29  C   UNL A   1      36.405  31.578  28.559  1.00  0.00     0.010 A 
ATOM     30  C   UNL A   1      35.563  29.331  28.857  1.00  0.00     0.010 A 
ATOM     31  C   UNL A   1      36.573  30.280  29.067  1.00  0.00    -0.014 A 
BRANCH  31  32
ATOM     32  C   UNL A   1      37.820  29.891  29.773  1.00  0.00     0.031 A 
ATOM     33  C   UNL A   1      38.101  30.414  31.158  1.00  0.00     0.074 A 
ATOM     34  C   UNL A   1      38.725  29.112  29.151  1.00  0.00     0.049 A 
ATOM     35  N   UNL A   1      39.128  30.183  31.935  1.00  0.00    -0.248 NA
ATOM     36  C   UNL A   1      37.113  31.340  31.739  1.00  0.00     0.031 C 
ATOM     37  C   UNL A   1      38.614  28.616  27.777  1.00  0.00     0.029 A 
ATOM     38  N   UNL A   1      39.927  28.612  29.587  1.00  0.00    -0.354 N 
ATOM     39  C   UNL A   1      38.930  30.960  33.071  1.00  0.00     0.074 A 
ATOM     40  C   UNL A   1      37.706  31.703  32.866  1.00  0.00     0.031 C 
ATOM     41  C   UNL A   1      39.694  27.872  27.489  1.00  0.00     0.029 A 
ATOM     42  C   UNL A   1      40.582  27.850  28.648  1.00  0.00     0.049 A 
ATOM     43  H   UNL A   1      40.286  28.783  30.487  1.00  0.00     0.167 HD
ATOM     44  C   UNL A   1      39.676  31.024  34.199  1.00  0.00     0.034 A 
ATOM     45  C   UNL A   1      41.758  27.198  28.719  1.00  0.00     0.034 A 
ATOM     46  C   UNL A   1      40.860  30.240  34.423  1.00  0.00     0.049 A 
ATOM     47  C   UNL A   1      42.525  27.217  30.014  1.00  0.00     0.074 A 
ATOM     48  C   UNL A   1      41.642  30.165  35.562  1.00  0.00     0.029 A 
ATOM     49  N   UNL A   1      41.432  29.391  33.488  1.00  0.00    -0.354 N 
ATOM     50  N   UNL A   1      42.235  27.828  31.137  1.00  0.00    -0.248 NA
ATOM     51  C   UNL A   1      43.755  26.414  30.068  1.00  0.00     0.031 C 
ATOM     52  C   UNL A   1      42.694  29.276  35.311  1.00  0.00     0.029 A 
ATOM     53  C   UNL A   1      42.553  28.782  34.024  1.00  0.00     0.049 A 
ATOM     54  H   UNL A   1      41.090  29.242  32.577  1.00  0.00     0.167 HD
ATOM     55  C   UNL A   1      43.217  27.449  32.043  1.00  0.00     0.074 A 
ATOM     56  C   UNL A   1      44.101  26.540  31.342  1.00  0.00     0.031 C 
ATOM     57  C   UNL A   1      43.383  27.829  33.335  1.00  0.00     0.034 A 
BRANCH  44  58
ATOM     58  C   UNL A   1      39.192  31.925  35.307  1.00  0.00     0.023 A 
ATOM     59  C   UNL A   1      38.236  31.444  36.225  1.00  0.00     0.012 A 
ATOM     60  C   UNL A   1      39.717  33.221  35.473  1.00  0.00     0.148 A 
ATOM     61  C   UNL A   1      37.777  32.252  37.265  1.00  0.00     0.002 A 
ATOM     62  C   UNL A   1      39.289  34.005  36.540  1.00  0.00     0.091 A 
ATOM     63  F   UNL A   1      40.610  33.671  34.580  1.00  0.00    -0.205 F 
ATOM     64  C   UNL A   1      38.312  33.527  37.428  1.00  0.00     0.022 A 
BRANCH  62  65
ATOM     65  S   UNL A   1      39.976  35.629  36.885  1.00  0.00     0.127 S 
ATOM     66  O   UNL A   1      39.286  35.983  38.124  1.00  0.00    -0.237 OA
ATOM     67  O   UNL A   1      41.401  35.333  37.044  1.00  0.00    -0.237 OA
ATOM     68  O   UNL A   1      39.654  36.454  35.730  1.00  0.00    -0.744 OA
ENDBRANCH  62  65
ENDBRANCH  44  58
BRANCH  45  69
ATOM     69  C   UNL A   1      42.232  26.390  27.559  1.00  0.00     0.023 A 
ATOM     70  C   UNL A   1      43.051  26.996  26.586  1.00  0.00     0.012 A 
ATOM     71  C   UNL A   1      41.904  25.027  27.429  1.00  0.00     0.148 A 
ATOM     72  C   UNL A   1      43.505  26.270  25.485  1.00  0.00     0.002 A 
ATOM     73  C   UNL A   1      42.404  24.295  26.357  1.00  0.00     0.091 A 
ATOM     74  F   UNL A   1      41.116  24.472  28.360  1.00  0.00    -0.205 F 
ATOM     75  C   UNL A   1      43.190  24.918  25.375  1.00  0.00     0.022 A 
BRANCH  73  76
ATOM     76  S   UNL A   1      42.157  22.523  26.208  1.00  0.00     0.127 S 
ATOM     77  O   UNL A   1      42.897  22.220  24.984  1.00  0.00    -0.237 OA
ATOM     78  O   UNL A   1      42.776  22.026  27.439  1.00  0.00    -0.237 OA
ATOM     79  O   UNL A   1      40.718  22.331  26.144  1.00  0.00    -0.744 OA
ENDBRANCH  73  76
ENDBRANCH  45  69
BRANCH  57  80
ATOM     80  C   UNL A   1      44.534  27.226  34.097  1.00  0.00     0.023 A 
ATOM     81  C   UNL A   1      45.781  27.881  34.122  1.00  0.00     0.012 A 
ATOM     82  C   UNL A   1      44.357  26.043  34.840  1.00  0.00     0.148 A 
ATOM     83  C   UNL A   1      46.847  27.345  34.845  1.00  0.00     0.002 A 
ATOM     84  C   UNL A   1      45.409  25.542  35.598  1.00  0.00     0.091 A 
ATOM     85  F   UNL A   1      43.170  25.422  34.787  1.00  0.00    -0.205 F 
ATOM     86  C   UNL A   1      46.658  26.183  35.590  1.00  0.00     0.022 A 
BRANCH  84  87
ATOM     87  S   UNL A   1      45.218  24.108  36.662  1.00  0.00     0.127 S 
ATOM     88  O   UNL A   1      46.603  23.818  37.027  1.00  0.00    -0.237 OA
ATOM     89  O   UNL A   1      44.398  24.634  37.755  1.00  0.00    -0.237 OA
ATOM     90  O   UNL A   1      44.554  23.098  35.849  1.00  0.00    -0.744 OA
ENDBRANCH  84  87
ENDBRANCH  57  80
ENDBRANCH  31  32
ENDBRANCH  23  26
ENDBRANCH  21  22
ENDBRANCH   1  21
TORSDOF 15
ENDMDL
MODEL 2
REMARK VINA RESULT:     -12.1      1.942      2.623
REMARK SMILES C[C@H](Cc1cccc2c1OC(C)(C)C2)C(=O)NCCCNC(=O)c1ccc(-c2c3nc(c(-c4cccc(S(=O)(=O)[O-])c4F)c4ccc([nH]4)c(-c4cccc(S(=O)(=O)[O-])c4F)c4nc(c(-c5cccc(S(=O)(=O)[O-])c5F)c5ccc2[nH]5)C=C4)C=C3)cc1
REMARK SMILES IDX 19 1 18 2 17 3 15 4 16 5 2 7 1 8 3 9 4 10 5 11 9 12 6 13
REMARK SMILES IDX 8 14 10 15 7 16 14 17 11 18 12 19 13 20 20 21 21 22 22 23
REMARK SMILES IDX 23 25 24 26 25 27 86 28 26 29 85 30 27 31 28 32 29 33 79 34
REMARK SMILES IDX 30 35 84 36 78 37 80 38 31 39 83 40 77 41 76 42 32 44 64 45
REMARK SMILES IDX 44 46 63 47 45 48 48 49 62 50 81 51 46 52 47 53 61 55 82 56
REMARK SMILES IDX 49 57 33 58 34 59 42 60 35 61 37 62 43 63 36 64 38 65 39 66
REMARK SMILES IDX 40 67 41 68 65 69 66 70 74 71 67 72 69 73 75 74 68 75 70 76
REMARK SMILES IDX 71 77 72 78 73 79 50 80 51 81 59 82 52 83 54 84 60 85 53 86
REMARK SMILES IDX 55 87 56 88 57 89 58 90
REMARK H PARENT 17 6 21 24 80 43 48 54
REMARK Flexibility Score: inf
ROOT
ATOM      1  C   UNL A   1      32.585  27.760  26.948  1.00  0.00     0.042 C 
ENDROOT
BRANCH   1   2
ATOM      2  C   UNL A   1      32.247  26.555  26.075  1.00  0.00     0.117 C 
BRANCH   2   3
ATOM      3  N   UNL A   1      31.346  25.629  26.739  1.00  0.00    -0.356 N 
ATOM      4  C   UNL A   1      30.932  24.378  26.393  1.00  0.00     0.223 C 
ATOM      5  O   UNL A   1      30.136  23.814  27.149  1.00  0.00    -0.275 OA
ATOM      6  H   UNL A   1      30.968  25.963  27.585  1.00  0.00     0.163 HD
BRANCH   4   7
ATOM      7  C   UNL A   1      31.469  23.663  25.158  1.00  0.00     0.080 C 
ATOM      8  C   UNL A   1      30.691  24.121  23.922  1.00  0.00     0.018 C 
BRANCH   7   9
ATOM      9  C   UNL A   1      31.620  22.149  25.400  1.00  0.00     0.052 C 
BRANCH   9  10
ATOM     10  C   UNL A   1      32.999  21.586  25.201  1.00  0.00    -0.005 A 
ATOM     11  C   UNL A   1      34.133  22.414  25.253  1.00  0.00     0.007 A 
ATOM     12  C   UNL A   1      33.215  20.244  24.941  1.00  0.00     0.126 A 
ATOM     13  C   UNL A   1      35.425  21.890  25.098  1.00  0.00     0.001 A 
ATOM     14  C   UNL A   1      34.490  19.723  24.777  1.00  0.00    -0.002 A 
ATOM     15  O   UNL A   1      32.222  19.308  24.811  1.00  0.00    -0.487 OA
ATOM     16  C   UNL A   1      35.612  20.528  24.867  1.00  0.00     0.008 A 
ATOM     17  C   UNL A   1      34.405  18.262  24.553  1.00  0.00     0.087 C 
ATOM     18  C   UNL A   1      32.889  18.121  24.298  1.00  0.00     0.108 C 
ATOM     19  C   UNL A   1      32.578  18.006  22.799  1.00  0.00     0.057 C 
ATOM     20  C   UNL A   1      32.308  16.920  25.044  1.00  0.00     0.057 C 
ENDBRANCH   9  10
ENDBRANCH   7   9
ENDBRANCH   4   7
ENDBRANCH   2   3
ENDBRANCH   1   2
BRANCH   1  21
ATOM     21  C   UNL A   1      33.777  28.566  26.451  1.00  0.00     0.118 C 
BRANCH  21  22
ATOM     22  N   UNL A   1      33.651  29.982  26.759  1.00  0.00    -0.352 N 
ATOM     23  C   UNL A   1      34.412  30.784  27.570  1.00  0.00     0.251 C 
ATOM     24  H   UNL A   1      32.900  30.437  26.314  1.00  0.00     0.163 HD
ATOM     25  O   UNL A   1      33.995  31.905  27.853  1.00  0.00    -0.269 OA
BRANCH  23  26
ATOM     26  C   UNL A   1      35.713  30.320  28.104  1.00  0.00     0.039 A 
ATOM     27  C   UNL A   1      36.855  30.474  27.311  1.00  0.00     0.014 A 
ATOM     28  C   UNL A   1      35.811  29.680  29.342  1.00  0.00     0.014 A 
ATOM     29  C   UNL A   1      38.088  30.005  27.769  1.00  0.00     0.010 A 
ATOM     30  C   UNL A   1      37.055  29.297  29.836  1.00  0.00     0.010 A 
ATOM     31  C   UNL A   1      38.202  29.422  29.041  1.00  0.00    -0.014 A 
BRANCH  31  32
ATOM     32  C   UNL A   1      39.502  28.894  29.526  1.00  0.00     0.031 A 
ATOM     33  C   UNL A   1      40.215  29.569  30.670  1.00  0.00     0.074 A 
ATOM     34  C   UNL A   1      40.069  27.840  28.908  1.00  0.00     0.049 A 
ATOM     35  N   UNL A   1      41.351  29.254  31.236  1.00  0.00    -0.248 NA
ATOM     36  C   UNL A   1      39.584  30.776  31.235  1.00  0.00     0.031 C 
ATOM     37  C   UNL A   1      39.525  27.155  27.733  1.00  0.00     0.029 A 
ATOM     38  N   UNL A   1      41.237  27.170  29.171  1.00  0.00    -0.354 N 
ATOM     39  C   UNL A   1      41.588  30.236  32.190  1.00  0.00     0.074 A 
ATOM     40  C   UNL A   1      40.500  31.185  32.099  1.00  0.00     0.031 C 
ATOM     41  C   UNL A   1      40.350  26.154  27.386  1.00  0.00     0.029 A 
ATOM     42  C   UNL A   1      41.488  26.134  28.301  1.00  0.00     0.049 A 
ATOM     43  H   UNL A   1      41.839  27.408  29.912  1.00  0.00     0.167 HD
ATOM     44  C   UNL A   1      42.598  30.326  33.088  1.00  0.00     0.034 A 
ATOM     45  C   UNL A   1      42.513  25.261  28.255  1.00  0.00     0.034 A 
ATOM     46  C   UNL A   1      43.646  29.350  33.215  1.00  0.00     0.049 A 
ATOM     47  C   UNL A   1      43.577  25.331  29.317  1.00  0.00     0.074 A 
ATOM     48  C   UNL A   1      44.669  29.299  34.145  1.00  0.00     0.029 A 
ATOM     49  N   UNL A   1      43.804  28.250  32.386  1.00  0.00    -0.354 N 
ATOM     50  N   UNL A   1      43.694  26.173  30.315  1.00  0.00    -0.248 NA
ATOM     51  C   UNL A   1      44.622  24.298  29.277  1.00  0.00     0.031 C 
ATOM     52  C   UNL A   1      45.452  28.171  33.872  1.00  0.00     0.029 A 
ATOM     53  C   UNL A   1      44.903  27.509  32.786  1.00  0.00     0.049 A 
ATOM     54  H   UNL A   1      43.219  28.028  31.625  1.00  0.00     0.167 HD
ATOM     55  C   UNL A   1      44.796  25.746  31.046  1.00  0.00     0.074 A 
ATOM     56  C   UNL A   1      45.300  24.560  30.386  1.00  0.00     0.031 C 
ATOM     57  C   UNL A   1      45.351  26.294  32.156  1.00  0.00     0.034 A 
BRANCH  44  58
ATOM     58  C   UNL A   1      42.578  31.486  34.051  1.00  0.00     0.023 A 
ATOM     59  C   UNL A   1      43.208  32.695  33.692  1.00  0.00     0.012 A 
ATOM     60  C   UNL A   1      41.897  31.401  35.280  1.00  0.00     0.148 A 
ATOM     61  C   UNL A   1      43.197  33.789  34.558  1.00  0.00     0.002 A 
ATOM     62  C   UNL A   1      41.851  32.509  36.119  1.00  0.00     0.091 A 
ATOM     63  F   UNL A   1      41.322  30.237  35.616  1.00  0.00    -0.205 F 
ATOM     64  C   UNL A   1      42.510  33.698  35.766  1.00  0.00     0.022 A 
BRANCH  62  65
ATOM     65  S   UNL A   1      40.924  32.522  37.658  1.00  0.00     0.127 S 
ATOM     66  O   UNL A   1      39.688  31.848  37.263  1.00  0.00    -0.237 OA
ATOM     67  O   UNL A   1      41.788  31.739  38.544  1.00  0.00    -0.237 OA
ATOM     68  O   UNL A   1      40.785  33.922  38.031  1.00  0.00    -0.744 OA
ENDBRANCH  62  65
ENDBRANCH  44  58
BRANCH  45  69
ATOM     69  C   UNL A   1      42.526  24.184  27.225  1.00  0.00     0.023 A 
ATOM     70  C   UNL A   1      43.422  24.278  26.142  1.00  0.00     0.012 A 
ATOM     71  C   UNL A   1      41.684  23.060  27.325  1.00  0.00     0.148 A 
ATOM     72  C   UNL A   1      43.455  23.290  25.157  1.00  0.00     0.002 A 
ATOM     73  C   UNL A   1      41.760  22.052  26.369  1.00  0.00     0.091 A 
ATOM     74  F   UNL A   1      40.832  22.994  28.358  1.00  0.00    -0.205 F 
ATOM     75  C   UNL A   1      42.631  22.174  25.275  1.00  0.00     0.022 A 
BRANCH  73  76
ATOM     76  S   UNL A   1      40.832  20.522  26.513  1.00  0.00     0.127 S 
ATOM     77  O   UNL A   1      39.497  20.940  26.090  1.00  0.00    -0.237 OA
ATOM     78  O   UNL A   1      41.533  19.652  25.566  1.00  0.00    -0.237 OA
ATOM     79  O   UNL A   1      40.959  20.115  27.904  1.00  0.00    -0.744 OA
ENDBRANCH  73  76
ENDBRANCH  45  69
BRANCH  57  80
ATOM     80  C   UNL A   1      46.537  25.591  32.764  1.00  0.00     0.023 A 
ATOM     81  C   UNL A   1      47.843  25.999  32.429  1.00  0.00     0.012 A 
ATOM     82  C   UNL A   1      46.352  24.569  33.715  1.00  0.00     0.148 A 
ATOM     83  C   UNL A   1      48.949  25.372  33.004  1.00  0.00     0.002 A 
ATOM     84  C   UNL A   1      47.458  23.983  34.320  1.00  0.00     0.091 A 
ATOM     85  F   UNL A   1      45.103  24.179  34.005  1.00  0.00    -0.205 F 
ATOM     86  C   UNL A   1      48.756  24.373  33.955  1.00  0.00     0.022 A 
BRANCH  84  87
ATOM     87  S   UNL A   1      47.293  22.762  35.626  1.00  0.00     0.127 S 
ATOM     88  O   UNL A   1      46.173  23.297  36.398  1.00  0.00    -0.237 OA
ATOM     89  O   UNL A   1      46.988  21.540  34.878  1.00  0.00    -0.237 OA
ATOM     90  O   UNL A   1      48.579  22.739  36.310  1.00  0.00    -0.744 OA
ENDBRANCH  84  87
ENDBRANCH  57  80
ENDBRANCH  31  32
ENDBRANCH  23  26
ENDBRANCH  21  22
ENDBRANCH   1  21
TORSDOF 15
ENDMDL
MODEL 3
REMARK VINA RESULT:     -12.0      4.554      7.707
REMARK SMILES C[C@H](Cc1cccc2c1OC(C)(C)C2)C(=O)NCCCNC(=O)c1ccc(-c2c3nc(c(-c4cccc(S(=O)(=O)[O-])c4F)c4ccc([nH]4)c(-c4cccc(S(=O)(=O)[O-])c4F)c4nc(c(-c5cccc(S(=O)(=O)[O-])c5F)c5ccc2[nH]5)C=C4)C=C3)cc1
REMARK SMILES IDX 19 1 18 2 17 3 15 4 16 5 2 7 1 8 3 9 4 10 5 11 9 12 6 13
REMARK SMILES IDX 8 14 10 15 7 16 14 17 11 18 12 19 13 20 20 21 21 22 22 23
REMARK SMILES IDX 23 25 24 26 25 27 86 28 26 29 85 30 27 31 28 32 29 33 79 34
REMARK SMILES IDX 30 35 84 36 78 37 80 38 31 39 83 40 77 41 76 42 32 44 64 45
REMARK SMILES IDX 44 46 63 47 45 48 48 49 62 50 81 51 46 52 47 53 61 55 82 56
REMARK SMILES IDX 49 57 33 58 34 59 42 60 35 61 37 62 43 63 36 64 38 65 39 66
REMARK SMILES IDX 40 67 41 68 65 69 66 70 74 71 67 72 69 73 75 74 68 75 70 76
REMARK SMILES IDX 71 77 72 78 73 79 50 80 51 81 59 82 52 83 54 84 60 85 53 86
REMARK SMILES IDX 55 87 56 88 57 89 58 90
REMARK H PARENT 17 6 21 24 80 43 48 54
REMARK Flexibility Score: inf
ROOT
ATOM      1  C   UNL A   1      34.839  34.946  29.061  1.00  0.00     0.042 C 
ENDROOT
BRANCH   1   2
ATOM      2  C   UNL A   1      33.524  35.685  28.839  1.00  0.00     0.117 C 
BRANCH   2   3
ATOM      3  N   UNL A   1      33.396  36.854  29.692  1.00  0.00    -0.356 N 
ATOM      4  C   UNL A   1      33.157  36.966  31.028  1.00  0.00     0.223 C 
ATOM      5  O   UNL A   1      33.084  38.105  31.497  1.00  0.00    -0.275 OA
ATOM      6  H   UNL A   1      33.501  37.713  29.223  1.00  0.00     0.163 HD
BRANCH   4   7
ATOM      7  C   UNL A   1      33.046  35.745  31.933  1.00  0.00     0.080 C 
ATOM      8  C   UNL A   1      31.685  35.750  32.635  1.00  0.00     0.018 C 
BRANCH   7   9
ATOM      9  C   UNL A   1      34.307  35.563  32.799  1.00  0.00     0.052 C 
BRANCH   9  10
ATOM     10  C   UNL A   1      34.967  34.216  32.725  1.00  0.00    -0.005 A 
ATOM     11  C   UNL A   1      34.466  33.211  31.881  1.00  0.00     0.007 A 
ATOM     12  C   UNL A   1      36.075  33.896  33.489  1.00  0.00     0.126 A 
ATOM     13  C   UNL A   1      35.095  31.960  31.784  1.00  0.00     0.001 A 
ATOM     14  C   UNL A   1      36.695  32.658  33.405  1.00  0.00    -0.002 A 
ATOM     15  O   UNL A   1      36.663  34.739  34.396  1.00  0.00    -0.487 OA
ATOM     16  C   UNL A   1      36.228  31.679  32.545  1.00  0.00     0.008 A 
ATOM     17  C   UNL A   1      37.869  32.627  34.306  1.00  0.00     0.087 C 
ATOM     18  C   UNL A   1      37.606  33.908  35.127  1.00  0.00     0.108 C 
ATOM     19  C   UNL A   1      36.997  33.582  36.499  1.00  0.00     0.057 C 
ATOM     20  C   UNL A   1      38.885  34.726  35.306  1.00  0.00     0.057 C 
ENDBRANCH   9  10
ENDBRANCH   7   9
ENDBRANCH   4   7
ENDBRANCH   2   3
ENDBRANCH   1   2
BRANCH   1  21
ATOM     21  C   UNL A   1      35.177  33.944  27.965  1.00  0.00     0.118 C 
BRANCH  21  22
ATOM     22  N   UNL A   1      34.252  32.822  27.940  1.00  0.00    -0.352 N 
ATOM     23  C   UNL A   1      34.491  31.474  28.020  1.00  0.00     0.251 C 
ATOM     24  H   UNL A   1      33.303  33.069  27.853  1.00  0.00     0.163 HD
ATOM     25  O   UNL A   1      33.577  30.694  27.762  1.00  0.00    -0.269 OA
BRANCH  23  26
ATOM     26  C   UNL A   1      35.822  30.953  28.408  1.00  0.00     0.039 A 
ATOM     27  C   UNL A   1      35.933  29.609  28.776  1.00  0.00     0.014 A 
ATOM     28  C   UNL A   1      36.943  31.785  28.476  1.00  0.00     0.014 A 
ATOM     29  C   UNL A   1      37.166  29.100  29.190  1.00  0.00     0.010 A 
ATOM     30  C   UNL A   1      38.190  31.254  28.799  1.00  0.00     0.010 A 
ATOM     31  C   UNL A   1      38.309  29.915  29.195  1.00  0.00    -0.014 A 
BRANCH  31  32
ATOM     32  C   UNL A   1      39.618  29.393  29.660  1.00  0.00     0.031 A 
ATOM     33  C   UNL A   1      40.323  30.043  30.823  1.00  0.00     0.074 A 
ATOM     34  C   UNL A   1      40.201  28.370  29.006  1.00  0.00     0.049 A 
ATOM     35  N   UNL A   1      41.466  29.728  31.376  1.00  0.00    -0.248 NA
ATOM     36  C   UNL A   1      39.674  31.219  31.429  1.00  0.00     0.031 C 
ATOM     37  C   UNL A   1      39.665  27.714  27.811  1.00  0.00     0.029 A 
ATOM     38  N   UNL A   1      41.380  27.710  29.245  1.00  0.00    -0.354 N 
ATOM     39  C   UNL A   1      41.689  30.682  32.361  1.00  0.00     0.074 A 
ATOM     40  C   UNL A   1      40.586  31.615  32.304  1.00  0.00     0.031 C 
ATOM     41  C   UNL A   1      40.505  26.738  27.430  1.00  0.00     0.029 A 
ATOM     42  C   UNL A   1      41.646  26.708  28.341  1.00  0.00     0.049 A 
ATOM     43  H   UNL A   1      41.980  27.934  29.993  1.00  0.00     0.167 HD
ATOM     44  C   UNL A   1      42.700  30.759  33.260  1.00  0.00     0.034 A 
ATOM     45  C   UNL A   1      42.685  25.854  28.265  1.00  0.00     0.034 A 
ATOM     46  C   UNL A   1      43.764  29.798  33.352  1.00  0.00     0.049 A 
ATOM     47  C   UNL A   1      43.751  25.906  29.326  1.00  0.00     0.074 A 
ATOM     48  C   UNL A   1      44.791  29.733  34.278  1.00  0.00     0.029 A 
ATOM     49  N   UNL A   1      43.938  28.727  32.488  1.00  0.00    -0.354 N 
ATOM     50  N   UNL A   1      43.857  26.717  30.351  1.00  0.00    -0.248 NA
ATOM     51  C   UNL A   1      44.813  24.893  29.250  1.00  0.00     0.031 C 
ATOM     52  C   UNL A   1      45.591  28.628  33.967  1.00  0.00     0.029 A 
ATOM     53  C   UNL A   1      45.050  27.993  32.861  1.00  0.00     0.049 A 
ATOM     54  H   UNL A   1      43.355  28.520  31.722  1.00  0.00     0.167 HD
ATOM     55  C   UNL A   1      44.968  26.286  31.065  1.00  0.00     0.074 A 
ATOM     56  C   UNL A   1      45.489  25.129  30.365  1.00  0.00     0.031 C 
ATOM     57  C   UNL A   1      45.517  26.806  32.192  1.00  0.00     0.034 A 
BRANCH  44  58
ATOM     58  C   UNL A   1      42.664  31.887  34.260  1.00  0.00     0.023 A 
ATOM     59  C   UNL A   1      43.149  33.158  33.890  1.00  0.00     0.012 A 
ATOM     60  C   UNL A   1      42.106  31.708  35.540  1.00  0.00     0.148 A 
ATOM     61  C   UNL A   1      43.120  34.223  34.790  1.00  0.00     0.002 A 
ATOM     62  C   UNL A   1      42.037  32.785  36.417  1.00  0.00     0.091 A 
ATOM     63  F   UNL A   1      41.668  30.488  35.884  1.00  0.00    -0.205 F 
ATOM     64  C   UNL A   1      42.554  34.038  36.049  1.00  0.00     0.022 A 
BRANCH  62  65
ATOM     65  S   UNL A   1      41.254  32.672  38.031  1.00  0.00     0.127 S 
ATOM     66  O   UNL A   1      39.922  32.185  37.678  1.00  0.00    -0.237 OA
ATOM     67  O   UNL A   1      42.100  31.692  38.715  1.00  0.00    -0.237 OA
ATOM     68  O   UNL A   1      41.304  34.013  38.595  1.00  0.00    -0.744 OA
ENDBRANCH  62  65
ENDBRANCH  44  58
BRANCH  45  69
ATOM     69  C   UNL A   1      42.713  24.811  27.200  1.00  0.00     0.023 A 
ATOM     70  C   UNL A   1      43.398  25.073  25.998  1.00  0.00     0.012 A 
ATOM     71  C   UNL A   1      42.095  23.559  27.380  1.00  0.00     0.148 A 
ATOM     72  C   UNL A   1      43.438  24.121  24.978  1.00  0.00     0.002 A 
ATOM     73  C   UNL A   1      42.185  22.594  26.382  1.00  0.00     0.091 A 
ATOM     74  F   UNL A   1      41.441  23.332  28.528  1.00  0.00    -0.205 F 
ATOM     75  C   UNL A   1      42.839  22.879  25.174  1.00  0.00     0.022 A 
BRANCH  73  76
ATOM     76  S   UNL A   1      41.558  20.926  26.602  1.00  0.00     0.127 S 
ATOM     77  O   UNL A   1      40.114  21.133  26.503  1.00  0.00    -0.237 OA
ATOM     78  O   UNL A   1      42.157  20.225  25.465  1.00  0.00    -0.237 OA
ATOM     79  O   UNL A   1      42.050  20.489  27.899  1.00  0.00    -0.744 OA
ENDBRANCH  73  76
ENDBRANCH  45  69
BRANCH  57  80
ATOM     80  C   UNL A   1      46.715  26.104  32.773  1.00  0.00     0.023 A 
ATOM     81  C   UNL A   1      46.548  25.184  33.828  1.00  0.00     0.012 A 
ATOM     82  C   UNL A   1      47.998  26.309  32.230  1.00  0.00     0.148 A 
ATOM     83  C   UNL A   1      47.647  24.508  34.358  1.00  0.00     0.002 A 
ATOM     84  C   UNL A   1      49.081  25.595  32.731  1.00  0.00     0.091 A 
ATOM     85  F   UNL A   1      48.142  27.204  31.242  1.00  0.00    -0.205 F 
ATOM     86  C   UNL A   1      48.910  24.706  33.803  1.00  0.00     0.022 A 
BRANCH  84  87
ATOM     87  S   UNL A   1      50.719  25.718  32.006  1.00  0.00     0.127 S 
ATOM     88  O   UNL A   1      50.932  27.164  31.991  1.00  0.00    -0.237 OA
ATOM     89  O   UNL A   1      51.546  24.991  32.971  1.00  0.00    -0.237 OA
ATOM     90  O   UNL A   1      50.622  25.080  30.700  1.00  0.00    -0.744 OA
ENDBRANCH  84  87
ENDBRANCH  57  80
ENDBRANCH  31  32
ENDBRANCH  23  26
ENDBRANCH  21  22
ENDBRANCH   1  21
TORSDOF 15
ENDMDL
