MODEL 1
REMARK VINA RESULT:     -11.6      0.000      0.000
REMARK SMILES C[C@H](NC(=O)c1cc(S(=O)(=O)N(C)C)cs1)C(=O)NCCCNC(=O)c1ccc(-c2c3nc(c(-c4cccc(S(=O)(=O)[O-])c4F)c4ccc([nH]4)c(-c4cccc(S(=O)(=O)[O-])c4F)c4nc(c(-c5cccc(S(=O)(=O)[O-])c5F)c5ccc2[nH]5)C=C4)C=C3)cc1
REMARK SMILES IDX 20 1 19 2 17 3 18 4 2 6 1 7 3 8 4 9 5 11 6 12 7 13 16 14
REMARK SMILES IDX 8 15 15 16 9 17 10 18 11 19 12 20 13 21 14 22 21 23 22 24
REMARK SMILES IDX 23 25 24 26 25 28 26 29 27 30 88 31 28 32 87 33 29 34 30 35
REMARK SMILES IDX 31 36 81 37 32 38 86 39 80 40 82 41 33 42 85 43 79 44 78 45
REMARK SMILES IDX 34 47 66 48 46 49 65 50 47 51 50 52 64 53 83 54 48 55 49 56
REMARK SMILES IDX 63 58 84 59 51 60 35 61 36 62 44 63 37 64 39 65 45 66 38 67
REMARK SMILES IDX 40 68 41 69 42 70 43 71 67 72 68 73 76 74 69 75 71 76 77 77
REMARK SMILES IDX 70 78 72 79 73 80 74 81 75 82 52 83 53 84 61 85 54 86 56 87
REMARK SMILES IDX 62 88 55 89 57 90 58 91 59 92 60 93
REMARK H PARENT 19 5 3 10 23 27 82 46 50 57
REMARK Flexibility Score: inf
ROOT
ATOM      1  C   UNL A   1      34.818  22.713  23.991  1.00  0.00     0.117 C 
ENDROOT
BRANCH   1   2
ATOM      2  N   UNL A   1      33.835  21.646  24.064  1.00  0.00    -0.354 N 
ATOM      3  C   UNL A   1      32.936  21.351  25.044  1.00  0.00     0.242 C 
ATOM      4  O   UNL A   1      32.075  20.499  24.809  1.00  0.00    -0.273 OA
ATOM      5  H   UNL A   1      33.814  21.044  23.284  1.00  0.00     0.163 HD
BRANCH   3   6
ATOM      6  C   UNL A   1      32.927  22.137  26.365  1.00  0.00     0.168 C 
ATOM      7  C   UNL A   1      33.943  21.520  27.329  1.00  0.00     0.041 C 
BRANCH   6   8
ATOM      8  N   UNL A   1      31.562  22.232  26.892  1.00  0.00    -0.340 N 
ATOM      9  C   UNL A   1      30.640  23.247  26.821  1.00  0.00     0.262 C 
ATOM     10  H   UNL A   1      31.254  21.434  27.378  1.00  0.00     0.164 HD
ATOM     11  O   UNL A   1      29.589  23.106  27.443  1.00  0.00    -0.268 OA
BRANCH   9  12
ATOM     12  C   UNL A   1      30.964  24.425  26.045  1.00  0.00     0.093 A 
ATOM     13  C   UNL A   1      31.441  25.648  26.471  1.00  0.00     0.047 A 
ATOM     14  S   UNL A   1      30.757  24.396  24.343  1.00  0.00    -0.137 S 
ATOM     15  C   UNL A   1      31.460  26.611  25.425  1.00  0.00     0.094 A 
ATOM     16  C   UNL A   1      31.123  26.063  24.206  1.00  0.00     0.087 A 
BRANCH  15  17
ATOM     17  S   UNL A   1      31.767  28.296  25.673  1.00  0.00     0.243 S 
ATOM     18  O   UNL A   1      31.014  28.963  24.635  1.00  0.00    -0.207 OA
ATOM     19  O   UNL A   1      31.470  28.474  27.077  1.00  0.00    -0.207 OA
BRANCH  17  20
ATOM     20  N   UNL A   1      33.430  28.591  25.426  1.00  0.00    -0.204 NA
ATOM     21  C   UNL A   1      33.820  28.860  24.025  1.00  0.00     0.124 C 
ATOM     22  C   UNL A   1      34.008  29.579  26.360  1.00  0.00     0.124 C 
ENDBRANCH  17  20
ENDBRANCH  15  17
ENDBRANCH   9  12
ENDBRANCH   6   8
ENDBRANCH   3   6
ENDBRANCH   1   2
BRANCH   1  23
ATOM     23  C   UNL A   1      36.244  22.192  24.077  1.00  0.00     0.042 C 
BRANCH  23  24
ATOM     24  C   UNL A   1      36.833  22.219  25.480  1.00  0.00     0.118 C 
BRANCH  24  25
ATOM     25  N   UNL A   1      37.828  21.176  25.699  1.00  0.00    -0.352 N 
ATOM     26  C   UNL A   1      39.124  21.300  26.139  1.00  0.00     0.251 C 
ATOM     27  H   UNL A   1      37.531  20.258  25.506  1.00  0.00     0.163 HD
ATOM     28  O   UNL A   1      39.874  20.329  26.123  1.00  0.00    -0.269 OA
BRANCH  26  29
ATOM     29  C   UNL A   1      39.610  22.614  26.609  1.00  0.00     0.039 A 
ATOM     30  C   UNL A   1      40.668  22.663  27.519  1.00  0.00     0.014 A 
ATOM     31  C   UNL A   1      39.033  23.792  26.128  1.00  0.00     0.014 A 
ATOM     32  C   UNL A   1      41.194  23.900  27.897  1.00  0.00     0.010 A 
ATOM     33  C   UNL A   1      39.605  25.017  26.448  1.00  0.00     0.010 A 
ATOM     34  C   UNL A   1      40.687  25.083  27.338  1.00  0.00    -0.014 A 
BRANCH  34  35
ATOM     35  C   UNL A   1      41.257  26.412  27.669  1.00  0.00     0.031 A 
ATOM     36  C   UNL A   1      42.676  26.730  27.285  1.00  0.00     0.074 A 
ATOM     37  C   UNL A   1      40.544  27.279  28.414  1.00  0.00     0.049 A 
ATOM     38  N   UNL A   1      43.401  27.771  27.596  1.00  0.00    -0.248 NA
ATOM     39  C   UNL A   1      43.386  25.725  26.475  1.00  0.00     0.031 C 
ATOM     40  C   UNL A   1      39.188  27.050  28.919  1.00  0.00     0.029 A 
ATOM     41  N   UNL A   1      40.876  28.517  28.906  1.00  0.00    -0.354 N 
ATOM     42  C   UNL A   1      44.663  27.523  27.072  1.00  0.00     0.074 A 
ATOM     43  C   UNL A   1      44.612  26.224  26.438  1.00  0.00     0.031 C 
ATOM     44  C   UNL A   1      38.806  28.111  29.648  1.00  0.00     0.029 A 
ATOM     45  C   UNL A   1      39.893  29.085  29.682  1.00  0.00     0.049 A 
ATOM     46  H   UNL A   1      41.738  28.956  28.721  1.00  0.00     0.167 HD
ATOM     47  C   UNL A   1      45.759  28.318  27.088  1.00  0.00     0.034 A 
ATOM     48  C   UNL A   1      39.872  30.258  30.343  1.00  0.00     0.034 A 
ATOM     49  C   UNL A   1      45.780  29.644  27.640  1.00  0.00     0.049 A 
ATOM     50  C   UNL A   1      41.067  31.166  30.259  1.00  0.00     0.074 A 
ATOM     51  C   UNL A   1      46.808  30.569  27.616  1.00  0.00     0.029 A 
ATOM     52  N   UNL A   1      44.717  30.239  28.300  1.00  0.00    -0.354 N 
ATOM     53  N   UNL A   1      42.202  30.976  29.630  1.00  0.00    -0.248 NA
ATOM     54  C   UNL A   1      40.968  32.465  30.941  1.00  0.00     0.031 C 
ATOM     55  C   UNL A   1      46.360  31.732  28.254  1.00  0.00     0.029 A 
ATOM     56  C   UNL A   1      45.057  31.525  28.680  1.00  0.00     0.049 A 
ATOM     57  H   UNL A   1      43.848  29.811  28.473  1.00  0.00     0.167 HD
ATOM     58  C   UNL A   1      42.940  32.138  29.816  1.00  0.00     0.074 A 
ATOM     59  C   UNL A   1      42.116  33.037  30.600  1.00  0.00     0.031 C 
ATOM     60  C   UNL A   1      44.196  32.429  29.397  1.00  0.00     0.034 A 
BRANCH  47  61
ATOM     61  C   UNL A   1      46.999  27.803  26.412  1.00  0.00     0.023 A 
ATOM     62  C   UNL A   1      47.960  27.114  27.178  1.00  0.00     0.012 A 
ATOM     63  C   UNL A   1      47.199  27.962  25.028  1.00  0.00     0.148 A 
ATOM     64  C   UNL A   1      49.117  26.615  26.582  1.00  0.00     0.002 A 
ATOM     65  C   UNL A   1      48.340  27.430  24.435  1.00  0.00     0.091 A 
ATOM     66  F   UNL A   1      46.290  28.648  24.321  1.00  0.00    -0.205 F 
ATOM     67  C   UNL A   1      49.302  26.765  25.211  1.00  0.00     0.022 A 
BRANCH  65  68
ATOM     68  S   UNL A   1      48.624  27.525  22.663  1.00  0.00     0.127 S 
ATOM     69  O   UNL A   1      49.927  28.184  22.605  1.00  0.00    -0.237 OA
ATOM     70  O   UNL A   1      48.638  26.114  22.269  1.00  0.00    -0.237 OA
ATOM     71  O   UNL A   1      47.502  28.284  22.128  1.00  0.00    -0.744 OA
ENDBRANCH  65  68
ENDBRANCH  47  61
BRANCH  48  72
ATOM     72  C   UNL A   1      38.636  30.679  31.061  1.00  0.00     0.023 A 
ATOM     73  C   UNL A   1      38.541  30.445  32.447  1.00  0.00     0.012 A 
ATOM     74  C   UNL A   1      37.585  31.343  30.402  1.00  0.00     0.148 A 
ATOM     75  C   UNL A   1      37.411  30.846  33.160  1.00  0.00     0.002 A 
ATOM     76  C   UNL A   1      36.482  31.781  31.128  1.00  0.00     0.091 A 
ATOM     77  F   UNL A   1      37.683  31.541  29.080  1.00  0.00    -0.205 F 
ATOM     78  C   UNL A   1      36.387  31.524  32.505  1.00  0.00     0.022 A 
BRANCH  76  79
ATOM     79  S   UNL A   1      35.187  32.771  30.372  1.00  0.00     0.127 S 
ATOM     80  O   UNL A   1      34.762  31.918  29.267  1.00  0.00    -0.237 OA
ATOM     81  O   UNL A   1      34.215  32.900  31.460  1.00  0.00    -0.237 OA
ATOM     82  O   UNL A   1      35.836  34.024  30.005  1.00  0.00    -0.744 OA
ENDBRANCH  76  79
ENDBRANCH  48  72
BRANCH  60  83
ATOM     83  C   UNL A   1      44.756  33.778  29.752  1.00  0.00     0.023 A 
ATOM     84  C   UNL A   1      45.501  33.924  30.938  1.00  0.00     0.012 A 
ATOM     85  C   UNL A   1      44.624  34.870  28.875  1.00  0.00     0.148 A 
ATOM     86  C   UNL A   1      46.094  35.144  31.253  1.00  0.00     0.002 A 
ATOM     87  C   UNL A   1      45.248  36.075  29.179  1.00  0.00     0.091 A 
ATOM     88  F   UNL A   1      43.889  34.719  27.763  1.00  0.00    -0.205 F 
ATOM     89  C   UNL A   1      45.979  36.216  30.370  1.00  0.00     0.022 A 
BRANCH  87  90
ATOM     90  S   UNL A   1      45.212  37.469  28.046  1.00  0.00     0.127 S 
ATOM     91  O   UNL A   1      45.833  36.901  26.851  1.00  0.00    -0.237 OA
ATOM     92  O   UNL A   1      43.778  37.740  27.917  1.00  0.00    -0.237 OA
ATOM     93  O   UNL A   1      45.961  38.527  28.710  1.00  0.00    -0.744 OA
ENDBRANCH  87  90
ENDBRANCH  60  83
ENDBRANCH  34  35
ENDBRANCH  26  29
ENDBRANCH  24  25
ENDBRANCH  23  24
ENDBRANCH   1  23
TORSDOF 17
ENDMDL
MODEL 2
REMARK VINA RESULT:     -11.4      5.981      9.001
REMARK SMILES C[C@H](NC(=O)c1cc(S(=O)(=O)N(C)C)cs1)C(=O)NCCCNC(=O)c1ccc(-c2c3nc(c(-c4cccc(S(=O)(=O)[O-])c4F)c4ccc([nH]4)c(-c4cccc(S(=O)(=O)[O-])c4F)c4nc(c(-c5cccc(S(=O)(=O)[O-])c5F)c5ccc2[nH]5)C=C4)C=C3)cc1
REMARK SMILES IDX 20 1 19 2 17 3 18 4 2 6 1 7 3 8 4 9 5 11 6 12 7 13 16 14
REMARK SMILES IDX 8 15 15 16 9 17 10 18 11 19 12 20 13 21 14 22 21 23 22 24
REMARK SMILES IDX 23 25 24 26 25 28 26 29 27 30 88 31 28 32 87 33 29 34 30 35
REMARK SMILES IDX 31 36 81 37 32 38 86 39 80 40 82 41 33 42 85 43 79 44 78 45
REMARK SMILES IDX 34 47 66 48 46 49 65 50 47 51 50 52 64 53 83 54 48 55 49 56
REMARK SMILES IDX 63 58 84 59 51 60 35 61 36 62 44 63 37 64 39 65 45 66 38 67
REMARK SMILES IDX 40 68 41 69 42 70 43 71 67 72 68 73 76 74 69 75 71 76 77 77
REMARK SMILES IDX 70 78 72 79 73 80 74 81 75 82 52 83 53 84 61 85 54 86 56 87
REMARK SMILES IDX 62 88 55 89 57 90 58 91 59 92 60 93
REMARK H PARENT 19 5 3 10 23 27 82 46 50 57
REMARK Flexibility Score: inf
ROOT
ATOM      1  C   UNL A   1      31.425  31.414  26.675  1.00  0.00     0.117 C 
ENDROOT
BRANCH   1   2
ATOM      2  N   UNL A   1      32.667  30.663  26.589  1.00  0.00    -0.354 N 
ATOM      3  C   UNL A   1      32.871  29.319  26.494  1.00  0.00     0.242 C 
ATOM      4  O   UNL A   1      34.012  28.918  26.253  1.00  0.00    -0.273 OA
ATOM      5  H   UNL A   1      33.486  31.209  26.600  1.00  0.00     0.163 HD
BRANCH   3   6
ATOM      6  C   UNL A   1      31.691  28.338  26.575  1.00  0.00     0.168 C 
ATOM      7  C   UNL A   1      31.387  28.030  28.043  1.00  0.00     0.041 C 
BRANCH   6   8
ATOM      8  N   UNL A   1      31.951  27.158  25.743  1.00  0.00    -0.340 N 
ATOM      9  C   UNL A   1      31.666  26.908  24.424  1.00  0.00     0.262 C 
ATOM     10  H   UNL A   1      32.407  26.421  26.210  1.00  0.00     0.164 HD
ATOM     11  O   UNL A   1      31.907  25.782  23.993  1.00  0.00    -0.268 OA
BRANCH   9  12
ATOM     12  C   UNL A   1      31.082  27.966  23.629  1.00  0.00     0.093 A 
ATOM     13  C   UNL A   1      29.805  28.488  23.672  1.00  0.00     0.047 A 
ATOM     14  S   UNL A   1      32.032  28.743  22.431  1.00  0.00    -0.137 S 
ATOM     15  C   UNL A   1      29.559  29.394  22.604  1.00  0.00     0.094 A 
ATOM     16  C   UNL A   1      30.689  29.636  21.855  1.00  0.00     0.087 A 
BRANCH  15  17
ATOM     17  S   UNL A   1      27.996  30.033  22.225  1.00  0.00     0.243 S 
ATOM     18  O   UNL A   1      27.883  29.902  20.790  1.00  0.00    -0.207 OA
ATOM     19  O   UNL A   1      27.127  29.321  23.135  1.00  0.00    -0.207 OA
BRANCH  17  20
ATOM     20  N   UNL A   1      27.969  31.690  22.632  1.00  0.00    -0.204 NA
ATOM     21  C   UNL A   1      28.875  32.082  23.733  1.00  0.00     0.124 C 
ATOM     22  C   UNL A   1      28.088  32.595  21.470  1.00  0.00     0.124 C 
ENDBRANCH  17  20
ENDBRANCH  15  17
ENDBRANCH   9  12
ENDBRANCH   6   8
ENDBRANCH   3   6
ENDBRANCH   1   2
BRANCH   1  23
ATOM     23  C   UNL A   1      31.652  32.916  26.595  1.00  0.00     0.042 C 
BRANCH  23  24
ATOM     24  C   UNL A   1      32.857  33.406  27.386  1.00  0.00     0.118 C 
BRANCH  24  25
ATOM     25  N   UNL A   1      32.607  34.665  28.078  1.00  0.00    -0.352 N 
ATOM     26  C   UNL A   1      33.199  35.154  29.218  1.00  0.00     0.251 C 
ATOM     27  H   UNL A   1      31.922  35.244  27.673  1.00  0.00     0.163 HD
ATOM     28  O   UNL A   1      32.761  36.169  29.752  1.00  0.00    -0.269 OA
BRANCH  26  29
ATOM     29  C   UNL A   1      34.349  34.436  29.806  1.00  0.00     0.039 A 
ATOM     30  C   UNL A   1      35.593  34.513  29.177  1.00  0.00     0.014 A 
ATOM     31  C   UNL A   1      34.197  33.711  30.990  1.00  0.00     0.014 A 
ATOM     32  C   UNL A   1      36.705  33.916  29.774  1.00  0.00     0.010 A 
ATOM     33  C   UNL A   1      35.316  33.180  31.619  1.00  0.00     0.010 A 
ATOM     34  C   UNL A   1      36.579  33.273  31.015  1.00  0.00    -0.014 A 
BRANCH  34  35
ATOM     35  C   UNL A   1      37.746  32.677  31.710  1.00  0.00     0.031 A 
ATOM     36  C   UNL A   1      38.472  31.517  31.084  1.00  0.00     0.074 A 
ATOM     37  C   UNL A   1      38.075  33.095  32.947  1.00  0.00     0.049 A 
ATOM     38  N   UNL A   1      39.421  30.772  31.583  1.00  0.00    -0.248 NA
ATOM     39  C   UNL A   1      38.046  31.120  29.731  1.00  0.00     0.031 C 
ATOM     40  C   UNL A   1      37.392  34.155  33.694  1.00  0.00     0.029 A 
ATOM     41  N   UNL A   1      39.047  32.655  33.810  1.00  0.00    -0.354 N 
ATOM     42  C   UNL A   1      39.667  29.787  30.636  1.00  0.00     0.074 A 
ATOM     43  C   UNL A   1      38.755  30.017  29.538  1.00  0.00     0.031 C 
ATOM     44  C   UNL A   1      37.967  34.282  34.902  1.00  0.00     0.029 A 
ATOM     45  C   UNL A   1      39.041  33.301  35.024  1.00  0.00     0.049 A 
ATOM     46  H   UNL A   1      39.688  31.944  33.582  1.00  0.00     0.167 HD
ATOM     47  C   UNL A   1      40.592  28.799  30.660  1.00  0.00     0.034 A 
ATOM     48  C   UNL A   1      39.816  33.123  36.112  1.00  0.00     0.034 A 
ATOM     49  C   UNL A   1      41.555  28.627  31.711  1.00  0.00     0.049 A 
ATOM     50  C   UNL A   1      40.902  32.084  36.072  1.00  0.00     0.074 A 
ATOM     51  C   UNL A   1      42.598  27.722  31.784  1.00  0.00     0.029 A 
ATOM     52  N   UNL A   1      41.604  29.392  32.867  1.00  0.00    -0.354 N 
ATOM     53  N   UNL A   1      41.216  31.258  35.103  1.00  0.00    -0.248 NA
ATOM     54  C   UNL A   1      41.764  31.975  37.259  1.00  0.00     0.031 C 
ATOM     55  C   UNL A   1      43.287  27.947  32.982  1.00  0.00     0.029 A 
ATOM     56  C   UNL A   1      42.667  28.988  33.656  1.00  0.00     0.049 A 
ATOM     57  H   UNL A   1      40.977  30.115  33.093  1.00  0.00     0.167 HD
ATOM     58  C   UNL A   1      42.327  30.552  35.549  1.00  0.00     0.074 A 
ATOM     59  C   UNL A   1      42.645  31.061  36.868  1.00  0.00     0.031 C 
ATOM     60  C   UNL A   1      43.009  29.556  34.933  1.00  0.00     0.034 A 
BRANCH  47  61
ATOM     61  C   UNL A   1      40.656  27.879  29.472  1.00  0.00     0.023 A 
ATOM     62  C   UNL A   1      39.828  26.739  29.443  1.00  0.00     0.012 A 
ATOM     63  C   UNL A   1      41.496  28.155  28.378  1.00  0.00     0.148 A 
ATOM     64  C   UNL A   1      39.855  25.871  28.353  1.00  0.00     0.002 A 
ATOM     65  C   UNL A   1      41.492  27.302  27.278  1.00  0.00     0.091 A 
ATOM     66  F   UNL A   1      42.301  29.226  28.437  1.00  0.00    -0.205 F 
ATOM     67  C   UNL A   1      40.679  26.157  27.268  1.00  0.00     0.022 A 
BRANCH  65  68
ATOM     68  S   UNL A   1      42.478  27.632  25.813  1.00  0.00     0.127 S 
ATOM     69  O   UNL A   1      43.837  27.479  26.328  1.00  0.00    -0.237 OA
ATOM     70  O   UNL A   1      42.050  26.571  24.899  1.00  0.00    -0.237 OA
ATOM     71  O   UNL A   1      42.107  28.975  25.387  1.00  0.00    -0.744 OA
ENDBRANCH  65  68
ENDBRANCH  47  61
BRANCH  48  72
ATOM     72  C   UNL A   1      39.652  34.018  37.291  1.00  0.00     0.023 A 
ATOM     73  C   UNL A   1      40.105  35.350  37.202  1.00  0.00     0.012 A 
ATOM     74  C   UNL A   1      39.018  33.585  38.470  1.00  0.00     0.148 A 
ATOM     75  C   UNL A   1      39.947  36.228  38.275  1.00  0.00     0.002 A 
ATOM     76  C   UNL A   1      38.822  34.480  39.518  1.00  0.00     0.091 A 
ATOM     77  F   UNL A   1      38.610  32.310  38.545  1.00  0.00    -0.205 F 
ATOM     78  C   UNL A   1      39.296  35.798  39.427  1.00  0.00     0.022 A 
BRANCH  76  79
ATOM     79  S   UNL A   1      37.881  34.029  40.980  1.00  0.00     0.127 S 
ATOM     80  O   UNL A   1      36.721  33.361  40.397  1.00  0.00    -0.237 OA
ATOM     81  O   UNL A   1      38.808  33.146  41.691  1.00  0.00    -0.237 OA
ATOM     82  O   UNL A   1      37.621  35.290  41.664  1.00  0.00    -0.744 OA
ENDBRANCH  76  79
ENDBRANCH  48  72
BRANCH  60  83
ATOM     83  C   UNL A   1      44.182  28.961  35.660  1.00  0.00     0.023 A 
ATOM     84  C   UNL A   1      45.456  29.540  35.504  1.00  0.00     0.012 A 
ATOM     85  C   UNL A   1      44.009  27.895  36.563  1.00  0.00     0.148 A 
ATOM     86  C   UNL A   1      46.545  29.055  36.224  1.00  0.00     0.002 A 
ATOM     87  C   UNL A   1      45.093  27.441  37.305  1.00  0.00     0.091 A 
ATOM     88  F   UNL A   1      42.793  27.340  36.680  1.00  0.00    -0.205 F 
ATOM     89  C   UNL A   1      46.363  28.015  37.133  1.00  0.00     0.022 A 
BRANCH  87  90
ATOM     90  S   UNL A   1      44.912  26.162  38.554  1.00  0.00     0.127 S 
ATOM     91  O   UNL A   1      44.492  25.015  37.752  1.00  0.00    -0.237 OA
ATOM     92  O   UNL A   1      46.265  26.057  39.105  1.00  0.00    -0.237 OA
ATOM     93  O   UNL A   1      43.925  26.675  39.495  1.00  0.00    -0.744 OA
ENDBRANCH  87  90
ENDBRANCH  60  83
ENDBRANCH  34  35
ENDBRANCH  26  29
ENDBRANCH  24  25
ENDBRANCH  23  24
ENDBRANCH   1  23
TORSDOF 17
ENDMDL
MODEL 3
REMARK VINA RESULT:     -11.3      1.773      7.847
REMARK SMILES C[C@H](NC(=O)c1cc(S(=O)(=O)N(C)C)cs1)C(=O)NCCCNC(=O)c1ccc(-c2c3nc(c(-c4cccc(S(=O)(=O)[O-])c4F)c4ccc([nH]4)c(-c4cccc(S(=O)(=O)[O-])c4F)c4nc(c(-c5cccc(S(=O)(=O)[O-])c5F)c5ccc2[nH]5)C=C4)C=C3)cc1
REMARK SMILES IDX 20 1 19 2 17 3 18 4 2 6 1 7 3 8 4 9 5 11 6 12 7 13 16 14
REMARK SMILES IDX 8 15 15 16 9 17 10 18 11 19 12 20 13 21 14 22 21 23 22 24
REMARK SMILES IDX 23 25 24 26 25 28 26 29 27 30 88 31 28 32 87 33 29 34 30 35
REMARK SMILES IDX 31 36 81 37 32 38 86 39 80 40 82 41 33 42 85 43 79 44 78 45
REMARK SMILES IDX 34 47 66 48 46 49 65 50 47 51 50 52 64 53 83 54 48 55 49 56
REMARK SMILES IDX 63 58 84 59 51 60 35 61 36 62 44 63 37 64 39 65 45 66 38 67
REMARK SMILES IDX 40 68 41 69 42 70 43 71 67 72 68 73 76 74 69 75 71 76 77 77
REMARK SMILES IDX 70 78 72 79 73 80 74 81 75 82 52 83 53 84 61 85 54 86 56 87
REMARK SMILES IDX 62 88 55 89 57 90 58 91 59 92 60 93
REMARK H PARENT 19 5 3 10 23 27 82 46 50 57
REMARK Flexibility Score: inf
ROOT
ATOM      1  C   UNL A   1      36.545  20.486  25.008  1.00  0.00     0.117 C 
ENDROOT
BRANCH   1   2
ATOM      2  N   UNL A   1      36.395  21.552  24.031  1.00  0.00    -0.354 N 
ATOM      3  C   UNL A   1      36.417  22.903  24.202  1.00  0.00     0.242 C 
ATOM      4  O   UNL A   1      36.447  23.617  23.196  1.00  0.00    -0.273 OA
ATOM      5  H   UNL A   1      36.258  21.250  23.104  1.00  0.00     0.163 HD
BRANCH   3   6
ATOM      6  C   UNL A   1      36.513  23.517  25.607  1.00  0.00     0.168 C 
ATOM      7  C   UNL A   1      37.986  23.690  25.986  1.00  0.00     0.041 C 
BRANCH   6   8
ATOM      8  N   UNL A   1      35.724  22.730  26.562  1.00  0.00    -0.340 N 
ATOM      9  C   UNL A   1      34.384  22.756  26.857  1.00  0.00     0.262 C 
ATOM     10  H   UNL A   1      36.244  22.072  27.077  1.00  0.00     0.164 HD
ATOM     11  O   UNL A   1      33.991  22.050  27.782  1.00  0.00    -0.268 OA
BRANCH   9  12
ATOM     12  C   UNL A   1      33.521  23.624  26.084  1.00  0.00     0.093 A 
ATOM     13  C   UNL A   1      33.270  24.972  26.241  1.00  0.00     0.047 A 
ATOM     14  S   UNL A   1      32.639  22.977  24.764  1.00  0.00    -0.137 S 
ATOM     15  C   UNL A   1      32.221  25.425  25.396  1.00  0.00     0.094 A 
ATOM     16  C   UNL A   1      31.790  24.445  24.528  1.00  0.00     0.087 A 
BRANCH  15  17
ATOM     17  S   UNL A   1      31.496  26.992  25.517  1.00  0.00     0.243 S 
ATOM     18  O   UNL A   1      30.748  27.147  24.289  1.00  0.00    -0.207 OA
ATOM     19  O   UNL A   1      30.853  26.951  26.812  1.00  0.00    -0.207 OA
BRANCH  17  20
ATOM     20  N   UNL A   1      32.734  28.166  25.562  1.00  0.00    -0.204 NA
ATOM     21  C   UNL A   1      33.548  28.268  24.331  1.00  0.00     0.124 C 
ATOM     22  C   UNL A   1      32.289  29.490  26.041  1.00  0.00     0.124 C 
ENDBRANCH  17  20
ENDBRANCH  15  17
ENDBRANCH   9  12
ENDBRANCH   6   8
ENDBRANCH   3   6
ENDBRANCH   1   2
BRANCH   1  23
ATOM     23  C   UNL A   1      37.876  19.764  24.876  1.00  0.00     0.042 C 
BRANCH  23  24
ATOM     24  C   UNL A   1      38.862  20.064  25.996  1.00  0.00     0.118 C 
BRANCH  24  25
ATOM     25  N   UNL A   1      40.051  19.222  25.948  1.00  0.00    -0.352 N 
ATOM     26  C   UNL A   1      41.370  19.584  26.081  1.00  0.00     0.251 C 
ATOM     27  H   UNL A   1      39.886  18.262  25.799  1.00  0.00     0.163 HD
ATOM     28  O   UNL A   1      42.258  18.765  25.863  1.00  0.00    -0.269 OA
BRANCH  26  29
ATOM     29  C   UNL A   1      41.708  20.970  26.467  1.00  0.00     0.039 A 
ATOM     30  C   UNL A   1      42.220  21.215  27.742  1.00  0.00     0.014 A 
ATOM     31  C   UNL A   1      41.539  22.016  25.558  1.00  0.00     0.014 A 
ATOM     32  C   UNL A   1      42.629  22.506  28.083  1.00  0.00     0.010 A 
ATOM     33  C   UNL A   1      42.013  23.283  25.872  1.00  0.00     0.010 A 
ATOM     34  C   UNL A   1      42.558  23.542  27.139  1.00  0.00    -0.014 A 
BRANCH  34  35
ATOM     35  C   UNL A   1      43.036  24.913  27.443  1.00  0.00     0.031 A 
ATOM     36  C   UNL A   1      42.104  25.897  28.096  1.00  0.00     0.074 A 
ATOM     37  C   UNL A   1      44.254  25.305  27.025  1.00  0.00     0.049 A 
ATOM     38  N   UNL A   1      42.278  27.172  28.321  1.00  0.00    -0.248 NA
ATOM     39  C   UNL A   1      40.788  25.387  28.517  1.00  0.00     0.031 C 
ATOM     40  C   UNL A   1      45.216  24.466  26.306  1.00  0.00     0.029 A 
ATOM     41  N   UNL A   1      44.881  26.523  27.116  1.00  0.00    -0.354 N 
ATOM     42  C   UNL A   1      41.080  27.628  28.855  1.00  0.00     0.074 A 
ATOM     43  C   UNL A   1      40.179  26.498  28.904  1.00  0.00     0.031 C 
ATOM     44  C   UNL A   1      46.308  25.194  26.022  1.00  0.00     0.029 A 
ATOM     45  C   UNL A   1      46.118  26.554  26.517  1.00  0.00     0.049 A 
ATOM     46  H   UNL A   1      44.481  27.302  27.568  1.00  0.00     0.167 HD
ATOM     47  C   UNL A   1      40.767  28.869  29.297  1.00  0.00     0.034 A 
ATOM     48  C   UNL A   1      46.998  27.565  26.384  1.00  0.00     0.034 A 
ATOM     49  C   UNL A   1      41.693  29.967  29.330  1.00  0.00     0.049 A 
ATOM     50  C   UNL A   1      46.665  28.907  26.975  1.00  0.00     0.074 A 
ATOM     51  C   UNL A   1      41.507  31.234  29.851  1.00  0.00     0.029 A 
ATOM     52  N   UNL A   1      42.987  29.920  28.836  1.00  0.00    -0.354 N 
ATOM     53  N   UNL A   1      45.580  29.279  27.611  1.00  0.00    -0.248 NA
ATOM     54  C   UNL A   1      47.687  29.958  26.863  1.00  0.00     0.031 C 
ATOM     55  C   UNL A   1      42.697  31.953  29.682  1.00  0.00     0.029 A 
ATOM     56  C   UNL A   1      43.618  31.133  29.050  1.00  0.00     0.049 A 
ATOM     57  H   UNL A   1      43.397  29.140  28.399  1.00  0.00     0.167 HD
ATOM     58  C   UNL A   1      45.799  30.595  28.000  1.00  0.00     0.074 A 
ATOM     59  C   UNL A   1      47.129  30.950  27.546  1.00  0.00     0.031 C 
ATOM     60  C   UNL A   1      44.967  31.442  28.654  1.00  0.00     0.034 A 
BRANCH  47  61
ATOM     61  C   UNL A   1      39.388  29.077  29.859  1.00  0.00     0.023 A 
ATOM     62  C   UNL A   1      39.109  28.644  31.170  1.00  0.00     0.012 A 
ATOM     63  C   UNL A   1      38.385  29.727  29.116  1.00  0.00     0.148 A 
ATOM     64  C   UNL A   1      37.845  28.829  31.725  1.00  0.00     0.002 A 
ATOM     65  C   UNL A   1      37.135  29.939  29.689  1.00  0.00     0.091 A 
ATOM     66  F   UNL A   1      38.657  30.103  27.858  1.00  0.00    -0.205 F 
ATOM     67  C   UNL A   1      36.861  29.484  30.989  1.00  0.00     0.022 A 
BRANCH  65  68
ATOM     68  S   UNL A   1      35.833  30.831  28.831  1.00  0.00     0.127 S 
ATOM     69  O   UNL A   1      36.600  31.789  28.038  1.00  0.00    -0.237 OA
ATOM     70  O   UNL A   1      35.188  29.773  28.049  1.00  0.00    -0.237 OA
ATOM     71  O   UNL A   1      34.993  31.398  29.877  1.00  0.00    -0.744 OA
ENDBRANCH  65  68
ENDBRANCH  47  61
BRANCH  48  72
ATOM     72  C   UNL A   1      48.321  27.313  25.747  1.00  0.00     0.023 A 
ATOM     73  C   UNL A   1      49.379  26.830  26.544  1.00  0.00     0.012 A 
ATOM     74  C   UNL A   1      48.529  27.501  24.369  1.00  0.00     0.148 A 
ATOM     75  C   UNL A   1      50.626  26.558  25.981  1.00  0.00     0.002 A 
ATOM     76  C   UNL A   1      49.762  27.183  23.806  1.00  0.00     0.091 A 
ATOM     77  F   UNL A   1      47.519  27.979  23.629  1.00  0.00    -0.205 F 
ATOM     78  C   UNL A   1      50.815  26.722  24.612  1.00  0.00     0.022 A 
BRANCH  76  79
ATOM     79  S   UNL A   1      50.036  27.251  22.032  1.00  0.00     0.127 S 
ATOM     80  O   UNL A   1      48.993  26.360  21.532  1.00  0.00    -0.237 OA
ATOM     81  O   UNL A   1      49.828  28.669  21.736  1.00  0.00    -0.237 OA
ATOM     82  O   UNL A   1      51.410  26.801  21.845  1.00  0.00    -0.744 OA
ENDBRANCH  76  79
ENDBRANCH  48  72
BRANCH  60  83
ATOM     83  C   UNL A   1      45.469  32.829  28.942  1.00  0.00     0.023 A 
ATOM     84  C   UNL A   1      46.163  33.075  30.142  1.00  0.00     0.012 A 
ATOM     85  C   UNL A   1      45.337  33.859  27.992  1.00  0.00     0.148 A 
ATOM     86  C   UNL A   1      46.704  34.332  30.400  1.00  0.00     0.002 A 
ATOM     87  C   UNL A   1      45.911  35.100  28.240  1.00  0.00     0.091 A 
ATOM     88  F   UNL A   1      44.651  33.613  26.865  1.00  0.00    -0.205 F 
ATOM     89  C   UNL A   1      46.590  35.341  29.446  1.00  0.00     0.022 A 
BRANCH  87  90
ATOM     90  S   UNL A   1      45.875  36.418  27.019  1.00  0.00     0.127 S 
ATOM     91  O   UNL A   1      46.395  35.742  25.832  1.00  0.00    -0.237 OA
ATOM     92  O   UNL A   1      44.451  36.755  26.953  1.00  0.00    -0.237 OA
ATOM     93  O   UNL A   1      46.713  37.477  27.566  1.00  0.00    -0.744 OA
ENDBRANCH  87  90
ENDBRANCH  60  83
ENDBRANCH  34  35
ENDBRANCH  26  29
ENDBRANCH  24  25
ENDBRANCH  23  24
ENDBRANCH   1  23
TORSDOF 17
ENDMDL
