MODEL 1
REMARK VINA RESULT:     -10.0      0.000      0.000
REMARK SMILES CCc1ccc(S(=O)(=O)CC(=O)NCCCNC(=O)c2ccc(-c3c4nc(c(-c5cccc(S(=O)(=O)[O-])c5F)c5ccc([nH]5)c(-c5cccc(S(=O)(=O)[O-])c5F)c5nc(c(-c6cccc(S(=O)(=O)[O-])c6F)c6ccc3[nH]6)C=C5)C=C4)cc2)cc1
REMARK SMILES IDX 15 1 14 2 13 3 11 4 12 5 10 7 7 8 8 9 9 10 6 11 3 12 4 13
REMARK SMILES IDX 84 14 5 15 83 16 2 17 1 18 16 19 17 20 18 21 19 23 20 24
REMARK SMILES IDX 21 25 82 26 22 27 81 28 23 29 24 30 25 31 75 32 26 33 80 34
REMARK SMILES IDX 74 35 76 36 27 37 79 38 73 39 72 40 28 42 60 43 40 44 59 45
REMARK SMILES IDX 41 46 44 47 58 48 77 49 42 50 43 51 57 53 78 54 45 55 29 56
REMARK SMILES IDX 30 57 38 58 31 59 33 60 39 61 32 62 34 63 35 64 36 65 37 66
REMARK SMILES IDX 61 67 62 68 70 69 63 70 65 71 71 72 64 73 66 74 67 75 68 76
REMARK SMILES IDX 69 77 46 78 47 79 55 80 48 81 50 82 56 83 49 84 51 85 52 86
REMARK SMILES IDX 53 87 54 88
REMARK H PARENT 13 6 17 22 76 41 44 52
REMARK Flexibility Score: inf
ROOT
ATOM      1  C   UNL A   1      34.200  34.357  29.361  1.00  0.00     0.042 C 
ENDROOT
BRANCH   1   2
ATOM      2  C   UNL A   1      34.479  34.981  30.725  1.00  0.00     0.117 C 
BRANCH   2   3
ATOM      3  N   UNL A   1      33.645  34.397  31.764  1.00  0.00    -0.355 N 
ATOM      4  C   UNL A   1      33.912  33.398  32.644  1.00  0.00     0.235 C 
ATOM      5  O   UNL A   1      33.001  33.049  33.400  1.00  0.00    -0.274 OA
ATOM      6  H   UNL A   1      32.744  34.787  31.840  1.00  0.00     0.163 HD
BRANCH   4   7
ATOM      7  C   UNL A   1      35.281  32.827  32.799  1.00  0.00     0.241 C 
BRANCH   7   8
ATOM      8  S   UNL A   1      36.364  33.757  33.815  1.00  0.00     0.187 S 
ATOM      9  O   UNL A   1      36.702  32.906  34.943  1.00  0.00    -0.223 OA
ATOM     10  O   UNL A   1      35.722  35.038  34.055  1.00  0.00    -0.223 OA
BRANCH   8  11
ATOM     11  C   UNL A   1      37.894  34.084  32.984  1.00  0.00     0.067 A 
ATOM     12  C   UNL A   1      40.394  34.474  31.761  1.00  0.00    -0.048 A 
ATOM     13  C   UNL A   1      40.258  34.573  33.153  1.00  0.00     0.005 A 
ATOM     14  C   UNL A   1      39.257  34.176  30.994  1.00  0.00     0.005 A 
ATOM     15  C   UNL A   1      39.014  34.389  33.763  1.00  0.00     0.020 A 
ATOM     16  C   UNL A   1      38.013  33.971  31.601  1.00  0.00     0.020 A 
BRANCH  12  17
ATOM     17  C   UNL A   1      41.763  34.593  31.132  1.00  0.00     0.032 C 
ATOM     18  C   UNL A   1      41.991  33.678  29.936  1.00  0.00     0.009 C 
ENDBRANCH  12  17
ENDBRANCH   8  11
ENDBRANCH   7   8
ENDBRANCH   4   7
ENDBRANCH   2   3
ENDBRANCH   1   2
BRANCH   1  19
ATOM     19  C   UNL A   1      34.984  33.079  29.079  1.00  0.00     0.118 C 
BRANCH  19  20
ATOM     20  N   UNL A   1      34.230  32.110  28.296  1.00  0.00    -0.352 N 
ATOM     21  C   UNL A   1      34.595  30.867  27.840  1.00  0.00     0.251 C 
ATOM     22  H   UNL A   1      33.316  32.389  28.057  1.00  0.00     0.163 HD
ATOM     23  O   UNL A   1      33.865  30.281  27.044  1.00  0.00    -0.269 OA
BRANCH  21  24
ATOM     24  C   UNL A   1      35.861  30.238  28.282  1.00  0.00     0.039 A 
ATOM     25  C   UNL A   1      36.958  30.251  27.415  1.00  0.00     0.014 A 
ATOM     26  C   UNL A   1      35.967  29.614  29.527  1.00  0.00     0.014 A 
ATOM     27  C   UNL A   1      38.175  29.696  27.821  1.00  0.00     0.010 A 
ATOM     28  C   UNL A   1      37.200  29.126  29.959  1.00  0.00     0.010 A 
ATOM     29  C   UNL A   1      38.316  29.157  29.110  1.00  0.00    -0.014 A 
BRANCH  29  30
ATOM     30  C   UNL A   1      39.623  28.640  29.594  1.00  0.00     0.031 A 
ATOM     31  C   UNL A   1      40.369  29.352  30.691  1.00  0.00     0.074 A 
ATOM     32  C   UNL A   1      40.186  27.578  28.981  1.00  0.00     0.049 A 
ATOM     33  N   UNL A   1      41.548  29.090  31.192  1.00  0.00    -0.248 NA
ATOM     34  C   UNL A   1      39.717  30.532  31.285  1.00  0.00     0.031 C 
ATOM     35  C   UNL A   1      39.605  26.848  27.851  1.00  0.00     0.029 A 
ATOM     36  N   UNL A   1      41.385  26.948  29.199  1.00  0.00    -0.354 N 
ATOM     37  C   UNL A   1      41.797  30.088  32.127  1.00  0.00     0.074 A 
ATOM     38  C   UNL A   1      40.657  30.979  32.106  1.00  0.00     0.031 C 
ATOM     39  C   UNL A   1      40.449  25.874  27.475  1.00  0.00     0.029 A 
ATOM     40  C   UNL A   1      41.640  25.924  28.317  1.00  0.00     0.049 A 
ATOM     41  H   UNL A   1      42.005  27.205  29.920  1.00  0.00     0.167 HD
ATOM     42  C   UNL A   1      42.864  30.236  32.949  1.00  0.00     0.034 A 
ATOM     43  C   UNL A   1      42.714  25.120  28.192  1.00  0.00     0.034 A 
ATOM     44  C   UNL A   1      43.969  29.318  33.008  1.00  0.00     0.049 A 
ATOM     45  C   UNL A   1      43.860  25.270  29.157  1.00  0.00     0.074 A 
ATOM     46  C   UNL A   1      45.049  29.328  33.876  1.00  0.00     0.029 A 
ATOM     47  N   UNL A   1      44.142  28.229  32.169  1.00  0.00    -0.354 N 
ATOM     48  N   UNL A   1      43.998  26.120  30.146  1.00  0.00    -0.248 NA
ATOM     49  C   UNL A   1      44.979  24.328  29.015  1.00  0.00     0.031 C 
ATOM     50  C   UNL A   1      45.881  28.253  33.550  1.00  0.00     0.029 A 
ATOM     51  C   UNL A   1      45.311  27.563  32.492  1.00  0.00     0.049 A 
ATOM     52  H   UNL A   1      43.524  27.968  31.448  1.00  0.00     0.167 HD
ATOM     53  C   UNL A   1      45.198  25.792  30.765  1.00  0.00     0.074 A 
ATOM     54  C   UNL A   1      45.737  24.652  30.053  1.00  0.00     0.031 C 
ATOM     55  C   UNL A   1      45.807  26.391  31.817  1.00  0.00     0.034 A 
BRANCH  42  56
ATOM     56  C   UNL A   1      42.860  31.400  33.904  1.00  0.00     0.023 A 
ATOM     57  C   UNL A   1      43.468  32.613  33.519  1.00  0.00     0.012 A 
ATOM     58  C   UNL A   1      42.191  31.325  35.142  1.00  0.00     0.148 A 
ATOM     59  C   UNL A   1      43.439  33.722  34.362  1.00  0.00     0.002 A 
ATOM     60  C   UNL A   1      42.130  32.449  35.959  1.00  0.00     0.091 A 
ATOM     61  F   UNL A   1      41.634  30.159  35.498  1.00  0.00    -0.205 F 
ATOM     62  C   UNL A   1      42.761  33.643  35.576  1.00  0.00     0.022 A 
BRANCH  60  63
ATOM     63  S   UNL A   1      41.216  32.474  37.506  1.00  0.00     0.127 S 
ATOM     64  O   UNL A   1      41.245  33.897  37.843  1.00  0.00    -0.237 OA
ATOM     65  O   UNL A   1      39.904  31.972  37.098  1.00  0.00    -0.237 OA
ATOM     66  O   UNL A   1      41.944  31.602  38.416  1.00  0.00    -0.744 OA
ENDBRANCH  60  63
ENDBRANCH  42  56
BRANCH  43  67
ATOM     67  C   UNL A   1      42.728  24.051  27.154  1.00  0.00     0.023 A 
ATOM     68  C   UNL A   1      43.394  24.282  25.935  1.00  0.00     0.012 A 
ATOM     69  C   UNL A   1      42.114  22.803  27.375  1.00  0.00     0.148 A 
ATOM     70  C   UNL A   1      43.419  23.302  24.940  1.00  0.00     0.002 A 
ATOM     71  C   UNL A   1      42.188  21.813  26.402  1.00  0.00     0.091 A 
ATOM     72  F   UNL A   1      41.471  22.607  28.535  1.00  0.00    -0.205 F 
ATOM     73  C   UNL A   1      42.825  22.066  25.177  1.00  0.00     0.022 A 
BRANCH  71  74
ATOM     74  S   UNL A   1      41.565  20.151  26.677  1.00  0.00     0.127 S 
ATOM     75  O   UNL A   1      40.136  20.394  26.856  1.00  0.00    -0.237 OA
ATOM     76  O   UNL A   1      41.924  19.479  25.428  1.00  0.00    -0.237 OA
ATOM     77  O   UNL A   1      42.279  19.658  27.848  1.00  0.00    -0.744 OA
ENDBRANCH  71  74
ENDBRANCH  43  67
BRANCH  55  78
ATOM     78  C   UNL A   1      47.111  25.812  32.296  1.00  0.00     0.023 A 
ATOM     79  C   UNL A   1      48.322  26.245  31.720  1.00  0.00     0.012 A 
ATOM     80  C   UNL A   1      47.143  24.897  33.368  1.00  0.00     0.148 A 
ATOM     81  C   UNL A   1      49.542  25.755  32.184  1.00  0.00     0.002 A 
ATOM     82  C   UNL A   1      48.365  24.449  33.856  1.00  0.00     0.091 A 
ATOM     83  F   UNL A   1      45.979  24.482  33.889  1.00  0.00    -0.205 F 
ATOM     84  C   UNL A   1      49.564  24.869  33.259  1.00  0.00     0.022 A 
BRANCH  82  85
ATOM     85  S   UNL A   1      48.490  23.382  35.296  1.00  0.00     0.127 S 
ATOM     86  O   UNL A   1      49.938  23.305  35.485  1.00  0.00    -0.237 OA
ATOM     87  O   UNL A   1      47.781  24.152  36.318  1.00  0.00    -0.237 OA
ATOM     88  O   UNL A   1      47.839  22.133  34.924  1.00  0.00    -0.744 OA
ENDBRANCH  82  85
ENDBRANCH  55  78
ENDBRANCH  29  30
ENDBRANCH  21  24
ENDBRANCH  19  20
ENDBRANCH   1  19
TORSDOF 16
ENDMDL
MODEL 2
REMARK VINA RESULT:      -9.8      3.983      6.840
REMARK SMILES CCc1ccc(S(=O)(=O)CC(=O)NCCCNC(=O)c2ccc(-c3c4nc(c(-c5cccc(S(=O)(=O)[O-])c5F)c5ccc([nH]5)c(-c5cccc(S(=O)(=O)[O-])c5F)c5nc(c(-c6cccc(S(=O)(=O)[O-])c6F)c6ccc3[nH]6)C=C5)C=C4)cc2)cc1
REMARK SMILES IDX 15 1 14 2 13 3 11 4 12 5 10 7 7 8 8 9 9 10 6 11 3 12 4 13
REMARK SMILES IDX 84 14 5 15 83 16 2 17 1 18 16 19 17 20 18 21 19 23 20 24
REMARK SMILES IDX 21 25 82 26 22 27 81 28 23 29 24 30 25 31 75 32 26 33 80 34
REMARK SMILES IDX 74 35 76 36 27 37 79 38 73 39 72 40 28 42 60 43 40 44 59 45
REMARK SMILES IDX 41 46 44 47 58 48 77 49 42 50 43 51 57 53 78 54 45 55 29 56
REMARK SMILES IDX 30 57 38 58 31 59 33 60 39 61 32 62 34 63 35 64 36 65 37 66
REMARK SMILES IDX 61 67 62 68 70 69 63 70 65 71 71 72 64 73 66 74 67 75 68 76
REMARK SMILES IDX 69 77 46 78 47 79 55 80 48 81 50 82 56 83 49 84 51 85 52 86
REMARK SMILES IDX 53 87 54 88
REMARK H PARENT 13 6 17 22 76 41 44 52
REMARK Flexibility Score: inf
ROOT
ATOM      1  C   UNL A   1      31.762  28.813  26.073  1.00  0.00     0.042 C 
ENDROOT
BRANCH   1   2
ATOM      2  C   UNL A   1      32.331  27.546  26.706  1.00  0.00     0.117 C 
BRANCH   2   3
ATOM      3  N   UNL A   1      31.310  26.525  26.877  1.00  0.00    -0.355 N 
ATOM      4  C   UNL A   1      31.022  25.437  26.118  1.00  0.00     0.235 C 
ATOM      5  O   UNL A   1      30.057  24.748  26.457  1.00  0.00    -0.274 OA
ATOM      6  H   UNL A   1      30.736  26.641  27.669  1.00  0.00     0.163 HD
BRANCH   4   7
ATOM      7  C   UNL A   1      31.904  25.001  24.997  1.00  0.00     0.241 C 
BRANCH   7   8
ATOM      8  S   UNL A   1      31.200  25.145  23.398  1.00  0.00     0.187 S 
ATOM      9  O   UNL A   1      30.308  24.008  23.238  1.00  0.00    -0.223 OA
ATOM     10  O   UNL A   1      32.300  25.326  22.466  1.00  0.00    -0.223 OA
BRANCH   8  11
ATOM     11  C   UNL A   1      30.172  26.582  23.281  1.00  0.00     0.067 A 
ATOM     12  C   UNL A   1      28.564  28.860  22.922  1.00  0.00    -0.048 A 
ATOM     13  C   UNL A   1      29.892  28.846  22.472  1.00  0.00     0.005 A 
ATOM     14  C   UNL A   1      28.057  27.714  23.553  1.00  0.00     0.005 A 
ATOM     15  C   UNL A   1      30.697  27.719  22.658  1.00  0.00     0.020 A 
ATOM     16  C   UNL A   1      28.851  26.575  23.725  1.00  0.00     0.020 A 
BRANCH  12  17
ATOM     17  C   UNL A   1      27.688  30.058  22.634  1.00  0.00     0.032 C 
ATOM     18  C   UNL A   1      27.764  31.163  23.679  1.00  0.00     0.009 C 
ENDBRANCH  12  17
ENDBRANCH   8  11
ENDBRANCH   7   8
ENDBRANCH   4   7
ENDBRANCH   2   3
ENDBRANCH   1   2
BRANCH   1  19
ATOM     19  C   UNL A   1      32.815  29.826  25.632  1.00  0.00     0.118 C 
BRANCH  19  20
ATOM     20  N   UNL A   1      32.546  31.172  26.116  1.00  0.00    -0.352 N 
ATOM     21  C   UNL A   1      33.160  31.891  27.112  1.00  0.00     0.251 C 
ATOM     22  H   UNL A   1      31.810  31.640  25.658  1.00  0.00     0.163 HD
ATOM     23  O   UNL A   1      32.663  32.952  27.481  1.00  0.00    -0.269 OA
BRANCH  21  24
ATOM     24  C   UNL A   1      34.399  31.394  27.753  1.00  0.00     0.039 A 
ATOM     25  C   UNL A   1      35.484  32.266  27.888  1.00  0.00     0.014 A 
ATOM     26  C   UNL A   1      34.511  30.074  28.194  1.00  0.00     0.014 A 
ATOM     27  C   UNL A   1      36.653  31.834  28.520  1.00  0.00     0.010 A 
ATOM     28  C   UNL A   1      35.649  29.664  28.889  1.00  0.00     0.010 A 
ATOM     29  C   UNL A   1      36.734  30.538  29.056  1.00  0.00    -0.014 A 
BRANCH  29  30
ATOM     30  C   UNL A   1      37.934  30.085  29.808  1.00  0.00     0.031 A 
ATOM     31  C   UNL A   1      38.222  30.622  31.185  1.00  0.00     0.074 A 
ATOM     32  C   UNL A   1      38.818  29.258  29.213  1.00  0.00     0.049 A 
ATOM     33  N   UNL A   1      39.251  30.397  31.960  1.00  0.00    -0.248 NA
ATOM     34  C   UNL A   1      37.237  31.557  31.756  1.00  0.00     0.031 C 
ATOM     35  C   UNL A   1      38.698  28.731  27.851  1.00  0.00     0.029 A 
ATOM     36  N   UNL A   1      40.007  28.741  29.663  1.00  0.00    -0.354 N 
ATOM     37  C   UNL A   1      39.061  31.188  33.087  1.00  0.00     0.074 A 
ATOM     38  C   UNL A   1      37.830  31.920  32.886  1.00  0.00     0.031 C 
ATOM     39  C   UNL A   1      39.770  27.969  27.578  1.00  0.00     0.029 A 
ATOM     40  C   UNL A   1      40.665  27.973  28.731  1.00  0.00     0.049 A 
ATOM     41  H   UNL A   1      40.356  28.905  30.569  1.00  0.00     0.167 HD
ATOM     42  C   UNL A   1      39.825  31.276  34.202  1.00  0.00     0.034 A 
ATOM     43  C   UNL A   1      41.858  27.349  28.791  1.00  0.00     0.034 A 
ATOM     44  C   UNL A   1      41.018  30.505  34.425  1.00  0.00     0.049 A 
ATOM     45  C   UNL A   1      42.658  27.417  30.065  1.00  0.00     0.074 A 
ATOM     46  C   UNL A   1      41.807  30.451  35.562  1.00  0.00     0.029 A 
ATOM     47  N   UNL A   1      41.598  29.655  33.497  1.00  0.00    -0.354 N 
ATOM     48  N   UNL A   1      42.374  28.040  31.183  1.00  0.00    -0.248 NA
ATOM     49  C   UNL A   1      43.922  26.668  30.099  1.00  0.00     0.031 C 
ATOM     50  C   UNL A   1      42.872  29.580  35.315  1.00  0.00     0.029 A 
ATOM     51  C   UNL A   1      42.737  29.077  34.030  1.00  0.00     0.049 A 
ATOM     52  H   UNL A   1      41.252  29.488  32.591  1.00  0.00     0.167 HD
ATOM     53  C   UNL A   1      43.403  27.727  32.063  1.00  0.00     0.074 A 
ATOM     54  C   UNL A   1      44.306  26.844  31.355  1.00  0.00     0.031 C 
ATOM     55  C   UNL A   1      43.594  28.149  33.338  1.00  0.00     0.034 A 
BRANCH  42  56
ATOM     56  C   UNL A   1      39.361  32.193  35.302  1.00  0.00     0.023 A 
ATOM     57  C   UNL A   1      38.477  31.704  36.286  1.00  0.00     0.012 A 
ATOM     58  C   UNL A   1      39.854  33.509  35.410  1.00  0.00     0.148 A 
ATOM     59  C   UNL A   1      38.068  32.516  37.342  1.00  0.00     0.002 A 
ATOM     60  C   UNL A   1      39.474  34.300  36.489  1.00  0.00     0.091 A 
ATOM     61  F   UNL A   1      40.678  33.963  34.455  1.00  0.00    -0.205 F 
ATOM     62  C   UNL A   1      38.574  33.809  37.449  1.00  0.00     0.022 A 
BRANCH  60  63
ATOM     63  S   UNL A   1      40.129  35.950  36.761  1.00  0.00     0.127 S 
ATOM     64  O   UNL A   1      39.711  36.638  35.540  1.00  0.00    -0.237 OA
ATOM     65  O   UNL A   1      39.419  36.369  37.970  1.00  0.00    -0.237 OA
ATOM     66  O   UNL A   1      41.566  35.789  36.926  1.00  0.00    -0.744 OA
ENDBRANCH  60  63
ENDBRANCH  42  56
BRANCH  43  67
ATOM     67  C   UNL A   1      42.337  26.543  27.633  1.00  0.00     0.023 A 
ATOM     68  C   UNL A   1      43.166  27.147  26.669  1.00  0.00     0.012 A 
ATOM     69  C   UNL A   1      42.001  25.182  27.494  1.00  0.00     0.148 A 
ATOM     70  C   UNL A   1      43.626  26.421  25.569  1.00  0.00     0.002 A 
ATOM     71  C   UNL A   1      42.506  24.451  26.426  1.00  0.00     0.091 A 
ATOM     72  F   UNL A   1      41.197  24.629  28.413  1.00  0.00    -0.205 F 
ATOM     73  C   UNL A   1      43.304  25.072  25.453  1.00  0.00     0.022 A 
BRANCH  71  74
ATOM     74  S   UNL A   1      42.248  22.680  26.271  1.00  0.00     0.127 S 
ATOM     75  O   UNL A   1      40.790  22.588  26.280  1.00  0.00    -0.237 OA
ATOM     76  O   UNL A   1      42.876  22.391  24.982  1.00  0.00    -0.237 OA
ATOM     77  O   UNL A   1      42.930  22.087  27.414  1.00  0.00    -0.744 OA
ENDBRANCH  71  74
ENDBRANCH  43  67
BRANCH  55  78
ATOM     78  C   UNL A   1      44.803  27.636  34.073  1.00  0.00     0.023 A 
ATOM     79  C   UNL A   1      45.999  28.381  34.055  1.00  0.00     0.012 A 
ATOM     80  C   UNL A   1      44.732  26.459  34.845  1.00  0.00     0.148 A 
ATOM     81  C   UNL A   1      47.114  27.946  34.771  1.00  0.00     0.002 A 
ATOM     82  C   UNL A   1      45.833  26.057  35.592  1.00  0.00     0.091 A 
ATOM     83  F   UNL A   1      43.591  25.754  34.832  1.00  0.00    -0.205 F 
ATOM     84  C   UNL A   1      47.027  26.794  35.548  1.00  0.00     0.022 A 
BRANCH  82  85
ATOM     85  S   UNL A   1      45.779  24.639  36.694  1.00  0.00     0.127 S 
ATOM     86  O   UNL A   1      45.524  23.544  35.759  1.00  0.00    -0.237 OA
ATOM     87  O   UNL A   1      47.122  24.645  37.276  1.00  0.00    -0.237 OA
ATOM     88  O   UNL A   1      44.710  24.913  37.645  1.00  0.00    -0.744 OA
ENDBRANCH  82  85
ENDBRANCH  55  78
ENDBRANCH  29  30
ENDBRANCH  21  24
ENDBRANCH  19  20
ENDBRANCH   1  19
TORSDOF 16
ENDMDL
MODEL 3
REMARK VINA RESULT:      -9.6      1.707      2.104
REMARK SMILES CCc1ccc(S(=O)(=O)CC(=O)NCCCNC(=O)c2ccc(-c3c4nc(c(-c5cccc(S(=O)(=O)[O-])c5F)c5ccc([nH]5)c(-c5cccc(S(=O)(=O)[O-])c5F)c5nc(c(-c6cccc(S(=O)(=O)[O-])c6F)c6ccc3[nH]6)C=C5)C=C4)cc2)cc1
REMARK SMILES IDX 15 1 14 2 13 3 11 4 12 5 10 7 7 8 8 9 9 10 6 11 3 12 4 13
REMARK SMILES IDX 84 14 5 15 83 16 2 17 1 18 16 19 17 20 18 21 19 23 20 24
REMARK SMILES IDX 21 25 82 26 22 27 81 28 23 29 24 30 25 31 75 32 26 33 80 34
REMARK SMILES IDX 74 35 76 36 27 37 79 38 73 39 72 40 28 42 60 43 40 44 59 45
REMARK SMILES IDX 41 46 44 47 58 48 77 49 42 50 43 51 57 53 78 54 45 55 29 56
REMARK SMILES IDX 30 57 38 58 31 59 33 60 39 61 32 62 34 63 35 64 36 65 37 66
REMARK SMILES IDX 61 67 62 68 70 69 63 70 65 71 71 72 64 73 66 74 67 75 68 76
REMARK SMILES IDX 69 77 46 78 47 79 55 80 48 81 50 82 56 83 49 84 51 85 52 86
REMARK SMILES IDX 53 87 54 88
REMARK H PARENT 13 6 17 22 76 41 44 52
REMARK Flexibility Score: inf
ROOT
ATOM      1  C   UNL A   1      34.601  34.655  28.605  1.00  0.00     0.042 C 
ENDROOT
BRANCH   1   2
ATOM      2  C   UNL A   1      33.902  34.487  29.952  1.00  0.00     0.117 C 
BRANCH   2   3
ATOM      3  N   UNL A   1      34.499  35.328  30.976  1.00  0.00    -0.355 N 
ATOM      4  C   UNL A   1      34.687  35.098  32.301  1.00  0.00     0.235 C 
ATOM      5  O   UNL A   1      35.177  36.010  32.972  1.00  0.00    -0.274 OA
ATOM      6  H   UNL A   1      34.816  36.205  30.659  1.00  0.00     0.163 HD
BRANCH   4   7
ATOM      7  C   UNL A   1      34.444  33.758  32.911  1.00  0.00     0.241 C 
BRANCH   7   8
ATOM      8  S   UNL A   1      35.861  32.737  33.049  1.00  0.00     0.187 S 
ATOM      9  O   UNL A   1      35.494  31.446  32.490  1.00  0.00    -0.223 OA
ATOM     10  O   UNL A   1      36.306  32.815  34.430  1.00  0.00    -0.223 OA
BRANCH   8  11
ATOM     11  C   UNL A   1      37.183  33.340  32.037  1.00  0.00     0.067 A 
ATOM     12  C   UNL A   1      39.394  34.214  30.538  1.00  0.00    -0.048 A 
ATOM     13  C   UNL A   1      39.304  34.499  31.907  1.00  0.00     0.005 A 
ATOM     14  C   UNL A   1      38.359  33.484  29.934  1.00  0.00     0.005 A 
ATOM     15  C   UNL A   1      38.202  34.075  32.654  1.00  0.00     0.020 A 
ATOM     16  C   UNL A   1      37.262  33.039  30.680  1.00  0.00     0.020 A 
BRANCH  12  17
ATOM     17  C   UNL A   1      40.635  34.608  29.769  1.00  0.00     0.032 C 
ATOM     18  C   UNL A   1      41.874  33.790  30.106  1.00  0.00     0.009 C 
ENDBRANCH  12  17
ENDBRANCH   8  11
ENDBRANCH   7   8
ENDBRANCH   4   7
ENDBRANCH   2   3
ENDBRANCH   1   2
BRANCH   1  19
ATOM     19  C   UNL A   1      35.264  33.386  28.076  1.00  0.00     0.118 C 
BRANCH  19  20
ATOM     20  N   UNL A   1      34.304  32.357  27.704  1.00  0.00    -0.352 N 
ATOM     21  C   UNL A   1      34.455  30.993  27.635  1.00  0.00     0.251 C 
ATOM     22  H   UNL A   1      33.408  32.689  27.466  1.00  0.00     0.163 HD
ATOM     23  O   UNL A   1      33.564  30.315  27.129  1.00  0.00    -0.269 OA
BRANCH  21  24
ATOM     24  C   UNL A   1      35.680  30.338  28.147  1.00  0.00     0.039 A 
ATOM     25  C   UNL A   1      36.808  30.281  27.322  1.00  0.00     0.014 A 
ATOM     26  C   UNL A   1      35.719  29.757  29.417  1.00  0.00     0.014 A 
ATOM     27  C   UNL A   1      37.989  29.700  27.793  1.00  0.00     0.010 A 
ATOM     28  C   UNL A   1      36.917  29.243  29.912  1.00  0.00     0.010 A 
ATOM     29  C   UNL A   1      38.064  29.205  29.105  1.00  0.00    -0.014 A 
BRANCH  29  30
ATOM     30  C   UNL A   1      39.334  28.662  29.656  1.00  0.00     0.031 A 
ATOM     31  C   UNL A   1      39.990  29.310  30.846  1.00  0.00     0.074 A 
ATOM     32  C   UNL A   1      39.947  27.639  29.027  1.00  0.00     0.049 A 
ATOM     33  N   UNL A   1      41.130  29.021  31.419  1.00  0.00    -0.248 NA
ATOM     34  C   UNL A   1      39.288  30.453  31.456  1.00  0.00     0.031 C 
ATOM     35  C   UNL A   1      39.458  26.976  27.815  1.00  0.00     0.029 A 
ATOM     36  N   UNL A   1      41.130  26.998  29.298  1.00  0.00    -0.354 N 
ATOM     37  C   UNL A   1      41.301  29.963  32.427  1.00  0.00     0.074 A 
ATOM     38  C   UNL A   1      40.162  30.852  32.371  1.00  0.00     0.031 C 
ATOM     39  C   UNL A   1      40.333  26.026  27.449  1.00  0.00     0.029 A 
ATOM     40  C   UNL A   1      41.457  26.028  28.380  1.00  0.00     0.049 A 
ATOM     41  H   UNL A   1      41.692  27.213  30.078  1.00  0.00     0.167 HD
ATOM     42  C   UNL A   1      42.302  30.063  33.335  1.00  0.00     0.034 A 
ATOM     43  C   UNL A   1      42.542  25.234  28.290  1.00  0.00     0.034 A 
ATOM     44  C   UNL A   1      43.405  29.145  33.425  1.00  0.00     0.049 A 
ATOM     45  C   UNL A   1      43.610  25.329  29.347  1.00  0.00     0.074 A 
ATOM     46  C   UNL A   1      44.415  29.105  34.370  1.00  0.00     0.029 A 
ATOM     47  N   UNL A   1      43.646  28.107  32.539  1.00  0.00    -0.354 N 
ATOM     48  N   UNL A   1      43.668  26.119  30.391  1.00  0.00    -0.248 NA
ATOM     49  C   UNL A   1      44.742  24.397  29.236  1.00  0.00     0.031 C 
ATOM     50  C   UNL A   1      45.276  28.052  34.047  1.00  0.00     0.029 A 
ATOM     51  C   UNL A   1      44.791  27.424  32.910  1.00  0.00     0.049 A 
ATOM     52  H   UNL A   1      43.087  27.888  31.759  1.00  0.00     0.167 HD
ATOM     53  C   UNL A   1      44.819  25.757  31.079  1.00  0.00     0.074 A 
ATOM     54  C   UNL A   1      45.418  24.661  30.346  1.00  0.00     0.031 C 
ATOM     55  C   UNL A   1      45.344  26.295  32.208  1.00  0.00     0.034 A 
BRANCH  42  56
ATOM     56  C   UNL A   1      42.219  31.170  34.353  1.00  0.00     0.023 A 
ATOM     57  C   UNL A   1      41.653  30.907  35.617  1.00  0.00     0.012 A 
ATOM     58  C   UNL A   1      42.767  32.442  34.092  1.00  0.00     0.148 A 
ATOM     59  C   UNL A   1      41.605  31.898  36.595  1.00  0.00     0.002 A 
ATOM     60  C   UNL A   1      42.753  33.413  35.087  1.00  0.00     0.091 A 
ATOM     61  F   UNL A   1      43.284  32.679  32.878  1.00  0.00    -0.205 F 
ATOM     62  C   UNL A   1      42.165  33.147  36.334  1.00  0.00     0.022 A 
BRANCH  60  63
ATOM     63  S   UNL A   1      43.516  35.026  34.878  1.00  0.00     0.127 S 
ATOM     64  O   UNL A   1      42.744  35.576  33.764  1.00  0.00    -0.237 OA
ATOM     65  O   UNL A   1      43.256  35.661  36.171  1.00  0.00    -0.237 OA
ATOM     66  O   UNL A   1      44.922  34.772  34.599  1.00  0.00    -0.744 OA
ENDBRANCH  60  63
ENDBRANCH  42  56
BRANCH  43  67
ATOM     67  C   UNL A   1      42.640  24.227  27.196  1.00  0.00     0.023 A 
ATOM     68  C   UNL A   1      43.351  24.550  26.024  1.00  0.00     0.012 A 
ATOM     69  C   UNL A   1      42.062  22.949  27.318  1.00  0.00     0.148 A 
ATOM     70  C   UNL A   1      43.455  23.631  24.978  1.00  0.00     0.002 A 
ATOM     71  C   UNL A   1      42.216  22.020  26.296  1.00  0.00     0.091 A 
ATOM     72  F   UNL A   1      41.377  22.665  28.434  1.00  0.00    -0.205 F 
ATOM     73  C   UNL A   1      42.897  22.364  25.118  1.00  0.00     0.022 A 
BRANCH  71  74
ATOM     74  S   UNL A   1      41.642  20.324  26.449  1.00  0.00     0.127 S 
ATOM     75  O   UNL A   1      40.205  20.474  26.231  1.00  0.00    -0.237 OA
ATOM     76  O   UNL A   1      42.364  19.658  25.364  1.00  0.00    -0.237 OA
ATOM     77  O   UNL A   1      42.043  19.898  27.783  1.00  0.00    -0.744 OA
ENDBRANCH  71  74
ENDBRANCH  43  67
BRANCH  55  78
ATOM     78  C   UNL A   1      46.611  25.690  32.750  1.00  0.00     0.023 A 
ATOM     79  C   UNL A   1      46.546  24.768  33.814  1.00  0.00     0.012 A 
ATOM     80  C   UNL A   1      47.857  25.974  32.155  1.00  0.00     0.148 A 
ATOM     81  C   UNL A   1      47.705  24.160  34.296  1.00  0.00     0.002 A 
ATOM     82  C   UNL A   1      49.002  25.329  32.611  1.00  0.00     0.091 A 
ATOM     83  F   UNL A   1      47.901  26.869  31.158  1.00  0.00    -0.205 F 
ATOM     84  C   UNL A   1      48.928  24.430  33.688  1.00  0.00     0.022 A 
BRANCH  82  85
ATOM     85  S   UNL A   1      50.603  25.545  31.825  1.00  0.00     0.127 S 
ATOM     86  O   UNL A   1      51.402  24.517  32.489  1.00  0.00    -0.237 OA
ATOM     87  O   UNL A   1      50.300  25.271  30.420  1.00  0.00    -0.237 OA
ATOM     88  O   UNL A   1      50.998  26.921  32.098  1.00  0.00    -0.744 OA
ENDBRANCH  82  85
ENDBRANCH  55  78
ENDBRANCH  29  30
ENDBRANCH  21  24
ENDBRANCH  19  20
ENDBRANCH   1  19
TORSDOF 16
ENDMDL
