MODEL 1
REMARK VINA RESULT:     -12.3      0.000      0.000
REMARK SMILES C[C@H]1[C@@H](C(=O)NCCCNC(=O)c2ccc(-c3c4nc(c(-c5cccc(S(=O)(=O)[O-])c5F)c5ccc([nH]5)c(-c5cccc(S(=O)(=O)[O-])c5F)c5nc(c(-c6cccc(S(=O)(=O)[O-])c6F)c6ccc3[nH]6)C=C5)C=C4)cc2)CCN1C(=O)/C=C/c1cccc(F)c1
REMARK SMILES IDX 8 1 7 2 6 3 4 4 5 5 3 7 1 8 2 9 78 10 76 11 77 12 79 13
REMARK SMILES IDX 80 14 81 15 82 16 83 17 84 18 89 19 85 20 87 21 86 22 88 23
REMARK SMILES IDX 9 24 10 25 11 26 12 28 13 29 14 30 75 31 15 32 74 33 16 34
REMARK SMILES IDX 17 35 18 36 68 37 19 38 73 39 67 40 69 41 20 42 72 43 66 44
REMARK SMILES IDX 65 45 21 47 53 48 33 49 52 50 34 51 37 52 51 53 70 54 35 55
REMARK SMILES IDX 36 56 50 58 71 59 38 60 22 61 23 62 31 63 24 64 26 65 32 66
REMARK SMILES IDX 25 67 27 68 28 69 29 70 30 71 54 72 55 73 63 74 56 75 58 76
REMARK SMILES IDX 64 77 57 78 59 79 60 80 61 81 62 82 39 83 40 84 48 85 41 86
REMARK SMILES IDX 43 87 49 88 42 89 44 90 45 91 46 92 47 93
REMARK H PARENT 6 6 10 27 69 46 37 57
REMARK Flexibility Score: inf
ROOT
ATOM      1  C   UNL A   1      36.529  21.399  25.767  1.00  0.00     0.042 C 
ENDROOT
BRANCH   1   2
ATOM      2  C   UNL A   1      35.577  20.463  25.015  1.00  0.00     0.117 C 
BRANCH   2   3
ATOM      3  N   UNL A   1      34.206  20.596  25.485  1.00  0.00    -0.356 N 
ATOM      4  C   UNL A   1      33.145  21.321  25.030  1.00  0.00     0.225 C 
ATOM      5  O   UNL A   1      32.112  21.248  25.701  1.00  0.00    -0.275 OA
ATOM      6  H   UNL A   1      34.006  20.058  26.285  1.00  0.00     0.163 HD
BRANCH   4   7
ATOM      7  C   UNL A   1      33.191  22.080  23.705  1.00  0.00     0.102 C 
ATOM      8  C   UNL A   1      34.265  24.128  24.951  1.00  0.00     0.032 C 
ATOM      9  C   UNL A   1      33.884  23.460  23.637  1.00  0.00     0.094 C 
ATOM     10  N   UNL A   1      32.954  24.333  22.919  1.00  0.00    -0.336 N 
ATOM     11  C   UNL A   1      31.780  22.330  23.109  1.00  0.00     0.037 C 
ATOM     12  C   UNL A   1      31.608  23.837  23.079  1.00  0.00     0.121 C 
BRANCH  10  13
ATOM     13  C   UNL A   1      33.200  25.586  22.386  1.00  0.00     0.246 C 
ATOM     14  O   UNL A   1      33.645  25.767  21.257  1.00  0.00    -0.270 OA
BRANCH  13  15
ATOM     15  C   UNL A   1      32.770  26.761  23.198  1.00  0.00     0.072 C 
ATOM     16  C   UNL A   1      33.622  27.416  24.002  1.00  0.00     0.014 C 
BRANCH  16  17
ATOM     17  C   UNL A   1      33.268  28.425  25.019  1.00  0.00    -0.023 A 
ATOM     18  C   UNL A   1      33.869  28.318  26.286  1.00  0.00     0.008 A 
ATOM     19  C   UNL A   1      32.310  29.428  24.824  1.00  0.00     0.047 A 
ATOM     20  C   UNL A   1      33.531  29.190  27.328  1.00  0.00     0.004 A 
ATOM     21  C   UNL A   1      31.981  30.291  25.869  1.00  0.00     0.123 A 
ATOM     22  C   UNL A   1      32.581  30.182  27.116  1.00  0.00     0.039 A 
ATOM     23  F   UNL A   1      31.054  31.238  25.676  1.00  0.00    -0.207 F 
ENDBRANCH  16  17
ENDBRANCH  13  15
ENDBRANCH  10  13
ENDBRANCH   4   7
ENDBRANCH   2   3
ENDBRANCH   1   2
BRANCH   1  24
ATOM     24  C   UNL A   1      37.928  21.511  25.179  1.00  0.00     0.118 C 
BRANCH  24  25
ATOM     25  N   UNL A   1      38.857  20.603  25.822  1.00  0.00    -0.352 N 
ATOM     26  C   UNL A   1      40.039  20.842  26.483  1.00  0.00     0.251 C 
ATOM     27  H   UNL A   1      38.599  19.655  25.778  1.00  0.00     0.163 HD
ATOM     28  O   UNL A   1      40.775  19.880  26.705  1.00  0.00    -0.269 OA
BRANCH  26  29
ATOM     29  C   UNL A   1      40.460  22.200  26.929  1.00  0.00     0.039 A 
ATOM     30  C   UNL A   1      40.049  23.302  26.167  1.00  0.00     0.014 A 
ATOM     31  C   UNL A   1      41.329  22.417  28.002  1.00  0.00     0.014 A 
ATOM     32  C   UNL A   1      40.487  24.594  26.485  1.00  0.00     0.010 A 
ATOM     33  C   UNL A   1      41.686  23.716  28.379  1.00  0.00     0.010 A 
ATOM     34  C   UNL A   1      41.303  24.820  27.606  1.00  0.00    -0.014 A 
BRANCH  34  35
ATOM     35  C   UNL A   1      41.790  26.188  27.944  1.00  0.00     0.031 A 
ATOM     36  C   UNL A   1      43.197  26.612  27.596  1.00  0.00     0.074 A 
ATOM     37  C   UNL A   1      40.989  27.043  28.611  1.00  0.00     0.049 A 
ATOM     38  N   UNL A   1      43.798  27.753  27.824  1.00  0.00    -0.248 NA
ATOM     39  C   UNL A   1      44.053  25.616  26.929  1.00  0.00     0.031 C 
ATOM     40  C   UNL A   1      39.638  26.738  29.087  1.00  0.00     0.029 A 
ATOM     41  N   UNL A   1      41.201  28.336  29.023  1.00  0.00    -0.354 N 
ATOM     42  C   UNL A   1      45.103  27.601  27.366  1.00  0.00     0.074 A 
ATOM     43  C   UNL A   1      45.220  26.242  26.883  1.00  0.00     0.031 C 
ATOM     44  C   UNL A   1      39.140  27.814  29.718  1.00  0.00     0.029 A 
ATOM     45  C   UNL A   1      40.140  28.878  29.713  1.00  0.00     0.049 A 
ATOM     46  H   UNL A   1      42.033  28.829  28.842  1.00  0.00     0.167 HD
ATOM     47  C   UNL A   1      46.104  28.513  27.312  1.00  0.00     0.034 A 
ATOM     48  C   UNL A   1      39.987  30.092  30.279  1.00  0.00     0.034 A 
ATOM     49  C   UNL A   1      45.975  29.881  27.739  1.00  0.00     0.049 A 
ATOM     50  C   UNL A   1      41.088  31.109  30.149  1.00  0.00     0.074 A 
ATOM     51  C   UNL A   1      46.903  30.905  27.643  1.00  0.00     0.029 A 
ATOM     52  N   UNL A   1      44.850  30.419  28.342  1.00  0.00    -0.354 N 
ATOM     53  N   UNL A   1      42.255  30.992  29.564  1.00  0.00    -0.248 NA
ATOM     54  C   UNL A   1      40.834  32.441  30.717  1.00  0.00     0.031 C 
ATOM     55  C   UNL A   1      46.342  32.058  28.204  1.00  0.00     0.029 A 
ATOM     56  C   UNL A   1      45.058  31.758  28.629  1.00  0.00     0.049 A 
ATOM     57  H   UNL A   1      44.023  29.921  28.539  1.00  0.00     0.167 HD
ATOM     58  C   UNL A   1      42.863  32.237  29.670  1.00  0.00     0.074 A 
ATOM     59  C   UNL A   1      41.921  33.104  30.349  1.00  0.00     0.031 C 
ATOM     60  C   UNL A   1      44.096  32.624  29.260  1.00  0.00     0.034 A 
BRANCH  47  61
ATOM     61  C   UNL A   1      47.414  28.077  26.702  1.00  0.00     0.023 A 
ATOM     62  C   UNL A   1      48.488  27.727  27.546  1.00  0.00     0.012 A 
ATOM     63  C   UNL A   1      47.571  27.963  25.307  1.00  0.00     0.148 A 
ATOM     64  C   UNL A   1      49.708  27.310  27.015  1.00  0.00     0.002 A 
ATOM     65  C   UNL A   1      48.775  27.502  24.784  1.00  0.00     0.091 A 
ATOM     66  F   UNL A   1      46.548  28.316  24.516  1.00  0.00    -0.205 F 
ATOM     67  C   UNL A   1      49.847  27.188  25.636  1.00  0.00     0.022 A 
BRANCH  65  68
ATOM     68  S   UNL A   1      49.032  27.236  23.025  1.00  0.00     0.127 S 
ATOM     69  O   UNL A   1      50.486  27.095  22.958  1.00  0.00    -0.237 OA
ATOM     70  O   UNL A   1      48.288  25.998  22.788  1.00  0.00    -0.237 OA
ATOM     71  O   UNL A   1      48.484  28.409  22.360  1.00  0.00    -0.744 OA
ENDBRANCH  65  68
ENDBRANCH  47  61
BRANCH  48  72
ATOM     72  C   UNL A   1      38.704  30.433  30.959  1.00  0.00     0.023 A 
ATOM     73  C   UNL A   1      38.499  30.035  32.294  1.00  0.00     0.012 A 
ATOM     74  C   UNL A   1      37.707  31.180  30.304  1.00  0.00     0.148 A 
ATOM     75  C   UNL A   1      37.313  30.353  32.956  1.00  0.00     0.002 A 
ATOM     76  C   UNL A   1      36.552  31.542  30.988  1.00  0.00     0.091 A 
ATOM     77  F   UNL A   1      37.914  31.536  29.028  1.00  0.00    -0.205 F 
ATOM     78  C   UNL A   1      36.345  31.115  32.308  1.00  0.00     0.022 A 
BRANCH  76  79
ATOM     79  S   UNL A   1      35.319  32.636  30.273  1.00  0.00     0.127 S 
ATOM     80  O   UNL A   1      34.911  31.888  29.084  1.00  0.00    -0.237 OA
ATOM     81  O   UNL A   1      34.313  32.694  31.335  1.00  0.00    -0.237 OA
ATOM     82  O   UNL A   1      36.006  33.893  30.028  1.00  0.00    -0.744 OA
ENDBRANCH  76  79
ENDBRANCH  48  72
BRANCH  60  83
ATOM     83  C   UNL A   1      44.499  34.054  29.514  1.00  0.00     0.023 A 
ATOM     84  C   UNL A   1      45.122  34.400  30.729  1.00  0.00     0.012 A 
ATOM     85  C   UNL A   1      44.317  35.043  28.527  1.00  0.00     0.148 A 
ATOM     86  C   UNL A   1      45.523  35.712  30.974  1.00  0.00     0.002 A 
ATOM     87  C   UNL A   1      44.761  36.339  28.758  1.00  0.00     0.091 A 
ATOM     88  F   UNL A   1      43.704  34.701  27.383  1.00  0.00    -0.205 F 
ATOM     89  C   UNL A   1      45.353  36.679  29.986  1.00  0.00     0.022 A 
BRANCH  87  90
ATOM     90  S   UNL A   1      44.668  37.623  27.505  1.00  0.00     0.127 S 
ATOM     91  O   UNL A   1      44.993  38.820  28.280  1.00  0.00    -0.237 OA
ATOM     92  O   UNL A   1      45.704  37.212  26.556  1.00  0.00    -0.237 OA
ATOM     93  O   UNL A   1      43.311  37.566  26.977  1.00  0.00    -0.744 OA
ENDBRANCH  87  90
ENDBRANCH  60  83
ENDBRANCH  34  35
ENDBRANCH  26  29
ENDBRANCH  24  25
ENDBRANCH   1  24
TORSDOF 16
ENDMDL
MODEL 2
REMARK VINA RESULT:     -12.2      5.157     10.504
REMARK SMILES C[C@H]1[C@@H](C(=O)NCCCNC(=O)c2ccc(-c3c4nc(c(-c5cccc(S(=O)(=O)[O-])c5F)c5ccc([nH]5)c(-c5cccc(S(=O)(=O)[O-])c5F)c5nc(c(-c6cccc(S(=O)(=O)[O-])c6F)c6ccc3[nH]6)C=C5)C=C4)cc2)CCN1C(=O)/C=C/c1cccc(F)c1
REMARK SMILES IDX 8 1 7 2 6 3 4 4 5 5 3 7 1 8 2 9 78 10 76 11 77 12 79 13
REMARK SMILES IDX 80 14 81 15 82 16 83 17 84 18 89 19 85 20 87 21 86 22 88 23
REMARK SMILES IDX 9 24 10 25 11 26 12 28 13 29 14 30 75 31 15 32 74 33 16 34
REMARK SMILES IDX 17 35 18 36 68 37 19 38 73 39 67 40 69 41 20 42 72 43 66 44
REMARK SMILES IDX 65 45 21 47 53 48 33 49 52 50 34 51 37 52 51 53 70 54 35 55
REMARK SMILES IDX 36 56 50 58 71 59 38 60 22 61 23 62 31 63 24 64 26 65 32 66
REMARK SMILES IDX 25 67 27 68 28 69 29 70 30 71 54 72 55 73 63 74 56 75 58 76
REMARK SMILES IDX 64 77 57 78 59 79 60 80 61 81 62 82 39 83 40 84 48 85 41 86
REMARK SMILES IDX 43 87 49 88 42 89 44 90 45 91 46 92 47 93
REMARK H PARENT 6 6 10 27 69 46 37 57
REMARK Flexibility Score: inf
ROOT
ATOM      1  C   UNL A   1      32.996  29.330  24.208  1.00  0.00     0.042 C 
ENDROOT
BRANCH   1   2
ATOM      2  C   UNL A   1      33.999  28.229  23.845  1.00  0.00     0.117 C 
BRANCH   2   3
ATOM      3  N   UNL A   1      33.573  27.475  22.676  1.00  0.00    -0.356 N 
ATOM      4  C   UNL A   1      32.722  26.421  22.521  1.00  0.00     0.225 C 
ATOM      5  O   UNL A   1      32.615  25.974  21.377  1.00  0.00    -0.275 OA
ATOM      6  H   UNL A   1      33.976  27.786  21.833  1.00  0.00     0.163 HD
BRANCH   4   7
ATOM      7  C   UNL A   1      31.859  25.902  23.671  1.00  0.00     0.102 C 
ATOM      8  C   UNL A   1      33.920  24.541  24.564  1.00  0.00     0.032 C 
ATOM      9  C   UNL A   1      32.503  25.050  24.788  1.00  0.00     0.094 C 
ATOM     10  N   UNL A   1      31.614  23.901  24.969  1.00  0.00    -0.336 N 
ATOM     11  C   UNL A   1      30.660  25.048  23.180  1.00  0.00     0.037 C 
ATOM     12  C   UNL A   1      30.887  23.659  23.747  1.00  0.00     0.121 C 
BRANCH  10  13
ATOM     13  C   UNL A   1      31.611  22.981  26.003  1.00  0.00     0.246 C 
ATOM     14  O   UNL A   1      31.374  23.276  27.170  1.00  0.00    -0.270 OA
BRANCH  13  15
ATOM     15  C   UNL A   1      31.776  21.547  25.631  1.00  0.00     0.072 C 
ATOM     16  C   UNL A   1      32.843  21.112  24.944  1.00  0.00     0.014 C 
BRANCH  16  17
ATOM     17  C   UNL A   1      33.002  19.785  24.319  1.00  0.00    -0.023 A 
ATOM     18  C   UNL A   1      34.022  18.947  24.808  1.00  0.00     0.008 A 
ATOM     19  C   UNL A   1      32.256  19.344  23.219  1.00  0.00     0.047 A 
ATOM     20  C   UNL A   1      34.286  17.704  24.222  1.00  0.00     0.004 A 
ATOM     21  C   UNL A   1      32.528  18.103  22.643  1.00  0.00     0.123 A 
ATOM     22  C   UNL A   1      33.533  17.281  23.134  1.00  0.00     0.039 A 
ATOM     23  F   UNL A   1      31.817  17.698  21.583  1.00  0.00    -0.207 F 
ENDBRANCH  16  17
ENDBRANCH  13  15
ENDBRANCH  10  13
ENDBRANCH   4   7
ENDBRANCH   2   3
ENDBRANCH   1   2
BRANCH   1  24
ATOM     24  C   UNL A   1      32.668  29.446  25.690  1.00  0.00     0.118 C 
BRANCH  24  25
ATOM     25  N   UNL A   1      32.463  30.824  26.089  1.00  0.00    -0.352 N 
ATOM     26  C   UNL A   1      33.096  31.590  27.040  1.00  0.00     0.251 C 
ATOM     27  H   UNL A   1      31.751  31.292  25.597  1.00  0.00     0.163 HD
ATOM     28  O   UNL A   1      32.560  32.647  27.373  1.00  0.00    -0.269 OA
BRANCH  26  29
ATOM     29  C   UNL A   1      34.383  31.193  27.677  1.00  0.00     0.039 A 
ATOM     30  C   UNL A   1      34.541  29.857  28.069  1.00  0.00     0.014 A 
ATOM     31  C   UNL A   1      35.390  32.107  27.999  1.00  0.00     0.014 A 
ATOM     32  C   UNL A   1      35.692  29.444  28.754  1.00  0.00     0.010 A 
ATOM     33  C   UNL A   1      36.581  31.676  28.593  1.00  0.00     0.010 A 
ATOM     34  C   UNL A   1      36.735  30.348  29.014  1.00  0.00    -0.014 A 
BRANCH  34  35
ATOM     35  C   UNL A   1      37.956  29.925  29.757  1.00  0.00     0.031 A 
ATOM     36  C   UNL A   1      38.237  30.454  31.144  1.00  0.00     0.074 A 
ATOM     37  C   UNL A   1      38.849  29.101  29.173  1.00  0.00     0.049 A 
ATOM     38  N   UNL A   1      39.252  30.210  31.934  1.00  0.00    -0.248 NA
ATOM     39  C   UNL A   1      37.263  31.404  31.709  1.00  0.00     0.031 C 
ATOM     40  C   UNL A   1      38.752  28.581  27.807  1.00  0.00     0.029 A 
ATOM     41  N   UNL A   1      40.025  28.571  29.645  1.00  0.00    -0.354 N 
ATOM     42  C   UNL A   1      39.060  30.998  33.064  1.00  0.00     0.074 A 
ATOM     43  C   UNL A   1      37.851  31.761  32.841  1.00  0.00     0.031 C 
ATOM     44  C   UNL A   1      39.817  27.804  27.555  1.00  0.00     0.029 A 
ATOM     45  C   UNL A   1      40.685  27.785  28.729  1.00  0.00     0.049 A 
ATOM     46  H   UNL A   1      40.365  28.738  30.554  1.00  0.00     0.167 HD
ATOM     47  C   UNL A   1      39.794  31.058  34.202  1.00  0.00     0.034 A 
ATOM     48  C   UNL A   1      41.856  27.123  28.819  1.00  0.00     0.034 A 
ATOM     49  C   UNL A   1      40.965  30.260  34.451  1.00  0.00     0.049 A 
ATOM     50  C   UNL A   1      42.621  27.152  30.115  1.00  0.00     0.074 A 
ATOM     51  C   UNL A   1      41.726  30.183  35.605  1.00  0.00     0.029 A 
ATOM     52  N   UNL A   1      41.546  29.399  33.533  1.00  0.00    -0.354 N 
ATOM     53  N   UNL A   1      42.331  27.778  31.229  1.00  0.00    -0.248 NA
ATOM     54  C   UNL A   1      43.850  26.348  30.181  1.00  0.00     0.031 C 
ATOM     55  C   UNL A   1      42.777  29.287  35.378  1.00  0.00     0.029 A 
ATOM     56  C   UNL A   1      42.658  28.790  34.090  1.00  0.00     0.049 A 
ATOM     57  H   UNL A   1      41.217  29.244  32.619  1.00  0.00     0.167 HD
ATOM     58  C   UNL A   1      43.325  27.424  32.135  1.00  0.00     0.074 A 
ATOM     59  C   UNL A   1      44.207  26.503  31.448  1.00  0.00     0.031 C 
ATOM     60  C   UNL A   1      43.501  27.838  33.414  1.00  0.00     0.034 A 
BRANCH  47  61
ATOM     61  C   UNL A   1      39.310  31.974  35.299  1.00  0.00     0.023 A 
ATOM     62  C   UNL A   1      38.350  31.504  36.220  1.00  0.00     0.012 A 
ATOM     63  C   UNL A   1      39.836  33.271  35.456  1.00  0.00     0.148 A 
ATOM     64  C   UNL A   1      37.890  32.322  37.251  1.00  0.00     0.002 A 
ATOM     65  C   UNL A   1      39.407  34.065  36.515  1.00  0.00     0.091 A 
ATOM     66  F   UNL A   1      40.735  33.710  34.564  1.00  0.00    -0.205 F 
ATOM     67  C   UNL A   1      38.425  33.597  37.404  1.00  0.00     0.022 A 
BRANCH  65  68
ATOM     68  S   UNL A   1      40.090  35.694  36.846  1.00  0.00     0.127 S 
ATOM     69  O   UNL A   1      41.524  35.408  36.892  1.00  0.00    -0.237 OA
ATOM     70  O   UNL A   1      39.658  36.454  35.673  1.00  0.00    -0.237 OA
ATOM     71  O   UNL A   1      39.497  36.129  38.102  1.00  0.00    -0.744 OA
ENDBRANCH  65  68
ENDBRANCH  47  61
BRANCH  48  72
ATOM     72  C   UNL A   1      42.338  26.313  27.663  1.00  0.00     0.023 A 
ATOM     73  C   UNL A   1      43.240  26.883  26.744  1.00  0.00     0.012 A 
ATOM     74  C   UNL A   1      41.938  24.974  27.493  1.00  0.00     0.148 A 
ATOM     75  C   UNL A   1      43.715  26.142  25.661  1.00  0.00     0.002 A 
ATOM     76  C   UNL A   1      42.460  24.223  26.444  1.00  0.00     0.091 A 
ATOM     77  F   UNL A   1      41.066  24.454  28.369  1.00  0.00    -0.205 F 
ATOM     78  C   UNL A   1      43.335  24.811  25.518  1.00  0.00     0.022 A 
BRANCH  76  79
ATOM     79  S   UNL A   1      42.128  22.467  26.266  1.00  0.00     0.127 S 
ATOM     80  O   UNL A   1      42.641  21.938  27.528  1.00  0.00    -0.237 OA
ATOM     81  O   UNL A   1      40.669  22.446  26.140  1.00  0.00    -0.237 OA
ATOM     82  O   UNL A   1      42.838  22.055  25.068  1.00  0.00    -0.744 OA
ENDBRANCH  76  79
ENDBRANCH  48  72
BRANCH  60  83
ATOM     83  C   UNL A   1      44.684  27.286  34.169  1.00  0.00     0.023 A 
ATOM     84  C   UNL A   1      45.921  27.959  34.118  1.00  0.00     0.012 A 
ATOM     85  C   UNL A   1      44.555  26.139  34.976  1.00  0.00     0.148 A 
ATOM     86  C   UNL A   1      47.020  27.478  34.827  1.00  0.00     0.002 A 
ATOM     87  C   UNL A   1      45.642  25.692  35.718  1.00  0.00     0.091 A 
ATOM     88  F   UNL A   1      43.376  25.500  34.998  1.00  0.00    -0.205 F 
ATOM     89  C   UNL A   1      46.879  26.352  35.635  1.00  0.00     0.022 A 
BRANCH  87  90
ATOM     90  S   UNL A   1      45.522  24.307  36.856  1.00  0.00     0.127 S 
ATOM     91  O   UNL A   1      46.887  24.231  37.377  1.00  0.00    -0.237 OA
ATOM     92  O   UNL A   1      44.528  24.779  37.821  1.00  0.00    -0.237 OA
ATOM     93  O   UNL A   1      45.090  23.170  36.055  1.00  0.00    -0.744 OA
ENDBRANCH  87  90
ENDBRANCH  60  83
ENDBRANCH  34  35
ENDBRANCH  26  29
ENDBRANCH  24  25
ENDBRANCH   1  24
TORSDOF 16
ENDMDL
MODEL 3
REMARK VINA RESULT:     -12.1      5.260     10.746
REMARK SMILES C[C@H]1[C@@H](C(=O)NCCCNC(=O)c2ccc(-c3c4nc(c(-c5cccc(S(=O)(=O)[O-])c5F)c5ccc([nH]5)c(-c5cccc(S(=O)(=O)[O-])c5F)c5nc(c(-c6cccc(S(=O)(=O)[O-])c6F)c6ccc3[nH]6)C=C5)C=C4)cc2)CCN1C(=O)/C=C/c1cccc(F)c1
REMARK SMILES IDX 8 1 7 2 6 3 4 4 5 5 3 7 1 8 2 9 78 10 76 11 77 12 79 13
REMARK SMILES IDX 80 14 81 15 82 16 83 17 84 18 89 19 85 20 87 21 86 22 88 23
REMARK SMILES IDX 9 24 10 25 11 26 12 28 13 29 14 30 75 31 15 32 74 33 16 34
REMARK SMILES IDX 17 35 18 36 68 37 19 38 73 39 67 40 69 41 20 42 72 43 66 44
REMARK SMILES IDX 65 45 21 47 53 48 33 49 52 50 34 51 37 52 51 53 70 54 35 55
REMARK SMILES IDX 36 56 50 58 71 59 38 60 22 61 23 62 31 63 24 64 26 65 32 66
REMARK SMILES IDX 25 67 27 68 28 69 29 70 30 71 54 72 55 73 63 74 56 75 58 76
REMARK SMILES IDX 64 77 57 78 59 79 60 80 61 81 62 82 39 83 40 84 48 85 41 86
REMARK SMILES IDX 43 87 49 88 42 89 44 90 45 91 46 92 47 93
REMARK H PARENT 6 6 10 27 69 46 37 57
REMARK Flexibility Score: inf
ROOT
ATOM      1  C   UNL A   1      32.421  29.402  24.983  1.00  0.00     0.042 C 
ENDROOT
BRANCH   1   2
ATOM      2  C   UNL A   1      31.172  28.559  24.704  1.00  0.00     0.117 C 
BRANCH   2   3
ATOM      3  N   UNL A   1      31.246  27.896  23.410  1.00  0.00    -0.356 N 
ATOM      4  C   UNL A   1      31.373  26.587  23.054  1.00  0.00     0.225 C 
ATOM      5  O   UNL A   1      31.457  26.360  21.844  1.00  0.00    -0.275 OA
ATOM      6  H   UNL A   1      31.193  28.513  22.644  1.00  0.00     0.163 HD
BRANCH   4   7
ATOM      7  C   UNL A   1      31.294  25.457  24.080  1.00  0.00     0.102 C 
ATOM      8  C   UNL A   1      33.913  25.502  24.285  1.00  0.00     0.032 C 
ATOM      9  C   UNL A   1      32.576  24.993  24.808  1.00  0.00     0.094 C 
ATOM     10  N   UNL A   1      32.567  23.532  24.730  1.00  0.00    -0.336 N 
ATOM     11  C   UNL A   1      30.696  24.153  23.489  1.00  0.00     0.037 C 
ATOM     12  C   UNL A   1      31.801  23.117  23.579  1.00  0.00     0.121 C 
BRANCH  10  13
ATOM     13  C   UNL A   1      33.355  22.635  25.430  1.00  0.00     0.246 C 
ATOM     14  O   UNL A   1      33.868  22.890  26.515  1.00  0.00    -0.270 OA
BRANCH  13  15
ATOM     15  C   UNL A   1      33.460  21.254  24.878  1.00  0.00     0.072 C 
ATOM     16  C   UNL A   1      33.002  20.186  25.548  1.00  0.00     0.014 C 
BRANCH  16  17
ATOM     17  C   UNL A   1      33.258  18.770  25.222  1.00  0.00    -0.023 A 
ATOM     18  C   UNL A   1      34.240  18.487  24.255  1.00  0.00     0.008 A 
ATOM     19  C   UNL A   1      32.527  17.701  25.755  1.00  0.00     0.047 A 
ATOM     20  C   UNL A   1      34.491  17.175  23.835  1.00  0.00     0.004 A 
ATOM     21  C   UNL A   1      32.786  16.398  25.330  1.00  0.00     0.123 A 
ATOM     22  C   UNL A   1      33.759  16.126  24.377  1.00  0.00     0.039 A 
ATOM     23  F   UNL A   1      32.073  15.385  25.836  1.00  0.00    -0.207 F 
ENDBRANCH  16  17
ENDBRANCH  13  15
ENDBRANCH  10  13
ENDBRANCH   4   7
ENDBRANCH   2   3
ENDBRANCH   1   2
BRANCH   1  24
ATOM     24  C   UNL A   1      32.649  29.760  26.444  1.00  0.00     0.118 C 
BRANCH  24  25
ATOM     25  N   UNL A   1      32.678  31.195  26.649  1.00  0.00    -0.352 N 
ATOM     26  C   UNL A   1      33.515  31.980  27.406  1.00  0.00     0.251 C 
ATOM     27  H   UNL A   1      31.981  31.691  26.164  1.00  0.00     0.163 HD
ATOM     28  O   UNL A   1      33.167  33.141  27.626  1.00  0.00    -0.269 OA
BRANCH  26  29
ATOM     29  C   UNL A   1      34.804  31.487  27.967  1.00  0.00     0.039 A 
ATOM     30  C   UNL A   1      34.842  30.187  28.491  1.00  0.00     0.014 A 
ATOM     31  C   UNL A   1      35.940  32.291  28.094  1.00  0.00     0.014 A 
ATOM     32  C   UNL A   1      36.000  29.701  29.113  1.00  0.00     0.010 A 
ATOM     33  C   UNL A   1      37.126  31.772  28.624  1.00  0.00     0.010 A 
ATOM     34  C   UNL A   1      37.163  30.484  29.176  1.00  0.00    -0.014 A 
BRANCH  34  35
ATOM     35  C   UNL A   1      38.395  29.984  29.850  1.00  0.00     0.031 A 
ATOM     36  C   UNL A   1      38.785  30.491  31.219  1.00  0.00     0.074 A 
ATOM     37  C   UNL A   1      39.202  29.109  29.218  1.00  0.00     0.049 A 
ATOM     38  N   UNL A   1      39.825  30.182  31.951  1.00  0.00    -0.248 NA
ATOM     39  C   UNL A   1      37.904  31.498  31.837  1.00  0.00     0.031 C 
ATOM     40  C   UNL A   1      38.997  28.600  27.860  1.00  0.00     0.029 A 
ATOM     41  N   UNL A   1      40.367  28.506  29.624  1.00  0.00    -0.354 N 
ATOM     42  C   UNL A   1      39.745  30.977  33.090  1.00  0.00     0.074 A 
ATOM     43  C   UNL A   1      38.576  31.814  32.934  1.00  0.00     0.031 C 
ATOM     44  C   UNL A   1      39.996  27.758  27.549  1.00  0.00     0.029 A 
ATOM     45  C   UNL A   1      40.925  27.682  28.673  1.00  0.00     0.049 A 
ATOM     46  H   UNL A   1      40.766  28.648  30.512  1.00  0.00     0.167 HD
ATOM     47  C   UNL A   1      40.544  30.988  34.186  1.00  0.00     0.034 A 
ATOM     48  C   UNL A   1      42.056  26.949  28.698  1.00  0.00     0.034 A 
ATOM     49  C   UNL A   1      41.675  30.118  34.369  1.00  0.00     0.049 A 
ATOM     50  C   UNL A   1      42.892  26.927  29.950  1.00  0.00     0.074 A 
ATOM     51  C   UNL A   1      42.493  29.991  35.480  1.00  0.00     0.029 A 
ATOM     52  N   UNL A   1      42.150  29.226  33.422  1.00  0.00    -0.354 N 
ATOM     53  N   UNL A   1      42.704  27.566  31.078  1.00  0.00    -0.248 NA
ATOM     54  C   UNL A   1      44.070  26.048  29.948  1.00  0.00     0.031 C 
ATOM     55  C   UNL A   1      43.472  29.032  35.195  1.00  0.00     0.029 A 
ATOM     56  C   UNL A   1      43.251  28.547  33.916  1.00  0.00     0.049 A 
ATOM     57  H   UNL A   1      41.761  29.095  32.527  1.00  0.00     0.167 HD
ATOM     58  C   UNL A   1      43.722  27.149  31.928  1.00  0.00     0.074 A 
ATOM     59  C   UNL A   1      44.506  26.177  31.193  1.00  0.00     0.031 C 
ATOM     60  C   UNL A   1      43.995  27.547  33.195  1.00  0.00     0.034 A 
BRANCH  47  61
ATOM     61  C   UNL A   1      40.178  31.929  35.308  1.00  0.00     0.023 A 
ATOM     62  C   UNL A   1      40.862  33.155  35.434  1.00  0.00     0.012 A 
ATOM     63  C   UNL A   1      39.130  31.630  36.201  1.00  0.00     0.148 A 
ATOM     64  C   UNL A   1      40.541  34.050  36.454  1.00  0.00     0.002 A 
ATOM     65  C   UNL A   1      38.784  32.549  37.188  1.00  0.00     0.091 A 
ATOM     66  F   UNL A   1      38.500  30.454  36.080  1.00  0.00    -0.205 F 
ATOM     67  C   UNL A   1      39.497  33.752  37.323  1.00  0.00     0.022 A 
BRANCH  65  68
ATOM     68  S   UNL A   1      37.403  32.294  38.309  1.00  0.00     0.127 S 
ATOM     69  O   UNL A   1      37.917  32.879  39.547  1.00  0.00    -0.237 OA
ATOM     70  O   UNL A   1      36.338  33.065  37.668  1.00  0.00    -0.237 OA
ATOM     71  O   UNL A   1      37.174  30.857  38.342  1.00  0.00    -0.744 OA
ENDBRANCH  65  68
ENDBRANCH  47  61
BRANCH  48  72
ATOM     72  C   UNL A   1      42.422  26.114  27.518  1.00  0.00     0.023 A 
ATOM     73  C   UNL A   1      43.235  26.661  26.507  1.00  0.00     0.012 A 
ATOM     74  C   UNL A   1      42.002  24.775  27.412  1.00  0.00     0.148 A 
ATOM     75  C   UNL A   1      43.602  25.897  25.398  1.00  0.00     0.002 A 
ATOM     76  C   UNL A   1      42.417  24.001  26.334  1.00  0.00     0.091 A 
ATOM     77  F   UNL A   1      41.215  24.277  28.377  1.00  0.00    -0.205 F 
ATOM     78  C   UNL A   1      43.203  24.566  25.317  1.00  0.00     0.022 A 
BRANCH  76  79
ATOM     79  S   UNL A   1      42.062  22.244  26.222  1.00  0.00     0.127 S 
ATOM     80  O   UNL A   1      42.790  21.870  25.010  1.00  0.00    -0.237 OA
ATOM     81  O   UNL A   1      42.642  21.738  27.467  1.00  0.00    -0.237 OA
ATOM     82  O   UNL A   1      40.614  22.142  26.151  1.00  0.00    -0.744 OA
ENDBRANCH  76  79
ENDBRANCH  48  72
BRANCH  60  83
ATOM     83  C   UNL A   1      45.181  26.921  33.883  1.00  0.00     0.023 A 
ATOM     84  C   UNL A   1      46.440  27.550  33.815  1.00  0.00     0.012 A 
ATOM     85  C   UNL A   1      45.037  25.746  34.646  1.00  0.00     0.148 A 
ATOM     86  C   UNL A   1      47.544  27.000  34.464  1.00  0.00     0.002 A 
ATOM     87  C   UNL A   1      46.131  25.228  35.329  1.00  0.00     0.091 A 
ATOM     88  F   UNL A   1      43.836  25.149  34.684  1.00  0.00    -0.205 F 
ATOM     89  C   UNL A   1      47.388  25.846  35.229  1.00  0.00     0.022 A 
BRANCH  87  90
ATOM     90  S   UNL A   1      45.998  23.801  36.413  1.00  0.00     0.127 S 
ATOM     91  O   UNL A   1      47.339  23.742  36.993  1.00  0.00    -0.237 OA
ATOM     92  O   UNL A   1      44.948  24.213  37.346  1.00  0.00    -0.237 OA
ATOM     93  O   UNL A   1      45.634  22.682  35.553  1.00  0.00    -0.744 OA
ENDBRANCH  87  90
ENDBRANCH  60  83
ENDBRANCH  34  35
ENDBRANCH  26  29
ENDBRANCH  24  25
ENDBRANCH   1  24
TORSDOF 16
ENDMDL
