MODEL 1
REMARK VINA RESULT:     -11.2      0.000      0.000
REMARK SMILES COc1cc([C@H]2CC(c3ccc(S(C)(=O)=O)cc3)=NN2c2ccc(C(=O)NCCCNC(=O)c3ccc(-c4c5nc(c(-c6cccc(S(=O)(=O)[O-])c6F)c6ccc([nH]6)c(-c6cccc(S(=O)(=O)[O-])c6F)c6nc(c(-c7cccc(S(=O)(=O)[O-])c7F)c7ccc4[nH]7)C=C6)C=C5)cc3)cc2)cc(OC)c1OC
REMARK SMILES IDX 29 1 28 2 27 3 25 4 26 5 24 7 21 8 22 9 98 10 23 11 97 12
REMARK SMILES IDX 20 13 6 14 7 15 8 16 19 17 5 18 3 19 4 20 103 21 100 22
REMARK SMILES IDX 99 23 2 24 1 25 104 26 105 27 101 28 102 29 9 30 10 31 18 32
REMARK SMILES IDX 11 33 17 34 12 35 13 36 14 37 15 38 16 39 30 40 31 41 32 42
REMARK SMILES IDX 33 44 34 45 35 46 96 47 36 48 95 49 37 50 38 51 39 52 89 53
REMARK SMILES IDX 40 54 94 55 88 56 90 57 41 58 93 59 87 60 86 61 42 63 74 64
REMARK SMILES IDX 54 65 73 66 55 67 58 68 72 69 91 70 56 71 57 72 71 74 92 75
REMARK SMILES IDX 59 76 43 77 44 78 52 79 45 80 47 81 53 82 46 83 48 84 49 85
REMARK SMILES IDX 50 86 51 87 75 88 76 89 84 90 77 91 79 92 85 93 78 94 80 95
REMARK SMILES IDX 81 96 82 97 83 98 60 99 61 100 69 101 62 102 64 103 70 104
REMARK SMILES IDX 63 105 65 106 66 107 67 108 68 109
REMARK H PARENT 27 6 31 43 90 62 58 73
REMARK Flexibility Score: inf
ROOT
ATOM      1  C   UNL A   1      37.278  29.400  30.212  1.00  0.00     0.042 C 
ENDROOT
BRANCH   1   2
ATOM      2  C   UNL A   1      36.676  29.303  28.811  1.00  0.00     0.118 C 
BRANCH   2   3
ATOM      3  N   UNL A   1      35.746  30.389  28.563  1.00  0.00    -0.352 N 
ATOM      4  C   UNL A   1      34.558  30.447  27.881  1.00  0.00     0.251 C 
ATOM      5  O   UNL A   1      33.945  31.514  27.901  1.00  0.00    -0.269 OA
ATOM      6  H   UNL A   1      36.021  31.248  28.958  1.00  0.00     0.163 HD
BRANCH   4   7
ATOM      7  C   UNL A   1      33.956  29.276  27.185  1.00  0.00     0.039 A 
ATOM      8  C   UNL A   1      32.694  27.024  26.039  1.00  0.00     0.060 A 
ATOM      9  C   UNL A   1      32.047  27.786  27.017  1.00  0.00     0.029 A 
ATOM     10  C   UNL A   1      33.951  27.437  25.599  1.00  0.00     0.029 A 
ATOM     11  C   UNL A   1      32.676  28.887  27.598  1.00  0.00     0.016 A 
ATOM     12  C   UNL A   1      34.560  28.575  26.139  1.00  0.00     0.016 A 
BRANCH   8  13
ATOM     13  N   UNL A   1      32.083  25.898  25.526  1.00  0.00    -0.257 N 
ATOM     14  C   UNL A   1      30.662  25.795  25.199  1.00  0.00     0.144 C 
ATOM     15  C   UNL A   1      30.539  24.322  24.759  1.00  0.00     0.091 C 
ATOM     16  C   UNL A   1      31.947  23.850  25.011  1.00  0.00     0.071 C 
ATOM     17  N   UNL A   1      32.782  24.746  25.427  1.00  0.00    -0.176 NA
BRANCH  14  18
ATOM     18  C   UNL A   1      30.287  26.828  24.143  1.00  0.00    -0.015 A 
ATOM     19  C   UNL A   1      28.612  28.268  23.083  1.00  0.00     0.164 A 
ATOM     20  C   UNL A   1      28.951  27.217  23.958  1.00  0.00     0.056 A 
ATOM     21  C   UNL A   1      29.603  28.978  22.380  1.00  0.00     0.203 A 
ATOM     22  C   UNL A   1      30.945  28.591  22.571  1.00  0.00     0.164 A 
ATOM     23  C   UNL A   1      31.268  27.528  23.430  1.00  0.00     0.056 A 
BRANCH  19  24
ATOM     24  O   UNL A   1      27.294  28.649  23.050  1.00  0.00    -0.493 OA
ATOM     25  C   UNL A   1      26.461  27.765  23.800  1.00  0.00     0.278 C 
ENDBRANCH  19  24
BRANCH  21  26
ATOM     26  O   UNL A   1      29.402  30.012  21.508  1.00  0.00    -0.490 OA
ATOM     27  C   UNL A   1      29.062  31.307  21.969  1.00  0.00     0.278 C 
ENDBRANCH  21  26
BRANCH  22  28
ATOM     28  O   UNL A   1      32.063  29.131  21.978  1.00  0.00    -0.493 OA
ATOM     29  C   UNL A   1      33.318  28.880  22.598  1.00  0.00     0.278 C 
ENDBRANCH  22  28
ENDBRANCH  14  18
BRANCH  16  30
ATOM     30  C   UNL A   1      32.347  22.448  24.837  1.00  0.00    -0.002 A 
ATOM     31  C   UNL A   1      32.078  21.830  23.610  1.00  0.00     0.011 A 
ATOM     32  C   UNL A   1      32.909  21.730  25.893  1.00  0.00     0.011 A 
ATOM     33  C   UNL A   1      32.389  20.481  23.428  1.00  0.00     0.021 A 
ATOM     34  C   UNL A   1      33.196  20.373  25.722  1.00  0.00     0.021 A 
ATOM     35  C   UNL A   1      32.931  19.756  24.492  1.00  0.00     0.067 A 
BRANCH  35  36
ATOM     36  S   UNL A   1      33.295  18.028  24.271  1.00  0.00     0.175 S 
ATOM     37  C   UNL A   1      35.025  17.884  24.637  1.00  0.00     0.163 C 
ATOM     38  O   UNL A   1      32.547  17.311  25.291  1.00  0.00    -0.224 OA
ATOM     39  O   UNL A   1      33.120  17.719  22.869  1.00  0.00    -0.224 OA
ENDBRANCH  35  36
ENDBRANCH  16  30
ENDBRANCH   8  13
ENDBRANCH   4   7
ENDBRANCH   2   3
ENDBRANCH   1   2
BRANCH   1  40
ATOM     40  C   UNL A   1      37.813  30.791  30.548  1.00  0.00     0.118 C 
BRANCH  40  41
ATOM     41  N   UNL A   1      37.532  31.158  31.928  1.00  0.00    -0.352 N 
ATOM     42  C   UNL A   1      38.192  30.829  33.083  1.00  0.00     0.251 C 
ATOM     43  H   UNL A   1      36.744  31.735  32.052  1.00  0.00     0.163 HD
ATOM     44  O   UNL A   1      37.646  31.055  34.162  1.00  0.00    -0.269 OA
BRANCH  42  45
ATOM     45  C   UNL A   1      39.535  30.209  33.050  1.00  0.00     0.039 A 
ATOM     46  C   UNL A   1      39.627  28.815  33.125  1.00  0.00     0.014 A 
ATOM     47  C   UNL A   1      40.701  30.981  33.018  1.00  0.00     0.014 A 
ATOM     48  C   UNL A   1      40.881  28.199  33.133  1.00  0.00     0.010 A 
ATOM     49  C   UNL A   1      41.948  30.362  32.958  1.00  0.00     0.010 A 
ATOM     50  C   UNL A   1      42.053  28.965  33.030  1.00  0.00    -0.014 A 
BRANCH  50  51
ATOM     51  C   UNL A   1      43.386  28.311  32.988  1.00  0.00     0.031 A 
ATOM     52  C   UNL A   1      43.979  27.857  31.682  1.00  0.00     0.074 A 
ATOM     53  C   UNL A   1      44.040  28.077  34.143  1.00  0.00     0.049 A 
ATOM     54  N   UNL A   1      45.134  27.283  31.457  1.00  0.00    -0.248 NA
ATOM     55  C   UNL A   1      43.163  28.049  30.472  1.00  0.00     0.031 C 
ATOM     56  C   UNL A   1      43.530  28.390  35.480  1.00  0.00     0.029 A 
ATOM     57  N   UNL A   1      45.264  27.505  34.380  1.00  0.00    -0.354 N 
ATOM     58  C   UNL A   1      45.171  27.020  30.094  1.00  0.00     0.074 A 
ATOM     59  C   UNL A   1      43.909  27.465  29.544  1.00  0.00     0.031 C 
ATOM     60  C   UNL A   1      44.438  28.017  36.395  1.00  0.00     0.029 A 
ATOM     61  C   UNL A   1      45.585  27.422  35.714  1.00  0.00     0.049 A 
ATOM     62  H   UNL A   1      45.857  27.184  33.662  1.00  0.00     0.167 HD
ATOM     63  C   UNL A   1      46.177  26.486  29.358  1.00  0.00     0.034 A 
ATOM     64  C   UNL A   1      46.683  26.932  36.322  1.00  0.00     0.034 A 
ATOM     65  C   UNL A   1      47.448  26.086  29.902  1.00  0.00     0.049 A 
ATOM     66  C   UNL A   1      47.809  26.404  35.477  1.00  0.00     0.074 A 
ATOM     67  C   UNL A   1      48.563  25.617  29.230  1.00  0.00     0.029 A 
ATOM     68  N   UNL A   1      47.773  26.103  31.249  1.00  0.00    -0.354 N 
ATOM     69  N   UNL A   1      47.895  26.324  34.171  1.00  0.00    -0.248 NA
ATOM     70  C   UNL A   1      49.010  25.939  36.187  1.00  0.00     0.031 C 
ATOM     71  C   UNL A   1      49.559  25.338  30.173  1.00  0.00     0.029 A 
ATOM     72  C   UNL A   1      49.069  25.649  31.431  1.00  0.00     0.049 A 
ATOM     73  H   UNL A   1      47.170  26.394  31.972  1.00  0.00     0.167 HD
ATOM     74  C   UNL A   1      49.165  25.829  33.901  1.00  0.00     0.074 A 
ATOM     75  C   UNL A   1      49.824  25.656  35.180  1.00  0.00     0.031 C 
ATOM     76  C   UNL A   1      49.730  25.527  32.705  1.00  0.00     0.034 A 
BRANCH  63  77
ATOM     77  C   UNL A   1      45.968  26.364  27.870  1.00  0.00     0.023 A 
ATOM     78  C   UNL A   1      46.281  27.459  27.038  1.00  0.00     0.012 A 
ATOM     79  C   UNL A   1      45.522  25.162  27.289  1.00  0.00     0.148 A 
ATOM     80  C   UNL A   1      46.123  27.371  25.655  1.00  0.00     0.002 A 
ATOM     81  C   UNL A   1      45.406  25.068  25.906  1.00  0.00     0.091 A 
ATOM     82  F   UNL A   1      45.209  24.138  28.095  1.00  0.00    -0.205 F 
ATOM     83  C   UNL A   1      45.695  26.174  25.090  1.00  0.00     0.022 A 
BRANCH  81  84
ATOM     84  S   UNL A   1      44.938  23.545  25.073  1.00  0.00     0.127 S 
ATOM     85  O   UNL A   1      45.321  22.540  26.064  1.00  0.00    -0.237 OA
ATOM     86  O   UNL A   1      43.495  23.715  24.905  1.00  0.00    -0.237 OA
ATOM     87  O   UNL A   1      45.695  23.520  23.830  1.00  0.00    -0.744 OA
ENDBRANCH  81  84
ENDBRANCH  63  77
BRANCH  64  88
ATOM     88  C   UNL A   1      46.802  27.003  37.805  1.00  0.00     0.023 A 
ATOM     89  C   UNL A   1      46.322  25.932  38.586  1.00  0.00     0.012 A 
ATOM     90  C   UNL A   1      47.420  28.095  38.444  1.00  0.00     0.148 A 
ATOM     91  C   UNL A   1      46.428  25.964  39.977  1.00  0.00     0.002 A 
ATOM     92  C   UNL A   1      47.571  28.094  39.826  1.00  0.00     0.091 A 
ATOM     93  F   UNL A   1      47.858  29.110  37.685  1.00  0.00    -0.205 F 
ATOM     94  C   UNL A   1      47.060  27.038  40.596  1.00  0.00     0.022 A 
BRANCH  92  95
ATOM     95  S   UNL A   1      48.495  29.369  40.690  1.00  0.00     0.127 S 
ATOM     96  O   UNL A   1      47.683  30.556  40.434  1.00  0.00    -0.237 OA
ATOM     97  O   UNL A   1      48.462  28.885  42.071  1.00  0.00    -0.237 OA
ATOM     98  O   UNL A   1      49.822  29.363  40.089  1.00  0.00    -0.744 OA
ENDBRANCH  92  95
ENDBRANCH  64  88
BRANCH  76  99
ATOM     99  C   UNL A   1      51.138  24.994  32.719  1.00  0.00     0.023 A 
ATOM    100  C   UNL A   1      52.222  25.886  32.590  1.00  0.00     0.012 A 
ATOM    101  C   UNL A   1      51.391  23.623  32.911  1.00  0.00     0.148 A 
ATOM    102  C   UNL A   1      53.534  25.416  32.615  1.00  0.00     0.002 A 
ATOM    103  C   UNL A   1      52.703  23.168  32.983  1.00  0.00     0.091 A 
ATOM    104  F   UNL A   1      50.349  22.785  33.010  1.00  0.00    -0.205 F 
ATOM    105  C   UNL A   1      53.775  24.060  32.823  1.00  0.00     0.022 A 
BRANCH 103 106
ATOM    106  S   UNL A   1      53.100  21.452  33.339  1.00  0.00     0.127 S 
ATOM    107  O   UNL A   1      53.226  20.889  31.995  1.00  0.00    -0.237 OA
ATOM    108  O   UNL A   1      54.362  21.566  34.071  1.00  0.00    -0.237 OA
ATOM    109  O   UNL A   1      51.989  20.946  34.134  1.00  0.00    -0.744 OA
ENDBRANCH 103 106
ENDBRANCH  76  99
ENDBRANCH  50  51
ENDBRANCH  42  45
ENDBRANCH  40  41
ENDBRANCH   1  40
TORSDOF 20
ENDMDL
MODEL 2
REMARK VINA RESULT:     -11.2      1.198      7.113
REMARK SMILES COc1cc([C@H]2CC(c3ccc(S(C)(=O)=O)cc3)=NN2c2ccc(C(=O)NCCCNC(=O)c3ccc(-c4c5nc(c(-c6cccc(S(=O)(=O)[O-])c6F)c6ccc([nH]6)c(-c6cccc(S(=O)(=O)[O-])c6F)c6nc(c(-c7cccc(S(=O)(=O)[O-])c7F)c7ccc4[nH]7)C=C6)C=C5)cc3)cc2)cc(OC)c1OC
REMARK SMILES IDX 29 1 28 2 27 3 25 4 26 5 24 7 21 8 22 9 98 10 23 11 97 12
REMARK SMILES IDX 20 13 6 14 7 15 8 16 19 17 5 18 3 19 4 20 103 21 100 22
REMARK SMILES IDX 99 23 2 24 1 25 104 26 105 27 101 28 102 29 9 30 10 31 18 32
REMARK SMILES IDX 11 33 17 34 12 35 13 36 14 37 15 38 16 39 30 40 31 41 32 42
REMARK SMILES IDX 33 44 34 45 35 46 96 47 36 48 95 49 37 50 38 51 39 52 89 53
REMARK SMILES IDX 40 54 94 55 88 56 90 57 41 58 93 59 87 60 86 61 42 63 74 64
REMARK SMILES IDX 54 65 73 66 55 67 58 68 72 69 91 70 56 71 57 72 71 74 92 75
REMARK SMILES IDX 59 76 43 77 44 78 52 79 45 80 47 81 53 82 46 83 48 84 49 85
REMARK SMILES IDX 50 86 51 87 75 88 76 89 84 90 77 91 79 92 85 93 78 94 80 95
REMARK SMILES IDX 81 96 82 97 83 98 60 99 61 100 69 101 62 102 64 103 70 104
REMARK SMILES IDX 63 105 65 106 66 107 67 108 68 109
REMARK H PARENT 27 6 31 43 90 62 58 73
REMARK Flexibility Score: inf
ROOT
ATOM      1  C   UNL A   1      37.784  29.694  28.843  1.00  0.00     0.042 C 
ENDROOT
BRANCH   1   2
ATOM      2  C   UNL A   1      36.889  29.827  27.612  1.00  0.00     0.118 C 
BRANCH   2   3
ATOM      3  N   UNL A   1      35.775  30.720  27.866  1.00  0.00    -0.352 N 
ATOM      4  C   UNL A   1      34.428  30.604  27.636  1.00  0.00     0.251 C 
ATOM      5  O   UNL A   1      33.705  31.517  28.032  1.00  0.00    -0.269 OA
ATOM      6  H   UNL A   1      36.035  31.574  28.283  1.00  0.00     0.163 HD
BRANCH   4   7
ATOM      7  C   UNL A   1      33.808  29.410  26.998  1.00  0.00     0.039 A 
ATOM      8  C   UNL A   1      32.518  27.119  25.966  1.00  0.00     0.060 A 
ATOM      9  C   UNL A   1      31.903  27.905  26.944  1.00  0.00     0.029 A 
ATOM     10  C   UNL A   1      33.756  27.524  25.467  1.00  0.00     0.029 A 
ATOM     11  C   UNL A   1      32.547  29.026  27.469  1.00  0.00     0.016 A 
ATOM     12  C   UNL A   1      34.377  28.681  25.951  1.00  0.00     0.016 A 
BRANCH   8  13
ATOM     13  N   UNL A   1      31.895  25.975  25.509  1.00  0.00    -0.257 N 
ATOM     14  C   UNL A   1      30.468  25.862  25.214  1.00  0.00     0.144 C 
ATOM     15  C   UNL A   1      30.335  24.373  24.834  1.00  0.00     0.091 C 
ATOM     16  C   UNL A   1      31.746  23.908  25.077  1.00  0.00     0.071 C 
ATOM     17  N   UNL A   1      32.591  24.818  25.442  1.00  0.00    -0.176 NA
BRANCH  14  18
ATOM     18  C   UNL A   1      30.074  26.854  24.126  1.00  0.00    -0.015 A 
ATOM     19  C   UNL A   1      28.371  28.217  23.010  1.00  0.00     0.164 A 
ATOM     20  C   UNL A   1      28.730  27.201  23.918  1.00  0.00     0.056 A 
ATOM     21  C   UNL A   1      29.348  28.934  22.296  1.00  0.00     0.203 A 
ATOM     22  C   UNL A   1      30.699  28.590  22.509  1.00  0.00     0.164 A 
ATOM     23  C   UNL A   1      31.042  27.561  23.402  1.00  0.00     0.056 A 
BRANCH  19  24
ATOM     24  O   UNL A   1      27.043  28.559  22.955  1.00  0.00    -0.493 OA
ATOM     25  C   UNL A   1      26.263  27.840  23.910  1.00  0.00     0.278 C 
ENDBRANCH  19  24
BRANCH  21  26
ATOM     26  O   UNL A   1      29.127  29.936  21.393  1.00  0.00    -0.490 OA
ATOM     27  C   UNL A   1      28.976  31.281  21.811  1.00  0.00     0.278 C 
ENDBRANCH  21  26
BRANCH  22  28
ATOM     28  O   UNL A   1      31.806  29.143  21.911  1.00  0.00    -0.493 OA
ATOM     29  C   UNL A   1      33.075  28.602  22.255  1.00  0.00     0.278 C 
ENDBRANCH  22  28
ENDBRANCH  14  18
BRANCH  16  30
ATOM     30  C   UNL A   1      32.141  22.500  24.951  1.00  0.00    -0.002 A 
ATOM     31  C   UNL A   1      32.692  21.863  26.069  1.00  0.00     0.011 A 
ATOM     32  C   UNL A   1      32.042  21.839  23.726  1.00  0.00     0.011 A 
ATOM     33  C   UNL A   1      33.135  20.543  25.970  1.00  0.00     0.021 A 
ATOM     34  C   UNL A   1      32.510  20.526  23.617  1.00  0.00     0.021 A 
ATOM     35  C   UNL A   1      33.056  19.888  24.738  1.00  0.00     0.067 A 
BRANCH  35  36
ATOM     36  S   UNL A   1      33.653  18.217  24.603  1.00  0.00     0.175 S 
ATOM     37  C   UNL A   1      33.017  17.637  23.051  1.00  0.00     0.163 C 
ATOM     38  O   UNL A   1      35.101  18.298  24.505  1.00  0.00    -0.224 OA
ATOM     39  O   UNL A   1      33.023  17.440  25.648  1.00  0.00    -0.224 OA
ENDBRANCH  35  36
ENDBRANCH  16  30
ENDBRANCH   8  13
ENDBRANCH   4   7
ENDBRANCH   2   3
ENDBRANCH   1   2
BRANCH   1  40
ATOM     40  C   UNL A   1      37.816  30.952  29.708  1.00  0.00     0.118 C 
BRANCH  40  41
ATOM     41  N   UNL A   1      37.239  30.717  31.024  1.00  0.00    -0.352 N 
ATOM     42  C   UNL A   1      37.722  29.998  32.086  1.00  0.00     0.251 C 
ATOM     43  H   UNL A   1      36.364  31.142  31.175  1.00  0.00     0.163 HD
ATOM     44  O   UNL A   1      36.964  29.736  33.018  1.00  0.00    -0.269 OA
BRANCH  42  45
ATOM     45  C   UNL A   1      39.127  29.535  32.125  1.00  0.00     0.039 A 
ATOM     46  C   UNL A   1      40.129  30.411  31.696  1.00  0.00     0.014 A 
ATOM     47  C   UNL A   1      39.461  28.231  32.509  1.00  0.00     0.014 A 
ATOM     48  C   UNL A   1      41.462  29.994  31.686  1.00  0.00     0.010 A 
ATOM     49  C   UNL A   1      40.798  27.840  32.561  1.00  0.00     0.010 A 
ATOM     50  C   UNL A   1      41.812  28.711  32.136  1.00  0.00    -0.014 A 
BRANCH  50  51
ATOM     51  C   UNL A   1      43.233  28.280  32.173  1.00  0.00     0.031 A 
ATOM     52  C   UNL A   1      44.046  28.416  33.432  1.00  0.00     0.074 A 
ATOM     53  C   UNL A   1      43.808  27.814  31.047  1.00  0.00     0.049 A 
ATOM     54  N   UNL A   1      45.292  28.080  33.648  1.00  0.00    -0.248 NA
ATOM     55  C   UNL A   1      43.384  29.032  34.594  1.00  0.00     0.031 C 
ATOM     56  C   UNL A   1      43.151  27.718  29.741  1.00  0.00     0.029 A 
ATOM     57  N   UNL A   1      45.079  27.353  30.813  1.00  0.00    -0.354 N 
ATOM     58  C   UNL A   1      45.572  28.467  34.953  1.00  0.00     0.074 A 
ATOM     59  C   UNL A   1      44.376  29.095  35.471  1.00  0.00     0.031 C 
ATOM     60  C   UNL A   1      44.019  27.218  28.848  1.00  0.00     0.029 A 
ATOM     61  C   UNL A   1      45.298  26.976  29.510  1.00  0.00     0.049 A 
ATOM     62  H   UNL A   1      45.769  27.299  31.514  1.00  0.00     0.167 HD
ATOM     63  C   UNL A   1      46.709  28.286  35.668  1.00  0.00     0.034 A 
ATOM     64  C   UNL A   1      46.402  26.482  28.915  1.00  0.00     0.034 A 
ATOM     65  C   UNL A   1      47.881  27.620  35.163  1.00  0.00     0.049 A 
ATOM     66  C   UNL A   1      47.629  26.233  29.747  1.00  0.00     0.074 A 
ATOM     67  C   UNL A   1      49.050  27.309  35.834  1.00  0.00     0.029 A 
ATOM     68  N   UNL A   1      48.034  27.167  33.862  1.00  0.00    -0.354 N 
ATOM     69  N   UNL A   1      47.816  26.446  31.028  1.00  0.00    -0.248 NA
ATOM     70  C   UNL A   1      48.784  25.634  29.064  1.00  0.00     0.031 C 
ATOM     71  C   UNL A   1      49.917  26.678  34.934  1.00  0.00     0.029 A 
ATOM     72  C   UNL A   1      49.280  26.582  33.707  1.00  0.00     0.049 A 
ATOM     73  H   UNL A   1      47.357  27.249  33.152  1.00  0.00     0.167 HD
ATOM     74  C   UNL A   1      49.095  25.982  31.309  1.00  0.00     0.074 A 
ATOM     75  C   UNL A   1      49.626  25.449  30.071  1.00  0.00     0.031 C 
ATOM     76  C   UNL A   1      49.777  26.011  32.481  1.00  0.00     0.034 A 
BRANCH  63  77
ATOM     77  C   UNL A   1      46.719  28.760  37.099  1.00  0.00     0.023 A 
ATOM     78  C   UNL A   1      47.109  30.085  37.384  1.00  0.00     0.012 A 
ATOM     79  C   UNL A   1      46.290  27.927  38.150  1.00  0.00     0.148 A 
ATOM     80  C   UNL A   1      47.105  30.562  38.694  1.00  0.00     0.002 A 
ATOM     81  C   UNL A   1      46.249  28.423  39.449  1.00  0.00     0.091 A 
ATOM     82  F   UNL A   1      45.942  26.664  37.865  1.00  0.00    -0.205 F 
ATOM     83  C   UNL A   1      46.667  29.735  39.723  1.00  0.00     0.022 A 
BRANCH  81  84
ATOM     84  S   UNL A   1      45.626  27.462  40.834  1.00  0.00     0.127 S 
ATOM     85  O   UNL A   1      44.298  27.081  40.354  1.00  0.00    -0.237 OA
ATOM     86  O   UNL A   1      46.587  26.361  40.906  1.00  0.00    -0.237 OA
ATOM     87  O   UNL A   1      45.644  28.357  41.982  1.00  0.00    -0.744 OA
ENDBRANCH  81  84
ENDBRANCH  63  77
BRANCH  64  88
ATOM     88  C   UNL A   1      46.361  26.107  27.474  1.00  0.00     0.023 A 
ATOM     89  C   UNL A   1      46.934  26.973  26.521  1.00  0.00     0.012 A 
ATOM     90  C   UNL A   1      45.801  24.888  27.045  1.00  0.00     0.148 A 
ATOM     91  C   UNL A   1      46.921  26.646  25.165  1.00  0.00     0.002 A 
ATOM     92  C   UNL A   1      45.841  24.544  25.699  1.00  0.00     0.091 A 
ATOM     93  F   UNL A   1      45.249  24.084  27.965  1.00  0.00    -0.205 F 
ATOM     94  C   UNL A   1      46.384  25.429  24.755  1.00  0.00     0.022 A 
BRANCH  92  95
ATOM     95  S   UNL A   1      45.299  22.938  25.102  1.00  0.00     0.127 S 
ATOM     96  O   UNL A   1      45.368  23.116  23.655  1.00  0.00    -0.237 OA
ATOM     97  O   UNL A   1      46.316  22.047  25.664  1.00  0.00    -0.237 OA
ATOM     98  O   UNL A   1      43.966  22.747  25.658  1.00  0.00    -0.744 OA
ENDBRANCH  92  95
ENDBRANCH  64  88
BRANCH  76  99
ATOM     99  C   UNL A   1      51.168  25.434  32.488  1.00  0.00     0.023 A 
ATOM    100  C   UNL A   1      52.277  26.284  32.300  1.00  0.00     0.012 A 
ATOM    101  C   UNL A   1      51.382  24.064  32.733  1.00  0.00     0.148 A 
ATOM    102  C   UNL A   1      53.573  25.773  32.317  1.00  0.00     0.002 A 
ATOM    103  C   UNL A   1      52.680  23.570  32.797  1.00  0.00     0.091 A 
ATOM    104  F   UNL A   1      50.316  23.265  32.889  1.00  0.00    -0.205 F 
ATOM    105  C   UNL A   1      53.776  24.420  32.577  1.00  0.00     0.022 A 
BRANCH 103 106
ATOM    106  S   UNL A   1      53.031  21.858  33.217  1.00  0.00     0.127 S 
ATOM    107  O   UNL A   1      52.303  21.705  34.476  1.00  0.00    -0.237 OA
ATOM    108  O   UNL A   1      52.453  21.132  32.086  1.00  0.00    -0.237 OA
ATOM    109  O   UNL A   1      54.482  21.764  33.311  1.00  0.00    -0.744 OA
ENDBRANCH 103 106
ENDBRANCH  76  99
ENDBRANCH  50  51
ENDBRANCH  42  45
ENDBRANCH  40  41
ENDBRANCH   1  40
TORSDOF 20
ENDMDL
MODEL 3
REMARK VINA RESULT:     -10.9      4.038      7.168
REMARK SMILES COc1cc([C@H]2CC(c3ccc(S(C)(=O)=O)cc3)=NN2c2ccc(C(=O)NCCCNC(=O)c3ccc(-c4c5nc(c(-c6cccc(S(=O)(=O)[O-])c6F)c6ccc([nH]6)c(-c6cccc(S(=O)(=O)[O-])c6F)c6nc(c(-c7cccc(S(=O)(=O)[O-])c7F)c7ccc4[nH]7)C=C6)C=C5)cc3)cc2)cc(OC)c1OC
REMARK SMILES IDX 29 1 28 2 27 3 25 4 26 5 24 7 21 8 22 9 98 10 23 11 97 12
REMARK SMILES IDX 20 13 6 14 7 15 8 16 19 17 5 18 3 19 4 20 103 21 100 22
REMARK SMILES IDX 99 23 2 24 1 25 104 26 105 27 101 28 102 29 9 30 10 31 18 32
REMARK SMILES IDX 11 33 17 34 12 35 13 36 14 37 15 38 16 39 30 40 31 41 32 42
REMARK SMILES IDX 33 44 34 45 35 46 96 47 36 48 95 49 37 50 38 51 39 52 89 53
REMARK SMILES IDX 40 54 94 55 88 56 90 57 41 58 93 59 87 60 86 61 42 63 74 64
REMARK SMILES IDX 54 65 73 66 55 67 58 68 72 69 91 70 56 71 57 72 71 74 92 75
REMARK SMILES IDX 59 76 43 77 44 78 52 79 45 80 47 81 53 82 46 83 48 84 49 85
REMARK SMILES IDX 50 86 51 87 75 88 76 89 84 90 77 91 79 92 85 93 78 94 80 95
REMARK SMILES IDX 81 96 82 97 83 98 60 99 61 100 69 101 62 102 64 103 70 104
REMARK SMILES IDX 63 105 65 106 66 107 67 108 68 109
REMARK H PARENT 27 6 31 43 90 62 58 73
REMARK Flexibility Score: inf
ROOT
ATOM      1  C   UNL A   1      40.219  25.951  27.974  1.00  0.00     0.042 C 
ENDROOT
BRANCH   1   2
ATOM      2  C   UNL A   1      39.126  25.330  27.106  1.00  0.00     0.118 C 
BRANCH   2   3
ATOM      3  N   UNL A   1      39.412  23.937  26.819  1.00  0.00    -0.352 N 
ATOM      4  C   UNL A   1      38.740  22.988  26.093  1.00  0.00     0.251 C 
ATOM      5  O   UNL A   1      39.275  21.887  25.966  1.00  0.00    -0.269 OA
ATOM      6  H   UNL A   1      40.248  23.610  27.223  1.00  0.00     0.163 HD
BRANCH   4   7
ATOM      7  C   UNL A   1      37.443  23.250  25.409  1.00  0.00     0.039 A 
ATOM      8  C   UNL A   1      34.893  23.756  24.305  1.00  0.00     0.060 A 
ATOM      9  C   UNL A   1      35.214  24.194  25.593  1.00  0.00     0.029 A 
ATOM     10  C   UNL A   1      35.879  23.116  23.555  1.00  0.00     0.029 A 
ATOM     11  C   UNL A   1      36.466  23.929  26.147  1.00  0.00     0.016 A 
ATOM     12  C   UNL A   1      37.155  22.900  24.088  1.00  0.00     0.016 A 
BRANCH   8  13
ATOM     13  N   UNL A   1      33.626  23.967  23.800  1.00  0.00    -0.257 N 
ATOM     14  C   UNL A   1      32.879  23.007  22.989  1.00  0.00     0.144 C 
ATOM     15  C   UNL A   1      31.600  23.799  22.649  1.00  0.00     0.091 C 
ATOM     16  C   UNL A   1      31.927  25.122  23.289  1.00  0.00     0.071 C 
ATOM     17  N   UNL A   1      33.051  25.183  23.927  1.00  0.00    -0.176 NA
BRANCH  14  18
ATOM     18  C   UNL A   1      32.662  21.715  23.768  1.00  0.00    -0.015 A 
ATOM     19  C   UNL A   1      32.275  19.296  23.802  1.00  0.00     0.164 A 
ATOM     20  C   UNL A   1      32.341  20.520  23.106  1.00  0.00     0.056 A 
ATOM     21  C   UNL A   1      32.550  19.226  25.180  1.00  0.00     0.203 A 
ATOM     22  C   UNL A   1      32.879  20.426  25.843  1.00  0.00     0.164 A 
ATOM     23  C   UNL A   1      32.921  21.643  25.142  1.00  0.00     0.056 A 
BRANCH  19  24
ATOM     24  O   UNL A   1      32.061  18.166  23.052  1.00  0.00    -0.493 OA
ATOM     25  C   UNL A   1      32.346  18.377  21.670  1.00  0.00     0.278 C 
ENDBRANCH  19  24
BRANCH  21  26
ATOM     26  O   UNL A   1      32.520  18.105  25.962  1.00  0.00    -0.490 OA
ATOM     27  C   UNL A   1      33.251  16.944  25.610  1.00  0.00     0.278 C 
ENDBRANCH  21  26
BRANCH  22  28
ATOM     28  O   UNL A   1      33.165  20.591  27.178  1.00  0.00    -0.493 OA
ATOM     29  C   UNL A   1      33.515  21.898  27.615  1.00  0.00     0.278 C 
ENDBRANCH  22  28
ENDBRANCH  14  18
BRANCH  16  30
ATOM     30  C   UNL A   1      31.047  26.291  23.168  1.00  0.00    -0.002 A 
ATOM     31  C   UNL A   1      31.601  27.492  22.707  1.00  0.00     0.011 A 
ATOM     32  C   UNL A   1      29.715  26.227  23.576  1.00  0.00     0.011 A 
ATOM     33  C   UNL A   1      30.810  28.640  22.635  1.00  0.00     0.021 A 
ATOM     34  C   UNL A   1      28.929  27.382  23.531  1.00  0.00     0.021 A 
ATOM     35  C   UNL A   1      29.482  28.581  23.065  1.00  0.00     0.067 A 
BRANCH  35  36
ATOM     36  S   UNL A   1      28.483  30.053  23.007  1.00  0.00     0.175 S 
ATOM     37  C   UNL A   1      28.611  30.616  21.329  1.00  0.00     0.163 C 
ATOM     38  O   UNL A   1      27.112  29.636  23.249  1.00  0.00    -0.224 OA
ATOM     39  O   UNL A   1      29.116  31.046  23.847  1.00  0.00    -0.224 OA
ENDBRANCH  35  36
ENDBRANCH  16  30
ENDBRANCH   8  13
ENDBRANCH   4   7
ENDBRANCH   2   3
ENDBRANCH   1   2
BRANCH   1  40
ATOM     40  C   UNL A   1      40.546  27.395  27.597  1.00  0.00     0.118 C 
BRANCH  40  41
ATOM     41  N   UNL A   1      41.005  27.502  26.219  1.00  0.00    -0.352 N 
ATOM     42  C   UNL A   1      42.276  27.594  25.715  1.00  0.00     0.251 C 
ATOM     43  H   UNL A   1      40.289  27.509  25.543  1.00  0.00     0.163 HD
ATOM     44  O   UNL A   1      42.424  27.912  24.536  1.00  0.00    -0.269 OA
BRANCH  42  45
ATOM     45  C   UNL A   1      43.459  27.323  26.561  1.00  0.00     0.039 A 
ATOM     46  C   UNL A   1      44.094  28.402  27.184  1.00  0.00     0.014 A 
ATOM     47  C   UNL A   1      43.990  26.035  26.690  1.00  0.00     0.014 A 
ATOM     48  C   UNL A   1      45.235  28.186  27.960  1.00  0.00     0.010 A 
ATOM     49  C   UNL A   1      45.088  25.813  27.519  1.00  0.00     0.010 A 
ATOM     50  C   UNL A   1      45.733  26.887  28.151  1.00  0.00    -0.014 A 
BRANCH  50  51
ATOM     51  C   UNL A   1      46.916  26.646  29.015  1.00  0.00     0.031 A 
ATOM     52  C   UNL A   1      48.308  26.687  28.445  1.00  0.00     0.074 A 
ATOM     53  C   UNL A   1      46.728  26.335  30.313  1.00  0.00     0.049 A 
ATOM     54  N   UNL A   1      49.453  26.516  29.054  1.00  0.00    -0.248 NA
ATOM     55  C   UNL A   1      48.432  26.928  26.998  1.00  0.00     0.031 C 
ATOM     56  C   UNL A   1      45.426  26.176  30.964  1.00  0.00     0.029 A 
ATOM     57  N   UNL A   1      47.633  26.076  31.313  1.00  0.00    -0.354 N 
ATOM     58  C   UNL A   1      50.427  26.598  28.068  1.00  0.00     0.074 A 
ATOM     59  C   UNL A   1      49.738  26.802  26.811  1.00  0.00     0.031 C 
ATOM     60  C   UNL A   1      45.615  25.860  32.254  1.00  0.00     0.029 A 
ATOM     61  C   UNL A   1      47.048  25.774  32.520  1.00  0.00     0.049 A 
ATOM     62  H   UNL A   1      48.607  26.104  31.178  1.00  0.00     0.167 HD
ATOM     63  C   UNL A   1      51.776  26.544  28.197  1.00  0.00     0.034 A 
ATOM     64  C   UNL A   1      47.603  25.471  33.710  1.00  0.00     0.034 A 
ATOM     65  C   UNL A   1      52.458  26.387  29.454  1.00  0.00     0.049 A 
ATOM     66  C   UNL A   1      49.101  25.479  33.839  1.00  0.00     0.074 A 
ATOM     67  C   UNL A   1      53.819  26.407  29.703  1.00  0.00     0.029 A 
ATOM     68  N   UNL A   1      51.833  26.175  30.673  1.00  0.00    -0.354 N 
ATOM     69  N   UNL A   1      50.008  25.733  32.925  1.00  0.00    -0.248 NA
ATOM     70  C   UNL A   1      49.654  25.204  35.173  1.00  0.00     0.031 C 
ATOM     71  C   UNL A   1      54.018  26.195  31.073  1.00  0.00     0.029 A 
ATOM     72  C   UNL A   1      52.778  26.059  31.678  1.00  0.00     0.049 A 
ATOM     73  H   UNL A   1      50.859  26.115  30.805  1.00  0.00     0.167 HD
ATOM     74  C   UNL A   1      51.233  25.677  33.578  1.00  0.00     0.074 A 
ATOM     75  C   UNL A   1      50.951  25.395  34.970  1.00  0.00     0.031 C 
ATOM     76  C   UNL A   1      52.481  25.827  33.069  1.00  0.00     0.034 A 
BRANCH  63  77
ATOM     77  C   UNL A   1      52.606  26.720  26.951  1.00  0.00     0.023 A 
ATOM     78  C   UNL A   1      52.976  25.584  26.202  1.00  0.00     0.012 A 
ATOM     79  C   UNL A   1      52.971  27.999  26.489  1.00  0.00     0.148 A 
ATOM     80  C   UNL A   1      53.722  25.715  25.031  1.00  0.00     0.002 A 
ATOM     81  C   UNL A   1      53.680  28.124  25.299  1.00  0.00     0.091 A 
ATOM     82  F   UNL A   1      52.630  29.067  27.224  1.00  0.00    -0.205 F 
ATOM     83  C   UNL A   1      54.065  26.983  24.576  1.00  0.00     0.022 A 
BRANCH  81  84
ATOM     84  S   UNL A   1      54.103  29.719  24.585  1.00  0.00     0.127 S 
ATOM     85  O   UNL A   1      52.783  30.330  24.429  1.00  0.00    -0.237 OA
ATOM     86  O   UNL A   1      54.930  30.318  25.633  1.00  0.00    -0.237 OA
ATOM     87  O   UNL A   1      54.811  29.428  23.347  1.00  0.00    -0.744 OA
ENDBRANCH  81  84
ENDBRANCH  63  77
BRANCH  64  88
ATOM     88  C   UNL A   1      46.731  25.223  34.892  1.00  0.00     0.023 A 
ATOM     89  C   UNL A   1      46.364  23.900  35.211  1.00  0.00     0.012 A 
ATOM     90  C   UNL A   1      46.299  26.274  35.722  1.00  0.00     0.148 A 
ATOM     91  C   UNL A   1      45.556  23.634  36.317  1.00  0.00     0.002 A 
ATOM     92  C   UNL A   1      45.540  25.996  36.854  1.00  0.00     0.091 A 
ATOM     93  F   UNL A   1      46.648  27.527  35.395  1.00  0.00    -0.205 F 
ATOM     94  C   UNL A   1      45.153  24.679  37.143  1.00  0.00     0.022 A 
BRANCH  92  95
ATOM     95  S   UNL A   1      45.097  27.264  38.047  1.00  0.00     0.127 S 
ATOM     96  O   UNL A   1      46.234  27.227  38.962  1.00  0.00    -0.237 OA
ATOM     97  O   UNL A   1      45.020  28.459  37.206  1.00  0.00    -0.237 OA
ATOM     98  O   UNL A   1      43.818  26.843  38.603  1.00  0.00    -0.744 OA
ENDBRANCH  92  95
ENDBRANCH  64  88
BRANCH  76  99
ATOM     99  C   UNL A   1      53.639  25.707  34.024  1.00  0.00     0.023 A 
ATOM    100  C   UNL A   1      53.972  26.795  34.856  1.00  0.00     0.012 A 
ATOM    101  C   UNL A   1      54.362  24.504  34.138  1.00  0.00     0.148 A 
ATOM    102  C   UNL A   1      55.030  26.700  35.758  1.00  0.00     0.002 A 
ATOM    103  C   UNL A   1      55.385  24.401  35.074  1.00  0.00     0.091 A 
ATOM    104  F   UNL A   1      54.047  23.486  33.324  1.00  0.00    -0.205 F 
ATOM    105  C   UNL A   1      55.729  25.501  35.876  1.00  0.00     0.022 A 
BRANCH 103 106
ATOM    106  S   UNL A   1      56.273  22.864  35.352  1.00  0.00     0.127 S 
ATOM    107  O   UNL A   1      55.178  21.900  35.454  1.00  0.00    -0.237 OA
ATOM    108  O   UNL A   1      57.081  22.743  34.138  1.00  0.00    -0.237 OA
ATOM    109  O   UNL A   1      57.048  23.070  36.570  1.00  0.00    -0.744 OA
ENDBRANCH 103 106
ENDBRANCH  76  99
ENDBRANCH  50  51
ENDBRANCH  42  45
ENDBRANCH  40  41
ENDBRANCH   1  40
TORSDOF 20
ENDMDL
