MODEL 1
REMARK VINA RESULT:     -11.7      0.000      0.000
REMARK SMILES CN(Cc1ncc(C(=O)NCCCNC(=O)c2ccc(-c3c4nc(c(-c5cccc(S(=O)(=O)[O-])c5F)c5ccc([nH]5)c(-c5cccc(S(=O)(=O)[O-])c5F)c5nc(c(-c6cccc(S(=O)(=O)[O-])c6F)c6ccc3[nH]6)C=C5)C=C4)cc2)cn1)S(=O)(=O)c1ccc(Cl)cc1
REMARK SMILES IDX 11 1 10 2 8 3 9 4 7 6 4 7 5 8 81 9 6 10 80 11 3 12 2 13 1 14
REMARK SMILES IDX 82 15 83 16 84 17 85 18 86 19 91 20 87 21 90 22 88 23 89 24
REMARK SMILES IDX 12 25 13 26 14 27 15 28 16 30 17 31 18 32 79 33 19 34 78 35
REMARK SMILES IDX 20 36 21 37 22 38 72 39 23 40 77 41 71 42 73 43 24 44 76 45
REMARK SMILES IDX 70 46 69 47 25 49 57 50 37 51 56 52 38 53 41 54 55 55 74 56
REMARK SMILES IDX 39 57 40 58 54 60 75 61 42 62 26 63 27 64 35 65 28 66 30 67
REMARK SMILES IDX 36 68 29 69 31 70 32 71 33 72 34 73 58 74 59 75 67 76 60 77
REMARK SMILES IDX 62 78 68 79 61 80 63 81 64 82 65 83 66 84 43 85 44 86 52 87
REMARK SMILES IDX 45 88 47 89 53 90 46 91 48 92 49 93 50 94 51 95
REMARK H PARENT 10 5 14 29 73 48 41 59
REMARK Flexibility Score: inf
ROOT
ATOM      1  C   UNL A   1      35.559  21.171  25.193  1.00  0.00     0.118 C 
ENDROOT
BRANCH   1   2
ATOM      2  N   UNL A   1      34.478  20.254  25.520  1.00  0.00    -0.352 N 
ATOM      3  C   UNL A   1      33.127  20.320  25.303  1.00  0.00     0.254 C 
ATOM      4  O   UNL A   1      32.440  19.339  25.588  1.00  0.00    -0.269 OA
ATOM      5  H   UNL A   1      34.771  19.436  25.983  1.00  0.00     0.163 HD
BRANCH   3   6
ATOM      6  C   UNL A   1      32.470  21.483  24.689  1.00  0.00     0.076 A 
ATOM      7  C   UNL A   1      31.102  23.610  23.700  1.00  0.00     0.143 A 
ATOM      8  N   UNL A   1      31.807  22.860  22.832  1.00  0.00    -0.239 NA
ATOM      9  N   UNL A   1      31.105  23.442  25.038  1.00  0.00    -0.239 NA
ATOM     10  C   UNL A   1      32.490  21.820  23.357  1.00  0.00     0.128 A 
ATOM     11  C   UNL A   1      31.791  22.370  25.498  1.00  0.00     0.128 A 
BRANCH   7  12
ATOM     12  C   UNL A   1      30.195  24.673  23.117  1.00  0.00     0.179 C 
BRANCH  12  13
ATOM     13  N   UNL A   1      30.230  26.041  23.744  1.00  0.00    -0.193 NA
ATOM     14  C   UNL A   1      28.858  26.588  23.918  1.00  0.00     0.125 C 
BRANCH  13  15
ATOM     15  S   UNL A   1      31.282  27.197  23.045  1.00  0.00     0.243 S 
ATOM     16  O   UNL A   1      32.244  26.510  22.216  1.00  0.00    -0.207 OA
ATOM     17  O   UNL A   1      30.443  28.240  22.480  1.00  0.00    -0.207 OA
BRANCH  15  18
ATOM     18  C   UNL A   1      32.168  27.977  24.370  1.00  0.00     0.082 A 
ATOM     19  C   UNL A   1      31.842  29.256  24.830  1.00  0.00     0.023 A 
ATOM     20  C   UNL A   1      33.261  27.285  24.911  1.00  0.00     0.023 A 
ATOM     21  C   UNL A   1      32.600  29.830  25.856  1.00  0.00     0.022 A 
ATOM     22  C   UNL A   1      34.030  27.875  25.916  1.00  0.00     0.022 A 
ATOM     23  C   UNL A   1      33.693  29.144  26.388  1.00  0.00     0.041 A 
ATOM     24  Cl  UNL A   1      34.649  29.877  27.616  1.00  0.00    -0.084 Cl
ENDBRANCH  15  18
ENDBRANCH  13  15
ENDBRANCH  12  13
ENDBRANCH   7  12
ENDBRANCH   3   6
ENDBRANCH   1   2
BRANCH   1  25
ATOM     25  C   UNL A   1      35.488  22.445  26.032  1.00  0.00     0.042 C 
BRANCH  25  26
ATOM     26  C   UNL A   1      36.814  23.195  26.126  1.00  0.00     0.118 C 
BRANCH  26  27
ATOM     27  N   UNL A   1      37.953  22.292  26.187  1.00  0.00    -0.352 N 
ATOM     28  C   UNL A   1      39.280  22.567  26.402  1.00  0.00     0.251 C 
ATOM     29  H   UNL A   1      37.739  21.340  26.053  1.00  0.00     0.163 HD
ATOM     30  O   UNL A   1      40.114  21.685  26.206  1.00  0.00    -0.269 OA
BRANCH  28  31
ATOM     31  C   UNL A   1      39.716  23.908  26.856  1.00  0.00     0.039 A 
ATOM     32  C   UNL A   1      40.009  24.881  25.895  1.00  0.00     0.014 A 
ATOM     33  C   UNL A   1      39.886  24.197  28.213  1.00  0.00     0.014 A 
ATOM     34  C   UNL A   1      40.426  26.153  26.295  1.00  0.00     0.010 A 
ATOM     35  C   UNL A   1      40.240  25.484  28.612  1.00  0.00     0.010 A 
ATOM     36  C   UNL A   1      40.524  26.473  27.659  1.00  0.00    -0.014 A 
BRANCH  36  37
ATOM     37  C   UNL A   1      40.923  27.832  28.108  1.00  0.00     0.031 A 
ATOM     38  C   UNL A   1      42.377  28.221  28.143  1.00  0.00     0.074 A 
ATOM     39  C   UNL A   1      39.985  28.683  28.566  1.00  0.00     0.049 A 
ATOM     40  N   UNL A   1      42.925  29.325  28.584  1.00  0.00    -0.248 NA
ATOM     41  C   UNL A   1      43.346  27.231  27.642  1.00  0.00     0.031 C 
ATOM     42  C   UNL A   1      38.550  28.398  28.651  1.00  0.00     0.029 A 
ATOM     43  N   UNL A   1      40.099  29.952  29.077  1.00  0.00    -0.354 N 
ATOM     44  C   UNL A   1      44.297  29.150  28.445  1.00  0.00     0.074 A 
ATOM     45  C   UNL A   1      44.502  27.824  27.906  1.00  0.00     0.031 C 
ATOM     46  C   UNL A   1      37.921  29.454  29.188  1.00  0.00     0.029 A 
ATOM     47  C   UNL A   1      38.905  30.484  29.507  1.00  0.00     0.049 A 
ATOM     48  H   UNL A   1      40.954  30.436  29.130  1.00  0.00     0.167 HD
ATOM     49  C   UNL A   1      45.294  30.027  28.711  1.00  0.00     0.034 A 
ATOM     50  C   UNL A   1      38.635  31.666  30.097  1.00  0.00     0.034 A 
ATOM     51  C   UNL A   1      45.086  31.365  29.195  1.00  0.00     0.049 A 
ATOM     52  C   UNL A   1      39.758  32.641  30.328  1.00  0.00     0.074 A 
ATOM     53  C   UNL A   1      46.027  32.352  29.429  1.00  0.00     0.029 A 
ATOM     54  N   UNL A   1      43.850  31.908  29.509  1.00  0.00    -0.354 N 
ATOM     55  N   UNL A   1      41.033  32.512  30.051  1.00  0.00    -0.248 NA
ATOM     56  C   UNL A   1      39.401  33.943  30.912  1.00  0.00     0.031 C 
ATOM     57  C   UNL A   1      45.359  33.494  29.887  1.00  0.00     0.029 A 
ATOM     58  C   UNL A   1      44.002  33.218  29.929  1.00  0.00     0.049 A 
ATOM     59  H   UNL A   1      42.991  31.432  29.444  1.00  0.00     0.167 HD
ATOM     60  C   UNL A   1      41.622  33.722  30.395  1.00  0.00     0.074 A 
ATOM     61  C   UNL A   1      40.561  34.583  30.878  1.00  0.00     0.031 C 
ATOM     62  C   UNL A   1      42.928  34.084  30.338  1.00  0.00     0.034 A 
BRANCH  49  63
ATOM     63  C   UNL A   1      46.707  29.596  28.413  1.00  0.00     0.023 A 
ATOM     64  C   UNL A   1      47.284  29.953  27.176  1.00  0.00     0.012 A 
ATOM     65  C   UNL A   1      47.485  28.918  29.370  1.00  0.00     0.148 A 
ATOM     66  C   UNL A   1      48.605  29.618  26.886  1.00  0.00     0.002 A 
ATOM     67  C   UNL A   1      48.814  28.620  29.088  1.00  0.00     0.091 A 
ATOM     68  F   UNL A   1      46.912  28.572  30.532  1.00  0.00    -0.205 F 
ATOM     69  C   UNL A   1      49.372  28.962  27.846  1.00  0.00     0.022 A 
BRANCH  67  70
ATOM     70  S   UNL A   1      49.910  27.841  30.280  1.00  0.00     0.127 S 
ATOM     71  O   UNL A   1      51.155  27.749  29.520  1.00  0.00    -0.237 OA
ATOM     72  O   UNL A   1      49.930  28.820  31.366  1.00  0.00    -0.237 OA
ATOM     73  O   UNL A   1      49.292  26.567  30.621  1.00  0.00    -0.744 OA
ENDBRANCH  67  70
ENDBRANCH  49  63
BRANCH  50  74
ATOM     74  C   UNL A   1      37.230  32.023  30.444  1.00  0.00     0.023 A 
ATOM     75  C   UNL A   1      36.747  31.737  31.736  1.00  0.00     0.012 A 
ATOM     76  C   UNL A   1      36.381  32.660  29.521  1.00  0.00     0.148 A 
ATOM     77  C   UNL A   1      35.433  32.046  32.090  1.00  0.00     0.002 A 
ATOM     78  C   UNL A   1      35.088  33.014  29.896  1.00  0.00     0.091 A 
ATOM     79  F   UNL A   1      36.848  32.909  28.289  1.00  0.00    -0.205 F 
ATOM     80  C   UNL A   1      34.607  32.694  31.174  1.00  0.00     0.022 A 
BRANCH  78  81
ATOM     81  S   UNL A   1      34.021  33.972  28.814  1.00  0.00     0.127 S 
ATOM     82  O   UNL A   1      33.087  34.569  29.764  1.00  0.00    -0.237 OA
ATOM     83  O   UNL A   1      34.959  34.911  28.199  1.00  0.00    -0.237 OA
ATOM     84  O   UNL A   1      33.458  33.002  27.883  1.00  0.00    -0.744 OA
ENDBRANCH  78  81
ENDBRANCH  50  74
BRANCH  62  85
ATOM     85  C   UNL A   1      43.286  35.478  30.774  1.00  0.00     0.023 A 
ATOM     86  C   UNL A   1      43.640  35.717  32.116  1.00  0.00     0.012 A 
ATOM     87  C   UNL A   1      43.348  36.532  29.842  1.00  0.00     0.148 A 
ATOM     88  C   UNL A   1      44.026  36.991  32.531  1.00  0.00     0.002 A 
ATOM     89  C   UNL A   1      43.775  37.790  30.254  1.00  0.00     0.091 A 
ATOM     90  F   UNL A   1      42.986  36.289  28.574  1.00  0.00    -0.205 F 
ATOM     91  C   UNL A   1      44.105  38.023  31.598  1.00  0.00     0.022 A 
BRANCH  89  92
ATOM     92  S   UNL A   1      43.990  39.151  29.101  1.00  0.00     0.127 S 
ATOM     93  O   UNL A   1      44.494  40.207  29.977  1.00  0.00    -0.237 OA
ATOM     94  O   UNL A   1      44.977  38.614  28.162  1.00  0.00    -0.237 OA
ATOM     95  O   UNL A   1      42.676  39.390  28.519  1.00  0.00    -0.744 OA
ENDBRANCH  89  92
ENDBRANCH  62  85
ENDBRANCH  36  37
ENDBRANCH  28  31
ENDBRANCH  26  27
ENDBRANCH  25  26
ENDBRANCH   1  25
TORSDOF 17
ENDMDL
MODEL 2
REMARK VINA RESULT:     -11.7      5.527      9.028
REMARK SMILES CN(Cc1ncc(C(=O)NCCCNC(=O)c2ccc(-c3c4nc(c(-c5cccc(S(=O)(=O)[O-])c5F)c5ccc([nH]5)c(-c5cccc(S(=O)(=O)[O-])c5F)c5nc(c(-c6cccc(S(=O)(=O)[O-])c6F)c6ccc3[nH]6)C=C5)C=C4)cc2)cn1)S(=O)(=O)c1ccc(Cl)cc1
REMARK SMILES IDX 11 1 10 2 8 3 9 4 7 6 4 7 5 8 81 9 6 10 80 11 3 12 2 13 1 14
REMARK SMILES IDX 82 15 83 16 84 17 85 18 86 19 91 20 87 21 90 22 88 23 89 24
REMARK SMILES IDX 12 25 13 26 14 27 15 28 16 30 17 31 18 32 79 33 19 34 78 35
REMARK SMILES IDX 20 36 21 37 22 38 72 39 23 40 77 41 71 42 73 43 24 44 76 45
REMARK SMILES IDX 70 46 69 47 25 49 57 50 37 51 56 52 38 53 41 54 55 55 74 56
REMARK SMILES IDX 39 57 40 58 54 60 75 61 42 62 26 63 27 64 35 65 28 66 30 67
REMARK SMILES IDX 36 68 29 69 31 70 32 71 33 72 34 73 58 74 59 75 67 76 60 77
REMARK SMILES IDX 62 78 68 79 61 80 63 81 64 82 65 83 66 84 43 85 44 86 52 87
REMARK SMILES IDX 45 88 47 89 53 90 46 91 48 92 49 93 50 94 51 95
REMARK H PARENT 10 5 14 29 73 48 41 59
REMARK Flexibility Score: inf
ROOT
ATOM      1  C   UNL A   1      31.529  31.203  26.486  1.00  0.00     0.118 C 
ENDROOT
BRANCH   1   2
ATOM      2  N   UNL A   1      32.800  30.653  26.932  1.00  0.00    -0.352 N 
ATOM      3  C   UNL A   1      33.323  29.389  26.863  1.00  0.00     0.254 C 
ATOM      4  O   UNL A   1      34.488  29.218  27.224  1.00  0.00    -0.269 OA
ATOM      5  H   UNL A   1      33.392  31.311  27.363  1.00  0.00     0.163 HD
BRANCH   3   6
ATOM      6  C   UNL A   1      32.581  28.243  26.320  1.00  0.00     0.076 A 
ATOM      7  C   UNL A   1      31.253  26.021  25.497  1.00  0.00     0.143 A 
ATOM      8  N   UNL A   1      31.860  26.771  24.559  1.00  0.00    -0.239 NA
ATOM      9  N   UNL A   1      31.172  26.345  26.804  1.00  0.00    -0.239 NA
ATOM     10  C   UNL A   1      32.497  27.879  24.997  1.00  0.00     0.128 A 
ATOM     11  C   UNL A   1      31.848  27.454  27.182  1.00  0.00     0.128 A 
BRANCH   7  12
ATOM     12  C   UNL A   1      30.682  24.691  25.055  1.00  0.00     0.179 C 
BRANCH  12  13
ATOM     13  N   UNL A   1      31.648  23.637  24.585  1.00  0.00    -0.193 NA
ATOM     14  C   UNL A   1      31.199  23.028  23.305  1.00  0.00     0.125 C 
BRANCH  13  15
ATOM     15  S   UNL A   1      32.117  22.443  25.717  1.00  0.00     0.243 S 
ATOM     16  O   UNL A   1      31.772  22.896  27.044  1.00  0.00    -0.207 OA
ATOM     17  O   UNL A   1      31.609  21.174  25.224  1.00  0.00    -0.207 OA
BRANCH  15  18
ATOM     18  C   UNL A   1      33.885  22.300  25.637  1.00  0.00     0.082 A 
ATOM     19  C   UNL A   1      34.522  21.081  25.392  1.00  0.00     0.023 A 
ATOM     20  C   UNL A   1      34.637  23.457  25.890  1.00  0.00     0.023 A 
ATOM     21  C   UNL A   1      35.920  21.028  25.373  1.00  0.00     0.022 A 
ATOM     22  C   UNL A   1      36.032  23.391  25.898  1.00  0.00     0.022 A 
ATOM     23  C   UNL A   1      36.668  22.178  25.634  1.00  0.00     0.041 A 
ATOM     24  Cl  UNL A   1      38.385  22.094  25.657  1.00  0.00    -0.084 Cl
ENDBRANCH  15  18
ENDBRANCH  13  15
ENDBRANCH  12  13
ENDBRANCH   7  12
ENDBRANCH   3   6
ENDBRANCH   1   2
BRANCH   1  25
ATOM     25  C   UNL A   1      31.467  32.714  26.694  1.00  0.00     0.042 C 
BRANCH  25  26
ATOM     26  C   UNL A   1      32.762  33.314  27.238  1.00  0.00     0.118 C 
BRANCH  26  27
ATOM     27  N   UNL A   1      32.548  34.608  27.866  1.00  0.00    -0.352 N 
ATOM     28  C   UNL A   1      33.100  35.131  29.009  1.00  0.00     0.251 C 
ATOM     29  H   UNL A   1      31.909  35.197  27.402  1.00  0.00     0.163 HD
ATOM     30  O   UNL A   1      32.627  36.161  29.484  1.00  0.00    -0.269 OA
BRANCH  28  31
ATOM     31  C   UNL A   1      34.245  34.468  29.673  1.00  0.00     0.039 A 
ATOM     32  C   UNL A   1      35.523  34.624  29.125  1.00  0.00     0.014 A 
ATOM     33  C   UNL A   1      34.064  33.656  30.796  1.00  0.00     0.014 A 
ATOM     34  C   UNL A   1      36.620  34.005  29.728  1.00  0.00     0.010 A 
ATOM     35  C   UNL A   1      35.167  33.091  31.433  1.00  0.00     0.010 A 
ATOM     36  C   UNL A   1      36.456  33.251  30.902  1.00  0.00    -0.014 A 
BRANCH  36  37
ATOM     37  C   UNL A   1      37.614  32.621  31.585  1.00  0.00     0.031 A 
ATOM     38  C   UNL A   1      38.335  31.465  30.943  1.00  0.00     0.074 A 
ATOM     39  C   UNL A   1      37.962  33.031  32.820  1.00  0.00     0.049 A 
ATOM     40  N   UNL A   1      39.308  30.733  31.421  1.00  0.00    -0.248 NA
ATOM     41  C   UNL A   1      37.888  31.063  29.599  1.00  0.00     0.031 C 
ATOM     42  C   UNL A   1      37.295  34.092  33.580  1.00  0.00     0.029 A 
ATOM     43  N   UNL A   1      38.943  32.584  33.671  1.00  0.00    -0.354 N 
ATOM     44  C   UNL A   1      39.566  29.766  30.456  1.00  0.00     0.074 A 
ATOM     45  C   UNL A   1      38.629  29.986  29.376  1.00  0.00     0.031 C 
ATOM     46  C   UNL A   1      37.880  34.208  34.782  1.00  0.00     0.029 A 
ATOM     47  C   UNL A   1      38.947  33.217  34.892  1.00  0.00     0.049 A 
ATOM     48  H   UNL A   1      39.583  31.876  33.429  1.00  0.00     0.167 HD
ATOM     49  C   UNL A   1      40.519  28.803  30.453  1.00  0.00     0.034 A 
ATOM     50  C   UNL A   1      39.719  33.020  35.978  1.00  0.00     0.034 A 
ATOM     51  C   UNL A   1      41.485  28.620  31.502  1.00  0.00     0.049 A 
ATOM     52  C   UNL A   1      40.805  31.980  35.924  1.00  0.00     0.074 A 
ATOM     53  C   UNL A   1      42.533  27.717  31.559  1.00  0.00     0.029 A 
ATOM     54  N   UNL A   1      41.530  29.360  32.673  1.00  0.00    -0.354 N 
ATOM     55  N   UNL A   1      41.127  31.174  34.940  1.00  0.00    -0.248 NA
ATOM     56  C   UNL A   1      41.663  31.848  37.111  1.00  0.00     0.031 C 
ATOM     57  C   UNL A   1      43.212  27.912  32.768  1.00  0.00     0.029 A 
ATOM     58  C   UNL A   1      42.591  28.940  33.457  1.00  0.00     0.049 A 
ATOM     59  H   UNL A   1      40.900  30.078  32.912  1.00  0.00     0.167 HD
ATOM     60  C   UNL A   1      42.242  30.468  35.376  1.00  0.00     0.074 A 
ATOM     61  C   UNL A   1      42.556  30.957  36.703  1.00  0.00     0.031 C 
ATOM     62  C   UNL A   1      42.931  29.486  34.744  1.00  0.00     0.034 A 
BRANCH  49  63
ATOM     63  C   UNL A   1      40.616  27.914  29.241  1.00  0.00     0.023 A 
ATOM     64  C   UNL A   1      39.723  26.829  29.114  1.00  0.00     0.012 A 
ATOM     65  C   UNL A   1      41.521  28.191  28.199  1.00  0.00     0.148 A 
ATOM     66  C   UNL A   1      39.748  26.017  27.982  1.00  0.00     0.002 A 
ATOM     67  C   UNL A   1      41.514  27.399  27.055  1.00  0.00     0.091 A 
ATOM     68  F   UNL A   1      42.373  29.215  28.345  1.00  0.00    -0.205 F 
ATOM     69  C   UNL A   1      40.634  26.309  26.949  1.00  0.00     0.022 A 
BRANCH  67  70
ATOM     70  S   UNL A   1      42.566  27.729  25.636  1.00  0.00     0.127 S 
ATOM     71  O   UNL A   1      42.000  28.980  25.135  1.00  0.00    -0.237 OA
ATOM     72  O   UNL A   1      43.884  27.862  26.255  1.00  0.00    -0.237 OA
ATOM     73  O   UNL A   1      42.422  26.581  24.752  1.00  0.00    -0.744 OA
ENDBRANCH  67  70
ENDBRANCH  49  63
BRANCH  50  74
ATOM     74  C   UNL A   1      39.540  33.874  37.187  1.00  0.00     0.023 A 
ATOM     75  C   UNL A   1      40.033  35.193  37.176  1.00  0.00     0.012 A 
ATOM     76  C   UNL A   1      38.873  33.402  38.332  1.00  0.00     0.148 A 
ATOM     77  C   UNL A   1      39.895  36.015  38.296  1.00  0.00     0.002 A 
ATOM     78  C   UNL A   1      38.690  34.243  39.425  1.00  0.00     0.091 A 
ATOM     79  F   UNL A   1      38.425  32.137  38.336  1.00  0.00    -0.205 F 
ATOM     80  C   UNL A   1      39.215  35.543  39.416  1.00  0.00     0.022 A 
BRANCH  78  81
ATOM     81  S   UNL A   1      37.705  33.747  40.844  1.00  0.00     0.127 S 
ATOM     82  O   UNL A   1      37.506  35.019  41.532  1.00  0.00    -0.237 OA
ATOM     83  O   UNL A   1      36.507  33.192  40.214  1.00  0.00    -0.237 OA
ATOM     84  O   UNL A   1      38.518  32.758  41.542  1.00  0.00    -0.744 OA
ENDBRANCH  78  81
ENDBRANCH  50  74
BRANCH  62  85
ATOM     85  C   UNL A   1      44.116  28.895  35.458  1.00  0.00     0.023 A 
ATOM     86  C   UNL A   1      45.397  29.443  35.251  1.00  0.00     0.012 A 
ATOM     87  C   UNL A   1      43.951  27.853  36.391  1.00  0.00     0.148 A 
ATOM     88  C   UNL A   1      46.501  28.945  35.941  1.00  0.00     0.002 A 
ATOM     89  C   UNL A   1      45.049  27.390  37.108  1.00  0.00     0.091 A 
ATOM     90  F   UNL A   1      42.727  27.330  36.558  1.00  0.00    -0.205 F 
ATOM     91  C   UNL A   1      46.325  27.928  36.878  1.00  0.00     0.022 A 
BRANCH  89  92
ATOM     92  S   UNL A   1      44.896  26.145  38.394  1.00  0.00     0.127 S 
ATOM     93  O   UNL A   1      44.428  24.987  37.635  1.00  0.00    -0.237 OA
ATOM     94  O   UNL A   1      46.270  26.035  38.889  1.00  0.00    -0.237 OA
ATOM     95  O   UNL A   1      43.952  26.687  39.362  1.00  0.00    -0.744 OA
ENDBRANCH  89  92
ENDBRANCH  62  85
ENDBRANCH  36  37
ENDBRANCH  28  31
ENDBRANCH  26  27
ENDBRANCH  25  26
ENDBRANCH   1  25
TORSDOF 17
ENDMDL
MODEL 3
REMARK VINA RESULT:     -11.6      2.548      3.129
REMARK SMILES CN(Cc1ncc(C(=O)NCCCNC(=O)c2ccc(-c3c4nc(c(-c5cccc(S(=O)(=O)[O-])c5F)c5ccc([nH]5)c(-c5cccc(S(=O)(=O)[O-])c5F)c5nc(c(-c6cccc(S(=O)(=O)[O-])c6F)c6ccc3[nH]6)C=C5)C=C4)cc2)cn1)S(=O)(=O)c1ccc(Cl)cc1
REMARK SMILES IDX 11 1 10 2 8 3 9 4 7 6 4 7 5 8 81 9 6 10 80 11 3 12 2 13 1 14
REMARK SMILES IDX 82 15 83 16 84 17 85 18 86 19 91 20 87 21 90 22 88 23 89 24
REMARK SMILES IDX 12 25 13 26 14 27 15 28 16 30 17 31 18 32 79 33 19 34 78 35
REMARK SMILES IDX 20 36 21 37 22 38 72 39 23 40 77 41 71 42 73 43 24 44 76 45
REMARK SMILES IDX 70 46 69 47 25 49 57 50 37 51 56 52 38 53 41 54 55 55 74 56
REMARK SMILES IDX 39 57 40 58 54 60 75 61 42 62 26 63 27 64 35 65 28 66 30 67
REMARK SMILES IDX 36 68 29 69 31 70 32 71 33 72 34 73 58 74 59 75 67 76 60 77
REMARK SMILES IDX 62 78 68 79 61 80 63 81 64 82 65 83 66 84 43 85 44 86 52 87
REMARK SMILES IDX 45 88 47 89 53 90 46 91 48 92 49 93 50 94 51 95
REMARK H PARENT 10 5 14 29 73 48 41 59
REMARK Flexibility Score: inf
ROOT
ATOM      1  C   UNL A   1      35.399  21.405  25.916  1.00  0.00     0.118 C 
ENDROOT
BRANCH   1   2
ATOM      2  N   UNL A   1      34.253  20.547  25.659  1.00  0.00    -0.352 N 
ATOM      3  C   UNL A   1      32.912  20.814  25.575  1.00  0.00     0.254 C 
ATOM      4  O   UNL A   1      32.155  19.906  25.232  1.00  0.00    -0.269 OA
ATOM      5  H   UNL A   1      34.484  19.599  25.522  1.00  0.00     0.163 HD
BRANCH   3   6
ATOM      6  C   UNL A   1      32.345  22.149  25.813  1.00  0.00     0.076 A 
ATOM      7  C   UNL A   1      31.430  24.690  26.102  1.00  0.00     0.143 A 
ATOM      8  N   UNL A   1      31.440  23.900  27.192  1.00  0.00    -0.239 NA
ATOM      9  N   UNL A   1      31.749  24.283  24.856  1.00  0.00    -0.239 NA
ATOM     10  C   UNL A   1      31.883  22.636  27.012  1.00  0.00     0.128 A 
ATOM     11  C   UNL A   1      32.206  23.014  24.747  1.00  0.00     0.128 A 
BRANCH   7  12
ATOM     12  C   UNL A   1      31.101  26.153  26.312  1.00  0.00     0.179 C 
BRANCH  12  13
ATOM     13  N   UNL A   1      32.247  27.100  26.545  1.00  0.00    -0.193 NA
ATOM     14  C   UNL A   1      31.923  28.083  27.614  1.00  0.00     0.125 C 
BRANCH  13  15
ATOM     15  S   UNL A   1      32.922  27.866  25.172  1.00  0.00     0.243 S 
ATOM     16  O   UNL A   1      33.724  28.985  25.609  1.00  0.00    -0.207 OA
ATOM     17  O   UNL A   1      33.511  26.820  24.354  1.00  0.00    -0.207 OA
BRANCH  15  18
ATOM     18  C   UNL A   1      31.577  28.509  24.208  1.00  0.00     0.082 A 
ATOM     19  C   UNL A   1      30.962  29.727  24.511  1.00  0.00     0.023 A 
ATOM     20  C   UNL A   1      31.103  27.716  23.153  1.00  0.00     0.023 A 
ATOM     21  C   UNL A   1      29.885  30.164  23.732  1.00  0.00     0.022 A 
ATOM     22  C   UNL A   1      30.009  28.145  22.398  1.00  0.00     0.022 A 
ATOM     23  C   UNL A   1      29.408  29.369  22.688  1.00  0.00     0.041 A 
ATOM     24  Cl  UNL A   1      28.052  29.892  21.767  1.00  0.00    -0.084 Cl
ENDBRANCH  15  18
ENDBRANCH  13  15
ENDBRANCH  12  13
ENDBRANCH   7  12
ENDBRANCH   3   6
ENDBRANCH   1   2
BRANCH   1  25
ATOM     25  C   UNL A   1      36.595  21.017  25.048  1.00  0.00     0.042 C 
BRANCH  25  26
ATOM     26  C   UNL A   1      37.895  21.713  25.446  1.00  0.00     0.118 C 
BRANCH  26  27
ATOM     27  N   UNL A   1      38.855  20.790  26.030  1.00  0.00    -0.352 N 
ATOM     28  C   UNL A   1      40.073  21.042  26.612  1.00  0.00     0.251 C 
ATOM     29  H   UNL A   1      38.593  19.841  26.004  1.00  0.00     0.163 HD
ATOM     30  O   UNL A   1      40.826  20.102  26.856  1.00  0.00    -0.269 OA
BRANCH  28  31
ATOM     31  C   UNL A   1      40.487  22.426  26.939  1.00  0.00     0.039 A 
ATOM     32  C   UNL A   1      41.341  22.633  28.028  1.00  0.00     0.014 A 
ATOM     33  C   UNL A   1      40.003  23.520  26.217  1.00  0.00     0.014 A 
ATOM     34  C   UNL A   1      41.745  23.928  28.361  1.00  0.00     0.010 A 
ATOM     35  C   UNL A   1      40.456  24.805  26.511  1.00  0.00     0.010 A 
ATOM     36  C   UNL A   1      41.323  25.024  27.591  1.00  0.00    -0.014 A 
BRANCH  36  37
ATOM     37  C   UNL A   1      41.775  26.405  27.901  1.00  0.00     0.031 A 
ATOM     38  C   UNL A   1      43.185  26.830  27.583  1.00  0.00     0.074 A 
ATOM     39  C   UNL A   1      40.945  27.248  28.545  1.00  0.00     0.049 A 
ATOM     40  N   UNL A   1      43.786  27.960  27.856  1.00  0.00    -0.248 NA
ATOM     41  C   UNL A   1      44.039  25.849  26.893  1.00  0.00     0.031 C 
ATOM     42  C   UNL A   1      39.580  26.931  28.972  1.00  0.00     0.029 A 
ATOM     43  N   UNL A   1      41.137  28.535  28.984  1.00  0.00    -0.354 N 
ATOM     44  C   UNL A   1      45.092  27.814  27.403  1.00  0.00     0.074 A 
ATOM     45  C   UNL A   1      45.206  26.477  26.863  1.00  0.00     0.031 C 
ATOM     46  C   UNL A   1      39.062  27.989  29.617  1.00  0.00     0.029 A 
ATOM     47  C   UNL A   1      40.062  29.051  29.670  1.00  0.00     0.049 A 
ATOM     48  H   UNL A   1      41.966  29.040  28.823  1.00  0.00     0.167 HD
ATOM     49  C   UNL A   1      46.097  28.722  27.406  1.00  0.00     0.034 A 
ATOM     50  C   UNL A   1      39.902  30.243  30.277  1.00  0.00     0.034 A 
ATOM     51  C   UNL A   1      45.967  30.069  27.892  1.00  0.00     0.049 A 
ATOM     52  C   UNL A   1      41.017  31.252  30.214  1.00  0.00     0.074 A 
ATOM     53  C   UNL A   1      46.907  31.085  27.874  1.00  0.00     0.029 A 
ATOM     54  N   UNL A   1      44.824  30.592  28.474  1.00  0.00    -0.354 N 
ATOM     55  N   UNL A   1      42.195  31.144  29.649  1.00  0.00    -0.248 NA
ATOM     56  C   UNL A   1      40.767  32.562  30.834  1.00  0.00     0.031 C 
ATOM     57  C   UNL A   1      46.330  32.224  28.448  1.00  0.00     0.029 A 
ATOM     58  C   UNL A   1      45.030  31.918  28.814  1.00  0.00     0.049 A 
ATOM     59  H   UNL A   1      43.988  30.094  28.625  1.00  0.00     0.167 HD
ATOM     60  C   UNL A   1      42.812  32.379  29.815  1.00  0.00     0.074 A 
ATOM     61  C   UNL A   1      41.868  33.228  30.512  1.00  0.00     0.031 C 
ATOM     62  C   UNL A   1      44.056  32.769  29.444  1.00  0.00     0.034 A 
BRANCH  49  63
ATOM     63  C   UNL A   1      47.413  28.316  26.794  1.00  0.00     0.023 A 
ATOM     64  C   UNL A   1      48.530  28.130  27.634  1.00  0.00     0.012 A 
ATOM     65  C   UNL A   1      47.529  28.043  25.417  1.00  0.00     0.148 A 
ATOM     66  C   UNL A   1      49.749  27.703  27.111  1.00  0.00     0.002 A 
ATOM     67  C   UNL A   1      48.738  27.580  24.909  1.00  0.00     0.091 A 
ATOM     68  F   UNL A   1      46.461  28.243  24.633  1.00  0.00    -0.205 F 
ATOM     69  C   UNL A   1      49.850  27.418  25.752  1.00  0.00     0.022 A 
BRANCH  67  70
ATOM     70  S   UNL A   1      48.956  27.117  23.186  1.00  0.00     0.127 S 
ATOM     71  O   UNL A   1      48.511  28.327  22.498  1.00  0.00    -0.237 OA
ATOM     72  O   UNL A   1      50.395  26.868  23.114  1.00  0.00    -0.237 OA
ATOM     73  O   UNL A   1      48.123  25.939  22.979  1.00  0.00    -0.744 OA
ENDBRANCH  67  70
ENDBRANCH  49  63
BRANCH  50  74
ATOM     74  C   UNL A   1      38.607  30.578  30.937  1.00  0.00     0.023 A 
ATOM     75  C   UNL A   1      38.415  30.233  32.289  1.00  0.00     0.012 A 
ATOM     76  C   UNL A   1      37.580  31.249  30.248  1.00  0.00     0.148 A 
ATOM     77  C   UNL A   1      37.210  30.519  32.932  1.00  0.00     0.002 A 
ATOM     78  C   UNL A   1      36.402  31.580  30.910  1.00  0.00     0.091 A 
ATOM     79  F   UNL A   1      37.770  31.555  28.956  1.00  0.00    -0.205 F 
ATOM     80  C   UNL A   1      36.208  31.202  32.246  1.00  0.00     0.022 A 
BRANCH  78  81
ATOM     81  S   UNL A   1      35.128  32.578  30.128  1.00  0.00     0.127 S 
ATOM     82  O   UNL A   1      34.165  32.741  31.213  1.00  0.00    -0.237 OA
ATOM     83  O   UNL A   1      35.860  33.792  29.767  1.00  0.00    -0.237 OA
ATOM     84  O   UNL A   1      34.682  31.793  28.984  1.00  0.00    -0.744 OA
ENDBRANCH  78  81
ENDBRANCH  50  74
BRANCH  62  85
ATOM     85  C   UNL A   1      44.463  34.185  29.749  1.00  0.00     0.023 A 
ATOM     86  C   UNL A   1      45.084  34.479  30.979  1.00  0.00     0.012 A 
ATOM     87  C   UNL A   1      44.306  35.204  28.790  1.00  0.00     0.148 A 
ATOM     88  C   UNL A   1      45.517  35.774  31.262  1.00  0.00     0.002 A 
ATOM     89  C   UNL A   1      44.779  36.483  29.062  1.00  0.00     0.091 A 
ATOM     90  F   UNL A   1      43.693  34.908  27.634  1.00  0.00    -0.205 F 
ATOM     91  C   UNL A   1      45.376  36.772  30.299  1.00  0.00     0.022 A 
BRANCH  89  92
ATOM     92  S   UNL A   1      44.717  37.804  27.846  1.00  0.00     0.127 S 
ATOM     93  O   UNL A   1      43.279  37.930  27.615  1.00  0.00    -0.237 OA
ATOM     94  O   UNL A   1      45.318  38.926  28.570  1.00  0.00    -0.237 OA
ATOM     95  O   UNL A   1      45.498  37.335  26.709  1.00  0.00    -0.744 OA
ENDBRANCH  89  92
ENDBRANCH  62  85
ENDBRANCH  36  37
ENDBRANCH  28  31
ENDBRANCH  26  27
ENDBRANCH  25  26
ENDBRANCH   1  25
TORSDOF 17
ENDMDL
