MODEL 1
REMARK VINA RESULT:     -11.2      0.000      0.000
REMARK SMILES O=C(/C=C/c1cc(C(=O)NCCn2cccn2)cs1)NCCCNC(=O)c1ccc(-c2c3nc(c(-c4cccc(S(=O)(=O)[O-])c4F)c4ccc([nH]4)c(-c4cccc(S(=O)(=O)[O-])c4F)c4nc(c(-c5cccc(S(=O)(=O)[O-])c5F)c5ccc2[nH]5)C=C4)C=C3)cc1
REMARK SMILES IDX 21 1 20 2 1 3 2 4 3 6 4 7 5 8 6 9 19 10 7 11 18 12 8 13 9 14
REMARK SMILES IDX 10 15 11 17 12 18 13 19 14 20 17 21 15 22 16 23 22 24 23 25
REMARK SMILES IDX 24 26 25 27 26 29 27 30 28 31 89 32 29 33 88 34 30 35 31 36
REMARK SMILES IDX 32 37 82 38 33 39 87 40 81 41 83 42 34 43 86 44 80 45 79 46
REMARK SMILES IDX 35 48 67 49 47 50 66 51 48 52 51 53 65 54 84 55 49 56 50 57
REMARK SMILES IDX 64 59 85 60 52 61 36 62 37 63 45 64 38 65 40 66 46 67 39 68
REMARK SMILES IDX 41 69 42 70 43 71 44 72 68 73 69 74 77 75 70 76 72 77 78 78
REMARK SMILES IDX 71 79 73 80 74 81 75 82 76 83 53 84 54 85 62 86 55 87 57 88
REMARK SMILES IDX 63 89 56 90 58 91 59 92 60 93 61 94
REMARK H PARENT 20 5 10 16 24 28 83 47 51 58
REMARK Flexibility Score: inf
ROOT
ATOM      1  C   UNL A   1      39.076  21.665  26.124  1.00  0.00     0.118 C 
ENDROOT
BRANCH   1   2
ATOM      2  N   UNL A   1      38.195  22.458  25.279  1.00  0.00    -0.352 N 
ATOM      3  O   UNL A   1      36.300  21.272  25.770  1.00  0.00    -0.270 OA
ATOM      4  C   UNL A   1      36.853  22.200  25.185  1.00  0.00     0.244 C 
ATOM      5  H   UNL A   1      38.577  23.202  24.759  1.00  0.00     0.163 HD
BRANCH   4   6
ATOM      6  C   UNL A   1      36.021  23.185  24.444  1.00  0.00     0.072 C 
ATOM      7  C   UNL A   1      34.683  23.279  24.390  1.00  0.00     0.024 C 
BRANCH   7   8
ATOM      8  C   UNL A   1      34.037  24.229  23.533  1.00  0.00     0.028 A 
ATOM      9  C   UNL A   1      34.039  25.615  23.559  1.00  0.00     0.033 A 
ATOM     10  S   UNL A   1      33.092  23.686  22.198  1.00  0.00    -0.144 S 
ATOM     11  C   UNL A   1      33.416  26.236  22.427  1.00  0.00     0.051 A 
ATOM     12  C   UNL A   1      32.723  25.282  21.708  1.00  0.00     0.079 A 
BRANCH  11  13
ATOM     13  C   UNL A   1      33.373  27.653  22.085  1.00  0.00     0.252 C 
ATOM     14  O   UNL A   1      34.350  28.292  21.704  1.00  0.00    -0.269 OA
ATOM     15  N   UNL A   1      32.213  28.373  22.282  1.00  0.00    -0.350 N 
ATOM     16  H   UNL A   1      32.195  29.243  21.822  1.00  0.00     0.163 HD
BRANCH  15  17
ATOM     17  C   UNL A   1      31.008  28.077  23.050  1.00  0.00     0.140 C 
BRANCH  17  18
ATOM     18  C   UNL A   1      30.876  28.907  24.331  1.00  0.00     0.165 C 
BRANCH  18  19
ATOM     19  N   UNL A   1      32.007  28.861  25.242  1.00  0.00    -0.271 N 
ATOM     20  C   UNL A   1      32.786  29.884  25.704  1.00  0.00     0.108 A 
ATOM     21  N   UNL A   1      32.393  27.658  25.728  1.00  0.00    -0.181 NA
ATOM     22  C   UNL A   1      33.741  29.314  26.511  1.00  0.00     0.042 A 
ATOM     23  C   UNL A   1      33.452  27.941  26.487  1.00  0.00     0.135 A 
ENDBRANCH  18  19
ENDBRANCH  17  18
ENDBRANCH  15  17
ENDBRANCH  11  13
ENDBRANCH   7   8
ENDBRANCH   4   6
ENDBRANCH   1   2
BRANCH   1  24
ATOM     24  C   UNL A   1      39.666  20.434  25.430  1.00  0.00     0.042 C 
BRANCH  24  25
ATOM     25  C   UNL A   1      40.095  19.350  26.403  1.00  0.00     0.118 C 
BRANCH  25  26
ATOM     26  N   UNL A   1      41.358  18.681  26.037  1.00  0.00    -0.352 N 
ATOM     27  C   UNL A   1      42.581  19.256  25.712  1.00  0.00     0.251 C 
ATOM     28  H   UNL A   1      41.330  17.697  26.020  1.00  0.00     0.163 HD
ATOM     29  O   UNL A   1      43.438  18.617  25.117  1.00  0.00    -0.269 OA
BRANCH  27  30
ATOM     30  C   UNL A   1      42.833  20.650  26.122  1.00  0.00     0.039 A 
ATOM     31  C   UNL A   1      43.195  21.670  25.235  1.00  0.00     0.014 A 
ATOM     32  C   UNL A   1      42.659  20.924  27.469  1.00  0.00     0.014 A 
ATOM     33  C   UNL A   1      43.320  22.970  25.730  1.00  0.00     0.010 A 
ATOM     34  C   UNL A   1      42.471  22.206  27.871  1.00  0.00     0.010 A 
ATOM     35  C   UNL A   1      42.951  23.217  27.058  1.00  0.00    -0.014 A 
BRANCH  35  36
ATOM     36  C   UNL A   1      43.001  24.522  27.693  1.00  0.00     0.031 A 
ATOM     37  C   UNL A   1      41.695  25.223  27.742  1.00  0.00     0.074 A 
ATOM     38  C   UNL A   1      44.067  24.861  28.458  1.00  0.00     0.049 A 
ATOM     39  N   UNL A   1      41.376  26.321  27.145  1.00  0.00    -0.248 NA
ATOM     40  C   UNL A   1      40.559  24.546  28.388  1.00  0.00     0.031 C 
ATOM     41  C   UNL A   1      45.262  24.047  28.759  1.00  0.00     0.029 A 
ATOM     42  N   UNL A   1      44.221  25.919  29.294  1.00  0.00    -0.354 N 
ATOM     43  C   UNL A   1      40.073  26.598  27.551  1.00  0.00     0.074 A 
ATOM     44  C   UNL A   1      39.554  25.368  28.082  1.00  0.00     0.031 C 
ATOM     45  C   UNL A   1      45.847  24.505  29.887  1.00  0.00     0.029 A 
ATOM     46  C   UNL A   1      45.181  25.727  30.288  1.00  0.00     0.049 A 
ATOM     47  H   UNL A   1      43.702  26.751  29.206  1.00  0.00     0.167 HD
ATOM     48  C   UNL A   1      39.631  27.880  27.679  1.00  0.00     0.034 A 
ATOM     49  C   UNL A   1      45.359  26.485  31.399  1.00  0.00     0.034 A 
ATOM     50  C   UNL A   1      40.581  28.807  27.112  1.00  0.00     0.049 A 
ATOM     51  C   UNL A   1      44.683  27.781  31.158  1.00  0.00     0.074 A 
ATOM     52  C   UNL A   1      41.138  28.987  25.862  1.00  0.00     0.029 A 
ATOM     53  N   UNL A   1      41.409  29.458  27.999  1.00  0.00    -0.354 N 
ATOM     54  N   UNL A   1      45.080  28.630  30.252  1.00  0.00    -0.248 NA
ATOM     55  C   UNL A   1      43.295  27.911  31.575  1.00  0.00     0.031 C 
ATOM     56  C   UNL A   1      42.502  29.313  26.117  1.00  0.00     0.029 A 
ATOM     57  C   UNL A   1      42.683  29.404  27.499  1.00  0.00     0.049 A 
ATOM     58  H   UNL A   1      41.134  29.884  28.843  1.00  0.00     0.167 HD
ATOM     59  C   UNL A   1      43.904  29.055  29.648  1.00  0.00     0.074 A 
ATOM     60  C   UNL A   1      42.839  28.675  30.578  1.00  0.00     0.031 C 
ATOM     61  C   UNL A   1      43.874  29.380  28.321  1.00  0.00     0.034 A 
BRANCH  48  62
ATOM     62  C   UNL A   1      38.555  28.366  28.626  1.00  0.00     0.023 A 
ATOM     63  C   UNL A   1      37.471  29.065  28.048  1.00  0.00     0.012 A 
ATOM     64  C   UNL A   1      38.666  28.414  30.034  1.00  0.00     0.148 A 
ATOM     65  C   UNL A   1      36.588  29.827  28.820  1.00  0.00     0.002 A 
ATOM     66  C   UNL A   1      37.740  29.109  30.805  1.00  0.00     0.091 A 
ATOM     67  F   UNL A   1      39.736  27.902  30.645  1.00  0.00    -0.205 F 
ATOM     68  C   UNL A   1      36.720  29.847  30.201  1.00  0.00     0.022 A 
BRANCH  66  69
ATOM     69  S   UNL A   1      37.832  29.129  32.601  1.00  0.00     0.127 S 
ATOM     70  O   UNL A   1      39.128  29.764  32.819  1.00  0.00    -0.237 OA
ATOM     71  O   UNL A   1      36.672  29.951  32.950  1.00  0.00    -0.237 OA
ATOM     72  O   UNL A   1      37.721  27.736  33.014  1.00  0.00    -0.744 OA
ENDBRANCH  66  69
ENDBRANCH  48  62
BRANCH  49  73
ATOM     73  C   UNL A   1      45.778  26.065  32.757  1.00  0.00     0.023 A 
ATOM     74  C   UNL A   1      46.736  26.811  33.470  1.00  0.00     0.012 A 
ATOM     75  C   UNL A   1      45.003  25.119  33.465  1.00  0.00     0.148 A 
ATOM     76  C   UNL A   1      46.906  26.631  34.850  1.00  0.00     0.002 A 
ATOM     77  C   UNL A   1      45.153  24.966  34.840  1.00  0.00     0.091 A 
ATOM     78  F   UNL A   1      44.057  24.442  32.801  1.00  0.00    -0.205 F 
ATOM     79  C   UNL A   1      46.107  25.719  35.536  1.00  0.00     0.022 A 
BRANCH  77  80
ATOM     80  S   UNL A   1      44.042  23.938  35.817  1.00  0.00     0.127 S 
ATOM     81  O   UNL A   1      44.847  23.658  37.004  1.00  0.00    -0.237 OA
ATOM     82  O   UNL A   1      42.920  24.845  36.041  1.00  0.00    -0.237 OA
ATOM     83  O   UNL A   1      43.743  22.773  34.992  1.00  0.00    -0.744 OA
ENDBRANCH  77  80
ENDBRANCH  49  73
BRANCH  61  84
ATOM     84  C   UNL A   1      45.188  29.467  27.580  1.00  0.00     0.023 A 
ATOM     85  C   UNL A   1      46.081  30.547  27.744  1.00  0.00     0.012 A 
ATOM     86  C   UNL A   1      45.620  28.340  26.863  1.00  0.00     0.148 A 
ATOM     87  C   UNL A   1      47.366  30.513  27.193  1.00  0.00     0.002 A 
ATOM     88  C   UNL A   1      46.915  28.286  26.361  1.00  0.00     0.091 A 
ATOM     89  F   UNL A   1      44.764  27.316  26.717  1.00  0.00    -0.205 F 
ATOM     90  C   UNL A   1      47.787  29.374  26.515  1.00  0.00     0.022 A 
BRANCH  88  91
ATOM     91  S   UNL A   1      47.560  26.794  25.606  1.00  0.00     0.127 S 
ATOM     92  O   UNL A   1      47.365  25.808  26.667  1.00  0.00    -0.237 OA
ATOM     93  O   UNL A   1      46.685  26.624  24.444  1.00  0.00    -0.237 OA
ATOM     94  O   UNL A   1      48.947  27.086  25.265  1.00  0.00    -0.744 OA
ENDBRANCH  88  91
ENDBRANCH  61  84
ENDBRANCH  35  36
ENDBRANCH  27  30
ENDBRANCH  25  26
ENDBRANCH  24  25
ENDBRANCH   1  24
TORSDOF 18
ENDMDL
MODEL 2
REMARK VINA RESULT:     -11.2      1.954      2.571
REMARK SMILES O=C(/C=C/c1cc(C(=O)NCCn2cccn2)cs1)NCCCNC(=O)c1ccc(-c2c3nc(c(-c4cccc(S(=O)(=O)[O-])c4F)c4ccc([nH]4)c(-c4cccc(S(=O)(=O)[O-])c4F)c4nc(c(-c5cccc(S(=O)(=O)[O-])c5F)c5ccc2[nH]5)C=C4)C=C3)cc1
REMARK SMILES IDX 21 1 20 2 1 3 2 4 3 6 4 7 5 8 6 9 19 10 7 11 18 12 8 13 9 14
REMARK SMILES IDX 10 15 11 17 12 18 13 19 14 20 17 21 15 22 16 23 22 24 23 25
REMARK SMILES IDX 24 26 25 27 26 29 27 30 28 31 89 32 29 33 88 34 30 35 31 36
REMARK SMILES IDX 32 37 82 38 33 39 87 40 81 41 83 42 34 43 86 44 80 45 79 46
REMARK SMILES IDX 35 48 67 49 47 50 66 51 48 52 51 53 65 54 84 55 49 56 50 57
REMARK SMILES IDX 64 59 85 60 52 61 36 62 37 63 45 64 38 65 40 66 46 67 39 68
REMARK SMILES IDX 41 69 42 70 43 71 44 72 68 73 69 74 77 75 70 76 72 77 78 78
REMARK SMILES IDX 71 79 73 80 74 81 75 82 76 83 53 84 54 85 62 86 55 87 57 88
REMARK SMILES IDX 63 89 56 90 58 91 59 92 60 93 61 94
REMARK H PARENT 20 5 10 16 24 28 83 47 51 58
REMARK Flexibility Score: inf
ROOT
ATOM      1  C   UNL A   1      38.677  21.524  25.751  1.00  0.00     0.118 C 
ENDROOT
BRANCH   1   2
ATOM      2  N   UNL A   1      37.807  22.358  24.936  1.00  0.00    -0.352 N 
ATOM      3  O   UNL A   1      35.853  21.570  25.833  1.00  0.00    -0.270 OA
ATOM      4  C   UNL A   1      36.442  22.322  25.061  1.00  0.00     0.244 C 
ATOM      5  H   UNL A   1      38.210  22.966  24.276  1.00  0.00     0.163 HD
BRANCH   4   6
ATOM      6  C   UNL A   1      35.664  23.348  24.316  1.00  0.00     0.072 C 
ATOM      7  C   UNL A   1      34.789  24.246  24.796  1.00  0.00     0.024 C 
BRANCH   7   8
ATOM      8  C   UNL A   1      34.039  25.095  23.919  1.00  0.00     0.028 A 
ATOM      9  C   UNL A   1      33.670  26.426  24.048  1.00  0.00     0.033 A 
ATOM     10  S   UNL A   1      33.462  24.489  22.412  1.00  0.00    -0.144 S 
ATOM     11  C   UNL A   1      33.067  26.996  22.879  1.00  0.00     0.051 A 
ATOM     12  C   UNL A   1      32.755  25.986  21.989  1.00  0.00     0.079 A 
BRANCH  11  13
ATOM     13  C   UNL A   1      32.697  28.386  22.641  1.00  0.00     0.252 C 
ATOM     14  O   UNL A   1      33.479  29.327  22.754  1.00  0.00    -0.269 OA
ATOM     15  N   UNL A   1      31.385  28.712  22.369  1.00  0.00    -0.350 N 
ATOM     16  H   UNL A   1      31.263  29.617  22.001  1.00  0.00     0.163 HD
BRANCH  15  17
ATOM     17  C   UNL A   1      30.146  27.959  22.529  1.00  0.00     0.140 C 
BRANCH  17  18
ATOM     18  C   UNL A   1      29.007  28.774  23.148  1.00  0.00     0.165 C 
BRANCH  18  19
ATOM     19  N   UNL A   1      28.757  30.077  22.557  1.00  0.00    -0.271 N 
ATOM     20  C   UNL A   1      28.566  31.282  23.173  1.00  0.00     0.108 A 
ATOM     21  N   UNL A   1      28.684  30.169  21.209  1.00  0.00    -0.181 NA
ATOM     22  C   UNL A   1      28.333  32.198  22.174  1.00  0.00     0.042 A 
ATOM     23  C   UNL A   1      28.416  31.456  20.987  1.00  0.00     0.135 A 
ENDBRANCH  18  19
ENDBRANCH  17  18
ENDBRANCH  15  17
ENDBRANCH  11  13
ENDBRANCH   7   8
ENDBRANCH   4   6
ENDBRANCH   1   2
BRANCH   1  24
ATOM     24  C   UNL A   1      39.028  20.176  25.113  1.00  0.00     0.042 C 
BRANCH  24  25
ATOM     25  C   UNL A   1      39.722  19.226  26.072  1.00  0.00     0.118 C 
BRANCH  25  26
ATOM     26  N   UNL A   1      41.114  18.909  25.701  1.00  0.00    -0.352 N 
ATOM     27  C   UNL A   1      42.223  19.747  25.697  1.00  0.00     0.251 C 
ATOM     28  H   UNL A   1      41.279  17.980  25.418  1.00  0.00     0.163 HD
ATOM     29  O   UNL A   1      43.229  19.457  25.064  1.00  0.00    -0.269 OA
BRANCH  27  30
ATOM     30  C   UNL A   1      42.168  20.988  26.493  1.00  0.00     0.039 A 
ATOM     31  C   UNL A   1      42.006  21.016  27.883  1.00  0.00     0.014 A 
ATOM     32  C   UNL A   1      42.322  22.167  25.783  1.00  0.00     0.014 A 
ATOM     33  C   UNL A   1      42.058  22.249  28.535  1.00  0.00     0.010 A 
ATOM     34  C   UNL A   1      42.685  23.299  26.438  1.00  0.00     0.010 A 
ATOM     35  C   UNL A   1      42.401  23.384  27.790  1.00  0.00    -0.014 A 
BRANCH  35  36
ATOM     36  C   UNL A   1      42.522  24.722  28.343  1.00  0.00     0.031 A 
ATOM     37  C   UNL A   1      41.321  25.569  28.150  1.00  0.00     0.074 A 
ATOM     38  C   UNL A   1      43.502  24.996  29.238  1.00  0.00     0.049 A 
ATOM     39  N   UNL A   1      41.230  26.645  27.444  1.00  0.00    -0.248 NA
ATOM     40  C   UNL A   1      40.028  25.080  28.658  1.00  0.00     0.031 C 
ATOM     41  C   UNL A   1      44.530  24.077  29.766  1.00  0.00     0.029 A 
ATOM     42  N   UNL A   1      43.666  26.093  30.021  1.00  0.00    -0.354 N 
ATOM     43  C   UNL A   1      39.927  27.101  27.630  1.00  0.00     0.074 A 
ATOM     44  C   UNL A   1      39.188  25.985  28.152  1.00  0.00     0.031 C 
ATOM     45  C   UNL A   1      45.001  24.553  30.939  1.00  0.00     0.029 A 
ATOM     46  C   UNL A   1      44.443  25.872  31.159  1.00  0.00     0.049 A 
ATOM     47  H   UNL A   1      43.273  26.969  29.803  1.00  0.00     0.167 HD
ATOM     48  C   UNL A   1      39.636  28.432  27.610  1.00  0.00     0.034 A 
ATOM     49  C   UNL A   1      44.554  26.692  32.234  1.00  0.00     0.034 A 
ATOM     50  C   UNL A   1      40.765  29.196  27.137  1.00  0.00     0.049 A 
ATOM     51  C   UNL A   1      44.086  28.033  31.813  1.00  0.00     0.074 A 
ATOM     52  C   UNL A   1      41.514  29.210  25.977  1.00  0.00     0.029 A 
ATOM     53  N   UNL A   1      41.533  29.816  28.097  1.00  0.00    -0.354 N 
ATOM     54  N   UNL A   1      44.712  28.755  30.927  1.00  0.00    -0.248 NA
ATOM     55  C   UNL A   1      42.680  28.354  32.006  1.00  0.00     0.031 C 
ATOM     56  C   UNL A   1      42.856  29.396  26.415  1.00  0.00     0.029 A 
ATOM     57  C   UNL A   1      42.849  29.576  27.800  1.00  0.00     0.049 A 
ATOM     58  H   UNL A   1      41.196  30.336  28.861  1.00  0.00     0.167 HD
ATOM     59  C   UNL A   1      43.697  29.263  30.126  1.00  0.00     0.074 A 
ATOM     60  C   UNL A   1      42.471  29.083  30.906  1.00  0.00     0.031 C 
ATOM     61  C   UNL A   1      43.897  29.482  28.793  1.00  0.00     0.034 A 
BRANCH  48  62
ATOM     62  C   UNL A   1      38.505  29.111  28.351  1.00  0.00     0.023 A 
ATOM     63  C   UNL A   1      37.647  29.932  27.583  1.00  0.00     0.012 A 
ATOM     64  C   UNL A   1      38.390  29.209  29.757  1.00  0.00     0.148 A 
ATOM     65  C   UNL A   1      36.775  30.850  28.179  1.00  0.00     0.002 A 
ATOM     66  C   UNL A   1      37.465  30.066  30.345  1.00  0.00     0.091 A 
ATOM     67  F   UNL A   1      39.256  28.577  30.550  1.00  0.00    -0.205 F 
ATOM     68  C   UNL A   1      36.681  30.915  29.561  1.00  0.00     0.022 A 
BRANCH  66  69
ATOM     69  S   UNL A   1      37.265  30.156  32.129  1.00  0.00     0.127 S 
ATOM     70  O   UNL A   1      36.081  31.000  32.248  1.00  0.00    -0.237 OA
ATOM     71  O   UNL A   1      37.062  28.749  32.478  1.00  0.00    -0.237 OA
ATOM     72  O   UNL A   1      38.511  30.720  32.634  1.00  0.00    -0.744 OA
ENDBRANCH  66  69
ENDBRANCH  48  62
BRANCH  49  73
ATOM     73  C   UNL A   1      44.718  26.336  33.663  1.00  0.00     0.023 A 
ATOM     74  C   UNL A   1      45.959  26.518  34.304  1.00  0.00     0.012 A 
ATOM     75  C   UNL A   1      43.576  26.119  34.465  1.00  0.00     0.148 A 
ATOM     76  C   UNL A   1      46.054  26.501  35.703  1.00  0.00     0.002 A 
ATOM     77  C   UNL A   1      43.669  26.133  35.853  1.00  0.00     0.091 A 
ATOM     78  F   UNL A   1      42.385  25.994  33.861  1.00  0.00    -0.205 F 
ATOM     79  C   UNL A   1      44.909  26.321  36.476  1.00  0.00     0.022 A 
BRANCH  77  80
ATOM     80  S   UNL A   1      42.214  26.082  36.913  1.00  0.00     0.127 S 
ATOM     81  O   UNL A   1      41.415  27.189  36.391  1.00  0.00    -0.237 OA
ATOM     82  O   UNL A   1      41.681  24.754  36.619  1.00  0.00    -0.237 OA
ATOM     83  O   UNL A   1      42.701  26.268  38.274  1.00  0.00    -0.744 OA
ENDBRANCH  77  80
ENDBRANCH  49  73
BRANCH  61  84
ATOM     84  C   UNL A   1      45.304  29.358  28.255  1.00  0.00     0.023 A 
ATOM     85  C   UNL A   1      45.803  28.156  27.709  1.00  0.00     0.012 A 
ATOM     86  C   UNL A   1      46.064  30.529  28.111  1.00  0.00     0.148 A 
ATOM     87  C   UNL A   1      47.037  28.118  27.052  1.00  0.00     0.002 A 
ATOM     88  C   UNL A   1      47.265  30.499  27.411  1.00  0.00     0.091 A 
ATOM     89  F   UNL A   1      45.578  31.668  28.629  1.00  0.00    -0.205 F 
ATOM     90  C   UNL A   1      47.759  29.295  26.889  1.00  0.00     0.022 A 
BRANCH  88  91
ATOM     91  S   UNL A   1      48.167  32.005  27.046  1.00  0.00     0.127 S 
ATOM     92  O   UNL A   1      47.308  32.640  26.050  1.00  0.00    -0.237 OA
ATOM     93  O   UNL A   1      48.197  32.678  28.347  1.00  0.00    -0.237 OA
ATOM     94  O   UNL A   1      49.478  31.580  26.570  1.00  0.00    -0.744 OA
ENDBRANCH  88  91
ENDBRANCH  61  84
ENDBRANCH  35  36
ENDBRANCH  27  30
ENDBRANCH  25  26
ENDBRANCH  24  25
ENDBRANCH   1  24
TORSDOF 18
ENDMDL
MODEL 3
REMARK VINA RESULT:     -10.7      1.762      2.083
REMARK SMILES O=C(/C=C/c1cc(C(=O)NCCn2cccn2)cs1)NCCCNC(=O)c1ccc(-c2c3nc(c(-c4cccc(S(=O)(=O)[O-])c4F)c4ccc([nH]4)c(-c4cccc(S(=O)(=O)[O-])c4F)c4nc(c(-c5cccc(S(=O)(=O)[O-])c5F)c5ccc2[nH]5)C=C4)C=C3)cc1
REMARK SMILES IDX 21 1 20 2 1 3 2 4 3 6 4 7 5 8 6 9 19 10 7 11 18 12 8 13 9 14
REMARK SMILES IDX 10 15 11 17 12 18 13 19 14 20 17 21 15 22 16 23 22 24 23 25
REMARK SMILES IDX 24 26 25 27 26 29 27 30 28 31 89 32 29 33 88 34 30 35 31 36
REMARK SMILES IDX 32 37 82 38 33 39 87 40 81 41 83 42 34 43 86 44 80 45 79 46
REMARK SMILES IDX 35 48 67 49 47 50 66 51 48 52 51 53 65 54 84 55 49 56 50 57
REMARK SMILES IDX 64 59 85 60 52 61 36 62 37 63 45 64 38 65 40 66 46 67 39 68
REMARK SMILES IDX 41 69 42 70 43 71 44 72 68 73 69 74 77 75 70 76 72 77 78 78
REMARK SMILES IDX 71 79 73 80 74 81 75 82 76 83 53 84 54 85 62 86 55 87 57 88
REMARK SMILES IDX 63 89 56 90 58 91 59 92 60 93 61 94
REMARK H PARENT 20 5 10 16 24 28 83 47 51 58
REMARK Flexibility Score: inf
ROOT
ATOM      1  C   UNL A   1      38.939  22.099  26.157  1.00  0.00     0.118 C 
ENDROOT
BRANCH   1   2
ATOM      2  N   UNL A   1      38.016  22.974  25.450  1.00  0.00    -0.352 N 
ATOM      3  O   UNL A   1      36.210  21.579  25.641  1.00  0.00    -0.270 OA
ATOM      4  C   UNL A   1      36.700  22.640  25.263  1.00  0.00     0.244 C 
ATOM      5  H   UNL A   1      38.347  23.830  25.094  1.00  0.00     0.163 HD
BRANCH   4   6
ATOM      6  C   UNL A   1      35.807  23.686  24.695  1.00  0.00     0.072 C 
ATOM      7  C   UNL A   1      34.574  23.547  24.183  1.00  0.00     0.024 C 
BRANCH   7   8
ATOM      8  C   UNL A   1      33.893  24.650  23.574  1.00  0.00     0.028 A 
ATOM      9  C   UNL A   1      33.981  26.012  23.819  1.00  0.00     0.033 A 
ATOM     10  S   UNL A   1      32.766  24.374  22.298  1.00  0.00    -0.144 S 
ATOM     11  C   UNL A   1      33.270  26.835  22.885  1.00  0.00     0.051 A 
ATOM     12  C   UNL A   1      32.441  26.042  22.117  1.00  0.00     0.079 A 
BRANCH  11  13
ATOM     13  C   UNL A   1      33.274  28.290  22.779  1.00  0.00     0.252 C 
ATOM     14  O   UNL A   1      34.273  28.951  22.508  1.00  0.00    -0.269 OA
ATOM     15  N   UNL A   1      32.136  29.005  23.090  1.00  0.00    -0.350 N 
ATOM     16  H   UNL A   1      32.148  29.939  22.778  1.00  0.00     0.163 HD
BRANCH  15  17
ATOM     17  C   UNL A   1      30.918  28.627  23.799  1.00  0.00     0.140 C 
BRANCH  17  18
ATOM     18  C   UNL A   1      31.170  28.081  25.207  1.00  0.00     0.165 C 
BRANCH  18  19
ATOM     19  N   UNL A   1      32.032  28.881  26.060  1.00  0.00    -0.271 N 
ATOM     20  C   UNL A   1      31.875  30.173  26.477  1.00  0.00     0.108 A 
ATOM     21  N   UNL A   1      33.171  28.322  26.529  1.00  0.00    -0.181 NA
ATOM     22  C   UNL A   1      32.981  30.475  27.236  1.00  0.00     0.042 A 
ATOM     23  C   UNL A   1      33.745  29.298  27.232  1.00  0.00     0.135 A 
ENDBRANCH  18  19
ENDBRANCH  17  18
ENDBRANCH  15  17
ENDBRANCH  11  13
ENDBRANCH   7   8
ENDBRANCH   4   6
ENDBRANCH   1   2
BRANCH   1  24
ATOM     24  C   UNL A   1      39.318  20.833  25.384  1.00  0.00     0.042 C 
BRANCH  24  25
ATOM     25  C   UNL A   1      39.593  19.643  26.286  1.00  0.00     0.118 C 
BRANCH  25  26
ATOM     26  N   UNL A   1      40.842  18.926  25.969  1.00  0.00    -0.352 N 
ATOM     27  C   UNL A   1      42.116  19.447  25.772  1.00  0.00     0.251 C 
ATOM     28  H   UNL A   1      40.763  17.948  25.885  1.00  0.00     0.163 HD
ATOM     29  O   UNL A   1      42.980  18.798  25.199  1.00  0.00    -0.269 OA
BRANCH  27  30
ATOM     30  C   UNL A   1      42.410  20.796  26.291  1.00  0.00     0.039 A 
ATOM     31  C   UNL A   1      42.770  21.880  25.482  1.00  0.00     0.014 A 
ATOM     32  C   UNL A   1      42.280  20.958  27.660  1.00  0.00     0.014 A 
ATOM     33  C   UNL A   1      42.937  23.131  26.081  1.00  0.00     0.010 A 
ATOM     34  C   UNL A   1      42.132  22.205  28.175  1.00  0.00     0.010 A 
ATOM     35  C   UNL A   1      42.612  23.272  27.436  1.00  0.00    -0.014 A 
BRANCH  35  36
ATOM     36  C   UNL A   1      42.708  24.517  28.177  1.00  0.00     0.031 A 
ATOM     37  C   UNL A   1      41.532  25.407  28.023  1.00  0.00     0.074 A 
ATOM     38  C   UNL A   1      43.625  24.645  29.166  1.00  0.00     0.049 A 
ATOM     39  N   UNL A   1      41.503  26.572  27.470  1.00  0.00    -0.248 NA
ATOM     40  C   UNL A   1      40.203  24.879  28.368  1.00  0.00     0.031 C 
ATOM     41  C   UNL A   1      44.604  23.641  29.629  1.00  0.00     0.029 A 
ATOM     42  N   UNL A   1      43.747  25.619  30.103  1.00  0.00    -0.354 N 
ATOM     43  C   UNL A   1      40.195  27.024  27.629  1.00  0.00     0.074 A 
ATOM     44  C   UNL A   1      39.409  25.862  27.938  1.00  0.00     0.031 C 
ATOM     45  C   UNL A   1      44.997  23.940  30.887  1.00  0.00     0.029 A 
ATOM     46  C   UNL A   1      44.439  25.227  31.249  1.00  0.00     0.049 A 
ATOM     47  H   UNL A   1      43.379  26.524  29.984  1.00  0.00     0.167 HD
ATOM     48  C   UNL A   1      39.920  28.350  27.775  1.00  0.00     0.034 A 
ATOM     49  C   UNL A   1      44.483  25.887  32.434  1.00  0.00     0.034 A 
ATOM     50  C   UNL A   1      41.088  29.149  27.491  1.00  0.00     0.049 A 
ATOM     51  C   UNL A   1      44.061  27.283  32.173  1.00  0.00     0.074 A 
ATOM     52  C   UNL A   1      41.916  29.309  26.398  1.00  0.00     0.029 A 
ATOM     53  N   UNL A   1      41.793  29.615  28.578  1.00  0.00    -0.354 N 
ATOM     54  N   UNL A   1      44.754  28.108  31.442  1.00  0.00    -0.248 NA
ATOM     55  C   UNL A   1      42.648  27.603  32.314  1.00  0.00     0.031 C 
ATOM     56  C   UNL A   1      43.227  29.406  26.947  1.00  0.00     0.029 A 
ATOM     57  C   UNL A   1      43.124  29.392  28.340  1.00  0.00     0.049 A 
ATOM     58  H   UNL A   1      41.409  30.031  29.382  1.00  0.00     0.167 HD
ATOM     59  C   UNL A   1      43.804  28.743  30.652  1.00  0.00     0.074 A 
ATOM     60  C   UNL A   1      42.524  28.482  31.314  1.00  0.00     0.031 C 
ATOM     61  C   UNL A   1      44.099  29.140  29.379  1.00  0.00     0.034 A 
BRANCH  48  62
ATOM     62  C   UNL A   1      38.748  28.944  28.525  1.00  0.00     0.023 A 
ATOM     63  C   UNL A   1      37.864  29.756  27.778  1.00  0.00     0.012 A 
ATOM     64  C   UNL A   1      38.607  28.974  29.931  1.00  0.00     0.148 A 
ATOM     65  C   UNL A   1      36.940  30.605  28.397  1.00  0.00     0.002 A 
ATOM     66  C   UNL A   1      37.634  29.761  30.540  1.00  0.00     0.091 A 
ATOM     67  F   UNL A   1      39.490  28.349  30.712  1.00  0.00    -0.205 F 
ATOM     68  C   UNL A   1      36.823  30.606  29.780  1.00  0.00     0.022 A 
BRANCH  66  69
ATOM     69  S   UNL A   1      37.403  29.764  32.323  1.00  0.00     0.127 S 
ATOM     70  O   UNL A   1      38.564  30.530  32.766  1.00  0.00    -0.237 OA
ATOM     71  O   UNL A   1      36.118  30.453  32.456  1.00  0.00    -0.237 OA
ATOM     72  O   UNL A   1      37.369  28.361  32.715  1.00  0.00    -0.744 OA
ENDBRANCH  66  69
ENDBRANCH  48  62
BRANCH  49  73
ATOM     73  C   UNL A   1      44.543  25.334  33.807  1.00  0.00     0.023 A 
ATOM     74  C   UNL A   1      43.360  24.975  34.482  1.00  0.00     0.012 A 
ATOM     75  C   UNL A   1      45.774  24.868  34.320  1.00  0.00     0.148 A 
ATOM     76  C   UNL A   1      43.402  24.164  35.625  1.00  0.00     0.002 A 
ATOM     77  C   UNL A   1      45.809  24.038  35.436  1.00  0.00     0.091 A 
ATOM     78  F   UNL A   1      46.898  25.166  33.653  1.00  0.00    -0.205 F 
ATOM     79  C   UNL A   1      44.624  23.685  36.093  1.00  0.00     0.022 A 
BRANCH  77  80
ATOM     80  S   UNL A   1      47.328  23.244  35.992  1.00  0.00     0.127 S 
ATOM     81  O   UNL A   1      46.873  22.499  37.164  1.00  0.00    -0.237 OA
ATOM     82  O   UNL A   1      47.669  22.417  34.838  1.00  0.00    -0.237 OA
ATOM     83  O   UNL A   1      48.264  24.324  36.280  1.00  0.00    -0.744 OA
ENDBRANCH  77  80
ENDBRANCH  49  73
BRANCH  61  84
ATOM     84  C   UNL A   1      45.539  29.063  28.926  1.00  0.00     0.023 A 
ATOM     85  C   UNL A   1      46.129  27.862  28.479  1.00  0.00     0.012 A 
ATOM     86  C   UNL A   1      46.245  30.264  28.755  1.00  0.00     0.148 A 
ATOM     87  C   UNL A   1      47.399  27.854  27.893  1.00  0.00     0.002 A 
ATOM     88  C   UNL A   1      47.484  30.261  28.124  1.00  0.00     0.091 A 
ATOM     89  F   UNL A   1      45.672  31.402  29.179  1.00  0.00    -0.205 F 
ATOM     90  C   UNL A   1      48.068  29.058  27.700  1.00  0.00     0.022 A 
BRANCH  88  91
ATOM     91  S   UNL A   1      48.327  31.791  27.721  1.00  0.00     0.127 S 
ATOM     92  O   UNL A   1      49.037  32.083  28.964  1.00  0.00    -0.237 OA
ATOM     93  O   UNL A   1      49.186  31.393  26.604  1.00  0.00    -0.237 OA
ATOM     94  O   UNL A   1      47.281  32.739  27.356  1.00  0.00    -0.744 OA
ENDBRANCH  88  91
ENDBRANCH  61  84
ENDBRANCH  35  36
ENDBRANCH  27  30
ENDBRANCH  25  26
ENDBRANCH  24  25
ENDBRANCH   1  24
TORSDOF 18
ENDMDL
