MODEL 1
REMARK VINA RESULT:     -12.9      0.000      0.000
REMARK SMILES CC1(C)CCCC[C@@H]1NC(=O)NC1(C(=O)NCCCNC(=O)c2ccc(-c3c4nc(c(-c5cccc(S(=O)(=O)[O-])c5F)c5ccc([nH]5)c(-c5cccc(S(=O)(=O)[O-])c5F)c5nc(c(-c6cccc(S(=O)(=O)[O-])c6F)c6ccc3[nH]6)C=C5)C=C4)cc2)CCCCC1
REMARK SMILES IDX 18 1 17 2 16 3 14 4 15 5 13 7 86 8 90 9 87 10 89 11 88 12
REMARK SMILES IDX 12 13 9 14 10 15 11 17 8 19 1 20 2 21 3 22 4 23 5 24 7 25
REMARK SMILES IDX 6 26 19 27 20 28 21 29 22 31 23 32 24 33 85 34 25 35 84 36
REMARK SMILES IDX 26 37 27 38 28 39 78 40 29 41 83 42 77 43 79 44 30 45 82 46
REMARK SMILES IDX 76 47 75 48 31 50 63 51 43 52 62 53 44 54 47 55 61 56 80 57
REMARK SMILES IDX 45 58 46 59 60 61 81 62 48 63 32 64 33 65 41 66 34 67 36 68
REMARK SMILES IDX 42 69 35 70 37 71 38 72 39 73 40 74 64 75 65 76 73 77 66 78
REMARK SMILES IDX 68 79 74 80 67 81 69 82 70 83 71 84 72 85 49 86 50 87 58 88
REMARK SMILES IDX 51 89 53 90 59 91 52 92 54 93 55 94 56 95 57 96
REMARK H PARENT 16 6 9 16 12 18 20 30 79 49 47 60
REMARK Flexibility Score: inf
ROOT
ATOM      1  C   UNL A   1      35.795  20.947  24.599  1.00  0.00     0.042 C 
ENDROOT
BRANCH   1   2
ATOM      2  C   UNL A   1      34.751  20.407  25.570  1.00  0.00     0.117 C 
BRANCH   2   3
ATOM      3  N   UNL A   1      34.396  21.369  26.598  1.00  0.00    -0.354 N 
ATOM      4  C   UNL A   1      33.545  22.426  26.632  1.00  0.00     0.245 C 
ATOM      5  O   UNL A   1      33.450  22.952  27.753  1.00  0.00    -0.272 OA
ATOM      6  H   UNL A   1      34.874  21.226  27.447  1.00  0.00     0.163 HD
BRANCH   4   7
ATOM      7  C   UNL A   1      32.872  23.100  25.373  1.00  0.00     0.120 C 
ATOM      8  C   UNL A   1      32.194  22.375  24.218  1.00  0.00     0.039 C 
ATOM      9  C   UNL A   1      34.120  23.916  24.845  1.00  0.00     0.039 C 
ATOM     10  C   UNL A   1      32.113  23.187  22.926  1.00  0.00     0.003 C 
ATOM     11  C   UNL A   1      34.240  24.319  23.371  1.00  0.00     0.003 C 
ATOM     12  C   UNL A   1      33.502  23.423  22.399  1.00  0.00     0.000 C 
BRANCH   7  13
ATOM     13  N   UNL A   1      31.793  23.941  25.998  1.00  0.00    -0.324 N 
ATOM     14  N   UNL A   1      31.225  26.063  24.904  1.00  0.00    -0.335 N 
ATOM     15  C   UNL A   1      31.118  25.073  25.789  1.00  0.00     0.315 C 
ATOM     16  H   UNL A   1      30.434  26.616  25.100  1.00  0.00     0.165 HD
ATOM     17  O   UNL A   1      30.190  25.256  26.599  1.00  0.00    -0.249 OA
ATOM     18  H   UNL A   1      31.483  23.519  26.833  1.00  0.00     0.166 HD
BRANCH  14  19
ATOM     19  C   UNL A   1      31.890  26.819  23.754  1.00  0.00     0.089 C 
ATOM     20  C   UNL A   1      33.301  28.911  23.049  1.00  0.00     0.013 C 
ATOM     21  C   UNL A   1      32.600  28.164  24.231  1.00  0.00    -0.015 C 
ATOM     22  C   UNL A   1      33.709  27.910  25.263  1.00  0.00     0.013 C 
ATOM     23  C   UNL A   1      31.518  29.094  24.818  1.00  0.00     0.008 C 
ATOM     24  C   UNL A   1      30.397  29.380  23.820  1.00  0.00     0.001 C 
ATOM     25  C   UNL A   1      31.062  27.206  22.546  1.00  0.00     0.025 C 
ATOM     26  C   UNL A   1      29.996  28.180  22.972  1.00  0.00     0.002 C 
ENDBRANCH  14  19
ENDBRANCH   7  13
ENDBRANCH   4   7
ENDBRANCH   2   3
ENDBRANCH   1   2
BRANCH   1  27
ATOM     27  C   UNL A   1      37.032  21.559  25.263  1.00  0.00     0.118 C 
BRANCH  27  28
ATOM     28  N   UNL A   1      38.127  20.622  25.492  1.00  0.00    -0.352 N 
ATOM     29  C   UNL A   1      39.367  20.810  26.082  1.00  0.00     0.251 C 
ATOM     30  H   UNL A   1      37.957  19.705  25.175  1.00  0.00     0.163 HD
ATOM     31  O   UNL A   1      40.179  19.909  26.102  1.00  0.00    -0.269 OA
BRANCH  29  32
ATOM     32  C   UNL A   1      39.710  22.139  26.647  1.00  0.00     0.039 A 
ATOM     33  C   UNL A   1      40.721  22.230  27.608  1.00  0.00     0.014 A 
ATOM     34  C   UNL A   1      39.078  23.292  26.189  1.00  0.00     0.014 A 
ATOM     35  C   UNL A   1      41.183  23.489  28.005  1.00  0.00     0.010 A 
ATOM     36  C   UNL A   1      39.621  24.536  26.489  1.00  0.00     0.010 A 
ATOM     37  C   UNL A   1      40.686  24.653  27.394  1.00  0.00    -0.014 A 
BRANCH  37  38
ATOM     38  C   UNL A   1      41.270  25.996  27.660  1.00  0.00     0.031 A 
ATOM     39  C   UNL A   1      42.685  26.302  27.237  1.00  0.00     0.074 A 
ATOM     40  C   UNL A   1      40.576  26.899  28.385  1.00  0.00     0.049 A 
ATOM     41  N   UNL A   1      43.405  27.367  27.477  1.00  0.00    -0.248 NA
ATOM     42  C   UNL A   1      43.397  25.259  26.478  1.00  0.00     0.031 C 
ATOM     43  C   UNL A   1      39.236  26.693  28.941  1.00  0.00     0.029 A 
ATOM     44  N   UNL A   1      40.915  28.161  28.809  1.00  0.00    -0.354 N 
ATOM     45  C   UNL A   1      44.662  27.103  26.945  1.00  0.00     0.074 A 
ATOM     46  C   UNL A   1      44.621  25.762  26.409  1.00  0.00     0.031 C 
ATOM     47  C   UNL A   1      38.863  27.791  29.619  1.00  0.00     0.029 A 
ATOM     48  C   UNL A   1      39.948  28.766  29.582  1.00  0.00     0.049 A 
ATOM     49  H   UNL A   1      41.770  28.593  28.582  1.00  0.00     0.167 HD
ATOM     50  C   UNL A   1      45.743  27.916  26.872  1.00  0.00     0.034 A 
ATOM     51  C   UNL A   1      39.939  29.964  30.199  1.00  0.00     0.034 A 
ATOM     52  C   UNL A   1      45.762  29.271  27.348  1.00  0.00     0.049 A 
ATOM     53  C   UNL A   1      41.132  30.869  30.050  1.00  0.00     0.074 A 
ATOM     54  C   UNL A   1      46.774  30.208  27.232  1.00  0.00     0.029 A 
ATOM     55  N   UNL A   1      44.724  29.884  28.028  1.00  0.00    -0.354 N 
ATOM     56  N   UNL A   1      42.252  30.660  29.401  1.00  0.00    -0.248 NA
ATOM     57  C   UNL A   1      41.048  32.192  30.688  1.00  0.00     0.031 C 
ATOM     58  C   UNL A   1      46.354  31.383  27.861  1.00  0.00     0.029 A 
ATOM     59  C   UNL A   1      45.069  31.186  28.343  1.00  0.00     0.049 A 
ATOM     60  H   UNL A   1      43.866  29.457  28.254  1.00  0.00     0.167 HD
ATOM     61  C   UNL A   1      42.986  31.834  29.517  1.00  0.00     0.074 A 
ATOM     62  C   UNL A   1      42.175  32.760  30.281  1.00  0.00     0.031 C 
ATOM     63  C   UNL A   1      44.227  32.116  29.050  1.00  0.00     0.034 A 
BRANCH  50  64
ATOM     64  C   UNL A   1      46.977  27.382  26.189  1.00  0.00     0.023 A 
ATOM     65  C   UNL A   1      47.177  27.638  24.818  1.00  0.00     0.012 A 
ATOM     66  C   UNL A   1      47.964  26.687  26.914  1.00  0.00     0.148 A 
ATOM     67  C   UNL A   1      48.322  27.180  24.168  1.00  0.00     0.002 A 
ATOM     68  C   UNL A   1      49.126  26.276  26.270  1.00  0.00     0.091 A 
ATOM     69  F   UNL A   1      47.748  26.436  28.213  1.00  0.00    -0.205 F 
ATOM     70  C   UNL A   1      49.301  26.510  24.896  1.00  0.00     0.022 A 
BRANCH  68  71
ATOM     71  S   UNL A   1      50.485  25.479  27.133  1.00  0.00     0.127 S 
ATOM     72  O   UNL A   1      50.849  26.500  28.115  1.00  0.00    -0.237 OA
ATOM     73  O   UNL A   1      49.836  24.295  27.697  1.00  0.00    -0.237 OA
ATOM     74  O   UNL A   1      51.495  25.198  26.123  1.00  0.00    -0.744 OA
ENDBRANCH  68  71
ENDBRANCH  50  64
BRANCH  51  75
ATOM     75  C   UNL A   1      38.736  30.410  30.960  1.00  0.00     0.023 A 
ATOM     76  C   UNL A   1      38.653  30.142  32.341  1.00  0.00     0.012 A 
ATOM     77  C   UNL A   1      37.682  31.102  30.333  1.00  0.00     0.148 A 
ATOM     78  C   UNL A   1      37.524  30.513  33.074  1.00  0.00     0.002 A 
ATOM     79  C   UNL A   1      36.587  31.521  31.081  1.00  0.00     0.091 A 
ATOM     80  F   UNL A   1      37.772  31.341  29.017  1.00  0.00    -0.205 F 
ATOM     81  C   UNL A   1      36.497  31.211  32.447  1.00  0.00     0.022 A 
BRANCH  79  82
ATOM     82  S   UNL A   1      35.283  32.542  30.384  1.00  0.00     0.127 S 
ATOM     83  O   UNL A   1      34.833  31.727  29.260  1.00  0.00    -0.237 OA
ATOM     84  O   UNL A   1      34.338  32.631  31.499  1.00  0.00    -0.237 OA
ATOM     85  O   UNL A   1      35.919  33.806  30.040  1.00  0.00    -0.744 OA
ENDBRANCH  79  82
ENDBRANCH  51  75
BRANCH  63  86
ATOM     86  C   UNL A   1      44.776  33.495  29.304  1.00  0.00     0.023 A 
ATOM     87  C   UNL A   1      45.506  33.754  30.481  1.00  0.00     0.012 A 
ATOM     88  C   UNL A   1      44.633  34.511  28.338  1.00  0.00     0.148 A 
ATOM     89  C   UNL A   1      46.058  35.015  30.707  1.00  0.00     0.002 A 
ATOM     90  C   UNL A   1      45.229  35.748  28.547  1.00  0.00     0.091 A 
ATOM     91  F   UNL A   1      43.919  34.248  27.235  1.00  0.00    -0.205 F 
ATOM     92  C   UNL A   1      45.930  36.006  29.736  1.00  0.00     0.022 A 
BRANCH  90  93
ATOM     93  S   UNL A   1      45.202  37.049  27.310  1.00  0.00     0.127 S 
ATOM     94  O   UNL A   1      45.818  38.160  28.033  1.00  0.00    -0.237 OA
ATOM     95  O   UNL A   1      46.030  36.482  26.245  1.00  0.00    -0.237 OA
ATOM     96  O   UNL A   1      43.803  37.236  26.952  1.00  0.00    -0.744 OA
ENDBRANCH  90  93
ENDBRANCH  63  86
ENDBRANCH  37  38
ENDBRANCH  29  32
ENDBRANCH  27  28
ENDBRANCH   1  27
TORSDOF 15
ENDMDL
MODEL 2
REMARK VINA RESULT:     -12.7      1.460      7.618
REMARK SMILES CC1(C)CCCC[C@@H]1NC(=O)NC1(C(=O)NCCCNC(=O)c2ccc(-c3c4nc(c(-c5cccc(S(=O)(=O)[O-])c5F)c5ccc([nH]5)c(-c5cccc(S(=O)(=O)[O-])c5F)c5nc(c(-c6cccc(S(=O)(=O)[O-])c6F)c6ccc3[nH]6)C=C5)C=C4)cc2)CCCCC1
REMARK SMILES IDX 18 1 17 2 16 3 14 4 15 5 13 7 86 8 90 9 87 10 89 11 88 12
REMARK SMILES IDX 12 13 9 14 10 15 11 17 8 19 1 20 2 21 3 22 4 23 5 24 7 25
REMARK SMILES IDX 6 26 19 27 20 28 21 29 22 31 23 32 24 33 85 34 25 35 84 36
REMARK SMILES IDX 26 37 27 38 28 39 78 40 29 41 83 42 77 43 79 44 30 45 82 46
REMARK SMILES IDX 76 47 75 48 31 50 63 51 43 52 62 53 44 54 47 55 61 56 80 57
REMARK SMILES IDX 45 58 46 59 60 61 81 62 48 63 32 64 33 65 41 66 34 67 36 68
REMARK SMILES IDX 42 69 35 70 37 71 38 72 39 73 40 74 64 75 65 76 73 77 66 78
REMARK SMILES IDX 68 79 74 80 67 81 69 82 70 83 71 84 72 85 49 86 50 87 58 88
REMARK SMILES IDX 51 89 53 90 59 91 52 92 54 93 55 94 56 95 57 96
REMARK H PARENT 16 6 9 16 12 18 20 30 79 49 47 60
REMARK Flexibility Score: inf
ROOT
ATOM      1  C   UNL A   1      36.363  21.943  26.036  1.00  0.00     0.042 C 
ENDROOT
BRANCH   1   2
ATOM      2  C   UNL A   1      35.019  21.223  26.047  1.00  0.00     0.117 C 
BRANCH   2   3
ATOM      3  N   UNL A   1      34.083  21.806  26.992  1.00  0.00    -0.354 N 
ATOM      4  C   UNL A   1      32.952  22.544  26.849  1.00  0.00     0.245 C 
ATOM      5  O   UNL A   1      32.370  22.773  27.921  1.00  0.00    -0.272 OA
ATOM      6  H   UNL A   1      34.318  21.631  27.932  1.00  0.00     0.163 HD
BRANCH   4   7
ATOM      7  C   UNL A   1      32.479  23.244  25.516  1.00  0.00     0.120 C 
ATOM      8  C   UNL A   1      31.986  22.545  24.256  1.00  0.00     0.039 C 
ATOM      9  C   UNL A   1      33.793  24.068  25.202  1.00  0.00     0.039 C 
ATOM     10  C   UNL A   1      32.103  23.384  22.984  1.00  0.00     0.003 C 
ATOM     11  C   UNL A   1      34.137  24.501  23.772  1.00  0.00     0.003 C 
ATOM     12  C   UNL A   1      33.556  23.627  22.681  1.00  0.00     0.000 C 
BRANCH   7  13
ATOM     13  N   UNL A   1      31.316  24.075  25.986  1.00  0.00    -0.324 N 
ATOM     14  N   UNL A   1      30.860  26.173  24.797  1.00  0.00    -0.335 N 
ATOM     15  C   UNL A   1      30.657  25.193  25.676  1.00  0.00     0.315 C 
ATOM     16  H   UNL A   1      30.043  26.715  24.882  1.00  0.00     0.165 HD
ATOM     17  O   UNL A   1      29.630  25.370  26.358  1.00  0.00    -0.249 OA
ATOM     18  H   UNL A   1      30.910  23.659  26.781  1.00  0.00     0.166 HD
BRANCH  14  19
ATOM     19  C   UNL A   1      31.656  26.925  23.728  1.00  0.00     0.089 C 
ATOM     20  C   UNL A   1      33.255  28.935  23.216  1.00  0.00     0.013 C 
ATOM     21  C   UNL A   1      32.424  28.193  24.313  1.00  0.00    -0.015 C 
ATOM     22  C   UNL A   1      33.437  27.817  25.404  1.00  0.00     0.013 C 
ATOM     23  C   UNL A   1      31.371  29.175  24.869  1.00  0.00     0.008 C 
ATOM     24  C   UNL A   1      30.345  29.583  23.813  1.00  0.00     0.001 C 
ATOM     25  C   UNL A   1      30.942  27.421  22.487  1.00  0.00     0.025 C 
ATOM     26  C   UNL A   1      29.920  28.452  22.887  1.00  0.00     0.002 C 
ENDBRANCH  14  19
ENDBRANCH   7  13
ENDBRANCH   4   7
ENDBRANCH   2   3
ENDBRANCH   1   2
BRANCH   1  27
ATOM     27  C   UNL A   1      37.304  21.527  24.902  1.00  0.00     0.118 C 
BRANCH  27  28
ATOM     28  N   UNL A   1      38.271  20.494  25.261  1.00  0.00    -0.352 N 
ATOM     29  C   UNL A   1      39.440  20.571  26.000  1.00  0.00     0.251 C 
ATOM     30  H   UNL A   1      38.058  19.595  24.921  1.00  0.00     0.163 HD
ATOM     31  O   UNL A   1      40.157  19.599  26.117  1.00  0.00    -0.269 OA
BRANCH  29  32
ATOM     32  C   UNL A   1      39.832  21.867  26.610  1.00  0.00     0.039 A 
ATOM     33  C   UNL A   1      40.782  21.878  27.635  1.00  0.00     0.014 A 
ATOM     34  C   UNL A   1      39.308  23.065  26.133  1.00  0.00     0.014 A 
ATOM     35  C   UNL A   1      41.299  23.098  28.083  1.00  0.00     0.010 A 
ATOM     36  C   UNL A   1      39.910  24.266  26.489  1.00  0.00     0.010 A 
ATOM     37  C   UNL A   1      40.920  24.300  27.463  1.00  0.00    -0.014 A 
BRANCH  37  38
ATOM     38  C   UNL A   1      41.572  25.597  27.789  1.00  0.00     0.031 A 
ATOM     39  C   UNL A   1      40.800  26.674  28.507  1.00  0.00     0.074 A 
ATOM     40  C   UNL A   1      42.818  25.855  27.335  1.00  0.00     0.049 A 
ATOM     41  N   UNL A   1      41.154  27.903  28.778  1.00  0.00    -0.248 NA
ATOM     42  C   UNL A   1      39.433  26.338  28.945  1.00  0.00     0.031 C 
ATOM     43  C   UNL A   1      43.640  24.938  26.540  1.00  0.00     0.029 A 
ATOM     44  N   UNL A   1      43.600  26.980  27.447  1.00  0.00    -0.354 N 
ATOM     45  C   UNL A   1      40.045  28.498  29.369  1.00  0.00     0.074 A 
ATOM     46  C   UNL A   1      38.990  27.509  29.378  1.00  0.00     0.031 C 
ATOM     47  C   UNL A   1      44.811  25.529  26.250  1.00  0.00     0.029 A 
ATOM     48  C   UNL A   1      44.812  26.880  26.801  1.00  0.00     0.049 A 
ATOM     49  H   UNL A   1      43.319  27.782  27.943  1.00  0.00     0.167 HD
ATOM     50  C   UNL A   1      39.923  29.739  29.894  1.00  0.00     0.034 A 
ATOM     51  C   UNL A   1      45.808  27.777  26.659  1.00  0.00     0.034 A 
ATOM     52  C   UNL A   1      40.991  30.699  29.943  1.00  0.00     0.049 A 
ATOM     53  C   UNL A   1      45.668  29.130  27.304  1.00  0.00     0.074 A 
ATOM     54  C   UNL A   1      40.999  31.947  30.541  1.00  0.00     0.029 A 
ATOM     55  N   UNL A   1      42.241  30.519  29.374  1.00  0.00    -0.354 N 
ATOM     56  N   UNL A   1      44.668  29.612  28.002  1.00  0.00    -0.248 NA
ATOM     57  C   UNL A   1      46.808  30.050  27.176  1.00  0.00     0.031 C 
ATOM     58  C   UNL A   1      42.249  32.530  30.315  1.00  0.00     0.029 A 
ATOM     59  C   UNL A   1      43.028  31.633  29.601  1.00  0.00     0.049 A 
ATOM     60  H   UNL A   1      42.527  29.717  28.880  1.00  0.00     0.167 HD
ATOM     61  C   UNL A   1      45.073  30.872  28.428  1.00  0.00     0.074 A 
ATOM     62  C   UNL A   1      46.418  31.070  27.928  1.00  0.00     0.031 C 
ATOM     63  C   UNL A   1      44.387  31.790  29.151  1.00  0.00     0.034 A 
BRANCH  50  64
ATOM     64  C   UNL A   1      38.604  30.108  30.525  1.00  0.00     0.023 A 
ATOM     65  C   UNL A   1      38.340  29.726  31.855  1.00  0.00     0.012 A 
ATOM     66  C   UNL A   1      37.658  30.884  29.827  1.00  0.00     0.148 A 
ATOM     67  C   UNL A   1      37.140  30.078  32.471  1.00  0.00     0.002 A 
ATOM     68  C   UNL A   1      36.485  31.274  30.465  1.00  0.00     0.091 A 
ATOM     69  F   UNL A   1      37.919  31.223  28.557  1.00  0.00    -0.205 F 
ATOM     70  C   UNL A   1      36.219  30.860  31.781  1.00  0.00     0.022 A 
BRANCH  68  71
ATOM     71  S   UNL A   1      35.272  32.350  29.694  1.00  0.00     0.127 S 
ATOM     72  O   UNL A   1      34.687  31.462  28.689  1.00  0.00    -0.237 OA
ATOM     73  O   UNL A   1      34.388  32.666  30.817  1.00  0.00    -0.237 OA
ATOM     74  O   UNL A   1      36.016  33.484  29.165  1.00  0.00    -0.744 OA
ENDBRANCH  68  71
ENDBRANCH  50  64
BRANCH  51  75
ATOM     75  C   UNL A   1      47.056  27.408  25.930  1.00  0.00     0.023 A 
ATOM     76  C   UNL A   1      48.092  26.749  26.622  1.00  0.00     0.012 A 
ATOM     77  C   UNL A   1      47.223  27.695  24.562  1.00  0.00     0.148 A 
ATOM     78  C   UNL A   1      49.287  26.424  25.978  1.00  0.00     0.002 A 
ATOM     79  C   UNL A   1      48.392  27.316  23.911  1.00  0.00     0.091 A 
ATOM     80  F   UNL A   1      46.233  28.332  23.920  1.00  0.00    -0.205 F 
ATOM     81  C   UNL A   1      49.434  26.698  24.622  1.00  0.00     0.022 A 
BRANCH  79  82
ATOM     82  S   UNL A   1      48.611  27.508  22.139  1.00  0.00     0.127 S 
ATOM     83  O   UNL A   1      49.859  28.262  22.070  1.00  0.00    -0.237 OA
ATOM     84  O   UNL A   1      48.705  26.117  21.691  1.00  0.00    -0.237 OA
ATOM     85  O   UNL A   1      47.419  28.205  21.672  1.00  0.00    -0.744 OA
ENDBRANCH  79  82
ENDBRANCH  51  75
BRANCH  63  86
ATOM     86  C   UNL A   1      45.087  33.078  29.494  1.00  0.00     0.023 A 
ATOM     87  C   UNL A   1      45.859  33.167  30.669  1.00  0.00     0.012 A 
ATOM     88  C   UNL A   1      45.041  34.175  28.610  1.00  0.00     0.148 A 
ATOM     89  C   UNL A   1      46.549  34.340  30.975  1.00  0.00     0.002 A 
ATOM     90  C   UNL A   1      45.773  35.321  28.896  1.00  0.00     0.091 A 
ATOM     91  F   UNL A   1      44.286  34.076  27.507  1.00  0.00    -0.205 F 
ATOM     92  C   UNL A   1      46.516  35.411  30.083  1.00  0.00     0.022 A 
BRANCH  90  93
ATOM     93  S   UNL A   1      45.869  36.708  27.759  1.00  0.00     0.127 S 
ATOM     94  O   UNL A   1      44.479  37.159  27.721  1.00  0.00    -0.237 OA
ATOM     95  O   UNL A   1      46.785  37.614  28.454  1.00  0.00    -0.237 OA
ATOM     96  O   UNL A   1      46.386  36.169  26.509  1.00  0.00    -0.744 OA
ENDBRANCH  90  93
ENDBRANCH  63  86
ENDBRANCH  37  38
ENDBRANCH  29  32
ENDBRANCH  27  28
ENDBRANCH   1  27
TORSDOF 15
ENDMDL
MODEL 3
REMARK VINA RESULT:     -12.7      1.658      2.303
REMARK SMILES CC1(C)CCCC[C@@H]1NC(=O)NC1(C(=O)NCCCNC(=O)c2ccc(-c3c4nc(c(-c5cccc(S(=O)(=O)[O-])c5F)c5ccc([nH]5)c(-c5cccc(S(=O)(=O)[O-])c5F)c5nc(c(-c6cccc(S(=O)(=O)[O-])c6F)c6ccc3[nH]6)C=C5)C=C4)cc2)CCCCC1
REMARK SMILES IDX 18 1 17 2 16 3 14 4 15 5 13 7 86 8 90 9 87 10 89 11 88 12
REMARK SMILES IDX 12 13 9 14 10 15 11 17 8 19 1 20 2 21 3 22 4 23 5 24 7 25
REMARK SMILES IDX 6 26 19 27 20 28 21 29 22 31 23 32 24 33 85 34 25 35 84 36
REMARK SMILES IDX 26 37 27 38 28 39 78 40 29 41 83 42 77 43 79 44 30 45 82 46
REMARK SMILES IDX 76 47 75 48 31 50 63 51 43 52 62 53 44 54 47 55 61 56 80 57
REMARK SMILES IDX 45 58 46 59 60 61 81 62 48 63 32 64 33 65 41 66 34 67 36 68
REMARK SMILES IDX 42 69 35 70 37 71 38 72 39 73 40 74 64 75 65 76 73 77 66 78
REMARK SMILES IDX 68 79 74 80 67 81 69 82 70 83 71 84 72 85 49 86 50 87 58 88
REMARK SMILES IDX 51 89 53 90 59 91 52 92 54 93 55 94 56 95 57 96
REMARK H PARENT 16 6 9 16 12 18 20 30 79 49 47 60
REMARK Flexibility Score: inf
ROOT
ATOM      1  C   UNL A   1      36.843  21.805  23.999  1.00  0.00     0.042 C 
ENDROOT
BRANCH   1   2
ATOM      2  C   UNL A   1      36.417  23.246  23.748  1.00  0.00     0.117 C 
BRANCH   2   3
ATOM      3  N   UNL A   1      35.178  23.337  22.996  1.00  0.00    -0.354 N 
ATOM      4  C   UNL A   1      33.869  23.372  23.355  1.00  0.00     0.245 C 
ATOM      5  O   UNL A   1      33.097  23.556  22.401  1.00  0.00    -0.272 OA
ATOM      6  H   UNL A   1      35.316  23.381  22.022  1.00  0.00     0.163 HD
BRANCH   4   7
ATOM      7  C   UNL A   1      33.304  23.018  24.785  1.00  0.00     0.120 C 
ATOM      8  C   UNL A   1      33.945  23.372  26.121  1.00  0.00     0.039 C 
ATOM      9  C   UNL A   1      33.216  21.447  24.624  1.00  0.00     0.039 C 
ATOM     10  C   UNL A   1      33.506  22.485  27.285  1.00  0.00     0.003 C 
ATOM     11  C   UNL A   1      33.262  20.519  25.843  1.00  0.00     0.003 C 
ATOM     12  C   UNL A   1      33.986  21.080  27.049  1.00  0.00     0.000 C 
BRANCH   7  13
ATOM     13  N   UNL A   1      31.975  23.723  24.788  1.00  0.00    -0.324 N 
ATOM     14  N   UNL A   1      31.943  26.091  25.431  1.00  0.00    -0.335 N 
ATOM     15  C   UNL A   1      31.451  24.933  24.993  1.00  0.00     0.315 C 
ATOM     16  H   UNL A   1      31.186  26.709  25.308  1.00  0.00     0.165 HD
ATOM     17  O   UNL A   1      30.236  25.000  24.730  1.00  0.00    -0.249 OA
ATOM     18  H   UNL A   1      31.259  23.085  24.565  1.00  0.00     0.166 HD
BRANCH  14  19
ATOM     19  C   UNL A   1      33.027  26.997  26.017  1.00  0.00     0.089 C 
ATOM     20  C   UNL A   1      33.567  29.295  27.151  1.00  0.00     0.013 C 
ATOM     21  C   UNL A   1      32.452  28.392  26.529  1.00  0.00    -0.015 C 
ATOM     22  C   UNL A   1      31.402  28.225  27.637  1.00  0.00     0.013 C 
ATOM     23  C   UNL A   1      31.848  29.134  25.318  1.00  0.00     0.008 C 
ATOM     24  C   UNL A   1      32.863  29.329  24.193  1.00  0.00     0.001 C 
ATOM     25  C   UNL A   1      34.237  27.343  25.173  1.00  0.00     0.025 C 
ATOM     26  C   UNL A   1      33.789  28.140  23.976  1.00  0.00     0.002 C 
ENDBRANCH  14  19
ENDBRANCH   7  13
ENDBRANCH   4   7
ENDBRANCH   2   3
ENDBRANCH   1   2
BRANCH   1  27
ATOM     27  C   UNL A   1      37.193  21.484  25.456  1.00  0.00     0.118 C 
BRANCH  27  28
ATOM     28  N   UNL A   1      38.345  20.604  25.626  1.00  0.00    -0.352 N 
ATOM     29  C   UNL A   1      39.604  20.855  26.148  1.00  0.00     0.251 C 
ATOM     30  H   UNL A   1      38.205  19.678  25.318  1.00  0.00     0.163 HD
ATOM     31  O   UNL A   1      40.460  19.997  26.124  1.00  0.00    -0.269 OA
BRANCH  29  32
ATOM     32  C   UNL A   1      39.909  22.201  26.693  1.00  0.00     0.039 A 
ATOM     33  C   UNL A   1      40.881  22.329  27.690  1.00  0.00     0.014 A 
ATOM     34  C   UNL A   1      39.282  23.336  26.184  1.00  0.00     0.014 A 
ATOM     35  C   UNL A   1      41.312  23.603  28.074  1.00  0.00     0.010 A 
ATOM     36  C   UNL A   1      39.797  24.593  26.474  1.00  0.00     0.010 A 
ATOM     37  C   UNL A   1      40.826  24.745  27.417  1.00  0.00    -0.014 A 
BRANCH  37  38
ATOM     38  C   UNL A   1      41.383  26.101  27.672  1.00  0.00     0.031 A 
ATOM     39  C   UNL A   1      42.786  26.437  27.233  1.00  0.00     0.074 A 
ATOM     40  C   UNL A   1      40.677  26.992  28.401  1.00  0.00     0.049 A 
ATOM     41  N   UNL A   1      43.486  27.518  27.463  1.00  0.00    -0.248 NA
ATOM     42  C   UNL A   1      43.513  25.407  26.470  1.00  0.00     0.031 C 
ATOM     43  C   UNL A   1      39.348  26.758  28.972  1.00  0.00     0.029 A 
ATOM     44  N   UNL A   1      40.993  28.263  28.818  1.00  0.00    -0.354 N 
ATOM     45  C   UNL A   1      44.743  27.280  26.918  1.00  0.00     0.074 A 
ATOM     46  C   UNL A   1      44.725  25.936  26.387  1.00  0.00     0.031 C 
ATOM     47  C   UNL A   1      38.958  27.850  29.650  1.00  0.00     0.029 A 
ATOM     48  C   UNL A   1      40.021  28.848  29.599  1.00  0.00     0.049 A 
ATOM     49  H   UNL A   1      41.836  28.712  28.581  1.00  0.00     0.167 HD
ATOM     50  C   UNL A   1      45.805  28.115  26.831  1.00  0.00     0.034 A 
ATOM     51  C   UNL A   1      39.992  30.048  30.212  1.00  0.00     0.034 A 
ATOM     52  C   UNL A   1      45.799  29.472  27.302  1.00  0.00     0.049 A 
ATOM     53  C   UNL A   1      41.164  30.979  30.048  1.00  0.00     0.074 A 
ATOM     54  C   UNL A   1      46.789  30.430  27.173  1.00  0.00     0.029 A 
ATOM     55  N   UNL A   1      44.755  30.065  27.992  1.00  0.00    -0.354 N 
ATOM     56  N   UNL A   1      42.281  30.792  29.387  1.00  0.00    -0.248 NA
ATOM     57  C   UNL A   1      41.058  32.301  30.682  1.00  0.00     0.031 C 
ATOM     58  C   UNL A   1      46.351  31.598  27.803  1.00  0.00     0.029 A 
ATOM     59  C   UNL A   1      45.075  31.375  28.299  1.00  0.00     0.049 A 
ATOM     60  H   UNL A   1      43.909  29.620  28.228  1.00  0.00     0.167 HD
ATOM     61  C   UNL A   1      42.991  31.982  29.492  1.00  0.00     0.074 A 
ATOM     62  C   UNL A   1      42.168  32.892  30.262  1.00  0.00     0.031 C 
ATOM     63  C   UNL A   1      44.220  32.288  29.012  1.00  0.00     0.034 A 
BRANCH  50  64
ATOM     64  C   UNL A   1      47.042  27.606  26.137  1.00  0.00     0.023 A 
ATOM     65  C   UNL A   1      47.969  26.823  26.855  1.00  0.00     0.012 A 
ATOM     66  C   UNL A   1      47.257  27.846  24.766  1.00  0.00     0.148 A 
ATOM     67  C   UNL A   1      49.107  26.317  26.231  1.00  0.00     0.002 A 
ATOM     68  C   UNL A   1      48.369  27.296  24.138  1.00  0.00     0.091 A 
ATOM     69  F   UNL A   1      46.374  28.607  24.103  1.00  0.00    -0.205 F 
ATOM     70  C   UNL A   1      49.302  26.544  24.872  1.00  0.00     0.022 A 
BRANCH  68  71
ATOM     71  S   UNL A   1      48.669  27.458  22.375  1.00  0.00     0.127 S 
ATOM     72  O   UNL A   1      49.988  28.088  22.357  1.00  0.00    -0.237 OA
ATOM     73  O   UNL A   1      48.653  26.063  21.934  1.00  0.00    -0.237 OA
ATOM     74  O   UNL A   1      47.582  28.275  21.854  1.00  0.00    -0.744 OA
ENDBRANCH  68  71
ENDBRANCH  50  64
BRANCH  51  75
ATOM     75  C   UNL A   1      38.788  30.471  30.984  1.00  0.00     0.023 A 
ATOM     76  C   UNL A   1      38.709  30.173  32.360  1.00  0.00     0.012 A 
ATOM     77  C   UNL A   1      37.729  31.169  30.374  1.00  0.00     0.148 A 
ATOM     78  C   UNL A   1      37.579  30.522  33.102  1.00  0.00     0.002 A 
ATOM     79  C   UNL A   1      36.632  31.565  31.132  1.00  0.00     0.091 A 
ATOM     80  F   UNL A   1      37.814  31.435  29.063  1.00  0.00    -0.205 F 
ATOM     81  C   UNL A   1      36.546  31.226  32.491  1.00  0.00     0.022 A 
BRANCH  79  82
ATOM     82  S   UNL A   1      35.320  32.592  30.459  1.00  0.00     0.127 S 
ATOM     83  O   UNL A   1      34.406  32.691  31.592  1.00  0.00    -0.237 OA
ATOM     84  O   UNL A   1      36.036  33.826  30.134  1.00  0.00    -0.237 OA
ATOM     85  O   UNL A   1      34.818  31.870  29.297  1.00  0.00    -0.744 OA
ENDBRANCH  79  82
ENDBRANCH  51  75
BRANCH  63  86
ATOM     86  C   UNL A   1      44.742  33.680  29.256  1.00  0.00     0.023 A 
ATOM     87  C   UNL A   1      45.453  33.966  30.437  1.00  0.00     0.012 A 
ATOM     88  C   UNL A   1      44.591  34.682  28.276  1.00  0.00     0.148 A 
ATOM     89  C   UNL A   1      45.980  35.239  30.655  1.00  0.00     0.002 A 
ATOM     90  C   UNL A   1      45.163  35.932  28.478  1.00  0.00     0.091 A 
ATOM     91  F   UNL A   1      43.895  34.394  27.168  1.00  0.00    -0.205 F 
ATOM     92  C   UNL A   1      45.846  36.217  29.671  1.00  0.00     0.022 A 
BRANCH  90  93
ATOM     93  S   UNL A   1      45.128  37.219  27.225  1.00  0.00     0.127 S 
ATOM     94  O   UNL A   1      45.988  36.649  26.189  1.00  0.00    -0.237 OA
ATOM     95  O   UNL A   1      43.707  37.272  26.876  1.00  0.00    -0.237 OA
ATOM     96  O   UNL A   1      45.637  38.421  27.869  1.00  0.00    -0.744 OA
ENDBRANCH  90  93
ENDBRANCH  63  86
ENDBRANCH  37  38
ENDBRANCH  29  32
ENDBRANCH  27  28
ENDBRANCH   1  27
TORSDOF 15
ENDMDL
