MODEL 1
REMARK VINA RESULT:     -10.3      0.000      0.000
REMARK SMILES COCc1cccc(C[NH2+][C@H](C)[C@H](C)C(=O)NCCCNC(=O)c2ccc(-c3c4nc(c(-c5cccc(S(=O)(=O)[O-])c5F)c5ccc([nH]5)c(-c5cccc(S(=O)(=O)[O-])c5F)c5nc(c(-c6cccc(S(=O)(=O)[O-])c6F)c6ccc3[nH]6)C=C5)C=C4)cc2)c1
REMARK SMILES IDX 15 1 16 2 17 3 13 5 14 6 11 7 12 8 10 9 9 12 8 13 4 14 5 15
REMARK SMILES IDX 87 16 6 17 7 18 3 19 2 20 1 21 18 22 19 23 20 24 21 25 22 26
REMARK SMILES IDX 23 28 24 29 25 30 86 31 26 32 85 33 27 34 28 35 29 36 79 37
REMARK SMILES IDX 30 38 84 39 78 40 80 41 31 42 83 43 77 44 76 45 32 47 64 48
REMARK SMILES IDX 44 49 63 50 45 51 48 52 62 53 81 54 46 55 47 56 61 58 82 59
REMARK SMILES IDX 49 60 33 61 34 62 42 63 35 64 37 65 43 66 36 67 38 68 39 69
REMARK SMILES IDX 40 70 41 71 65 72 66 73 74 74 67 75 69 76 75 77 68 78 70 79
REMARK SMILES IDX 71 80 72 81 73 82 50 83 51 84 59 85 52 86 54 87 60 88 53 89
REMARK SMILES IDX 55 90 56 91 57 92 58 93
REMARK H PARENT 17 4 10 10 10 11 21 27 80 46 48 57
REMARK Flexibility Score: inf
ROOT
ATOM      1  C   UNL A   1      34.210  24.474  25.296  1.00  0.00     0.228 C 
ATOM      2  O   UNL A   1      34.930  23.717  25.953  1.00  0.00    -0.275 OA
ATOM      3  N   UNL A   1      34.058  25.747  25.745  1.00  0.00    -0.356 N 
ATOM      4  H   UNL A   1      34.541  25.944  26.579  1.00  0.00     0.163 HD
ENDROOT
BRANCH   1   5
ATOM      5  C   UNL A   1      33.529  23.980  24.022  1.00  0.00     0.133 C 
ATOM      6  C   UNL A   1      34.563  23.172  23.221  1.00  0.00     0.024 C 
BRANCH   5   7
ATOM      7  C   UNL A   1      32.152  23.291  24.300  1.00  0.00     0.191 C 
ATOM      8  C   UNL A   1      30.992  24.062  23.638  1.00  0.00     0.076 C 
BRANCH   7   9
ATOM      9  N   UNL A   1      31.972  21.879  23.896  1.00  0.00    -0.340 N 
ATOM     10  H   UNL A   1      31.009  21.761  23.583  1.00  0.00     0.346 HD
ATOM     11  H   UNL A   1      32.663  21.703  23.167  1.00  0.00     0.346 HD
BRANCH   9  12
ATOM     12  C   UNL A   1      32.227  20.901  24.937  1.00  0.00     0.297 C 
BRANCH  12  13
ATOM     13  C   UNL A   1      32.553  19.536  24.398  1.00  0.00     0.006 A 
ATOM     14  C   UNL A   1      33.017  17.179  24.793  1.00  0.00    -0.022 A 
ATOM     15  C   UNL A   1      32.862  16.937  23.419  1.00  0.00     0.006 A 
ATOM     16  C   UNL A   1      32.876  18.486  25.271  1.00  0.00     0.015 A 
ATOM     17  C   UNL A   1      32.601  17.984  22.537  1.00  0.00     0.001 A 
ATOM     18  C   UNL A   1      32.453  19.281  23.024  1.00  0.00     0.009 A 
BRANCH  14  19
ATOM     19  C   UNL A   1      33.343  16.054  25.741  1.00  0.00     0.195 C 
BRANCH  19  20
ATOM     20  O   UNL A   1      34.415  15.233  25.274  1.00  0.00    -0.380 OA
ATOM     21  C   UNL A   1      35.692  15.831  25.445  1.00  0.00     0.195 C 
ENDBRANCH  19  20
ENDBRANCH  14  19
ENDBRANCH  12  13
ENDBRANCH   9  12
ENDBRANCH   7   9
ENDBRANCH   5   7
ENDBRANCH   1   5
BRANCH   3  22
ATOM     22  C   UNL A   1      33.306  26.870  25.209  1.00  0.00     0.117 C 
BRANCH  22  23
ATOM     23  C   UNL A   1      33.141  28.005  26.209  1.00  0.00     0.042 C 
BRANCH  23  24
ATOM     24  C   UNL A   1      34.372  28.889  26.346  1.00  0.00     0.118 C 
BRANCH  24  25
ATOM     25  N   UNL A   1      34.038  30.275  26.658  1.00  0.00    -0.352 N 
ATOM     26  C   UNL A   1      34.553  31.118  27.612  1.00  0.00     0.251 C 
ATOM     27  H   UNL A   1      33.331  30.668  26.095  1.00  0.00     0.163 HD
ATOM     28  O   UNL A   1      33.995  32.186  27.848  1.00  0.00    -0.269 OA
BRANCH  26  29
ATOM     29  C   UNL A   1      35.759  30.726  28.371  1.00  0.00     0.039 A 
ATOM     30  C   UNL A   1      35.641  29.779  29.391  1.00  0.00     0.014 A 
ATOM     31  C   UNL A   1      37.005  31.275  28.061  1.00  0.00     0.014 A 
ATOM     32  C   UNL A   1      36.790  29.308  30.031  1.00  0.00     0.010 A 
ATOM     33  C   UNL A   1      38.154  30.744  28.637  1.00  0.00     0.010 A 
ATOM     34  C   UNL A   1      38.059  29.746  29.618  1.00  0.00    -0.014 A 
BRANCH  34  35
ATOM     35  C   UNL A   1      39.302  29.126  30.145  1.00  0.00     0.031 A 
ATOM     36  C   UNL A   1      39.990  29.699  31.352  1.00  0.00     0.074 A 
ATOM     37  C   UNL A   1      39.872  28.116  29.459  1.00  0.00     0.049 A 
ATOM     38  N   UNL A   1      41.124  29.346  31.898  1.00  0.00    -0.248 NA
ATOM     39  C   UNL A   1      39.332  30.834  32.021  1.00  0.00     0.031 C 
ATOM     40  C   UNL A   1      39.344  27.529  28.224  1.00  0.00     0.029 A 
ATOM     41  N   UNL A   1      41.038  27.425  29.678  1.00  0.00    -0.354 N 
ATOM     42  C   UNL A   1      41.335  30.230  32.947  1.00  0.00     0.074 A 
ATOM     43  C   UNL A   1      40.225  31.159  32.946  1.00  0.00     0.031 C 
ATOM     44  C   UNL A   1      40.181  26.571  27.797  1.00  0.00     0.029 A 
ATOM     45  C   UNL A   1      41.325  26.502  28.701  1.00  0.00     0.049 A 
ATOM     46  H   UNL A   1      41.615  27.578  30.462  1.00  0.00     0.167 HD
ATOM     47  C   UNL A   1      42.347  30.254  33.847  1.00  0.00     0.034 A 
ATOM     48  C   UNL A   1      42.396  25.701  28.536  1.00  0.00     0.034 A 
ATOM     49  C   UNL A   1      43.432  29.309  33.863  1.00  0.00     0.049 A 
ATOM     50  C   UNL A   1      43.498  25.737  29.558  1.00  0.00     0.074 A 
ATOM     51  C   UNL A   1      44.450  29.186  34.791  1.00  0.00     0.029 A 
ATOM     52  N   UNL A   1      43.652  28.339  32.898  1.00  0.00    -0.354 N 
ATOM     53  N   UNL A   1      43.590  26.463  30.645  1.00  0.00    -0.248 NA
ATOM     54  C   UNL A   1      44.631  24.825  29.346  1.00  0.00     0.031 C 
ATOM     55  C   UNL A   1      45.305  28.162  34.370  1.00  0.00     0.029 A 
ATOM     56  C   UNL A   1      44.804  27.629  33.194  1.00  0.00     0.049 A 
ATOM     57  H   UNL A   1      43.076  28.177  32.116  1.00  0.00     0.167 HD
ATOM     58  C   UNL A   1      44.777  26.081  31.259  1.00  0.00     0.074 A 
ATOM     59  C   UNL A   1      45.354  25.036  30.438  1.00  0.00     0.031 C 
ATOM     60  C   UNL A   1      45.349  26.566  32.389  1.00  0.00     0.034 A 
BRANCH  47  61
ATOM     61  C   UNL A   1      42.308  31.308  34.922  1.00  0.00     0.023 A 
ATOM     62  C   UNL A   1      41.689  31.020  36.156  1.00  0.00     0.012 A 
ATOM     63  C   UNL A   1      42.938  32.554  34.740  1.00  0.00     0.148 A 
ATOM     64  C   UNL A   1      41.671  31.964  37.180  1.00  0.00     0.002 A 
ATOM     65  C   UNL A   1      42.955  33.475  35.782  1.00  0.00     0.091 A 
ATOM     66  F   UNL A   1      43.503  32.818  33.554  1.00  0.00    -0.205 F 
ATOM     67  C   UNL A   1      42.313  33.186  36.997  1.00  0.00     0.022 A 
BRANCH  65  68
ATOM     68  S   UNL A   1      43.821  35.045  35.676  1.00  0.00     0.127 S 
ATOM     69  O   UNL A   1      43.604  35.592  37.015  1.00  0.00    -0.237 OA
ATOM     70  O   UNL A   1      45.194  34.620  35.405  1.00  0.00    -0.237 OA
ATOM     71  O   UNL A   1      43.188  35.782  34.591  1.00  0.00    -0.744 OA
ENDBRANCH  65  68
ENDBRANCH  47  61
BRANCH  48  72
ATOM     72  C   UNL A   1      42.455  24.766  27.376  1.00  0.00     0.023 A 
ATOM     73  C   UNL A   1      43.050  25.193  26.173  1.00  0.00     0.012 A 
ATOM     74  C   UNL A   1      41.956  23.453  27.467  1.00  0.00     0.148 A 
ATOM     75  C   UNL A   1      43.118  24.339  25.071  1.00  0.00     0.002 A 
ATOM     76  C   UNL A   1      42.078  22.588  26.385  1.00  0.00     0.091 A 
ATOM     77  F   UNL A   1      41.382  23.069  28.616  1.00  0.00    -0.205 F 
ATOM     78  C   UNL A   1      42.643  23.035  25.180  1.00  0.00     0.022 A 
BRANCH  76  79
ATOM     79  S   UNL A   1      41.621  20.854  26.484  1.00  0.00     0.127 S 
ATOM     80  O   UNL A   1      42.104  20.493  27.814  1.00  0.00    -0.237 OA
ATOM     81  O   UNL A   1      40.165  20.917  26.352  1.00  0.00    -0.237 OA
ATOM     82  O   UNL A   1      42.295  20.206  25.367  1.00  0.00    -0.744 OA
ENDBRANCH  76  79
ENDBRANCH  48  72
BRANCH  60  83
ATOM     83  C   UNL A   1      46.664  25.966  32.816  1.00  0.00     0.023 A 
ATOM     84  C   UNL A   1      47.870  26.556  32.386  1.00  0.00     0.012 A 
ATOM     85  C   UNL A   1      46.706  24.868  33.696  1.00  0.00     0.148 A 
ATOM     86  C   UNL A   1      49.097  26.042  32.801  1.00  0.00     0.002 A 
ATOM     87  C   UNL A   1      47.933  24.391  34.144  1.00  0.00     0.091 A 
ATOM     88  F   UNL A   1      45.549  24.312  34.081  1.00  0.00    -0.205 F 
ATOM     89  C   UNL A   1      49.129  24.969  33.688  1.00  0.00     0.022 A 
BRANCH  87  90
ATOM     90  S   UNL A   1      48.074  23.075  35.358  1.00  0.00     0.127 S 
ATOM     91  O   UNL A   1      47.400  21.970  34.677  1.00  0.00    -0.237 OA
ATOM     92  O   UNL A   1      49.525  22.923  35.481  1.00  0.00    -0.237 OA
ATOM     93  O   UNL A   1      47.412  23.561  36.561  1.00  0.00    -0.744 OA
ENDBRANCH  87  90
ENDBRANCH  60  83
ENDBRANCH  34  35
ENDBRANCH  26  29
ENDBRANCH  24  25
ENDBRANCH  23  24
ENDBRANCH  22  23
ENDBRANCH   3  22
TORSDOF 19
ENDMDL
MODEL 2
REMARK VINA RESULT:     -10.1      2.657      4.489
REMARK SMILES COCc1cccc(C[NH2+][C@H](C)[C@H](C)C(=O)NCCCNC(=O)c2ccc(-c3c4nc(c(-c5cccc(S(=O)(=O)[O-])c5F)c5ccc([nH]5)c(-c5cccc(S(=O)(=O)[O-])c5F)c5nc(c(-c6cccc(S(=O)(=O)[O-])c6F)c6ccc3[nH]6)C=C5)C=C4)cc2)c1
REMARK SMILES IDX 15 1 16 2 17 3 13 5 14 6 11 7 12 8 10 9 9 12 8 13 4 14 5 15
REMARK SMILES IDX 87 16 6 17 7 18 3 19 2 20 1 21 18 22 19 23 20 24 21 25 22 26
REMARK SMILES IDX 23 28 24 29 25 30 86 31 26 32 85 33 27 34 28 35 29 36 79 37
REMARK SMILES IDX 30 38 84 39 78 40 80 41 31 42 83 43 77 44 76 45 32 47 64 48
REMARK SMILES IDX 44 49 63 50 45 51 48 52 62 53 81 54 46 55 47 56 61 58 82 59
REMARK SMILES IDX 49 60 33 61 34 62 42 63 35 64 37 65 43 66 36 67 38 68 39 69
REMARK SMILES IDX 40 70 41 71 65 72 66 73 74 74 67 75 69 76 75 77 68 78 70 79
REMARK SMILES IDX 71 80 72 81 73 82 50 83 51 84 59 85 52 86 54 87 60 88 53 89
REMARK SMILES IDX 55 90 56 91 57 92 58 93
REMARK H PARENT 17 4 10 10 10 11 21 27 80 46 48 57
REMARK Flexibility Score: inf
ROOT
ATOM      1  C   UNL A   1      33.970  23.470  25.970  1.00  0.00     0.228 C 
ATOM      2  O   UNL A   1      34.744  22.775  26.633  1.00  0.00    -0.275 OA
ATOM      3  N   UNL A   1      33.775  24.754  26.369  1.00  0.00    -0.356 N 
ATOM      4  H   UNL A   1      34.277  25.009  27.177  1.00  0.00     0.163 HD
ENDROOT
BRANCH   1   5
ATOM      5  C   UNL A   1      33.269  22.891  24.743  1.00  0.00     0.133 C 
ATOM      6  C   UNL A   1      31.809  22.606  25.129  1.00  0.00     0.024 C 
BRANCH   5   7
ATOM      7  C   UNL A   1      33.510  23.741  23.452  1.00  0.00     0.191 C 
ATOM      8  C   UNL A   1      34.722  23.221  22.653  1.00  0.00     0.076 C 
BRANCH   7   9
ATOM      9  N   UNL A   1      32.410  23.864  22.470  1.00  0.00    -0.340 N 
ATOM     10  H   UNL A   1      32.573  23.185  21.727  1.00  0.00     0.346 HD
ATOM     11  H   UNL A   1      31.548  23.701  22.989  1.00  0.00     0.346 HD
BRANCH   9  12
ATOM     12  C   UNL A   1      32.271  25.173  21.858  1.00  0.00     0.297 C 
BRANCH  12  13
ATOM     13  C   UNL A   1      31.257  26.043  22.550  1.00  0.00     0.006 A 
ATOM     14  C   UNL A   1      30.161  28.203  22.788  1.00  0.00    -0.022 A 
ATOM     15  C   UNL A   1      29.189  27.599  23.600  1.00  0.00     0.006 A 
ATOM     16  C   UNL A   1      31.202  27.418  22.280  1.00  0.00     0.015 A 
ATOM     17  C   UNL A   1      29.271  26.245  23.922  1.00  0.00     0.001 A 
ATOM     18  C   UNL A   1      30.306  25.471  23.403  1.00  0.00     0.009 A 
BRANCH  14  19
ATOM     19  C   UNL A   1      30.097  29.676  22.476  1.00  0.00     0.195 C 
BRANCH  19  20
ATOM     20  O   UNL A   1      29.507  29.944  21.203  1.00  0.00    -0.380 OA
ATOM     21  C   UNL A   1      28.170  30.419  21.296  1.00  0.00     0.195 C 
ENDBRANCH  19  20
ENDBRANCH  14  19
ENDBRANCH  12  13
ENDBRANCH   9  12
ENDBRANCH   7   9
ENDBRANCH   5   7
ENDBRANCH   1   5
BRANCH   3  22
ATOM     22  C   UNL A   1      32.956  25.818  25.813  1.00  0.00     0.117 C 
BRANCH  22  23
ATOM     23  C   UNL A   1      32.910  27.056  26.697  1.00  0.00     0.042 C 
BRANCH  23  24
ATOM     24  C   UNL A   1      34.137  27.948  26.574  1.00  0.00     0.118 C 
BRANCH  24  25
ATOM     25  N   UNL A   1      33.812  29.368  26.668  1.00  0.00    -0.352 N 
ATOM     26  C   UNL A   1      34.429  30.373  27.370  1.00  0.00     0.251 C 
ATOM     27  H   UNL A   1      33.026  29.648  26.144  1.00  0.00     0.163 HD
ATOM     28  O   UNL A   1      33.881  31.467  27.478  1.00  0.00    -0.269 OA
BRANCH  26  29
ATOM     29  C   UNL A   1      35.736  30.131  28.015  1.00  0.00     0.039 A 
ATOM     30  C   UNL A   1      35.766  29.661  29.330  1.00  0.00     0.014 A 
ATOM     31  C   UNL A   1      36.926  30.344  27.316  1.00  0.00     0.014 A 
ATOM     32  C   UNL A   1      36.988  29.309  29.908  1.00  0.00     0.010 A 
ATOM     33  C   UNL A   1      38.131  29.913  27.860  1.00  0.00     0.010 A 
ATOM     34  C   UNL A   1      38.173  29.378  29.157  1.00  0.00    -0.014 A 
BRANCH  34  35
ATOM     35  C   UNL A   1      39.453  28.835  29.677  1.00  0.00     0.031 A 
ATOM     36  C   UNL A   1      40.193  29.541  30.779  1.00  0.00     0.074 A 
ATOM     37  C   UNL A   1      40.006  27.767  29.069  1.00  0.00     0.049 A 
ATOM     38  N   UNL A   1      41.361  29.262  31.295  1.00  0.00    -0.248 NA
ATOM     39  C   UNL A   1      39.549  30.730  31.361  1.00  0.00     0.031 C 
ATOM     40  C   UNL A   1      39.425  27.046  27.932  1.00  0.00     0.029 A 
ATOM     41  N   UNL A   1      41.196  27.119  29.295  1.00  0.00    -0.354 N 
ATOM     42  C   UNL A   1      41.610  30.255  32.234  1.00  0.00     0.074 A 
ATOM     43  C   UNL A   1      40.483  31.162  32.197  1.00  0.00     0.031 C 
ATOM     44  C   UNL A   1      40.258  26.061  27.561  1.00  0.00     0.029 A 
ATOM     45  C   UNL A   1      41.448  26.102  28.404  1.00  0.00     0.049 A 
ATOM     46  H   UNL A   1      41.810  27.361  30.025  1.00  0.00     0.167 HD
ATOM     47  C   UNL A   1      42.667  30.386  33.070  1.00  0.00     0.034 A 
ATOM     48  C   UNL A   1      42.525  25.304  28.264  1.00  0.00     0.034 A 
ATOM     49  C   UNL A   1      43.770  29.464  33.125  1.00  0.00     0.049 A 
ATOM     50  C   UNL A   1      43.678  25.463  29.215  1.00  0.00     0.074 A 
ATOM     51  C   UNL A   1      44.837  29.452  34.004  1.00  0.00     0.029 A 
ATOM     52  N   UNL A   1      43.958  28.401  32.255  1.00  0.00    -0.354 N 
ATOM     53  N   UNL A   1      43.814  26.299  30.215  1.00  0.00    -0.248 NA
ATOM     54  C   UNL A   1      44.816  24.550  29.038  1.00  0.00     0.031 C 
ATOM     55  C   UNL A   1      45.689  28.403  33.644  1.00  0.00     0.029 A 
ATOM     56  C   UNL A   1      45.138  27.742  32.559  1.00  0.00     0.049 A 
ATOM     57  H   UNL A   1      43.344  28.150  31.527  1.00  0.00     0.167 HD
ATOM     58  C   UNL A   1      45.038  26.000  30.800  1.00  0.00     0.074 A 
ATOM     59  C   UNL A   1      45.592  24.883  30.061  1.00  0.00     0.031 C 
ATOM     60  C   UNL A   1      45.660  26.609  31.841  1.00  0.00     0.034 A 
BRANCH  47  61
ATOM     61  C   UNL A   1      42.663  31.547  34.030  1.00  0.00     0.023 A 
ATOM     62  C   UNL A   1      43.203  32.785  33.626  1.00  0.00     0.012 A 
ATOM     63  C   UNL A   1      42.069  31.434  35.302  1.00  0.00     0.148 A 
ATOM     64  C   UNL A   1      43.178  33.884  34.482  1.00  0.00     0.002 A 
ATOM     65  C   UNL A   1      42.008  32.547  36.134  1.00  0.00     0.091 A 
ATOM     66  F   UNL A   1      41.581  30.244  35.677  1.00  0.00    -0.205 F 
ATOM     67  C   UNL A   1      42.572  33.768  35.730  1.00  0.00     0.022 A 
BRANCH  65  68
ATOM     68  S   UNL A   1      41.182  32.523  37.728  1.00  0.00     0.127 S 
ATOM     69  O   UNL A   1      41.214  33.938  38.097  1.00  0.00    -0.237 OA
ATOM     70  O   UNL A   1      39.855  32.015  37.378  1.00  0.00    -0.237 OA
ATOM     71  O   UNL A   1      41.967  31.639  38.576  1.00  0.00    -0.744 OA
ENDBRANCH  65  68
ENDBRANCH  47  61
BRANCH  48  72
ATOM     72  C   UNL A   1      42.542  24.254  27.206  1.00  0.00     0.023 A 
ATOM     73  C   UNL A   1      43.198  24.511  25.987  1.00  0.00     0.012 A 
ATOM     74  C   UNL A   1      41.939  22.998  27.411  1.00  0.00     0.148 A 
ATOM     75  C   UNL A   1      43.228  23.546  24.979  1.00  0.00     0.002 A 
ATOM     76  C   UNL A   1      42.022  22.021  26.425  1.00  0.00     0.091 A 
ATOM     77  F   UNL A   1      41.307  22.778  28.573  1.00  0.00    -0.205 F 
ATOM     78  C   UNL A   1      42.650  22.299  25.202  1.00  0.00     0.022 A 
BRANCH  76  79
ATOM     79  S   UNL A   1      41.429  20.345  26.681  1.00  0.00     0.127 S 
ATOM     80  O   UNL A   1      42.133  19.962  27.902  1.00  0.00    -0.237 OA
ATOM     81  O   UNL A   1      39.989  20.554  26.838  1.00  0.00    -0.237 OA
ATOM     82  O   UNL A   1      41.799  19.610  25.479  1.00  0.00    -0.744 OA
ENDBRANCH  76  79
ENDBRANCH  48  72
BRANCH  60  83
ATOM     83  C   UNL A   1      47.008  26.076  32.255  1.00  0.00     0.023 A 
ATOM     84  C   UNL A   1      47.102  25.202  33.356  1.00  0.00     0.012 A 
ATOM     85  C   UNL A   1      48.164  26.383  31.513  1.00  0.00     0.148 A 
ATOM     86  C   UNL A   1      48.333  24.666  33.732  1.00  0.00     0.002 A 
ATOM     87  C   UNL A   1      49.380  25.806  31.864  1.00  0.00     0.091 A 
ATOM     88  F   UNL A   1      48.056  27.228  30.478  1.00  0.00    -0.205 F 
ATOM     89  C   UNL A   1      49.468  24.958  32.980  1.00  0.00     0.022 A 
BRANCH  87  90
ATOM     90  S   UNL A   1      50.878  26.048  30.904  1.00  0.00     0.127 S 
ATOM     91  O   UNL A   1      51.078  27.491  31.022  1.00  0.00    -0.237 OA
ATOM     92  O   UNL A   1      51.849  25.234  31.636  1.00  0.00    -0.237 OA
ATOM     93  O   UNL A   1      50.579  25.570  29.560  1.00  0.00    -0.744 OA
ENDBRANCH  87  90
ENDBRANCH  60  83
ENDBRANCH  34  35
ENDBRANCH  26  29
ENDBRANCH  24  25
ENDBRANCH  23  24
ENDBRANCH  22  23
ENDBRANCH   3  22
TORSDOF 19
ENDMDL
MODEL 3
REMARK VINA RESULT:     -10.0      2.041      4.087
REMARK SMILES COCc1cccc(C[NH2+][C@H](C)[C@H](C)C(=O)NCCCNC(=O)c2ccc(-c3c4nc(c(-c5cccc(S(=O)(=O)[O-])c5F)c5ccc([nH]5)c(-c5cccc(S(=O)(=O)[O-])c5F)c5nc(c(-c6cccc(S(=O)(=O)[O-])c6F)c6ccc3[nH]6)C=C5)C=C4)cc2)c1
REMARK SMILES IDX 15 1 16 2 17 3 13 5 14 6 11 7 12 8 10 9 9 12 8 13 4 14 5 15
REMARK SMILES IDX 87 16 6 17 7 18 3 19 2 20 1 21 18 22 19 23 20 24 21 25 22 26
REMARK SMILES IDX 23 28 24 29 25 30 86 31 26 32 85 33 27 34 28 35 29 36 79 37
REMARK SMILES IDX 30 38 84 39 78 40 80 41 31 42 83 43 77 44 76 45 32 47 64 48
REMARK SMILES IDX 44 49 63 50 45 51 48 52 62 53 81 54 46 55 47 56 61 58 82 59
REMARK SMILES IDX 49 60 33 61 34 62 42 63 35 64 37 65 43 66 36 67 38 68 39 69
REMARK SMILES IDX 40 70 41 71 65 72 66 73 74 74 67 75 69 76 75 77 68 78 70 79
REMARK SMILES IDX 71 80 72 81 73 82 50 83 51 84 59 85 52 86 54 87 60 88 53 89
REMARK SMILES IDX 55 90 56 91 57 92 58 93
REMARK H PARENT 17 4 10 10 10 11 21 27 80 46 48 57
REMARK Flexibility Score: inf
ROOT
ATOM      1  C   UNL A   1      33.684  23.751  26.097  1.00  0.00     0.228 C 
ATOM      2  O   UNL A   1      34.230  23.025  26.933  1.00  0.00    -0.275 OA
ATOM      3  N   UNL A   1      33.809  25.095  26.253  1.00  0.00    -0.356 N 
ATOM      4  H   UNL A   1      34.327  25.366  27.045  1.00  0.00     0.163 HD
ENDROOT
BRANCH   1   5
ATOM      5  C   UNL A   1      32.908  23.141  24.932  1.00  0.00     0.133 C 
ATOM      6  C   UNL A   1      31.425  23.094  25.333  1.00  0.00     0.024 C 
BRANCH   5   7
ATOM      7  C   UNL A   1      33.252  23.810  23.560  1.00  0.00     0.191 C 
ATOM      8  C   UNL A   1      34.303  22.991  22.783  1.00  0.00     0.076 C 
BRANCH   7   9
ATOM      9  N   UNL A   1      32.155  24.061  22.601  1.00  0.00    -0.340 N 
ATOM     10  H   UNL A   1      32.264  23.415  21.819  1.00  0.00     0.346 HD
ATOM     11  H   UNL A   1      31.288  23.930  23.121  1.00  0.00     0.346 HD
BRANCH   9  12
ATOM     12  C   UNL A   1      32.101  25.408  22.062  1.00  0.00     0.297 C 
BRANCH  12  13
ATOM     13  C   UNL A   1      31.010  26.244  22.671  1.00  0.00     0.006 A 
ATOM     14  C   UNL A   1      29.814  28.360  22.803  1.00  0.00    -0.022 A 
ATOM     15  C   UNL A   1      28.814  27.727  23.557  1.00  0.00     0.006 A 
ATOM     16  C   UNL A   1      30.918  27.613  22.378  1.00  0.00     0.015 A 
ATOM     17  C   UNL A   1      28.929  26.382  23.904  1.00  0.00     0.001 A 
ATOM     18  C   UNL A   1      30.026  25.644  23.467  1.00  0.00     0.009 A 
BRANCH  14  19
ATOM     19  C   UNL A   1      29.713  29.826  22.466  1.00  0.00     0.195 C 
BRANCH  19  20
ATOM     20  O   UNL A   1      29.018  30.062  21.240  1.00  0.00    -0.380 OA
ATOM     21  C   UNL A   1      28.184  31.212  21.284  1.00  0.00     0.195 C 
ENDBRANCH  19  20
ENDBRANCH  14  19
ENDBRANCH  12  13
ENDBRANCH   9  12
ENDBRANCH   7   9
ENDBRANCH   5   7
ENDBRANCH   1   5
BRANCH   3  22
ATOM     22  C   UNL A   1      33.311  26.203  25.455  1.00  0.00     0.117 C 
BRANCH  22  23
ATOM     23  C   UNL A   1      33.142  27.484  26.259  1.00  0.00     0.042 C 
BRANCH  23  24
ATOM     24  C   UNL A   1      34.337  28.423  26.181  1.00  0.00     0.118 C 
BRANCH  24  25
ATOM     25  N   UNL A   1      33.981  29.811  26.460  1.00  0.00    -0.352 N 
ATOM     26  C   UNL A   1      34.508  30.695  27.368  1.00  0.00     0.251 C 
ATOM     27  H   UNL A   1      33.247  30.169  25.909  1.00  0.00     0.163 HD
ATOM     28  O   UNL A   1      33.934  31.758  27.589  1.00  0.00    -0.269 OA
BRANCH  26  29
ATOM     29  C   UNL A   1      35.748  30.356  28.097  1.00  0.00     0.039 A 
ATOM     30  C   UNL A   1      35.652  29.736  29.346  1.00  0.00     0.014 A 
ATOM     31  C   UNL A   1      36.999  30.627  27.540  1.00  0.00     0.014 A 
ATOM     32  C   UNL A   1      36.812  29.298  29.988  1.00  0.00     0.010 A 
ATOM     33  C   UNL A   1      38.145  30.114  28.138  1.00  0.00     0.010 A 
ATOM     34  C   UNL A   1      38.063  29.432  29.361  1.00  0.00    -0.014 A 
BRANCH  34  35
ATOM     35  C   UNL A   1      39.285  28.809  29.929  1.00  0.00     0.031 A 
ATOM     36  C   UNL A   1      39.954  29.399  31.139  1.00  0.00     0.074 A 
ATOM     37  C   UNL A   1      39.858  27.778  29.276  1.00  0.00     0.049 A 
ATOM     38  N   UNL A   1      41.071  29.043  31.716  1.00  0.00    -0.248 NA
ATOM     39  C   UNL A   1      39.295  30.555  31.769  1.00  0.00     0.031 C 
ATOM     40  C   UNL A   1      39.350  27.172  28.042  1.00  0.00     0.029 A 
ATOM     41  N   UNL A   1      41.011  27.079  29.535  1.00  0.00    -0.354 N 
ATOM     42  C   UNL A   1      41.269  29.947  32.752  1.00  0.00     0.074 A 
ATOM     43  C   UNL A   1      40.171  30.888  32.707  1.00  0.00     0.031 C 
ATOM     44  C   UNL A   1      40.185  26.196  27.653  1.00  0.00     0.029 A 
ATOM     45  C   UNL A   1      41.307  26.131  28.583  1.00  0.00     0.049 A 
ATOM     46  H   UNL A   1      41.571  27.241  30.328  1.00  0.00     0.167 HD
ATOM     47  C   UNL A   1      42.261  29.977  33.673  1.00  0.00     0.034 A 
ATOM     48  C   UNL A   1      42.372  25.315  28.459  1.00  0.00     0.034 A 
ATOM     49  C   UNL A   1      43.334  29.020  33.733  1.00  0.00     0.049 A 
ATOM     50  C   UNL A   1      43.451  25.359  29.504  1.00  0.00     0.074 A 
ATOM     51  C   UNL A   1      44.329  28.903  34.687  1.00  0.00     0.029 A 
ATOM     52  N   UNL A   1      43.564  28.027  32.794  1.00  0.00    -0.354 N 
ATOM     53  N   UNL A   1      43.528  26.106  30.579  1.00  0.00    -0.248 NA
ATOM     54  C   UNL A   1      44.577  24.429  29.337  1.00  0.00     0.031 C 
ATOM     55  C   UNL A   1      45.181  27.861  34.305  1.00  0.00     0.029 A 
ATOM     56  C   UNL A   1      44.700  27.310  33.130  1.00  0.00     0.049 A 
ATOM     57  H   UNL A   1      43.002  27.856  32.003  1.00  0.00     0.167 HD
ATOM     58  C   UNL A   1      44.696  25.723  31.227  1.00  0.00     0.074 A 
ATOM     59  C   UNL A   1      45.278  24.654  30.440  1.00  0.00     0.031 C 
ATOM     60  C   UNL A   1      45.249  26.224  32.360  1.00  0.00     0.034 A 
BRANCH  47  61
ATOM     61  C   UNL A   1      42.211  31.054  34.726  1.00  0.00     0.023 A 
ATOM     62  C   UNL A   1      41.575  30.792  35.957  1.00  0.00     0.012 A 
ATOM     63  C   UNL A   1      42.847  32.294  34.526  1.00  0.00     0.148 A 
ATOM     64  C   UNL A   1      41.547  31.758  36.961  1.00  0.00     0.002 A 
ATOM     65  C   UNL A   1      42.853  33.236  35.549  1.00  0.00     0.091 A 
ATOM     66  F   UNL A   1      43.428  32.531  33.342  1.00  0.00    -0.205 F 
ATOM     67  C   UNL A   1      42.195  32.974  36.761  1.00  0.00     0.022 A 
BRANCH  65  68
ATOM     68  S   UNL A   1      43.724  34.801  35.421  1.00  0.00     0.127 S 
ATOM     69  O   UNL A   1      43.444  35.402  36.725  1.00  0.00    -0.237 OA
ATOM     70  O   UNL A   1      45.109  34.368  35.234  1.00  0.00    -0.237 OA
ATOM     71  O   UNL A   1      43.145  35.493  34.278  1.00  0.00    -0.744 OA
ENDBRANCH  65  68
ENDBRANCH  47  61
BRANCH  48  72
ATOM     72  C   UNL A   1      42.446  24.356  27.320  1.00  0.00     0.023 A 
ATOM     73  C   UNL A   1      43.122  24.730  26.143  1.00  0.00     0.012 A 
ATOM     74  C   UNL A   1      41.878  23.070  27.407  1.00  0.00     0.148 A 
ATOM     75  C   UNL A   1      43.205  23.852  25.061  1.00  0.00     0.002 A 
ATOM     76  C   UNL A   1      42.014  22.179  26.348  1.00  0.00     0.091 A 
ATOM     77  F   UNL A   1      41.227  22.737  28.531  1.00  0.00    -0.205 F 
ATOM     78  C   UNL A   1      42.661  22.575  25.167  1.00  0.00     0.022 A 
BRANCH  76  79
ATOM     79  S   UNL A   1      41.468  20.471  26.452  1.00  0.00     0.127 S 
ATOM     80  O   UNL A   1      40.036  20.599  26.195  1.00  0.00    -0.237 OA
ATOM     81  O   UNL A   1      42.235  19.843  25.375  1.00  0.00    -0.237 OA
ATOM     82  O   UNL A   1      41.835  20.022  27.788  1.00  0.00    -0.744 OA
ENDBRANCH  76  79
ENDBRANCH  48  72
BRANCH  60  83
ATOM     83  C   UNL A   1      46.547  25.618  32.828  1.00  0.00     0.023 A 
ATOM     84  C   UNL A   1      47.769  26.184  32.413  1.00  0.00     0.012 A 
ATOM     85  C   UNL A   1      46.556  24.537  33.730  1.00  0.00     0.148 A 
ATOM     86  C   UNL A   1      48.980  25.665  32.866  1.00  0.00     0.002 A 
ATOM     87  C   UNL A   1      47.767  24.055  34.216  1.00  0.00     0.091 A 
ATOM     88  F   UNL A   1      45.383  24.002  34.100  1.00  0.00    -0.205 F 
ATOM     89  C   UNL A   1      48.979  24.610  33.775  1.00  0.00     0.022 A 
BRANCH  87  90
ATOM     90  S   UNL A   1      47.864  22.761  35.457  1.00  0.00     0.127 S 
ATOM     91  O   UNL A   1      46.659  23.013  36.245  1.00  0.00    -0.237 OA
ATOM     92  O   UNL A   1      47.819  21.547  34.642  1.00  0.00    -0.237 OA
ATOM     93  O   UNL A   1      49.123  22.972  36.161  1.00  0.00    -0.744 OA
ENDBRANCH  87  90
ENDBRANCH  60  83
ENDBRANCH  34  35
ENDBRANCH  26  29
ENDBRANCH  24  25
ENDBRANCH  23  24
ENDBRANCH  22  23
ENDBRANCH   3  22
TORSDOF 19
ENDMDL
