MODEL 1
REMARK VINA RESULT:     -11.5      0.000      0.000
REMARK SMILES COc1ccc([C@@H](C)[C@H](NC(=O)OC(C)(C)C)C(=O)NCCCNC(=O)c2ccc(-c3c4nc(c(-c5cccc(S(=O)(=O)[O-])c5F)c5ccc([nH]5)c(-c5cccc(S(=O)(=O)[O-])c5F)c5nc(c(-c6cccc(S(=O)(=O)[O-])c6F)c6ccc3[nH]6)C=C5)C=C4)cc2)cc1
REMARK SMILES IDX 22 1 21 2 20 3 18 4 19 5 9 7 7 8 8 9 6 10 3 11 4 12 91 13
REMARK SMILES IDX 5 14 90 15 2 16 1 17 10 18 11 19 12 21 13 22 14 23 15 24
REMARK SMILES IDX 16 25 17 26 23 27 24 28 25 29 26 31 27 32 28 33 89 34 29 35
REMARK SMILES IDX 88 36 30 37 31 38 32 39 82 40 33 41 87 42 81 43 83 44 34 45
REMARK SMILES IDX 86 46 80 47 79 48 35 50 67 51 47 52 66 53 48 54 51 55 65 56
REMARK SMILES IDX 84 57 49 58 50 59 64 61 85 62 52 63 36 64 37 65 45 66 38 67
REMARK SMILES IDX 40 68 46 69 39 70 41 71 42 72 43 73 44 74 68 75 69 76 77 77
REMARK SMILES IDX 70 78 72 79 78 80 71 81 73 82 74 83 75 84 76 85 53 86 54 87
REMARK SMILES IDX 62 88 55 89 57 90 63 91 56 92 58 93 59 94 60 95 61 96
REMARK H PARENT 20 6 10 20 24 30 83 49 51 60
REMARK Flexibility Score: inf
ROOT
ATOM      1  C   UNL A   1      31.750  28.071  26.255  1.00  0.00     0.042 C 
ENDROOT
BRANCH   1   2
ATOM      2  C   UNL A   1      32.331  26.682  26.380  1.00  0.00     0.117 C 
BRANCH   2   3
ATOM      3  N   UNL A   1      31.387  25.710  26.885  1.00  0.00    -0.354 N 
ATOM      4  C   UNL A   1      31.171  24.416  26.512  1.00  0.00     0.243 C 
ATOM      5  O   UNL A   1      30.440  23.742  27.246  1.00  0.00    -0.273 OA
ATOM      6  H   UNL A   1      30.810  26.033  27.614  1.00  0.00     0.163 HD
BRANCH   4   7
ATOM      7  C   UNL A   1      31.961  23.753  25.358  1.00  0.00     0.182 C 
BRANCH   7   8
ATOM      8  C   UNL A   1      31.042  23.692  24.089  1.00  0.00     0.048 C 
ATOM      9  C   UNL A   1      31.507  22.849  22.885  1.00  0.00     0.015 C 
BRANCH   8  10
ATOM     10  C   UNL A   1      30.722  25.067  23.532  1.00  0.00    -0.042 A 
ATOM     11  C   UNL A   1      30.317  27.701  22.673  1.00  0.00     0.118 A 
ATOM     12  C   UNL A   1      29.386  27.082  23.506  1.00  0.00     0.047 A 
ATOM     13  C   UNL A   1      31.462  27.010  22.279  1.00  0.00     0.047 A 
ATOM     14  C   UNL A   1      29.581  25.770  23.932  1.00  0.00     0.008 A 
ATOM     15  C   UNL A   1      31.661  25.698  22.704  1.00  0.00     0.008 A 
BRANCH  11  16
ATOM     16  O   UNL A   1      30.039  28.999  22.343  1.00  0.00    -0.497 OA
ATOM     17  C   UNL A   1      28.659  29.342  22.380  1.00  0.00     0.278 C 
ENDBRANCH  11  16
ENDBRANCH   8  10
ENDBRANCH   7   8
BRANCH   7  18
ATOM     18  N   UNL A   1      32.541  22.475  25.765  1.00  0.00    -0.309 N 
ATOM     19  C   UNL A   1      33.762  22.208  26.302  1.00  0.00     0.408 C 
ATOM     20  H   UNL A   1      31.962  21.690  25.631  1.00  0.00     0.167 HD
ATOM     21  O   UNL A   1      33.935  21.116  26.821  1.00  0.00    -0.225 OA
BRANCH  19  22
ATOM     22  O   UNL A   1      34.692  23.184  26.162  1.00  0.00    -0.444 OA
BRANCH  22  23
ATOM     23  C   UNL A   1      35.616  23.100  25.034  1.00  0.00     0.106 C 
ATOM     24  C   UNL A   1      35.864  21.639  24.631  1.00  0.00     0.056 C 
ATOM     25  C   UNL A   1      35.145  23.946  23.837  1.00  0.00     0.056 C 
ATOM     26  C   UNL A   1      36.949  23.696  25.518  1.00  0.00     0.056 C 
ENDBRANCH  22  23
ENDBRANCH  19  22
ENDBRANCH   7  18
ENDBRANCH   4   7
ENDBRANCH   2   3
ENDBRANCH   1   2
BRANCH   1  27
ATOM     27  C   UNL A   1      32.759  29.065  25.724  1.00  0.00     0.118 C 
BRANCH  27  28
ATOM     28  N   UNL A   1      32.363  30.449  25.984  1.00  0.00    -0.352 N 
ATOM     29  C   UNL A   1      32.869  31.360  26.877  1.00  0.00     0.251 C 
ATOM     30  H   UNL A   1      31.617  30.778  25.432  1.00  0.00     0.163 HD
ATOM     31  O   UNL A   1      32.251  32.397  27.104  1.00  0.00    -0.269 OA
BRANCH  29  32
ATOM     32  C   UNL A   1      34.146  31.081  27.562  1.00  0.00     0.039 A 
ATOM     33  C   UNL A   1      35.070  32.111  27.746  1.00  0.00     0.014 A 
ATOM     34  C   UNL A   1      34.427  29.796  28.027  1.00  0.00     0.014 A 
ATOM     35  C   UNL A   1      36.250  31.857  28.445  1.00  0.00     0.010 A 
ATOM     36  C   UNL A   1      35.526  29.581  28.841  1.00  0.00     0.010 A 
ATOM     37  C   UNL A   1      36.471  30.597  29.026  1.00  0.00    -0.014 A 
BRANCH  37  38
ATOM     38  C   UNL A   1      37.707  30.291  29.785  1.00  0.00     0.031 A 
ATOM     39  C   UNL A   1      38.733  29.358  29.195  1.00  0.00     0.074 A 
ATOM     40  C   UNL A   1      37.865  30.776  31.032  1.00  0.00     0.049 A 
ATOM     41  N   UNL A   1      39.838  28.905  29.725  1.00  0.00    -0.248 NA
ATOM     42  C   UNL A   1      38.461  28.830  27.845  1.00  0.00     0.031 C 
ATOM     43  C   UNL A   1      36.897  31.609  31.747  1.00  0.00     0.029 A 
ATOM     44  N   UNL A   1      38.890  30.614  31.928  1.00  0.00    -0.354 N 
ATOM     45  C   UNL A   1      40.365  28.014  28.798  1.00  0.00     0.074 A 
ATOM     46  C   UNL A   1      39.431  27.942  27.699  1.00  0.00     0.031 C 
ATOM     47  C   UNL A   1      37.379  31.895  32.967  1.00  0.00     0.029 A 
ATOM     48  C   UNL A   1      38.672  31.238  33.133  1.00  0.00     0.049 A 
ATOM     49  H   UNL A   1      39.705  30.100  31.727  1.00  0.00     0.167 HD
ATOM     50  C   UNL A   1      41.544  27.349  28.831  1.00  0.00     0.034 A 
ATOM     51  C   UNL A   1      39.426  31.270  34.248  1.00  0.00     0.034 A 
ATOM     52  C   UNL A   1      42.489  27.461  29.905  1.00  0.00     0.049 A 
ATOM     53  C   UNL A   1      40.756  30.568  34.244  1.00  0.00     0.074 A 
ATOM     54  C   UNL A   1      43.747  26.896  30.009  1.00  0.00     0.029 A 
ATOM     55  N   UNL A   1      42.279  28.189  31.067  1.00  0.00    -0.354 N 
ATOM     56  N   UNL A   1      41.307  29.849  33.297  1.00  0.00    -0.248 NA
ATOM     57  C   UNL A   1      41.589  30.720  35.445  1.00  0.00     0.031 C 
ATOM     58  C   UNL A   1      44.287  27.261  31.247  1.00  0.00     0.029 A 
ATOM     59  C   UNL A   1      43.382  28.087  31.896  1.00  0.00     0.049 A 
ATOM     60  H   UNL A   1      41.464  28.703  31.272  1.00  0.00     0.167 HD
ATOM     61  C   UNL A   1      42.565  29.495  33.769  1.00  0.00     0.074 A 
ATOM     62  C   UNL A   1      42.701  30.096  35.079  1.00  0.00     0.031 C 
ATOM     63  C   UNL A   1      43.519  28.734  33.175  1.00  0.00     0.034 A 
BRANCH  50  64
ATOM     64  C   UNL A   1      41.890  26.486  27.643  1.00  0.00     0.023 A 
ATOM     65  C   UNL A   1      42.465  27.076  26.497  1.00  0.00     0.012 A 
ATOM     66  C   UNL A   1      41.673  25.096  27.667  1.00  0.00     0.148 A 
ATOM     67  C   UNL A   1      42.772  26.305  25.377  1.00  0.00     0.002 A 
ATOM     68  C   UNL A   1      42.032  24.326  26.565  1.00  0.00     0.091 A 
ATOM     69  F   UNL A   1      41.106  24.554  28.754  1.00  0.00    -0.205 F 
ATOM     70  C   UNL A   1      42.566  24.931  25.415  1.00  0.00     0.022 A 
BRANCH  68  71
ATOM     71  S   UNL A   1      41.887  22.536  26.546  1.00  0.00     0.127 S 
ATOM     72  O   UNL A   1      40.435  22.359  26.508  1.00  0.00    -0.237 OA
ATOM     73  O   UNL A   1      42.576  22.186  25.304  1.00  0.00    -0.237 OA
ATOM     74  O   UNL A   1      42.541  22.066  27.759  1.00  0.00    -0.744 OA
ENDBRANCH  68  71
ENDBRANCH  50  64
BRANCH  51  75
ATOM     75  C   UNL A   1      38.965  32.048  35.432  1.00  0.00     0.023 A 
ATOM     76  C   UNL A   1      39.124  33.448  35.452  1.00  0.00     0.012 A 
ATOM     77  C   UNL A   1      38.338  31.412  36.520  1.00  0.00     0.148 A 
ATOM     78  C   UNL A   1      38.696  34.196  36.549  1.00  0.00     0.002 A 
ATOM     79  C   UNL A   1      37.864  32.170  37.585  1.00  0.00     0.091 A 
ATOM     80  F   UNL A   1      38.199  30.079  36.482  1.00  0.00    -0.205 F 
ATOM     81  C   UNL A   1      38.058  33.559  37.610  1.00  0.00     0.022 A 
BRANCH  79  82
ATOM     82  S   UNL A   1      36.915  31.455  38.932  1.00  0.00     0.127 S 
ATOM     83  O   UNL A   1      37.826  31.624  40.061  1.00  0.00    -0.237 OA
ATOM     84  O   UNL A   1      35.734  32.319  38.957  1.00  0.00    -0.237 OA
ATOM     85  O   UNL A   1      36.646  30.079  38.539  1.00  0.00    -0.744 OA
ENDBRANCH  79  82
ENDBRANCH  51  75
BRANCH  63  86
ATOM     86  C   UNL A   1      44.820  28.550  33.910  1.00  0.00     0.023 A 
ATOM     87  C   UNL A   1      45.878  29.461  33.717  1.00  0.00     0.012 A 
ATOM     88  C   UNL A   1      44.965  27.509  34.849  1.00  0.00     0.148 A 
ATOM     89  C   UNL A   1      47.074  29.314  34.419  1.00  0.00     0.002 A 
ATOM     90  C   UNL A   1      46.138  27.402  35.583  1.00  0.00     0.091 A 
ATOM     91  F   UNL A   1      43.953  26.642  35.004  1.00  0.00    -0.205 F 
ATOM     92  C   UNL A   1      47.199  28.294  35.360  1.00  0.00     0.022 A 
BRANCH  90  93
ATOM     93  S   UNL A   1      46.348  26.185  36.887  1.00  0.00     0.127 S 
ATOM     94  O   UNL A   1      47.753  26.372  37.247  1.00  0.00    -0.237 OA
ATOM     95  O   UNL A   1      45.393  26.644  37.897  1.00  0.00    -0.237 OA
ATOM     96  O   UNL A   1      46.022  24.897  36.290  1.00  0.00    -0.744 OA
ENDBRANCH  90  93
ENDBRANCH  63  86
ENDBRANCH  37  38
ENDBRANCH  29  32
ENDBRANCH  27  28
ENDBRANCH   1  27
TORSDOF 19
ENDMDL
MODEL 2
REMARK VINA RESULT:     -11.5      1.585      8.112
REMARK SMILES COc1ccc([C@@H](C)[C@H](NC(=O)OC(C)(C)C)C(=O)NCCCNC(=O)c2ccc(-c3c4nc(c(-c5cccc(S(=O)(=O)[O-])c5F)c5ccc([nH]5)c(-c5cccc(S(=O)(=O)[O-])c5F)c5nc(c(-c6cccc(S(=O)(=O)[O-])c6F)c6ccc3[nH]6)C=C5)C=C4)cc2)cc1
REMARK SMILES IDX 22 1 21 2 20 3 18 4 19 5 9 7 7 8 8 9 6 10 3 11 4 12 91 13
REMARK SMILES IDX 5 14 90 15 2 16 1 17 10 18 11 19 12 21 13 22 14 23 15 24
REMARK SMILES IDX 16 25 17 26 23 27 24 28 25 29 26 31 27 32 28 33 89 34 29 35
REMARK SMILES IDX 88 36 30 37 31 38 32 39 82 40 33 41 87 42 81 43 83 44 34 45
REMARK SMILES IDX 86 46 80 47 79 48 35 50 67 51 47 52 66 53 48 54 51 55 65 56
REMARK SMILES IDX 84 57 49 58 50 59 64 61 85 62 52 63 36 64 37 65 45 66 38 67
REMARK SMILES IDX 40 68 46 69 39 70 41 71 42 72 43 73 44 74 68 75 69 76 77 77
REMARK SMILES IDX 70 78 72 79 78 80 71 81 73 82 74 83 75 84 76 85 53 86 54 87
REMARK SMILES IDX 62 88 55 89 57 90 63 91 56 92 58 93 59 94 60 95 61 96
REMARK H PARENT 20 6 10 20 24 30 83 49 51 60
REMARK Flexibility Score: inf
ROOT
ATOM      1  C   UNL A   1      31.940  29.164  26.215  1.00  0.00     0.042 C 
ENDROOT
BRANCH   1   2
ATOM      2  C   UNL A   1      31.325  29.286  24.841  1.00  0.00     0.117 C 
BRANCH   2   3
ATOM      3  N   UNL A   1      32.292  29.194  23.770  1.00  0.00    -0.354 N 
ATOM      4  C   UNL A   1      32.918  28.105  23.240  1.00  0.00     0.243 C 
ATOM      5  O   UNL A   1      33.549  28.284  22.192  1.00  0.00    -0.273 OA
ATOM      6  H   UNL A   1      32.538  30.055  23.359  1.00  0.00     0.163 HD
BRANCH   4   7
ATOM      7  C   UNL A   1      32.683  26.676  23.788  1.00  0.00     0.182 C 
BRANCH   7   8
ATOM      8  C   UNL A   1      33.482  25.660  22.902  1.00  0.00     0.048 C 
ATOM      9  C   UNL A   1      32.720  24.870  21.820  1.00  0.00     0.015 C 
BRANCH   8  10
ATOM     10  C   UNL A   1      34.222  24.622  23.727  1.00  0.00    -0.042 A 
ATOM     11  C   UNL A   1      35.814  22.837  25.183  1.00  0.00     0.118 A 
ATOM     12  C   UNL A   1      35.272  22.456  23.955  1.00  0.00     0.047 A 
ATOM     13  C   UNL A   1      35.573  24.118  25.679  1.00  0.00     0.047 A 
ATOM     14  C   UNL A   1      34.476  23.339  23.230  1.00  0.00     0.008 A 
ATOM     15  C   UNL A   1      34.778  25.004  24.956  1.00  0.00     0.008 A 
BRANCH  11  16
ATOM     16  O   UNL A   1      36.604  21.901  25.791  1.00  0.00    -0.497 OA
ATOM     17  C   UNL A   1      36.890  20.754  25.000  1.00  0.00     0.278 C 
ENDBRANCH  11  16
ENDBRANCH   8  10
ENDBRANCH   7   8
BRANCH   7  18
ATOM     18  N   UNL A   1      31.259  26.384  23.936  1.00  0.00    -0.309 N 
ATOM     19  C   UNL A   1      30.587  25.856  24.994  1.00  0.00     0.408 C 
ATOM     20  H   UNL A   1      30.702  26.601  23.153  1.00  0.00     0.167 HD
ATOM     21  O   UNL A   1      29.369  25.952  25.008  1.00  0.00    -0.225 OA
BRANCH  19  22
ATOM     22  O   UNL A   1      31.350  25.223  25.918  1.00  0.00    -0.444 OA
BRANCH  22  23
ATOM     23  C   UNL A   1      31.197  23.778  26.069  1.00  0.00     0.106 C 
ATOM     24  C   UNL A   1      31.029  23.096  24.703  1.00  0.00     0.056 C 
ATOM     25  C   UNL A   1      32.351  23.156  26.876  1.00  0.00     0.056 C 
ATOM     26  C   UNL A   1      29.905  23.560  26.876  1.00  0.00     0.056 C 
ENDBRANCH  22  23
ENDBRANCH  19  22
ENDBRANCH   7  18
ENDBRANCH   4   7
ENDBRANCH   2   3
ENDBRANCH   1   2
BRANCH   1  27
ATOM     27  C   UNL A   1      33.287  29.849  26.299  1.00  0.00     0.118 C 
BRANCH  27  28
ATOM     28  N   UNL A   1      33.170  31.258  26.670  1.00  0.00    -0.352 N 
ATOM     29  C   UNL A   1      33.879  31.994  27.586  1.00  0.00     0.251 C 
ATOM     30  H   UNL A   1      32.472  31.758  26.187  1.00  0.00     0.163 HD
ATOM     31  O   UNL A   1      33.478  33.107  27.916  1.00  0.00    -0.269 OA
BRANCH  29  32
ATOM     32  C   UNL A   1      35.115  31.437  28.171  1.00  0.00     0.039 A 
ATOM     33  C   UNL A   1      36.277  32.210  28.194  1.00  0.00     0.014 A 
ATOM     34  C   UNL A   1      35.120  30.147  28.702  1.00  0.00     0.014 A 
ATOM     35  C   UNL A   1      37.426  31.702  28.801  1.00  0.00     0.010 A 
ATOM     36  C   UNL A   1      36.213  29.704  29.427  1.00  0.00     0.010 A 
ATOM     37  C   UNL A   1      37.392  30.457  29.450  1.00  0.00    -0.014 A 
BRANCH  37  38
ATOM     38  C   UNL A   1      38.589  29.888  30.115  1.00  0.00     0.031 A 
ATOM     39  C   UNL A   1      38.979  30.370  31.489  1.00  0.00     0.074 A 
ATOM     40  C   UNL A   1      39.369  29.011  29.455  1.00  0.00     0.049 A 
ATOM     41  N   UNL A   1      40.024  30.058  32.207  1.00  0.00    -0.248 NA
ATOM     42  C   UNL A   1      38.099  31.369  32.123  1.00  0.00     0.031 C 
ATOM     43  C   UNL A   1      39.149  28.543  28.085  1.00  0.00     0.029 A 
ATOM     44  N   UNL A   1      40.522  28.377  29.841  1.00  0.00    -0.354 N 
ATOM     45  C   UNL A   1      39.949  30.847  33.349  1.00  0.00     0.074 A 
ATOM     46  C   UNL A   1      38.790  31.697  33.202  1.00  0.00     0.031 C 
ATOM     47  C   UNL A   1      40.128  27.688  27.750  1.00  0.00     0.029 A 
ATOM     48  C   UNL A   1      41.062  27.575  28.865  1.00  0.00     0.049 A 
ATOM     49  H   UNL A   1      40.924  28.486  30.733  1.00  0.00     0.167 HD
ATOM     50  C   UNL A   1      40.743  30.836  34.445  1.00  0.00     0.034 A 
ATOM     51  C   UNL A   1      42.188  26.836  28.867  1.00  0.00     0.034 A 
ATOM     52  C   UNL A   1      41.866  29.956  34.605  1.00  0.00     0.049 A 
ATOM     53  C   UNL A   1      43.027  26.796  30.115  1.00  0.00     0.074 A 
ATOM     54  C   UNL A   1      42.692  29.803  35.703  1.00  0.00     0.029 A 
ATOM     55  N   UNL A   1      42.322  29.078  33.633  1.00  0.00    -0.354 N 
ATOM     56  N   UNL A   1      42.857  27.440  31.245  1.00  0.00    -0.248 NA
ATOM     57  C   UNL A   1      44.187  25.895  30.106  1.00  0.00     0.031 C 
ATOM     58  C   UNL A   1      43.665  28.849  35.384  1.00  0.00     0.029 A 
ATOM     59  C   UNL A   1      43.420  28.380  34.103  1.00  0.00     0.049 A 
ATOM     60  H   UNL A   1      41.923  28.967  32.739  1.00  0.00     0.167 HD
ATOM     61  C   UNL A   1      43.862  26.993  32.094  1.00  0.00     0.074 A 
ATOM     62  C   UNL A   1      44.625  26.011  31.353  1.00  0.00     0.031 C 
ATOM     63  C   UNL A   1      44.135  27.369  33.368  1.00  0.00     0.034 A 
BRANCH  50  64
ATOM     64  C   UNL A   1      40.384  31.771  35.574  1.00  0.00     0.023 A 
ATOM     65  C   UNL A   1      41.204  32.887  35.841  1.00  0.00     0.012 A 
ATOM     66  C   UNL A   1      39.228  31.563  36.349  1.00  0.00     0.148 A 
ATOM     67  C   UNL A   1      40.908  33.753  36.893  1.00  0.00     0.002 A 
ATOM     68  C   UNL A   1      38.910  32.462  37.362  1.00  0.00     0.091 A 
ATOM     69  F   UNL A   1      38.471  30.486  36.097  1.00  0.00    -0.205 F 
ATOM     70  C   UNL A   1      39.757  33.547  37.645  1.00  0.00     0.022 A 
BRANCH  68  71
ATOM     71  S   UNL A   1      37.406  32.334  38.334  1.00  0.00     0.127 S 
ATOM     72  O   UNL A   1      37.234  30.884  38.421  1.00  0.00    -0.237 OA
ATOM     73  O   UNL A   1      37.795  32.977  39.589  1.00  0.00    -0.237 OA
ATOM     74  O   UNL A   1      36.379  33.040  37.581  1.00  0.00    -0.744 OA
ENDBRANCH  68  71
ENDBRANCH  50  64
BRANCH  51  75
ATOM     75  C   UNL A   1      42.546  26.025  27.669  1.00  0.00     0.023 A 
ATOM     76  C   UNL A   1      43.402  26.566  26.691  1.00  0.00     0.012 A 
ATOM     77  C   UNL A   1      42.071  24.709  27.516  1.00  0.00     0.148 A 
ATOM     78  C   UNL A   1      43.753  25.823  25.564  1.00  0.00     0.002 A 
ATOM     79  C   UNL A   1      42.469  23.954  26.419  1.00  0.00     0.091 A 
ATOM     80  F   UNL A   1      41.255  24.214  28.457  1.00  0.00    -0.205 F 
ATOM     81  C   UNL A   1      43.295  24.514  25.432  1.00  0.00     0.022 A 
BRANCH  79  82
ATOM     82  S   UNL A   1      42.037  22.221  26.231  1.00  0.00     0.127 S 
ATOM     83  O   UNL A   1      42.767  21.861  25.018  1.00  0.00    -0.237 OA
ATOM     84  O   UNL A   1      42.572  21.644  27.465  1.00  0.00    -0.237 OA
ATOM     85  O   UNL A   1      40.585  22.184  26.128  1.00  0.00    -0.744 OA
ENDBRANCH  79  82
ENDBRANCH  51  75
BRANCH  63  86
ATOM     86  C   UNL A   1      45.274  26.677  34.070  1.00  0.00     0.023 A 
ATOM     87  C   UNL A   1      46.576  27.215  34.009  1.00  0.00     0.012 A 
ATOM     88  C   UNL A   1      45.035  25.529  34.850  1.00  0.00     0.148 A 
ATOM     89  C   UNL A   1      47.628  26.596  34.683  1.00  0.00     0.002 A 
ATOM     90  C   UNL A   1      46.077  24.951  35.562  1.00  0.00     0.091 A 
ATOM     91  F   UNL A   1      43.794  25.023  34.880  1.00  0.00    -0.205 F 
ATOM     92  C   UNL A   1      47.377  25.474  35.469  1.00  0.00     0.022 A 
BRANCH  90  93
ATOM     93  S   UNL A   1      45.826  23.567  36.679  1.00  0.00     0.127 S 
ATOM     94  O   UNL A   1      47.172  23.369  37.216  1.00  0.00    -0.237 OA
ATOM     95  O   UNL A   1      44.861  24.111  37.635  1.00  0.00    -0.237 OA
ATOM     96  O   UNL A   1      45.315  22.477  35.859  1.00  0.00    -0.744 OA
ENDBRANCH  90  93
ENDBRANCH  63  86
ENDBRANCH  37  38
ENDBRANCH  29  32
ENDBRANCH  27  28
ENDBRANCH   1  27
TORSDOF 19
ENDMDL
MODEL 3
REMARK VINA RESULT:     -11.4      5.221      7.385
REMARK SMILES COc1ccc([C@@H](C)[C@H](NC(=O)OC(C)(C)C)C(=O)NCCCNC(=O)c2ccc(-c3c4nc(c(-c5cccc(S(=O)(=O)[O-])c5F)c5ccc([nH]5)c(-c5cccc(S(=O)(=O)[O-])c5F)c5nc(c(-c6cccc(S(=O)(=O)[O-])c6F)c6ccc3[nH]6)C=C5)C=C4)cc2)cc1
REMARK SMILES IDX 22 1 21 2 20 3 18 4 19 5 9 7 7 8 8 9 6 10 3 11 4 12 91 13
REMARK SMILES IDX 5 14 90 15 2 16 1 17 10 18 11 19 12 21 13 22 14 23 15 24
REMARK SMILES IDX 16 25 17 26 23 27 24 28 25 29 26 31 27 32 28 33 89 34 29 35
REMARK SMILES IDX 88 36 30 37 31 38 32 39 82 40 33 41 87 42 81 43 83 44 34 45
REMARK SMILES IDX 86 46 80 47 79 48 35 50 67 51 47 52 66 53 48 54 51 55 65 56
REMARK SMILES IDX 84 57 49 58 50 59 64 61 85 62 52 63 36 64 37 65 45 66 38 67
REMARK SMILES IDX 40 68 46 69 39 70 41 71 42 72 43 73 44 74 68 75 69 76 77 77
REMARK SMILES IDX 70 78 72 79 78 80 71 81 73 82 74 83 75 84 76 85 53 86 54 87
REMARK SMILES IDX 62 88 55 89 57 90 63 91 56 92 58 93 59 94 60 95 61 96
REMARK H PARENT 20 6 10 20 24 30 83 49 51 60
REMARK Flexibility Score: inf
ROOT
ATOM      1  C   UNL A   1      36.440  22.056  24.378  1.00  0.00     0.042 C 
ENDROOT
BRANCH   1   2
ATOM      2  C   UNL A   1      35.116  21.369  24.623  1.00  0.00     0.117 C 
BRANCH   2   3
ATOM      3  N   UNL A   1      34.589  21.598  25.949  1.00  0.00    -0.354 N 
ATOM      4  C   UNL A   1      33.729  22.555  26.403  1.00  0.00     0.243 C 
ATOM      5  O   UNL A   1      33.280  22.401  27.544  1.00  0.00    -0.273 OA
ATOM      6  H   UNL A   1      34.900  20.962  26.634  1.00  0.00     0.163 HD
BRANCH   4   7
ATOM      7  C   UNL A   1      33.170  23.660  25.474  1.00  0.00     0.182 C 
BRANCH   7   8
ATOM      8  C   UNL A   1      32.161  24.539  26.291  1.00  0.00     0.048 C 
ATOM      9  C   UNL A   1      30.651  24.320  26.071  1.00  0.00     0.015 C 
BRANCH   8  10
ATOM     10  C   UNL A   1      32.394  26.027  26.101  1.00  0.00    -0.042 A 
ATOM     11  C   UNL A   1      32.913  28.777  26.005  1.00  0.00     0.118 A 
ATOM     12  C   UNL A   1      31.601  28.311  26.098  1.00  0.00     0.047 A 
ATOM     13  C   UNL A   1      33.970  27.869  25.974  1.00  0.00     0.047 A 
ATOM     14  C   UNL A   1      31.339  26.944  26.141  1.00  0.00     0.008 A 
ATOM     15  C   UNL A   1      33.712  26.500  26.018  1.00  0.00     0.008 A 
BRANCH  11  16
ATOM     16  O   UNL A   1      33.053  30.137  26.001  1.00  0.00    -0.497 OA
ATOM     17  C   UNL A   1      32.084  30.841  26.768  1.00  0.00     0.278 C 
ENDBRANCH  11  16
ENDBRANCH   8  10
ENDBRANCH   7   8
BRANCH   7  18
ATOM     18  N   UNL A   1      32.643  23.104  24.231  1.00  0.00    -0.309 N 
ATOM     19  C   UNL A   1      32.885  23.473  22.944  1.00  0.00     0.408 C 
ATOM     20  H   UNL A   1      32.019  22.350  24.339  1.00  0.00     0.167 HD
ATOM     21  O   UNL A   1      32.559  22.702  22.054  1.00  0.00    -0.225 OA
BRANCH  19  22
ATOM     22  O   UNL A   1      33.431  24.702  22.777  1.00  0.00    -0.444 OA
BRANCH  22  23
ATOM     23  C   UNL A   1      32.636  25.725  22.103  1.00  0.00     0.106 C 
ATOM     24  C   UNL A   1      32.648  25.519  20.581  1.00  0.00     0.056 C 
ATOM     25  C   UNL A   1      31.201  25.799  22.654  1.00  0.00     0.056 C 
ATOM     26  C   UNL A   1      33.312  27.073  22.409  1.00  0.00     0.056 C 
ENDBRANCH  22  23
ENDBRANCH  19  22
ENDBRANCH   7  18
ENDBRANCH   4   7
ENDBRANCH   2   3
ENDBRANCH   1   2
BRANCH   1  27
ATOM     27  C   UNL A   1      37.159  22.382  25.669  1.00  0.00     0.118 C 
BRANCH  27  28
ATOM     28  N   UNL A   1      38.164  21.377  26.013  1.00  0.00    -0.352 N 
ATOM     29  C   UNL A   1      39.459  21.531  26.438  1.00  0.00     0.251 C 
ATOM     30  H   UNL A   1      37.864  20.443  25.924  1.00  0.00     0.163 HD
ATOM     31  O   UNL A   1      40.214  20.562  26.456  1.00  0.00    -0.269 OA
BRANCH  29  32
ATOM     32  C   UNL A   1      39.935  22.862  26.865  1.00  0.00     0.039 A 
ATOM     33  C   UNL A   1      40.859  22.962  27.907  1.00  0.00     0.014 A 
ATOM     34  C   UNL A   1      39.468  24.011  26.228  1.00  0.00     0.014 A 
ATOM     35  C   UNL A   1      41.351  24.217  28.267  1.00  0.00     0.010 A 
ATOM     36  C   UNL A   1      40.061  25.234  26.489  1.00  0.00     0.010 A 
ATOM     37  C   UNL A   1      40.979  25.359  27.539  1.00  0.00    -0.014 A 
BRANCH  37  38
ATOM     38  C   UNL A   1      41.487  26.708  27.884  1.00  0.00     0.031 A 
ATOM     39  C   UNL A   1      42.903  27.085  27.530  1.00  0.00     0.074 A 
ATOM     40  C   UNL A   1      40.713  27.556  28.588  1.00  0.00     0.049 A 
ATOM     41  N   UNL A   1      43.561  28.178  27.809  1.00  0.00    -0.248 NA
ATOM     42  C   UNL A   1      43.701  26.080  26.803  1.00  0.00     0.031 C 
ATOM     43  C   UNL A   1      39.362  27.269  29.072  1.00  0.00     0.029 A 
ATOM     44  N   UNL A   1      40.966  28.825  29.042  1.00  0.00    -0.354 N 
ATOM     45  C   UNL A   1      44.850  27.977  27.331  1.00  0.00     0.074 A 
ATOM     46  C   UNL A   1      44.902  26.635  26.801  1.00  0.00     0.031 C 
ATOM     47  C   UNL A   1      38.900  28.334  29.746  1.00  0.00     0.029 A 
ATOM     48  C   UNL A   1      39.933  29.365  29.770  1.00  0.00     0.049 A 
ATOM     49  H   UNL A   1      41.807  29.305  28.863  1.00  0.00     0.167 HD
ATOM     50  C   UNL A   1      45.889  28.845  27.293  1.00  0.00     0.034 A 
ATOM     51  C   UNL A   1      39.834  30.554  30.395  1.00  0.00     0.034 A 
ATOM     52  C   UNL A   1      45.816  30.193  27.780  1.00  0.00     0.049 A 
ATOM     53  C   UNL A   1      40.979  31.524  30.293  1.00  0.00     0.074 A 
ATOM     54  C   UNL A   1      46.779  31.184  27.722  1.00  0.00     0.029 A 
ATOM     55  N   UNL A   1      44.714  30.741  28.420  1.00  0.00    -0.354 N 
ATOM     56  N   UNL A   1      42.141  31.370  29.707  1.00  0.00    -0.248 NA
ATOM     57  C   UNL A   1      40.783  32.848  30.900  1.00  0.00     0.031 C 
ATOM     58  C   UNL A   1      46.267  32.324  28.351  1.00  0.00     0.029 A 
ATOM     59  C   UNL A   1      44.972  32.056  28.764  1.00  0.00     0.049 A 
ATOM     60  H   UNL A   1      43.872  30.265  28.602  1.00  0.00     0.167 HD
ATOM     61  C   UNL A   1      42.799  32.587  29.839  1.00  0.00     0.074 A 
ATOM     62  C   UNL A   1      41.897  33.473  30.544  1.00  0.00     0.031 C 
ATOM     63  C   UNL A   1      44.042  32.937  29.421  1.00  0.00     0.034 A 
BRANCH  50  64
ATOM     64  C   UNL A   1      47.169  28.369  26.654  1.00  0.00     0.023 A 
ATOM     65  C   UNL A   1      48.272  28.034  27.468  1.00  0.00     0.012 A 
ATOM     66  C   UNL A   1      47.276  28.227  25.257  1.00  0.00     0.148 A 
ATOM     67  C   UNL A   1      49.475  27.615  26.901  1.00  0.00     0.002 A 
ATOM     68  C   UNL A   1      48.462  27.757  24.703  1.00  0.00     0.091 A 
ATOM     69  F   UNL A   1      46.227  28.571  24.496  1.00  0.00    -0.205 F 
ATOM     70  C   UNL A   1      49.566  27.466  25.522  1.00  0.00     0.022 A 
BRANCH  68  71
ATOM     71  S   UNL A   1      48.654  27.449  22.944  1.00  0.00     0.127 S 
ATOM     72  O   UNL A   1      50.017  27.926  22.709  1.00  0.00    -0.237 OA
ATOM     73  O   UNL A   1      48.495  25.997  22.868  1.00  0.00    -0.237 OA
ATOM     74  O   UNL A   1      47.603  28.212  22.285  1.00  0.00    -0.744 OA
ENDBRANCH  68  71
ENDBRANCH  50  64
BRANCH  51  75
ATOM     75  C   UNL A   1      38.578  30.913  31.111  1.00  0.00     0.023 A 
ATOM     76  C   UNL A   1      38.466  30.664  32.493  1.00  0.00     0.012 A 
ATOM     77  C   UNL A   1      37.509  31.533  30.436  1.00  0.00     0.148 A 
ATOM     78  C   UNL A   1      37.301  30.996  33.184  1.00  0.00     0.002 A 
ATOM     79  C   UNL A   1      36.373  31.912  31.142  1.00  0.00     0.091 A 
ATOM     80  F   UNL A   1      37.633  31.758  29.121  1.00  0.00    -0.205 F 
ATOM     81  C   UNL A   1      36.259  31.629  32.511  1.00  0.00     0.022 A 
BRANCH  79  82
ATOM     82  S   UNL A   1      35.036  32.848  30.389  1.00  0.00     0.127 S 
ATOM     83  O   UNL A   1      34.582  31.932  29.346  1.00  0.00    -0.237 OA
ATOM     84  O   UNL A   1      34.113  33.007  31.514  1.00  0.00    -0.237 OA
ATOM     85  O   UNL A   1      35.637  34.089  29.921  1.00  0.00    -0.744 OA
ENDBRANCH  79  82
ENDBRANCH  51  75
BRANCH  63  86
ATOM     86  C   UNL A   1      44.484  34.356  29.664  1.00  0.00     0.023 A 
ATOM     87  C   UNL A   1      45.080  34.713  30.891  1.00  0.00     0.012 A 
ATOM     88  C   UNL A   1      44.372  35.320  28.643  1.00  0.00     0.148 A 
ATOM     89  C   UNL A   1      45.521  36.018  31.109  1.00  0.00     0.002 A 
ATOM     90  C   UNL A   1      44.862  36.602  28.849  1.00  0.00     0.091 A 
ATOM     91  F   UNL A   1      43.785  34.965  27.490  1.00  0.00    -0.205 F 
ATOM     92  C   UNL A   1      45.424  36.957  30.086  1.00  0.00     0.022 A 
BRANCH  90  93
ATOM     93  S   UNL A   1      44.873  37.846  27.553  1.00  0.00     0.127 S 
ATOM     94  O   UNL A   1      45.782  37.251  26.575  1.00  0.00    -0.237 OA
ATOM     95  O   UNL A   1      43.468  37.876  27.141  1.00  0.00    -0.237 OA
ATOM     96  O   UNL A   1      45.344  39.074  28.179  1.00  0.00    -0.744 OA
ENDBRANCH  90  93
ENDBRANCH  63  86
ENDBRANCH  37  38
ENDBRANCH  29  32
ENDBRANCH  27  28
ENDBRANCH   1  27
TORSDOF 19
ENDMDL
