MODEL 1
REMARK VINA RESULT:     -13.8      0.000      0.000
REMARK SMILES Cc1ccc(-c2cc(Cl)cc3c2O[C@@H](C(F)(F)F)C(C(=O)NCCCNC(=O)c2ccc(-c4c5nc(c(-c6cccc(S(=O)(=O)[O-])c6F)c6ccc([nH]6)c(-c6cccc(S(=O)(=O)[O-])c6F)c6nc(c(-c7cccc(S(=O)(=O)[O-])c7F)c7ccc4[nH]7)C=C6)C=C5)cc2)=C3)cc1
REMARK SMILES IDX 25 1 24 2 23 3 22 4 20 5 21 6 19 8 6 9 7 10 12 11 8 12 11 13
REMARK SMILES IDX 13 14 9 15 10 16 92 17 14 18 5 19 1 20 2 21 3 22 94 23 4 24
REMARK SMILES IDX 93 25 15 26 16 27 17 28 18 29 26 30 27 31 28 33 29 34 30 35
REMARK SMILES IDX 91 36 31 37 90 38 32 39 33 40 34 41 84 42 35 43 89 44 83 45
REMARK SMILES IDX 85 46 36 47 88 48 82 49 81 50 37 52 69 53 49 54 68 55 50 56
REMARK SMILES IDX 53 57 67 58 86 59 51 60 52 61 66 63 87 64 54 65 38 66 39 67
REMARK SMILES IDX 47 68 40 69 42 70 48 71 41 72 43 73 44 74 45 75 46 76 70 77
REMARK SMILES IDX 71 78 79 79 72 80 74 81 80 82 73 83 75 84 76 85 77 86 78 87
REMARK SMILES IDX 55 88 56 89 64 90 57 91 59 92 65 93 58 94 60 95 61 96 62 97
REMARK SMILES IDX 63 98
REMARK H PARENT 22 7 26 32 85 51 53 62
REMARK Flexibility Score: inf
ROOT
ATOM      1  C   UNL A   1      37.967  22.667  25.523  1.00  0.00     0.118 C 
ENDROOT
BRANCH   1   2
ATOM      2  C   UNL A   1      36.801  23.442  26.129  1.00  0.00     0.042 C 
BRANCH   2   3
ATOM      3  C   UNL A   1      35.366  23.162  25.651  1.00  0.00     0.118 C 
BRANCH   3   4
ATOM      4  N   UNL A   1      34.403  24.253  25.865  1.00  0.00    -0.352 N 
ATOM      5  C   UNL A   1      33.029  24.254  25.888  1.00  0.00     0.251 C 
ATOM      6  O   UNL A   1      32.478  24.796  26.850  1.00  0.00    -0.270 OA
ATOM      7  H   UNL A   1      34.813  25.135  26.017  1.00  0.00     0.163 HD
BRANCH   5   8
ATOM      8  C   UNL A   1      32.173  23.804  24.696  1.00  0.00     0.067 C 
ATOM      9  C   UNL A   1      31.784  27.749  24.041  1.00  0.00     0.026 A 
ATOM     10  C   UNL A   1      30.559  28.286  23.596  1.00  0.00     0.033 A 
ATOM     11  C   UNL A   1      31.862  26.355  24.016  1.00  0.00     0.135 A 
ATOM     12  C   UNL A   1      29.421  27.476  23.502  1.00  0.00     0.042 A 
ATOM     13  C   UNL A   1      30.692  25.592  24.267  1.00  0.00     0.019 A 
ATOM     14  O   UNL A   1      33.025  25.693  23.538  1.00  0.00    -0.475 OA
ATOM     15  Cl  UNL A   1      27.926  28.167  23.003  1.00  0.00    -0.084 Cl
ATOM     16  C   UNL A   1      29.462  26.148  23.934  1.00  0.00     0.032 A 
ATOM     17  C   UNL A   1      30.872  24.191  24.795  1.00  0.00     0.025 C 
ATOM     18  C   UNL A   1      32.683  24.282  23.352  1.00  0.00     0.314 C 
BRANCH   9  19
ATOM     19  C   UNL A   1      32.368  28.499  25.194  1.00  0.00    -0.015 A 
ATOM     20  C   UNL A   1      34.149  31.320  27.980  1.00  0.00     0.044 C 
ATOM     21  C   UNL A   1      33.507  30.319  27.062  1.00  0.00    -0.051 A 
ATOM     22  C   UNL A   1      34.182  29.149  26.678  1.00  0.00     0.004 A 
ATOM     23  C   UNL A   1      32.227  30.543  26.564  1.00  0.00     0.004 A 
ATOM     24  C   UNL A   1      33.623  28.249  25.748  1.00  0.00     0.009 A 
ATOM     25  C   UNL A   1      31.667  29.642  25.657  1.00  0.00     0.009 A 
ENDBRANCH   9  19
BRANCH  18  26
ATOM     26  C   UNL A   1      33.516  23.234  22.613  1.00  0.00     0.429 C 
ATOM     27  F   UNL A   1      33.352  22.020  23.222  1.00  0.00    -0.167 F 
ATOM     28  F   UNL A   1      33.151  23.054  21.330  1.00  0.00    -0.167 F 
ATOM     29  F   UNL A   1      34.847  23.458  22.671  1.00  0.00    -0.167 F 
ENDBRANCH  18  26
ENDBRANCH   5   8
ENDBRANCH   3   4
ENDBRANCH   2   3
ENDBRANCH   1   2
BRANCH   1  30
ATOM     30  N   UNL A   1      38.948  22.235  26.515  1.00  0.00    -0.352 N 
ATOM     31  C   UNL A   1      39.932  22.897  27.232  1.00  0.00     0.251 C 
ATOM     32  H   UNL A   1      38.900  21.272  26.716  1.00  0.00     0.163 HD
ATOM     33  O   UNL A   1      40.809  22.217  27.742  1.00  0.00    -0.269 OA
BRANCH  31  34
ATOM     34  C   UNL A   1      39.930  24.375  27.372  1.00  0.00     0.039 A 
ATOM     35  C   UNL A   1      40.644  25.228  26.516  1.00  0.00     0.014 A 
ATOM     36  C   UNL A   1      39.273  24.933  28.450  1.00  0.00     0.014 A 
ATOM     37  C   UNL A   1      40.728  26.600  26.815  1.00  0.00     0.010 A 
ATOM     38  C   UNL A   1      39.049  26.273  28.526  1.00  0.00     0.010 A 
ATOM     39  C   UNL A   1      39.949  27.099  27.858  1.00  0.00    -0.014 A 
BRANCH  39  40
ATOM     40  C   UNL A   1      40.190  28.315  28.634  1.00  0.00     0.031 A 
ATOM     41  C   UNL A   1      39.287  29.465  28.642  1.00  0.00     0.074 A 
ATOM     42  C   UNL A   1      40.989  28.087  29.709  1.00  0.00     0.049 A 
ATOM     43  N   UNL A   1      39.563  30.583  29.225  1.00  0.00    -0.248 NA
ATOM     44  C   UNL A   1      37.969  29.418  28.030  1.00  0.00     0.031 C 
ATOM     45  C   UNL A   1      40.932  28.679  31.034  1.00  0.00     0.029 A 
ATOM     46  N   UNL A   1      42.034  27.162  29.800  1.00  0.00    -0.354 N 
ATOM     47  C   UNL A   1      38.375  31.269  29.339  1.00  0.00     0.074 A 
ATOM     48  C   UNL A   1      37.439  30.554  28.495  1.00  0.00     0.031 C 
ATOM     49  C   UNL A   1      42.025  28.299  31.718  1.00  0.00     0.029 A 
ATOM     50  C   UNL A   1      42.910  27.627  30.778  1.00  0.00     0.049 A 
ATOM     51  H   UNL A   1      42.131  26.336  29.274  1.00  0.00     0.167 HD
ATOM     52  C   UNL A   1      38.238  32.240  30.289  1.00  0.00     0.034 A 
ATOM     53  C   UNL A   1      44.191  27.989  30.470  1.00  0.00     0.034 A 
ATOM     54  C   UNL A   1      39.440  32.339  31.137  1.00  0.00     0.049 A 
ATOM     55  C   UNL A   1      44.415  29.474  30.687  1.00  0.00     0.074 A 
ATOM     56  C   UNL A   1      39.733  31.835  32.396  1.00  0.00     0.029 A 
ATOM     57  N   UNL A   1      40.654  32.758  30.600  1.00  0.00    -0.354 N 
ATOM     58  N   UNL A   1      43.491  30.305  31.085  1.00  0.00    -0.248 NA
ATOM     59  C   UNL A   1      45.685  30.148  30.440  1.00  0.00     0.031 C 
ATOM     60  C   UNL A   1      41.142  31.858  32.568  1.00  0.00     0.029 A 
ATOM     61  C   UNL A   1      41.713  32.401  31.430  1.00  0.00     0.049 A 
ATOM     62  H   UNL A   1      40.752  33.239  29.747  1.00  0.00     0.167 HD
ATOM     63  C   UNL A   1      43.938  31.590  30.963  1.00  0.00     0.074 A 
ATOM     64  C   UNL A   1      45.353  31.432  30.668  1.00  0.00     0.031 C 
ATOM     65  C   UNL A   1      43.094  32.665  31.030  1.00  0.00     0.034 A 
BRANCH  52  66
ATOM     66  C   UNL A   1      36.880  32.800  30.680  1.00  0.00     0.023 A 
ATOM     67  C   UNL A   1      36.228  32.253  31.807  1.00  0.00     0.012 A 
ATOM     68  C   UNL A   1      36.171  33.797  29.973  1.00  0.00     0.148 A 
ATOM     69  C   UNL A   1      34.907  32.577  32.138  1.00  0.00     0.002 A 
ATOM     70  C   UNL A   1      34.825  34.058  30.250  1.00  0.00     0.091 A 
ATOM     71  F   UNL A   1      36.816  34.548  29.069  1.00  0.00    -0.205 F 
ATOM     72  C   UNL A   1      34.189  33.444  31.332  1.00  0.00     0.022 A 
BRANCH  70  73
ATOM     73  S   UNL A   1      33.804  35.064  29.158  1.00  0.00     0.127 S 
ATOM     74  O   UNL A   1      33.602  36.282  29.947  1.00  0.00    -0.237 OA
ATOM     75  O   UNL A   1      34.663  35.235  27.989  1.00  0.00    -0.237 OA
ATOM     76  O   UNL A   1      32.584  34.293  28.949  1.00  0.00    -0.744 OA
ENDBRANCH  70  73
ENDBRANCH  52  66
BRANCH  53  77
ATOM     77  C   UNL A   1      44.779  27.158  29.367  1.00  0.00     0.023 A 
ATOM     78  C   UNL A   1      45.016  25.793  29.664  1.00  0.00     0.012 A 
ATOM     79  C   UNL A   1      44.669  27.544  28.016  1.00  0.00     0.148 A 
ATOM     80  C   UNL A   1      45.011  24.825  28.656  1.00  0.00     0.002 A 
ATOM     81  C   UNL A   1      44.647  26.567  27.017  1.00  0.00     0.091 A 
ATOM     82  F   UNL A   1      44.477  28.839  27.734  1.00  0.00    -0.205 F 
ATOM     83  C   UNL A   1      44.787  25.207  27.338  1.00  0.00     0.022 A 
BRANCH  81  84
ATOM     84  S   UNL A   1      44.279  26.989  25.306  1.00  0.00     0.127 S 
ATOM     85  O   UNL A   1      43.651  25.761  24.830  1.00  0.00    -0.237 OA
ATOM     86  O   UNL A   1      43.373  28.130  25.439  1.00  0.00    -0.237 OA
ATOM     87  O   UNL A   1      45.570  27.327  24.724  1.00  0.00    -0.744 OA
ENDBRANCH  81  84
ENDBRANCH  53  77
BRANCH  65  88
ATOM     88  C   UNL A   1      43.508  34.079  30.698  1.00  0.00     0.023 A 
ATOM     89  C   UNL A   1      43.959  34.975  31.687  1.00  0.00     0.012 A 
ATOM     90  C   UNL A   1      43.593  34.509  29.351  1.00  0.00     0.148 A 
ATOM     91  C   UNL A   1      44.398  36.263  31.370  1.00  0.00     0.002 A 
ATOM     92  C   UNL A   1      44.133  35.752  29.032  1.00  0.00     0.091 A 
ATOM     93  F   UNL A   1      43.131  33.720  28.370  1.00  0.00    -0.205 F 
ATOM     94  C   UNL A   1      44.505  36.645  30.039  1.00  0.00     0.022 A 
BRANCH  92  95
ATOM     95  S   UNL A   1      44.505  36.181  27.326  1.00  0.00     0.127 S 
ATOM     96  O   UNL A   1      43.172  36.273  26.736  1.00  0.00    -0.237 OA
ATOM     97  O   UNL A   1      45.199  37.462  27.462  1.00  0.00    -0.237 OA
ATOM     98  O   UNL A   1      45.349  35.095  26.845  1.00  0.00    -0.744 OA
ENDBRANCH  92  95
ENDBRANCH  65  88
ENDBRANCH  39  40
ENDBRANCH  31  34
ENDBRANCH   1  30
TORSDOF 15
ENDMDL
MODEL 2
REMARK VINA RESULT:     -13.3      3.934      9.081
REMARK SMILES Cc1ccc(-c2cc(Cl)cc3c2O[C@@H](C(F)(F)F)C(C(=O)NCCCNC(=O)c2ccc(-c4c5nc(c(-c6cccc(S(=O)(=O)[O-])c6F)c6ccc([nH]6)c(-c6cccc(S(=O)(=O)[O-])c6F)c6nc(c(-c7cccc(S(=O)(=O)[O-])c7F)c7ccc4[nH]7)C=C6)C=C5)cc2)=C3)cc1
REMARK SMILES IDX 25 1 24 2 23 3 22 4 20 5 21 6 19 8 6 9 7 10 12 11 8 12 11 13
REMARK SMILES IDX 13 14 9 15 10 16 92 17 14 18 5 19 1 20 2 21 3 22 94 23 4 24
REMARK SMILES IDX 93 25 15 26 16 27 17 28 18 29 26 30 27 31 28 33 29 34 30 35
REMARK SMILES IDX 91 36 31 37 90 38 32 39 33 40 34 41 84 42 35 43 89 44 83 45
REMARK SMILES IDX 85 46 36 47 88 48 82 49 81 50 37 52 69 53 49 54 68 55 50 56
REMARK SMILES IDX 53 57 67 58 86 59 51 60 52 61 66 63 87 64 54 65 38 66 39 67
REMARK SMILES IDX 47 68 40 69 42 70 48 71 41 72 43 73 44 74 45 75 46 76 70 77
REMARK SMILES IDX 71 78 79 79 72 80 74 81 80 82 73 83 75 84 76 85 77 86 78 87
REMARK SMILES IDX 55 88 56 89 64 90 57 91 59 92 65 93 58 94 60 95 61 96 62 97
REMARK SMILES IDX 63 98
REMARK H PARENT 22 7 26 32 85 51 53 62
REMARK Flexibility Score: inf
ROOT
ATOM      1  C   UNL A   1      33.716  29.968  27.094  1.00  0.00     0.118 C 
ENDROOT
BRANCH   1   2
ATOM      2  C   UNL A   1      33.820  29.375  25.692  1.00  0.00     0.042 C 
BRANCH   2   3
ATOM      3  C   UNL A   1      32.830  28.285  25.247  1.00  0.00     0.118 C 
BRANCH   3   4
ATOM      4  N   UNL A   1      33.428  26.982  24.918  1.00  0.00    -0.352 N 
ATOM      5  C   UNL A   1      33.138  26.081  23.922  1.00  0.00     0.251 C 
ATOM      6  O   UNL A   1      34.080  25.666  23.240  1.00  0.00    -0.270 OA
ATOM      7  H   UNL A   1      34.161  26.708  25.513  1.00  0.00     0.163 HD
BRANCH   5   8
ATOM      8  C   UNL A   1      31.759  25.428  23.761  1.00  0.00     0.067 C 
ATOM      9  C   UNL A   1      33.622  22.156  25.160  1.00  0.00     0.026 A 
ATOM     10  C   UNL A   1      33.317  20.879  24.645  1.00  0.00     0.033 A 
ATOM     11  C   UNL A   1      32.758  23.177  24.759  1.00  0.00     0.135 A 
ATOM     12  C   UNL A   1      32.458  20.743  23.548  1.00  0.00     0.042 A 
ATOM     13  C   UNL A   1      32.176  23.123  23.466  1.00  0.00     0.019 A 
ATOM     14  O   UNL A   1      32.285  24.144  25.686  1.00  0.00    -0.475 OA
ATOM     15  Cl  UNL A   1      32.141  19.178  22.908  1.00  0.00    -0.084 Cl
ATOM     16  C   UNL A   1      31.966  21.874  22.893  1.00  0.00     0.032 A 
ATOM     17  C   UNL A   1      31.745  24.426  22.840  1.00  0.00     0.025 C 
ATOM     18  C   UNL A   1      31.185  24.867  25.045  1.00  0.00     0.314 C 
BRANCH   9  19
ATOM     19  C   UNL A   1      35.091  22.421  25.236  1.00  0.00    -0.015 A 
ATOM     20  C   UNL A   1      39.353  22.594  26.073  1.00  0.00     0.044 C 
ATOM     21  C   UNL A   1      37.891  22.552  25.730  1.00  0.00    -0.051 A 
ATOM     22  C   UNL A   1      37.050  23.643  26.001  1.00  0.00     0.004 A 
ATOM     23  C   UNL A   1      37.340  21.417  25.142  1.00  0.00     0.004 A 
ATOM     24  C   UNL A   1      35.662  23.578  25.764  1.00  0.00     0.009 A 
ATOM     25  C   UNL A   1      35.968  21.361  24.891  1.00  0.00     0.009 A 
ENDBRANCH   9  19
BRANCH  18  26
ATOM     26  C   UNL A   1      30.195  25.811  25.730  1.00  0.00     0.429 C 
ATOM     27  F   UNL A   1      29.256  25.069  26.393  1.00  0.00    -0.167 F 
ATOM     28  F   UNL A   1      30.756  26.608  26.658  1.00  0.00    -0.167 F 
ATOM     29  F   UNL A   1      29.478  26.564  24.869  1.00  0.00    -0.167 F 
ENDBRANCH  18  26
ENDBRANCH   5   8
ENDBRANCH   3   4
ENDBRANCH   2   3
ENDBRANCH   1   2
BRANCH   1  30
ATOM     30  N   UNL A   1      34.479  31.202  27.255  1.00  0.00    -0.352 N 
ATOM     31  C   UNL A   1      35.662  31.511  27.907  1.00  0.00     0.251 C 
ATOM     32  H   UNL A   1      34.066  31.976  26.807  1.00  0.00     0.163 HD
ATOM     33  O   UNL A   1      35.882  32.690  28.143  1.00  0.00    -0.269 OA
BRANCH  31  34
ATOM     34  C   UNL A   1      36.626  30.456  28.311  1.00  0.00     0.039 A 
ATOM     35  C   UNL A   1      36.651  29.892  29.596  1.00  0.00     0.014 A 
ATOM     36  C   UNL A   1      37.604  30.080  27.413  1.00  0.00     0.014 A 
ATOM     37  C   UNL A   1      37.698  29.023  29.951  1.00  0.00     0.010 A 
ATOM     38  C   UNL A   1      38.379  28.982  27.630  1.00  0.00     0.010 A 
ATOM     39  C   UNL A   1      38.583  28.611  28.956  1.00  0.00    -0.014 A 
BRANCH  39  40
ATOM     40  C   UNL A   1      39.950  28.122  29.139  1.00  0.00     0.031 A 
ATOM     41  C   UNL A   1      40.361  26.744  28.871  1.00  0.00     0.074 A 
ATOM     42  C   UNL A   1      40.866  29.120  29.054  1.00  0.00     0.049 A 
ATOM     43  N   UNL A   1      41.534  26.284  29.154  1.00  0.00    -0.248 NA
ATOM     44  C   UNL A   1      39.486  25.789  28.211  1.00  0.00     0.031 C 
ATOM     45  C   UNL A   1      42.202  29.090  28.482  1.00  0.00     0.029 A 
ATOM     46  N   UNL A   1      40.702  30.451  29.452  1.00  0.00    -0.354 N 
ATOM     47  C   UNL A   1      41.675  25.111  28.448  1.00  0.00     0.074 A 
ATOM     48  C   UNL A   1      40.346  24.796  27.963  1.00  0.00     0.031 C 
ATOM     49  C   UNL A   1      42.818  30.247  28.781  1.00  0.00     0.029 A 
ATOM     50  C   UNL A   1      41.969  30.957  29.727  1.00  0.00     0.049 A 
ATOM     51  H   UNL A   1      39.850  30.939  29.522  1.00  0.00     0.167 HD
ATOM     52  C   UNL A   1      42.921  24.632  28.163  1.00  0.00     0.034 A 
ATOM     53  C   UNL A   1      42.317  31.356  30.986  1.00  0.00     0.034 A 
ATOM     54  C   UNL A   1      43.972  25.558  28.622  1.00  0.00     0.049 A 
ATOM     55  C   UNL A   1      43.409  30.476  31.565  1.00  0.00     0.074 A 
ATOM     56  C   UNL A   1      44.722  26.517  27.957  1.00  0.00     0.029 A 
ATOM     57  N   UNL A   1      44.159  25.801  29.981  1.00  0.00    -0.354 N 
ATOM     58  N   UNL A   1      43.927  29.448  30.950  1.00  0.00    -0.248 NA
ATOM     59  C   UNL A   1      43.982  30.661  32.894  1.00  0.00     0.031 C 
ATOM     60  C   UNL A   1      45.276  27.399  28.922  1.00  0.00     0.029 A 
ATOM     61  C   UNL A   1      44.890  26.968  30.180  1.00  0.00     0.049 A 
ATOM     62  H   UNL A   1      43.819  25.226  30.703  1.00  0.00     0.167 HD
ATOM     63  C   UNL A   1      44.710  28.736  31.813  1.00  0.00     0.074 A 
ATOM     64  C   UNL A   1      44.804  29.600  32.980  1.00  0.00     0.031 C 
ATOM     65  C   UNL A   1      45.140  27.468  31.532  1.00  0.00     0.034 A 
BRANCH  52  66
ATOM     66  C   UNL A   1      43.150  23.542  27.130  1.00  0.00     0.023 A 
ATOM     67  C   UNL A   1      43.672  23.908  25.870  1.00  0.00     0.012 A 
ATOM     68  C   UNL A   1      42.828  22.175  27.297  1.00  0.00     0.148 A 
ATOM     69  C   UNL A   1      43.750  23.008  24.801  1.00  0.00     0.002 A 
ATOM     70  C   UNL A   1      42.825  21.297  26.209  1.00  0.00     0.091 A 
ATOM     71  F   UNL A   1      42.587  21.701  28.528  1.00  0.00    -0.205 F 
ATOM     72  C   UNL A   1      43.282  21.714  24.956  1.00  0.00     0.022 A 
BRANCH  70  73
ATOM     73  S   UNL A   1      42.099  19.651  26.314  1.00  0.00     0.127 S 
ATOM     74  O   UNL A   1      42.708  18.963  25.172  1.00  0.00    -0.237 OA
ATOM     75  O   UNL A   1      42.560  19.184  27.619  1.00  0.00    -0.237 OA
ATOM     76  O   UNL A   1      40.661  19.852  26.176  1.00  0.00    -0.744 OA
ENDBRANCH  70  73
ENDBRANCH  52  66
BRANCH  53  77
ATOM     77  C   UNL A   1      41.166  31.951  31.745  1.00  0.00     0.023 A 
ATOM     78  C   UNL A   1      40.659  33.180  31.257  1.00  0.00     0.012 A 
ATOM     79  C   UNL A   1      40.339  31.160  32.567  1.00  0.00     0.148 A 
ATOM     80  C   UNL A   1      39.327  33.547  31.472  1.00  0.00     0.002 A 
ATOM     81  C   UNL A   1      39.005  31.524  32.761  1.00  0.00     0.091 A 
ATOM     82  F   UNL A   1      40.830  30.012  33.053  1.00  0.00    -0.205 F 
ATOM     83  C   UNL A   1      38.490  32.700  32.190  1.00  0.00     0.022 A 
BRANCH  81  84
ATOM     84  S   UNL A   1      37.852  30.432  33.609  1.00  0.00     0.127 S 
ATOM     85  O   UNL A   1      37.984  30.882  34.990  1.00  0.00    -0.237 OA
ATOM     86  O   UNL A   1      36.572  30.755  32.978  1.00  0.00    -0.237 OA
ATOM     87  O   UNL A   1      38.332  29.089  33.314  1.00  0.00    -0.744 OA
ENDBRANCH  81  84
ENDBRANCH  53  77
BRANCH  65  88
ATOM     88  C   UNL A   1      45.829  26.572  32.533  1.00  0.00     0.023 A 
ATOM     89  C   UNL A   1      47.231  26.530  32.654  1.00  0.00     0.012 A 
ATOM     90  C   UNL A   1      45.077  25.847  33.490  1.00  0.00     0.148 A 
ATOM     91  C   UNL A   1      47.864  25.746  33.622  1.00  0.00     0.002 A 
ATOM     92  C   UNL A   1      45.710  25.155  34.519  1.00  0.00     0.091 A 
ATOM     93  F   UNL A   1      43.740  25.809  33.395  1.00  0.00    -0.205 F 
ATOM     94  C   UNL A   1      47.103  25.074  34.569  1.00  0.00     0.022 A 
BRANCH  92  95
ATOM     95  S   UNL A   1      44.762  24.478  35.888  1.00  0.00     0.127 S 
ATOM     96  O   UNL A   1      44.042  25.653  36.373  1.00  0.00    -0.237 OA
ATOM     97  O   UNL A   1      43.920  23.477  35.231  1.00  0.00    -0.237 OA
ATOM     98  O   UNL A   1      45.759  23.916  36.790  1.00  0.00    -0.744 OA
ENDBRANCH  92  95
ENDBRANCH  65  88
ENDBRANCH  39  40
ENDBRANCH  31  34
ENDBRANCH   1  30
TORSDOF 15
ENDMDL
MODEL 3
REMARK VINA RESULT:     -12.8      1.580      1.839
REMARK SMILES Cc1ccc(-c2cc(Cl)cc3c2O[C@@H](C(F)(F)F)C(C(=O)NCCCNC(=O)c2ccc(-c4c5nc(c(-c6cccc(S(=O)(=O)[O-])c6F)c6ccc([nH]6)c(-c6cccc(S(=O)(=O)[O-])c6F)c6nc(c(-c7cccc(S(=O)(=O)[O-])c7F)c7ccc4[nH]7)C=C6)C=C5)cc2)=C3)cc1
REMARK SMILES IDX 25 1 24 2 23 3 22 4 20 5 21 6 19 8 6 9 7 10 12 11 8 12 11 13
REMARK SMILES IDX 13 14 9 15 10 16 92 17 14 18 5 19 1 20 2 21 3 22 94 23 4 24
REMARK SMILES IDX 93 25 15 26 16 27 17 28 18 29 26 30 27 31 28 33 29 34 30 35
REMARK SMILES IDX 91 36 31 37 90 38 32 39 33 40 34 41 84 42 35 43 89 44 83 45
REMARK SMILES IDX 85 46 36 47 88 48 82 49 81 50 37 52 69 53 49 54 68 55 50 56
REMARK SMILES IDX 53 57 67 58 86 59 51 60 52 61 66 63 87 64 54 65 38 66 39 67
REMARK SMILES IDX 47 68 40 69 42 70 48 71 41 72 43 73 44 74 45 75 46 76 70 77
REMARK SMILES IDX 71 78 79 79 72 80 74 81 80 82 73 83 75 84 76 85 77 86 78 87
REMARK SMILES IDX 55 88 56 89 64 90 57 91 59 92 65 93 58 94 60 95 61 96 62 97
REMARK SMILES IDX 63 98
REMARK H PARENT 22 7 26 32 85 51 53 62
REMARK Flexibility Score: inf
ROOT
ATOM      1  C   UNL A   1      37.264  23.127  26.056  1.00  0.00     0.118 C 
ENDROOT
BRANCH   1   2
ATOM      2  C   UNL A   1      36.438  22.039  25.376  1.00  0.00     0.042 C 
BRANCH   2   3
ATOM      3  C   UNL A   1      34.904  22.061  25.490  1.00  0.00     0.118 C 
BRANCH   3   4
ATOM      4  N   UNL A   1      34.293  23.398  25.547  1.00  0.00    -0.352 N 
ATOM      5  C   UNL A   1      32.976  23.791  25.517  1.00  0.00     0.251 C 
ATOM      6  O   UNL A   1      32.597  24.574  26.393  1.00  0.00    -0.270 OA
ATOM      7  H   UNL A   1      34.937  24.138  25.619  1.00  0.00     0.163 HD
BRANCH   5   8
ATOM      8  C   UNL A   1      32.035  23.469  24.349  1.00  0.00     0.067 C 
ATOM      9  C   UNL A   1      31.794  27.464  24.005  1.00  0.00     0.026 A 
ATOM     10  C   UNL A   1      30.572  28.085  23.674  1.00  0.00     0.033 A 
ATOM     11  C   UNL A   1      31.805  26.074  23.875  1.00  0.00     0.135 A 
ATOM     12  C   UNL A   1      29.394  27.333  23.589  1.00  0.00     0.042 A 
ATOM     13  C   UNL A   1      30.617  25.345  24.139  1.00  0.00     0.019 A 
ATOM     14  O   UNL A   1      32.907  25.402  23.282  1.00  0.00    -0.475 OA
ATOM     15  Cl  UNL A   1      27.908  28.124  23.232  1.00  0.00    -0.084 Cl
ATOM     16  C   UNL A   1      29.398  25.977  23.922  1.00  0.00     0.032 A 
ATOM     17  C   UNL A   1      30.760  23.902  24.553  1.00  0.00     0.025 C 
ATOM     18  C   UNL A   1      32.490  24.024  23.015  1.00  0.00     0.314 C 
BRANCH   9  19
ATOM     19  C   UNL A   1      32.477  28.101  25.173  1.00  0.00    -0.015 A 
ATOM     20  C   UNL A   1      34.246  30.687  28.184  1.00  0.00     0.044 C 
ATOM     21  C   UNL A   1      33.628  29.752  27.184  1.00  0.00    -0.051 A 
ATOM     22  C   UNL A   1      34.423  28.921  26.379  1.00  0.00     0.004 A 
ATOM     23  C   UNL A   1      32.245  29.703  27.031  1.00  0.00     0.004 A 
ATOM     24  C   UNL A   1      33.856  28.107  25.378  1.00  0.00     0.009 A 
ATOM     25  C   UNL A   1      31.684  28.883  26.051  1.00  0.00     0.009 A 
ENDBRANCH   9  19
BRANCH  18  26
ATOM     26  C   UNL A   1      33.230  23.000  22.153  1.00  0.00     0.429 C 
ATOM     27  F   UNL A   1      34.561  23.025  22.471  1.00  0.00    -0.167 F 
ATOM     28  F   UNL A   1      32.829  21.730  22.351  1.00  0.00    -0.167 F 
ATOM     29  F   UNL A   1      33.199  23.277  20.832  1.00  0.00    -0.167 F 
ENDBRANCH  18  26
ENDBRANCH   5   8
ENDBRANCH   3   4
ENDBRANCH   2   3
ENDBRANCH   1   2
BRANCH   1  30
ATOM     30  N   UNL A   1      38.576  22.662  26.497  1.00  0.00    -0.352 N 
ATOM     31  C   UNL A   1      39.766  23.309  26.791  1.00  0.00     0.251 C 
ATOM     32  H   UNL A   1      38.625  21.685  26.608  1.00  0.00     0.163 HD
ATOM     33  O   UNL A   1      40.782  22.631  26.818  1.00  0.00    -0.269 OA
BRANCH  31  34
ATOM     34  C   UNL A   1      39.812  24.769  27.057  1.00  0.00     0.039 A 
ATOM     35  C   UNL A   1      40.601  25.659  26.313  1.00  0.00     0.014 A 
ATOM     36  C   UNL A   1      39.120  25.262  28.145  1.00  0.00     0.014 A 
ATOM     37  C   UNL A   1      40.721  26.997  26.732  1.00  0.00     0.010 A 
ATOM     38  C   UNL A   1      38.943  26.599  28.324  1.00  0.00     0.010 A 
ATOM     39  C   UNL A   1      39.907  27.439  27.775  1.00  0.00    -0.014 A 
BRANCH  39  40
ATOM     40  C   UNL A   1      40.153  28.575  28.663  1.00  0.00     0.031 A 
ATOM     41  C   UNL A   1      39.287  29.752  28.732  1.00  0.00     0.074 A 
ATOM     42  C   UNL A   1      40.895  28.228  29.746  1.00  0.00     0.049 A 
ATOM     43  N   UNL A   1      39.573  30.806  29.421  1.00  0.00    -0.248 NA
ATOM     44  C   UNL A   1      37.997  29.805  28.064  1.00  0.00     0.031 C 
ATOM     45  C   UNL A   1      40.797  28.707  31.114  1.00  0.00     0.029 A 
ATOM     46  N   UNL A   1      41.904  27.261  29.800  1.00  0.00    -0.354 N 
ATOM     47  C   UNL A   1      38.404  31.523  29.544  1.00  0.00     0.074 A 
ATOM     48  C   UNL A   1      37.484  30.916  28.603  1.00  0.00     0.031 C 
ATOM     49  C   UNL A   1      41.846  28.230  31.807  1.00  0.00     0.029 A 
ATOM     50  C   UNL A   1      42.750  27.609  30.850  1.00  0.00     0.049 A 
ATOM     51  H   UNL A   1      41.998  26.480  29.209  1.00  0.00     0.167 HD
ATOM     52  C   UNL A   1      38.256  32.413  30.568  1.00  0.00     0.034 A 
ATOM     53  C   UNL A   1      44.054  27.950  30.628  1.00  0.00     0.034 A 
ATOM     54  C   UNL A   1      39.421  32.396  31.471  1.00  0.00     0.049 A 
ATOM     55  C   UNL A   1      44.316  29.402  30.983  1.00  0.00     0.074 A 
ATOM     56  C   UNL A   1      39.641  31.776  32.693  1.00  0.00     0.029 A 
ATOM     57  N   UNL A   1      40.672  32.815  31.024  1.00  0.00    -0.354 N 
ATOM     58  N   UNL A   1      43.403  30.229  31.413  1.00  0.00    -0.248 NA
ATOM     59  C   UNL A   1      45.617  30.048  30.849  1.00  0.00     0.031 C 
ATOM     60  C   UNL A   1      41.041  31.733  32.926  1.00  0.00     0.029 A 
ATOM     61  C   UNL A   1      41.680  32.350  31.863  1.00  0.00     0.049 A 
ATOM     62  H   UNL A   1      40.823  33.363  30.221  1.00  0.00     0.167 HD
ATOM     63  C   UNL A   1      43.896  31.502  31.422  1.00  0.00     0.074 A 
ATOM     64  C   UNL A   1      45.317  31.319  31.173  1.00  0.00     0.031 C 
ATOM     65  C   UNL A   1      43.086  32.598  31.545  1.00  0.00     0.034 A 
BRANCH  52  66
ATOM     66  C   UNL A   1      36.901  32.986  30.949  1.00  0.00     0.023 A 
ATOM     67  C   UNL A   1      36.360  32.650  32.209  1.00  0.00     0.012 A 
ATOM     68  C   UNL A   1      36.091  33.794  30.119  1.00  0.00     0.148 A 
ATOM     69  C   UNL A   1      35.050  32.982  32.575  1.00  0.00     0.002 A 
ATOM     70  C   UNL A   1      34.756  34.052  30.446  1.00  0.00     0.091 A 
ATOM     71  F   UNL A   1      36.629  34.374  29.037  1.00  0.00    -0.205 F 
ATOM     72  C   UNL A   1      34.231  33.642  31.674  1.00  0.00     0.022 A 
BRANCH  70  73
ATOM     73  S   UNL A   1      33.608  34.780  29.263  1.00  0.00     0.127 S 
ATOM     74  O   UNL A   1      34.353  35.943  28.774  1.00  0.00    -0.237 OA
ATOM     75  O   UNL A   1      33.442  33.710  28.282  1.00  0.00    -0.237 OA
ATOM     76  O   UNL A   1      32.423  35.128  30.038  1.00  0.00    -0.744 OA
ENDBRANCH  70  73
ENDBRANCH  52  66
BRANCH  53  77
ATOM     77  C   UNL A   1      44.664  27.195  29.484  1.00  0.00     0.023 A 
ATOM     78  C   UNL A   1      44.899  25.814  29.693  1.00  0.00     0.012 A 
ATOM     79  C   UNL A   1      44.577  27.670  28.159  1.00  0.00     0.148 A 
ATOM     80  C   UNL A   1      44.915  24.915  28.623  1.00  0.00     0.002 A 
ATOM     81  C   UNL A   1      44.575  26.762  27.098  1.00  0.00     0.091 A 
ATOM     82  F   UNL A   1      44.386  28.981  27.962  1.00  0.00    -0.205 F 
ATOM     83  C   UNL A   1      44.713  25.384  27.329  1.00  0.00     0.022 A 
BRANCH  81  84
ATOM     84  S   UNL A   1      44.236  27.297  25.412  1.00  0.00     0.127 S 
ATOM     85  O   UNL A   1      43.332  28.420  25.638  1.00  0.00    -0.237 OA
ATOM     86  O   UNL A   1      45.561  27.667  24.914  1.00  0.00    -0.237 OA
ATOM     87  O   UNL A   1      43.668  26.126  24.761  1.00  0.00    -0.744 OA
ENDBRANCH  81  84
ENDBRANCH  53  77
BRANCH  65  88
ATOM     88  C   UNL A   1      43.559  34.019  31.356  1.00  0.00     0.023 A 
ATOM     89  C   UNL A   1      43.809  34.557  30.079  1.00  0.00     0.012 A 
ATOM     90  C   UNL A   1      43.629  34.909  32.456  1.00  0.00     0.148 A 
ATOM     91  C   UNL A   1      44.188  35.890  29.902  1.00  0.00     0.002 A 
ATOM     92  C   UNL A   1      43.901  36.261  32.263  1.00  0.00     0.091 A 
ATOM     93  F   UNL A   1      43.451  34.444  33.701  1.00  0.00    -0.205 F 
ATOM     94  C   UNL A   1      44.214  36.748  30.993  1.00  0.00     0.022 A 
BRANCH  92  95
ATOM     95  S   UNL A   1      43.710  37.436  33.610  1.00  0.00     0.127 S 
ATOM     96  O   UNL A   1      44.859  37.124  34.456  1.00  0.00    -0.237 OA
ATOM     97  O   UNL A   1      43.794  38.726  32.923  1.00  0.00    -0.237 OA
ATOM     98  O   UNL A   1      42.397  37.147  34.173  1.00  0.00    -0.744 OA
ENDBRANCH  92  95
ENDBRANCH  65  88
ENDBRANCH  39  40
ENDBRANCH  31  34
ENDBRANCH   1  30
TORSDOF 15
ENDMDL
