MODEL 1
REMARK VINA RESULT:     -12.8      0.000      0.000
REMARK SMILES CCC(=O)N1CCc2cc(C(=O)NC3(C(=O)NCCCNC(=O)c4ccc(-c5c6nc(c(-c7cccc(S(=O)(=O)[O-])c7F)c7ccc([nH]7)c(-c7cccc(S(=O)(=O)[O-])c7F)c7nc(c(-c8cccc(S(=O)(=O)[O-])c8F)c8ccc5[nH]8)C=C7)C=C6)cc4)CCCC3)ccc21
REMARK SMILES IDX 18 1 17 2 15 3 16 4 14 6 87 7 90 8 88 9 89 10 13 11 11 12
REMARK SMILES IDX 12 13 10 15 5 16 6 17 93 18 7 19 8 20 92 21 9 22 91 23 3 24
REMARK SMILES IDX 4 25 2 26 1 27 19 28 20 29 21 30 22 31 23 33 24 34 25 35
REMARK SMILES IDX 86 36 26 37 85 38 27 39 28 40 29 41 79 42 30 43 84 44 78 45
REMARK SMILES IDX 80 46 31 47 83 48 77 49 76 50 32 52 64 53 44 54 63 55 45 56
REMARK SMILES IDX 48 57 62 58 81 59 46 60 47 61 61 63 82 64 49 65 33 66 34 67
REMARK SMILES IDX 42 68 35 69 37 70 43 71 36 72 38 73 39 74 40 75 41 76 65 77
REMARK SMILES IDX 66 78 74 79 67 80 69 81 75 82 68 83 70 84 71 85 72 86 73 87
REMARK SMILES IDX 50 88 51 89 59 90 52 91 54 92 60 93 53 94 55 95 56 96 57 97
REMARK SMILES IDX 58 98
REMARK H PARENT 17 5 13 14 21 32 80 51 48 62
REMARK Flexibility Score: inf
ROOT
ATOM      1  C   UNL A   1      36.514  20.212  24.999  1.00  0.00     0.117 C 
ENDROOT
BRANCH   1   2
ATOM      2  N   UNL A   1      35.239  19.523  25.076  1.00  0.00    -0.354 N 
ATOM      3  C   UNL A   1      33.993  19.887  24.647  1.00  0.00     0.245 C 
ATOM      4  O   UNL A   1      33.305  18.961  24.193  1.00  0.00    -0.272 OA
ATOM      5  H   UNL A   1      35.278  18.641  25.512  1.00  0.00     0.163 HD
BRANCH   3   6
ATOM      6  C   UNL A   1      33.407  21.341  24.723  1.00  0.00     0.119 C 
ATOM      7  C   UNL A   1      31.978  21.315  24.124  1.00  0.00     0.038 C 
ATOM      8  C   UNL A   1      34.082  22.474  23.940  1.00  0.00     0.038 C 
ATOM      9  C   UNL A   1      32.108  21.742  22.673  1.00  0.00     0.003 C 
ATOM     10  C   UNL A   1      33.309  22.675  22.633  1.00  0.00     0.003 C 
BRANCH   6  11
ATOM     11  N   UNL A   1      33.272  21.758  26.162  1.00  0.00    -0.338 N 
ATOM     12  C   UNL A   1      32.621  22.745  26.864  1.00  0.00     0.252 C 
ATOM     13  O   UNL A   1      32.573  22.623  28.090  1.00  0.00    -0.269 OA
ATOM     14  H   UNL A   1      33.788  21.169  26.759  1.00  0.00     0.164 HD
BRANCH  12  15
ATOM     15  C   UNL A   1      32.089  23.995  26.260  1.00  0.00     0.040 A 
ATOM     16  N   UNL A   1      31.227  27.431  24.022  1.00  0.00    -0.312 N 
ATOM     17  C   UNL A   1      32.396  28.269  24.319  1.00  0.00     0.130 C 
ATOM     18  C   UNL A   1      31.294  26.279  24.824  1.00  0.00     0.047 A 
ATOM     19  C   UNL A   1      33.322  27.479  25.243  1.00  0.00     0.059 C 
ATOM     20  C   UNL A   1      32.521  26.241  25.494  1.00  0.00    -0.022 A 
ATOM     21  C   UNL A   1      30.429  25.215  24.958  1.00  0.00     0.027 A 
ATOM     22  C   UNL A   1      32.934  25.114  26.205  1.00  0.00     0.019 A 
ATOM     23  C   UNL A   1      30.809  24.099  25.717  1.00  0.00     0.016 A 
BRANCH  16  24
ATOM     24  C   UNL A   1      30.362  27.831  23.025  1.00  0.00     0.226 C 
ATOM     25  O   UNL A   1      30.605  27.569  21.840  1.00  0.00    -0.275 OA
BRANCH  24  26
ATOM     26  C   UNL A   1      29.194  28.742  23.338  1.00  0.00     0.097 C 
ATOM     27  C   UNL A   1      29.435  30.230  23.236  1.00  0.00     0.014 C 
ENDBRANCH  24  26
ENDBRANCH  16  24
ENDBRANCH  12  15
ENDBRANCH   6  11
ENDBRANCH   3   6
ENDBRANCH   1   2
BRANCH   1  28
ATOM     28  C   UNL A   1      37.764  19.346  25.062  1.00  0.00     0.042 C 
BRANCH  28  29
ATOM     29  C   UNL A   1      39.061  20.087  25.347  1.00  0.00     0.118 C 
BRANCH  29  30
ATOM     30  N   UNL A   1      40.126  19.241  25.861  1.00  0.00    -0.352 N 
ATOM     31  C   UNL A   1      41.345  19.576  26.400  1.00  0.00     0.251 C 
ATOM     32  H   UNL A   1      39.944  18.274  25.817  1.00  0.00     0.163 HD
ATOM     33  O   UNL A   1      42.170  18.700  26.620  1.00  0.00    -0.269 OA
BRANCH  31  34
ATOM     34  C   UNL A   1      41.659  20.987  26.703  1.00  0.00     0.039 A 
ATOM     35  C   UNL A   1      42.107  21.321  27.983  1.00  0.00     0.014 A 
ATOM     36  C   UNL A   1      41.492  21.979  25.734  1.00  0.00     0.014 A 
ATOM     37  C   UNL A   1      42.447  22.645  28.271  1.00  0.00     0.010 A 
ATOM     38  C   UNL A   1      41.901  23.281  25.999  1.00  0.00     0.010 A 
ATOM     39  C   UNL A   1      42.375  23.629  27.271  1.00  0.00    -0.014 A 
BRANCH  39  40
ATOM     40  C   UNL A   1      42.816  25.021  27.528  1.00  0.00     0.031 A 
ATOM     41  C   UNL A   1      41.870  26.016  28.141  1.00  0.00     0.074 A 
ATOM     42  C   UNL A   1      44.040  25.409  27.120  1.00  0.00     0.049 A 
ATOM     43  N   UNL A   1      42.064  27.283  28.401  1.00  0.00    -0.248 NA
ATOM     44  C   UNL A   1      40.520  25.536  28.479  1.00  0.00     0.031 C 
ATOM     45  C   UNL A   1      45.010  24.553  26.432  1.00  0.00     0.029 A 
ATOM     46  N   UNL A   1      44.667  26.625  27.198  1.00  0.00    -0.354 N 
ATOM     47  C   UNL A   1      40.857  27.757  28.901  1.00  0.00     0.074 A 
ATOM     48  C   UNL A   1      39.924  26.653  28.869  1.00  0.00     0.031 C 
ATOM     49  C   UNL A   1      46.112  25.269  26.161  1.00  0.00     0.029 A 
ATOM     50  C   UNL A   1      45.917  26.638  26.624  1.00  0.00     0.049 A 
ATOM     51  H   UNL A   1      44.262  27.414  27.624  1.00  0.00     0.167 HD
ATOM     52  C   UNL A   1      40.560  28.993  29.371  1.00  0.00     0.034 A 
ATOM     53  C   UNL A   1      46.803  27.643  26.480  1.00  0.00     0.034 A 
ATOM     54  C   UNL A   1      41.503  30.076  29.423  1.00  0.00     0.049 A 
ATOM     55  C   UNL A   1      46.463  28.996  27.040  1.00  0.00     0.074 A 
ATOM     56  C   UNL A   1      41.334  31.339  29.963  1.00  0.00     0.029 A 
ATOM     57  N   UNL A   1      42.788  30.032  28.903  1.00  0.00    -0.354 N 
ATOM     58  N   UNL A   1      45.375  29.381  27.662  1.00  0.00    -0.248 NA
ATOM     59  C   UNL A   1      47.485  30.043  26.914  1.00  0.00     0.031 C 
ATOM     60  C   UNL A   1      42.506  32.069  29.736  1.00  0.00     0.029 A 
ATOM     61  C   UNL A   1      43.419  31.249  29.092  1.00  0.00     0.049 A 
ATOM     62  H   UNL A   1      43.192  29.249  28.464  1.00  0.00     0.167 HD
ATOM     63  C   UNL A   1      45.594  30.703  28.031  1.00  0.00     0.074 A 
ATOM     64  C   UNL A   1      46.928  31.045  27.582  1.00  0.00     0.031 C 
ATOM     65  C   UNL A   1      44.763  31.561  28.675  1.00  0.00     0.034 A 
BRANCH  52  66
ATOM     66  C   UNL A   1      39.168  29.224  29.901  1.00  0.00     0.023 A 
ATOM     67  C   UNL A   1      38.862  28.889  31.236  1.00  0.00     0.012 A 
ATOM     68  C   UNL A   1      38.175  29.815  29.096  1.00  0.00     0.148 A 
ATOM     69  C   UNL A   1      37.583  29.096  31.749  1.00  0.00     0.002 A 
ATOM     70  C   UNL A   1      36.914  30.065  29.628  1.00  0.00     0.091 A 
ATOM     71  F   UNL A   1      38.474  30.110  27.823  1.00  0.00    -0.205 F 
ATOM     72  C   UNL A   1      36.613  29.692  30.949  1.00  0.00     0.022 A 
BRANCH  70  73
ATOM     73  S   UNL A   1      35.622  30.905  28.707  1.00  0.00     0.127 S 
ATOM     74  O   UNL A   1      34.889  29.777  28.134  1.00  0.00    -0.237 OA
ATOM     75  O   UNL A   1      34.908  31.622  29.764  1.00  0.00    -0.237 OA
ATOM     76  O   UNL A   1      36.304  31.759  27.745  1.00  0.00    -0.744 OA
ENDBRANCH  70  73
ENDBRANCH  52  66
BRANCH  53  77
ATOM     77  C   UNL A   1      48.121  27.384  25.836  1.00  0.00     0.023 A 
ATOM     78  C   UNL A   1      49.197  26.923  26.618  1.00  0.00     0.012 A 
ATOM     79  C   UNL A   1      48.304  27.559  24.450  1.00  0.00     0.148 A 
ATOM     80  C   UNL A   1      50.441  26.671  26.038  1.00  0.00     0.002 A 
ATOM     81  C   UNL A   1      49.528  27.251  23.870  1.00  0.00     0.091 A 
ATOM     82  F   UNL A   1      47.268  28.004  23.725  1.00  0.00    -0.205 F 
ATOM     83  C   UNL A   1      50.604  26.825  24.664  1.00  0.00     0.022 A 
BRANCH  81  84
ATOM     84  S   UNL A   1      49.790  27.289  22.093  1.00  0.00     0.127 S 
ATOM     85  O   UNL A   1      51.177  26.845  21.986  1.00  0.00    -0.237 OA
ATOM     86  O   UNL A   1      48.794  26.325  21.623  1.00  0.00    -0.237 OA
ATOM     87  O   UNL A   1      49.533  28.664  21.686  1.00  0.00    -0.744 OA
ENDBRANCH  81  84
ENDBRANCH  53  77
BRANCH  65  88
ATOM     88  C   UNL A   1      45.281  32.944  28.968  1.00  0.00     0.023 A 
ATOM     89  C   UNL A   1      45.965  33.202  30.172  1.00  0.00     0.012 A 
ATOM     90  C   UNL A   1      45.150  33.972  28.013  1.00  0.00     0.148 A 
ATOM     91  C   UNL A   1      46.480  34.470  30.436  1.00  0.00     0.002 A 
ATOM     92  C   UNL A   1      45.714  35.217  28.259  1.00  0.00     0.091 A 
ATOM     93  F   UNL A   1      44.480  33.712  26.881  1.00  0.00    -0.205 F 
ATOM     94  C   UNL A   1      46.366  35.473  29.477  1.00  0.00     0.022 A 
BRANCH  92  95
ATOM     95  S   UNL A   1      45.704  36.538  27.042  1.00  0.00     0.127 S 
ATOM     96  O   UNL A   1      46.369  35.902  25.907  1.00  0.00    -0.237 OA
ATOM     97  O   UNL A   1      44.271  36.775  26.857  1.00  0.00    -0.237 OA
ATOM     98  O   UNL A   1      46.427  37.648  27.646  1.00  0.00    -0.744 OA
ENDBRANCH  92  95
ENDBRANCH  65  88
ENDBRANCH  39  40
ENDBRANCH  31  34
ENDBRANCH  29  30
ENDBRANCH  28  29
ENDBRANCH   1  28
TORSDOF 17
ENDMDL
MODEL 2
REMARK VINA RESULT:     -12.6      5.203      8.887
REMARK SMILES CCC(=O)N1CCc2cc(C(=O)NC3(C(=O)NCCCNC(=O)c4ccc(-c5c6nc(c(-c7cccc(S(=O)(=O)[O-])c7F)c7ccc([nH]7)c(-c7cccc(S(=O)(=O)[O-])c7F)c7nc(c(-c8cccc(S(=O)(=O)[O-])c8F)c8ccc5[nH]8)C=C7)C=C6)cc4)CCCC3)ccc21
REMARK SMILES IDX 18 1 17 2 15 3 16 4 14 6 87 7 90 8 88 9 89 10 13 11 11 12
REMARK SMILES IDX 12 13 10 15 5 16 6 17 93 18 7 19 8 20 92 21 9 22 91 23 3 24
REMARK SMILES IDX 4 25 2 26 1 27 19 28 20 29 21 30 22 31 23 33 24 34 25 35
REMARK SMILES IDX 86 36 26 37 85 38 27 39 28 40 29 41 79 42 30 43 84 44 78 45
REMARK SMILES IDX 80 46 31 47 83 48 77 49 76 50 32 52 64 53 44 54 63 55 45 56
REMARK SMILES IDX 48 57 62 58 81 59 46 60 47 61 61 63 82 64 49 65 33 66 34 67
REMARK SMILES IDX 42 68 35 69 37 70 43 71 36 72 38 73 39 74 40 75 41 76 65 77
REMARK SMILES IDX 66 78 74 79 67 80 69 81 75 82 68 83 70 84 71 85 72 86 73 87
REMARK SMILES IDX 50 88 51 89 59 90 52 91 54 92 60 93 53 94 55 95 56 96 57 97
REMARK SMILES IDX 58 98
REMARK H PARENT 17 5 13 14 21 32 80 51 48 62
REMARK Flexibility Score: inf
ROOT
ATOM      1  C   UNL A   1      31.239  29.824  24.961  1.00  0.00     0.117 C 
ENDROOT
BRANCH   1   2
ATOM      2  N   UNL A   1      31.200  29.497  23.548  1.00  0.00    -0.354 N 
ATOM      3  C   UNL A   1      30.943  28.318  22.906  1.00  0.00     0.245 C 
ATOM      4  O   UNL A   1      30.301  28.426  21.850  1.00  0.00    -0.272 OA
ATOM      5  H   UNL A   1      31.392  30.254  22.949  1.00  0.00     0.163 HD
BRANCH   3   6
ATOM      6  C   UNL A   1      31.421  26.905  23.395  1.00  0.00     0.119 C 
ATOM      7  C   UNL A   1      32.947  26.977  23.655  1.00  0.00     0.038 C 
ATOM      8  C   UNL A   1      31.292  25.695  22.462  1.00  0.00     0.038 C 
ATOM      9  C   UNL A   1      33.625  26.464  22.398  1.00  0.00     0.003 C 
ATOM     10  C   UNL A   1      32.650  25.465  21.792  1.00  0.00     0.003 C 
BRANCH   6  11
ATOM     11  N   UNL A   1      30.767  26.577  24.709  1.00  0.00    -0.338 N 
ATOM     12  C   UNL A   1      31.036  25.770  25.790  1.00  0.00     0.252 C 
ATOM     13  O   UNL A   1      30.354  25.943  26.803  1.00  0.00    -0.269 OA
ATOM     14  H   UNL A   1      29.922  27.069  24.826  1.00  0.00     0.164 HD
BRANCH  12  15
ATOM     15  C   UNL A   1      31.995  24.634  25.773  1.00  0.00     0.040 A 
ATOM     16  N   UNL A   1      34.562  21.439  24.900  1.00  0.00    -0.312 N 
ATOM     17  C   UNL A   1      33.609  20.425  24.429  1.00  0.00     0.130 C 
ATOM     18  C   UNL A   1      33.832  22.543  25.376  1.00  0.00     0.047 A 
ATOM     19  C   UNL A   1      32.209  21.037  24.467  1.00  0.00     0.059 C 
ATOM     20  C   UNL A   1      32.476  22.373  25.083  1.00  0.00    -0.022 A 
ATOM     21  C   UNL A   1      34.247  23.720  25.958  1.00  0.00     0.027 A 
ATOM     22  C   UNL A   1      31.552  23.402  25.267  1.00  0.00     0.019 A 
ATOM     23  C   UNL A   1      33.317  24.742  26.202  1.00  0.00     0.016 A 
BRANCH  16  24
ATOM     24  C   UNL A   1      35.911  21.205  24.738  1.00  0.00     0.226 C 
ATOM     25  O   UNL A   1      36.405  20.121  25.072  1.00  0.00    -0.275 OA
BRANCH  24  26
ATOM     26  C   UNL A   1      36.841  22.321  24.312  1.00  0.00     0.097 C 
ATOM     27  C   UNL A   1      36.601  22.936  22.953  1.00  0.00     0.014 C 
ENDBRANCH  24  26
ENDBRANCH  16  24
ENDBRANCH  12  15
ENDBRANCH   6  11
ENDBRANCH   3   6
ENDBRANCH   1   2
BRANCH   1  28
ATOM     28  C   UNL A   1      32.564  29.603  25.679  1.00  0.00     0.042 C 
BRANCH  28  29
ATOM     29  C   UNL A   1      32.670  30.218  27.064  1.00  0.00     0.118 C 
BRANCH  29  30
ATOM     30  N   UNL A   1      32.844  31.662  27.061  1.00  0.00    -0.352 N 
ATOM     31  C   UNL A   1      33.834  32.439  27.613  1.00  0.00     0.251 C 
ATOM     32  H   UNL A   1      32.141  32.161  26.586  1.00  0.00     0.163 HD
ATOM     33  O   UNL A   1      33.703  33.655  27.638  1.00  0.00    -0.269 OA
BRANCH  31  34
ATOM     34  C   UNL A   1      35.044  31.808  28.177  1.00  0.00     0.039 A 
ATOM     35  C   UNL A   1      36.201  32.575  28.327  1.00  0.00     0.014 A 
ATOM     36  C   UNL A   1      35.042  30.459  28.539  1.00  0.00     0.014 A 
ATOM     37  C   UNL A   1      37.339  32.002  28.897  1.00  0.00     0.010 A 
ATOM     38  C   UNL A   1      36.151  29.910  29.174  1.00  0.00     0.010 A 
ATOM     39  C   UNL A   1      37.312  30.674  29.353  1.00  0.00    -0.014 A 
BRANCH  39  40
ATOM     40  C   UNL A   1      38.479  30.072  30.044  1.00  0.00     0.031 A 
ATOM     41  C   UNL A   1      38.863  30.528  31.424  1.00  0.00     0.074 A 
ATOM     42  C   UNL A   1      39.244  29.180  29.384  1.00  0.00     0.049 A 
ATOM     43  N   UNL A   1      39.871  30.148  32.164  1.00  0.00    -0.248 NA
ATOM     44  C   UNL A   1      38.026  31.570  32.041  1.00  0.00     0.031 C 
ATOM     45  C   UNL A   1      39.019  28.730  28.008  1.00  0.00     0.029 A 
ATOM     46  N   UNL A   1      40.379  28.516  29.770  1.00  0.00    -0.354 N 
ATOM     47  C   UNL A   1      39.809  30.923  33.317  1.00  0.00     0.074 A 
ATOM     48  C   UNL A   1      38.689  31.824  33.160  1.00  0.00     0.031 C 
ATOM     49  C   UNL A   1      39.979  27.856  27.670  1.00  0.00     0.029 A 
ATOM     50  C   UNL A   1      40.904  27.707  28.788  1.00  0.00     0.049 A 
ATOM     51  H   UNL A   1      40.780  28.607  30.663  1.00  0.00     0.167 HD
ATOM     52  C   UNL A   1      40.596  30.869  34.418  1.00  0.00     0.034 A 
ATOM     53  C   UNL A   1      42.011  26.940  28.787  1.00  0.00     0.034 A 
ATOM     54  C   UNL A   1      41.691  29.950  34.575  1.00  0.00     0.049 A 
ATOM     55  C   UNL A   1      42.848  26.872  30.033  1.00  0.00     0.074 A 
ATOM     56  C   UNL A   1      42.493  29.749  35.684  1.00  0.00     0.029 A 
ATOM     57  N   UNL A   1      42.148  29.090  33.589  1.00  0.00    -0.354 N 
ATOM     58  N   UNL A   1      42.676  27.489  31.177  1.00  0.00    -0.248 NA
ATOM     59  C   UNL A   1      44.011  25.975  30.004  1.00  0.00     0.031 C 
ATOM     60  C   UNL A   1      43.459  28.793  35.354  1.00  0.00     0.029 A 
ATOM     61  C   UNL A   1      43.233  28.367  34.054  1.00  0.00     0.049 A 
ATOM     62  H   UNL A   1      41.758  29.005  32.689  1.00  0.00     0.167 HD
ATOM     63  C   UNL A   1      43.685  27.030  32.015  1.00  0.00     0.074 A 
ATOM     64  C   UNL A   1      44.452  26.066  31.252  1.00  0.00     0.031 C 
ATOM     65  C   UNL A   1      43.960  27.381  33.296  1.00  0.00     0.034 A 
BRANCH  52  66
ATOM     66  C   UNL A   1      40.274  31.806  35.554  1.00  0.00     0.023 A 
ATOM     67  C   UNL A   1      41.055  32.964  35.751  1.00  0.00     0.012 A 
ATOM     68  C   UNL A   1      39.172  31.569  36.399  1.00  0.00     0.148 A 
ATOM     69  C   UNL A   1      40.774  33.845  36.793  1.00  0.00     0.002 A 
ATOM     70  C   UNL A   1      38.867  32.478  37.406  1.00  0.00     0.091 A 
ATOM     71  F   UNL A   1      38.450  30.454  36.212  1.00  0.00    -0.205 F 
ATOM     72  C   UNL A   1      39.675  33.608  37.613  1.00  0.00     0.022 A 
BRANCH  70  73
ATOM     73  S   UNL A   1      37.424  32.307  38.462  1.00  0.00     0.127 S 
ATOM     74  O   UNL A   1      37.253  30.855  38.493  1.00  0.00    -0.237 OA
ATOM     75  O   UNL A   1      37.893  32.892  39.719  1.00  0.00    -0.237 OA
ATOM     76  O   UNL A   1      36.356  33.048  37.807  1.00  0.00    -0.744 OA
ENDBRANCH  70  73
ENDBRANCH  52  66
BRANCH  53  77
ATOM     77  C   UNL A   1      42.349  26.126  27.586  1.00  0.00     0.023 A 
ATOM     78  C   UNL A   1      43.120  26.696  26.555  1.00  0.00     0.012 A 
ATOM     79  C   UNL A   1      41.940  24.782  27.476  1.00  0.00     0.148 A 
ATOM     80  C   UNL A   1      43.452  25.954  25.421  1.00  0.00     0.002 A 
ATOM     81  C   UNL A   1      42.323  24.032  26.371  1.00  0.00     0.091 A 
ATOM     82  F   UNL A   1      41.202  24.260  28.465  1.00  0.00    -0.205 F 
ATOM     83  C   UNL A   1      43.063  24.620  25.333  1.00  0.00     0.022 A 
BRANCH  81  84
ATOM     84  S   UNL A   1      41.984  22.272  26.236  1.00  0.00     0.127 S 
ATOM     85  O   UNL A   1      42.504  21.769  27.505  1.00  0.00    -0.237 OA
ATOM     86  O   UNL A   1      40.525  22.256  26.115  1.00  0.00    -0.237 OA
ATOM     87  O   UNL A   1      42.690  21.825  25.042  1.00  0.00    -0.744 OA
ENDBRANCH  81  84
ENDBRANCH  53  77
BRANCH  65  88
ATOM     88  C   UNL A   1      45.118  26.695  33.973  1.00  0.00     0.023 A 
ATOM     89  C   UNL A   1      46.414  27.238  33.878  1.00  0.00     0.012 A 
ATOM     90  C   UNL A   1      44.904  25.550  34.765  1.00  0.00     0.148 A 
ATOM     91  C   UNL A   1      47.486  26.631  34.531  1.00  0.00     0.002 A 
ATOM     92  C   UNL A   1      45.966  24.983  35.457  1.00  0.00     0.091 A 
ATOM     93  F   UNL A   1      43.666  25.038  34.829  1.00  0.00    -0.205 F 
ATOM     94  C   UNL A   1      47.261  25.512  35.329  1.00  0.00     0.022 A 
BRANCH  92  95
ATOM     95  S   UNL A   1      45.754  23.603  36.586  1.00  0.00     0.127 S 
ATOM     96  O   UNL A   1      47.078  23.513  37.199  1.00  0.00    -0.237 OA
ATOM     97  O   UNL A   1      44.702  24.093  37.477  1.00  0.00    -0.237 OA
ATOM     98  O   UNL A   1      45.369  22.464  35.764  1.00  0.00    -0.744 OA
ENDBRANCH  92  95
ENDBRANCH  65  88
ENDBRANCH  39  40
ENDBRANCH  31  34
ENDBRANCH  29  30
ENDBRANCH  28  29
ENDBRANCH   1  28
TORSDOF 17
ENDMDL
MODEL 3
REMARK VINA RESULT:     -12.6      0.719      7.388
REMARK SMILES CCC(=O)N1CCc2cc(C(=O)NC3(C(=O)NCCCNC(=O)c4ccc(-c5c6nc(c(-c7cccc(S(=O)(=O)[O-])c7F)c7ccc([nH]7)c(-c7cccc(S(=O)(=O)[O-])c7F)c7nc(c(-c8cccc(S(=O)(=O)[O-])c8F)c8ccc5[nH]8)C=C7)C=C6)cc4)CCCC3)ccc21
REMARK SMILES IDX 18 1 17 2 15 3 16 4 14 6 87 7 90 8 88 9 89 10 13 11 11 12
REMARK SMILES IDX 12 13 10 15 5 16 6 17 93 18 7 19 8 20 92 21 9 22 91 23 3 24
REMARK SMILES IDX 4 25 2 26 1 27 19 28 20 29 21 30 22 31 23 33 24 34 25 35
REMARK SMILES IDX 86 36 26 37 85 38 27 39 28 40 29 41 79 42 30 43 84 44 78 45
REMARK SMILES IDX 80 46 31 47 83 48 77 49 76 50 32 52 64 53 44 54 63 55 45 56
REMARK SMILES IDX 48 57 62 58 81 59 46 60 47 61 61 63 82 64 49 65 33 66 34 67
REMARK SMILES IDX 42 68 35 69 37 70 43 71 36 72 38 73 39 74 40 75 41 76 65 77
REMARK SMILES IDX 66 78 74 79 67 80 69 81 75 82 68 83 70 84 71 85 72 86 73 87
REMARK SMILES IDX 50 88 51 89 59 90 52 91 54 92 60 93 53 94 55 95 56 96 57 97
REMARK SMILES IDX 58 98
REMARK H PARENT 17 5 13 14 21 32 80 51 48 62
REMARK Flexibility Score: inf
ROOT
ATOM      1  C   UNL A   1      36.710  20.476  24.930  1.00  0.00     0.117 C 
ENDROOT
BRANCH   1   2
ATOM      2  N   UNL A   1      35.478  19.720  25.064  1.00  0.00    -0.354 N 
ATOM      3  C   UNL A   1      34.200  20.010  24.678  1.00  0.00     0.245 C 
ATOM      4  O   UNL A   1      33.546  19.042  24.263  1.00  0.00    -0.272 OA
ATOM      5  H   UNL A   1      35.581  18.849  25.510  1.00  0.00     0.163 HD
BRANCH   3   6
ATOM      6  C   UNL A   1      33.538  21.431  24.757  1.00  0.00     0.119 C 
ATOM      7  C   UNL A   1      32.133  21.345  24.109  1.00  0.00     0.038 C 
ATOM      8  C   UNL A   1      34.181  22.610  24.015  1.00  0.00     0.038 C 
ATOM      9  C   UNL A   1      32.290  21.802  22.671  1.00  0.00     0.003 C 
ATOM     10  C   UNL A   1      33.443  22.795  22.686  1.00  0.00     0.003 C 
BRANCH   6  11
ATOM     11  N   UNL A   1      33.335  21.816  26.197  1.00  0.00    -0.338 N 
ATOM     12  C   UNL A   1      32.668  22.801  26.888  1.00  0.00     0.252 C 
ATOM     13  O   UNL A   1      32.551  22.651  28.106  1.00  0.00    -0.269 OA
ATOM     14  H   UNL A   1      33.804  21.201  26.806  1.00  0.00     0.164 HD
BRANCH  12  15
ATOM     15  C   UNL A   1      32.199  24.078  26.288  1.00  0.00     0.040 A 
ATOM     16  N   UNL A   1      31.474  27.534  24.032  1.00  0.00    -0.312 N 
ATOM     17  C   UNL A   1      32.717  28.286  24.250  1.00  0.00     0.130 C 
ATOM     18  C   UNL A   1      31.499  26.392  24.852  1.00  0.00     0.047 A 
ATOM     19  C   UNL A   1      33.631  27.444  25.140  1.00  0.00     0.059 C 
ATOM     20  C   UNL A   1      32.754  26.273  25.457  1.00  0.00    -0.022 A 
ATOM     21  C   UNL A   1      30.566  25.399  25.051  1.00  0.00     0.027 A 
ATOM     22  C   UNL A   1      33.121  25.130  26.167  1.00  0.00     0.019 A 
ATOM     23  C   UNL A   1      30.903  24.270  25.812  1.00  0.00     0.016 A 
BRANCH  16  24
ATOM     24  C   UNL A   1      30.589  27.983  23.074  1.00  0.00     0.226 C 
ATOM     25  O   UNL A   1      30.566  27.466  21.949  1.00  0.00    -0.275 OA
BRANCH  24  26
ATOM     26  C   UNL A   1      29.750  29.219  23.318  1.00  0.00     0.097 C 
ATOM     27  C   UNL A   1      28.370  29.246  22.707  1.00  0.00     0.014 C 
ENDBRANCH  24  26
ENDBRANCH  16  24
ENDBRANCH  12  15
ENDBRANCH   6  11
ENDBRANCH   3   6
ENDBRANCH   1   2
BRANCH   1  28
ATOM     28  C   UNL A   1      38.004  19.674  24.891  1.00  0.00     0.042 C 
BRANCH  28  29
ATOM     29  C   UNL A   1      39.110  20.170  25.809  1.00  0.00     0.118 C 
BRANCH  29  30
ATOM     30  N   UNL A   1      40.222  19.243  25.951  1.00  0.00    -0.352 N 
ATOM     31  C   UNL A   1      41.558  19.486  26.160  1.00  0.00     0.251 C 
ATOM     32  H   UNL A   1      39.978  18.292  25.887  1.00  0.00     0.163 HD
ATOM     33  O   UNL A   1      42.359  18.564  26.083  1.00  0.00    -0.269 OA
BRANCH  31  34
ATOM     34  C   UNL A   1      42.025  20.853  26.470  1.00  0.00     0.039 A 
ATOM     35  C   UNL A   1      42.254  21.745  25.421  1.00  0.00     0.014 A 
ATOM     36  C   UNL A   1      42.254  21.245  27.791  1.00  0.00     0.014 A 
ATOM     37  C   UNL A   1      42.656  23.052  25.703  1.00  0.00     0.010 A 
ATOM     38  C   UNL A   1      42.581  22.566  28.074  1.00  0.00     0.010 A 
ATOM     39  C   UNL A   1      42.792  23.481  27.033  1.00  0.00    -0.014 A 
BRANCH  39  40
ATOM     40  C   UNL A   1      43.130  24.888  27.358  1.00  0.00     0.031 A 
ATOM     41  C   UNL A   1      44.541  25.384  27.210  1.00  0.00     0.074 A 
ATOM     42  C   UNL A   1      42.178  25.689  27.876  1.00  0.00     0.049 A 
ATOM     43  N   UNL A   1      45.030  26.565  27.483  1.00  0.00    -0.248 NA
ATOM     44  C   UNL A   1      45.541  24.421  26.719  1.00  0.00     0.031 C 
ATOM     45  C   UNL A   1      40.795  25.288  28.150  1.00  0.00     0.029 A 
ATOM     46  N   UNL A   1      42.234  26.993  28.292  1.00  0.00    -0.354 N 
ATOM     47  C   UNL A   1      46.394  26.479  27.230  1.00  0.00     0.074 A 
ATOM     48  C   UNL A   1      46.663  25.119  26.821  1.00  0.00     0.031 C 
ATOM     49  C   UNL A   1      40.133  26.329  28.677  1.00  0.00     0.029 A 
ATOM     50  C   UNL A   1      41.047  27.458  28.810  1.00  0.00     0.049 A 
ATOM     51  H   UNL A   1      43.045  27.546  28.226  1.00  0.00     0.167 HD
ATOM     52  C   UNL A   1      47.334  27.452  27.304  1.00  0.00     0.034 A 
ATOM     53  C   UNL A   1      40.734  28.656  29.340  1.00  0.00     0.034 A 
ATOM     54  C   UNL A   1      47.051  28.810  27.686  1.00  0.00     0.049 A 
ATOM     55  C   UNL A   1      41.785  29.729  29.379  1.00  0.00     0.074 A 
ATOM     56  C   UNL A   1      47.909  29.895  27.705  1.00  0.00     0.029 A 
ATOM     57  N   UNL A   1      45.819  29.266  28.131  1.00  0.00    -0.354 N 
ATOM     58  N   UNL A   1      43.032  29.677  28.977  1.00  0.00    -0.248 NA
ATOM     59  C   UNL A   1      41.379  31.038  29.909  1.00  0.00     0.031 C 
ATOM     60  C   UNL A   1      47.204  30.998  28.198  1.00  0.00     0.029 A 
ATOM     61  C   UNL A   1      45.897  30.611  28.446  1.00  0.00     0.049 A 
ATOM     62  H   UNL A   1      45.009  28.713  28.212  1.00  0.00     0.167 HD
ATOM     63  C   UNL A   1      43.550  30.952  29.173  1.00  0.00     0.074 A 
ATOM     64  C   UNL A   1      42.473  31.760  29.710  1.00  0.00     0.031 C 
ATOM     65  C   UNL A   1      44.805  31.412  28.940  1.00  0.00     0.034 A 
BRANCH  52  66
ATOM     66  C   UNL A   1      48.747  27.090  26.927  1.00  0.00     0.023 A 
ATOM     67  C   UNL A   1      49.553  26.373  27.835  1.00  0.00     0.012 A 
ATOM     68  C   UNL A   1      49.265  27.417  25.659  1.00  0.00     0.148 A 
ATOM     69  C   UNL A   1      50.862  26.025  27.507  1.00  0.00     0.002 A 
ATOM     70  C   UNL A   1      50.555  27.023  25.318  1.00  0.00     0.091 A 
ATOM     71  F   UNL A   1      48.494  28.116  24.813  1.00  0.00    -0.205 F 
ATOM     72  C   UNL A   1      51.359  26.341  26.246  1.00  0.00     0.022 A 
BRANCH  70  73
ATOM     73  S   UNL A   1      51.258  27.308  23.690  1.00  0.00     0.127 S 
ATOM     74  O   UNL A   1      51.400  28.763  23.682  1.00  0.00    -0.237 OA
ATOM     75  O   UNL A   1      52.520  26.572  23.768  1.00  0.00    -0.237 OA
ATOM     76  O   UNL A   1      50.297  26.770  22.737  1.00  0.00    -0.744 OA
ENDBRANCH  70  73
ENDBRANCH  52  66
BRANCH  53  77
ATOM     77  C   UNL A   1      39.345  28.919  29.811  1.00  0.00     0.023 A 
ATOM     78  C   UNL A   1      38.944  28.457  31.079  1.00  0.00     0.012 A 
ATOM     79  C   UNL A   1      38.433  29.652  29.027  1.00  0.00     0.148 A 
ATOM     80  C   UNL A   1      37.650  28.692  31.546  1.00  0.00     0.002 A 
ATOM     81  C   UNL A   1      37.166  29.933  29.521  1.00  0.00     0.091 A 
ATOM     82  F   UNL A   1      38.834  30.079  27.821  1.00  0.00    -0.205 F 
ATOM     83  C   UNL A   1      36.764  29.439  30.772  1.00  0.00     0.022 A 
BRANCH  81  84
ATOM     84  S   UNL A   1      36.007  31.000  28.656  1.00  0.00     0.127 S 
ATOM     85  O   UNL A   1      35.578  30.143  27.554  1.00  0.00    -0.237 OA
ATOM     86  O   UNL A   1      34.993  31.238  29.685  1.00  0.00    -0.237 OA
ATOM     87  O   UNL A   1      36.768  32.183  28.278  1.00  0.00    -0.744 OA
ENDBRANCH  81  84
ENDBRANCH  53  77
BRANCH  65  88
ATOM     88  C   UNL A   1      45.080  32.864  29.228  1.00  0.00     0.023 A 
ATOM     89  C   UNL A   1      45.575  33.253  30.488  1.00  0.00     0.012 A 
ATOM     90  C   UNL A   1      44.914  33.835  28.220  1.00  0.00     0.148 A 
ATOM     91  C   UNL A   1      45.867  34.590  30.753  1.00  0.00     0.002 A 
ATOM     92  C   UNL A   1      45.259  35.156  28.474  1.00  0.00     0.091 A 
ATOM     93  F   UNL A   1      44.425  33.448  27.033  1.00  0.00    -0.205 F 
ATOM     94  C   UNL A   1      45.721  35.539  29.744  1.00  0.00     0.022 A 
BRANCH  92  95
ATOM     95  S   UNL A   1      45.200  36.428  27.207  1.00  0.00     0.127 S 
ATOM     96  O   UNL A   1      43.767  36.507  26.931  1.00  0.00    -0.237 OA
ATOM     97  O   UNL A   1      45.751  37.588  27.909  1.00  0.00    -0.237 OA
ATOM     98  O   UNL A   1      46.021  35.940  26.107  1.00  0.00    -0.744 OA
ENDBRANCH  92  95
ENDBRANCH  65  88
ENDBRANCH  39  40
ENDBRANCH  31  34
ENDBRANCH  29  30
ENDBRANCH  28  29
ENDBRANCH   1  28
TORSDOF 17
ENDMDL
