MODEL 1
REMARK VINA RESULT:     -11.3      0.000      0.000
REMARK SMILES Cc1ccc(/C=C/C(=O)N[C@@H](CO)C(=O)NCCCNC(=O)c2ccc(-c3c4nc(c(-c5cccc(S(=O)(=O)[O-])c5F)c5ccc([nH]5)c(-c5cccc(S(=O)(=O)[O-])c5F)c5nc(c(-c6cccc(S(=O)(=O)[O-])c6F)c6ccc3[nH]6)C=C5)C=C4)cc2)o1
REMARK SMILES IDX 18 1 17 2 16 3 14 4 15 5 11 7 10 8 8 9 9 10 7 12 6 13 5 14
REMARK SMILES IDX 1 15 2 16 3 17 86 18 4 19 12 20 13 21 19 23 20 24 21 25
REMARK SMILES IDX 22 27 23 28 24 29 85 30 25 31 84 32 26 33 27 34 28 35 78 36
REMARK SMILES IDX 29 37 83 38 77 39 79 40 30 41 82 42 76 43 75 44 31 46 63 47
REMARK SMILES IDX 43 48 62 49 44 50 47 51 61 52 80 53 45 54 46 55 60 57 81 58
REMARK SMILES IDX 48 59 32 60 33 61 41 62 34 63 36 64 42 65 35 66 37 67 38 68
REMARK SMILES IDX 39 69 40 70 64 71 65 72 73 73 66 74 68 75 74 76 67 77 69 78
REMARK SMILES IDX 70 79 71 80 72 81 49 82 50 83 58 84 51 85 53 86 59 87 52 88
REMARK SMILES IDX 54 89 55 90 56 91 57 92
REMARK H PARENT 16 6 10 11 13 22 20 26 79 45 47 56
REMARK Flexibility Score: inf
ROOT
ATOM      1  C   UNL A   1      31.771  31.818  26.519  1.00  0.00     0.042 C 
ENDROOT
BRANCH   1   2
ATOM      2  C   UNL A   1      31.822  30.300  26.552  1.00  0.00     0.117 C 
BRANCH   2   3
ATOM      3  N   UNL A   1      33.160  29.779  26.764  1.00  0.00    -0.354 N 
ATOM      4  C   UNL A   1      33.740  28.628  26.326  1.00  0.00     0.244 C 
ATOM      5  O   UNL A   1      34.944  28.472  26.557  1.00  0.00    -0.273 OA
ATOM      6  H   UNL A   1      33.744  30.351  27.314  1.00  0.00     0.163 HD
BRANCH   4   7
ATOM      7  C   UNL A   1      32.956  27.540  25.572  1.00  0.00     0.197 C 
BRANCH   7   8
ATOM      8  N   UNL A   1      33.452  27.399  24.202  1.00  0.00    -0.339 N 
ATOM      9  C   UNL A   1      33.174  28.084  23.060  1.00  0.00     0.244 C 
ATOM     10  O   UNL A   1      33.796  27.800  22.039  1.00  0.00    -0.270 OA
ATOM     11  H   UNL A   1      34.110  26.675  24.085  1.00  0.00     0.164 HD
BRANCH   9  12
ATOM     12  C   UNL A   1      32.060  29.055  22.970  1.00  0.00     0.075 C 
ATOM     13  C   UNL A   1      30.811  28.777  22.577  1.00  0.00     0.053 C 
BRANCH  13  14
ATOM     14  C   UNL A   1      29.833  29.798  22.458  1.00  0.00     0.127 A 
ATOM     15  C   UNL A   1      27.976  32.081  20.395  1.00  0.00     0.087 C 
ATOM     16  C   UNL A   1      28.502  31.324  21.547  1.00  0.00     0.101 A 
ATOM     17  C   UNL A   1      28.310  31.420  22.904  1.00  0.00     0.046 A 
ATOM     18  O   UNL A   1      29.386  30.326  21.268  1.00  0.00    -0.462 OA
ATOM     19  C   UNL A   1      29.161  30.453  23.485  1.00  0.00     0.050 A 
ENDBRANCH  13  14
ENDBRANCH   9  12
ENDBRANCH   7   8
BRANCH   7  20
ATOM     20  C   UNL A   1      32.765  26.230  26.349  1.00  0.00     0.191 C 
BRANCH  20  21
ATOM     21  O   UNL A   1      31.426  25.920  26.707  1.00  0.00    -0.394 OA
ATOM     22  H   UNL A   1      31.230  26.291  27.581  1.00  0.00     0.210 HD
ENDBRANCH  20  21
ENDBRANCH   7  20
ENDBRANCH   4   7
ENDBRANCH   2   3
ENDBRANCH   1   2
BRANCH   1  23
ATOM     23  C   UNL A   1      32.829  32.500  27.370  1.00  0.00     0.118 C 
BRANCH  23  24
ATOM     24  N   UNL A   1      32.518  33.897  27.653  1.00  0.00    -0.352 N 
ATOM     25  C   UNL A   1      33.044  34.744  28.602  1.00  0.00     0.251 C 
ATOM     26  H   UNL A   1      31.826  34.295  27.077  1.00  0.00     0.163 HD
ATOM     27  O   UNL A   1      32.525  35.833  28.805  1.00  0.00    -0.269 OA
BRANCH  25  28
ATOM     28  C   UNL A   1      34.223  34.320  29.389  1.00  0.00     0.039 A 
ATOM     29  C   UNL A   1      34.036  33.748  30.650  1.00  0.00     0.014 A 
ATOM     30  C   UNL A   1      35.510  34.472  28.871  1.00  0.00     0.014 A 
ATOM     31  C   UNL A   1      35.137  33.252  31.353  1.00  0.00     0.010 A 
ATOM     32  C   UNL A   1      36.587  33.882  29.520  1.00  0.00     0.010 A 
ATOM     33  C   UNL A   1      36.417  33.276  30.773  1.00  0.00    -0.014 A 
BRANCH  33  34
ATOM     34  C   UNL A   1      37.602  32.689  31.451  1.00  0.00     0.031 A 
ATOM     35  C   UNL A   1      38.328  31.535  30.810  1.00  0.00     0.074 A 
ATOM     36  C   UNL A   1      37.947  33.109  32.685  1.00  0.00     0.049 A 
ATOM     37  N   UNL A   1      39.291  30.796  31.295  1.00  0.00    -0.248 NA
ATOM     38  C   UNL A   1      37.890  31.132  29.462  1.00  0.00     0.031 C 
ATOM     39  C   UNL A   1      37.270  34.164  33.445  1.00  0.00     0.029 A 
ATOM     40  N   UNL A   1      38.931  32.671  33.537  1.00  0.00    -0.354 N 
ATOM     41  C   UNL A   1      39.534  29.815  30.341  1.00  0.00     0.074 A 
ATOM     42  C   UNL A   1      38.601  30.033  29.260  1.00  0.00     0.031 C 
ATOM     43  C   UNL A   1      37.854  34.286  34.647  1.00  0.00     0.029 A 
ATOM     44  C   UNL A   1      38.918  33.296  34.764  1.00  0.00     0.049 A 
ATOM     45  H   UNL A   1      39.584  31.976  33.294  1.00  0.00     0.167 HD
ATOM     46  C   UNL A   1      40.467  28.835  30.353  1.00  0.00     0.034 A 
ATOM     47  C   UNL A   1      39.665  33.079  35.866  1.00  0.00     0.034 A 
ATOM     48  C   UNL A   1      41.434  28.665  31.402  1.00  0.00     0.049 A 
ATOM     49  C   UNL A   1      40.733  32.019  35.825  1.00  0.00     0.074 A 
ATOM     50  C   UNL A   1      42.489  27.772  31.457  1.00  0.00     0.029 A 
ATOM     51  N   UNL A   1      41.462  29.395  32.578  1.00  0.00    -0.354 N 
ATOM     52  N   UNL A   1      41.051  31.206  34.847  1.00  0.00    -0.248 NA
ATOM     53  C   UNL A   1      41.571  31.869  37.024  1.00  0.00     0.031 C 
ATOM     54  C   UNL A   1      43.139  27.943  32.681  1.00  0.00     0.029 A 
ATOM     55  C   UNL A   1      42.512  28.969  33.370  1.00  0.00     0.049 A 
ATOM     56  H   UNL A   1      40.829  30.110  32.814  1.00  0.00     0.167 HD
ATOM     57  C   UNL A   1      42.153  30.487  35.293  1.00  0.00     0.074 A 
ATOM     58  C   UNL A   1      42.456  30.965  36.625  1.00  0.00     0.031 C 
ATOM     59  C   UNL A   1      42.846  29.509  34.660  1.00  0.00     0.034 A 
BRANCH  46  60
ATOM     60  C   UNL A   1      40.531  27.898  29.178  1.00  0.00     0.023 A 
ATOM     61  C   UNL A   1      39.601  26.844  29.071  1.00  0.00     0.012 A 
ATOM     62  C   UNL A   1      41.450  28.119  28.134  1.00  0.00     0.148 A 
ATOM     63  C   UNL A   1      39.599  26.011  27.954  1.00  0.00     0.002 A 
ATOM     64  C   UNL A   1      41.409  27.314  27.001  1.00  0.00     0.091 A 
ATOM     65  F   UNL A   1      42.338  29.114  28.264  1.00  0.00    -0.205 F 
ATOM     66  C   UNL A   1      40.493  26.254  26.914  1.00  0.00     0.022 A 
BRANCH  64  67
ATOM     67  S   UNL A   1      42.458  27.598  25.570  1.00  0.00     0.127 S 
ATOM     68  O   UNL A   1      43.789  27.593  26.175  1.00  0.00    -0.237 OA
ATOM     69  O   UNL A   1      42.161  26.432  24.738  1.00  0.00    -0.237 OA
ATOM     70  O   UNL A   1      42.038  28.874  25.008  1.00  0.00    -0.744 OA
ENDBRANCH  64  67
ENDBRANCH  46  60
BRANCH  47  71
ATOM     71  C   UNL A   1      39.463  33.909  37.090  1.00  0.00     0.023 A 
ATOM     72  C   UNL A   1      39.945  35.232  37.119  1.00  0.00     0.012 A 
ATOM     73  C   UNL A   1      38.803  33.396  38.222  1.00  0.00     0.148 A 
ATOM     74  C   UNL A   1      39.816  36.013  38.269  1.00  0.00     0.002 A 
ATOM     75  C   UNL A   1      38.626  34.198  39.344  1.00  0.00     0.091 A 
ATOM     76  F   UNL A   1      38.361  32.130  38.182  1.00  0.00    -0.205 F 
ATOM     77  C   UNL A   1      39.151  35.499  39.378  1.00  0.00     0.022 A 
BRANCH  75  78
ATOM     78  S   UNL A   1      37.665  33.662  40.763  1.00  0.00     0.127 S 
ATOM     79  O   UNL A   1      38.628  32.830  41.480  1.00  0.00    -0.237 OA
ATOM     80  O   UNL A   1      37.347  34.935  41.412  1.00  0.00    -0.237 OA
ATOM     81  O   UNL A   1      36.510  32.967  40.211  1.00  0.00    -0.744 OA
ENDBRANCH  75  78
ENDBRANCH  47  71
BRANCH  59  82
ATOM     82  C   UNL A   1      44.051  28.934  35.354  1.00  0.00     0.023 A 
ATOM     83  C   UNL A   1      45.313  29.535  35.198  1.00  0.00     0.012 A 
ATOM     84  C   UNL A   1      43.900  27.854  36.247  1.00  0.00     0.148 A 
ATOM     85  C   UNL A   1      46.417  29.054  35.903  1.00  0.00     0.002 A 
ATOM     86  C   UNL A   1      44.991  27.415  36.986  1.00  0.00     0.091 A 
ATOM     87  F   UNL A   1      42.691  27.287  36.367  1.00  0.00    -0.205 F 
ATOM     88  C   UNL A   1      46.251  28.005  36.806  1.00  0.00     0.022 A 
BRANCH  86  89
ATOM     89  S   UNL A   1      44.850  26.145  38.247  1.00  0.00     0.127 S 
ATOM     90  O   UNL A   1      43.895  26.750  39.174  1.00  0.00    -0.237 OA
ATOM     91  O   UNL A   1      44.326  25.010  37.487  1.00  0.00    -0.237 OA
ATOM     92  O   UNL A   1      46.193  25.950  38.778  1.00  0.00    -0.744 OA
ENDBRANCH  86  89
ENDBRANCH  59  82
ENDBRANCH  33  34
ENDBRANCH  25  28
ENDBRANCH  23  24
ENDBRANCH   1  23
TORSDOF 18
ENDMDL
MODEL 2
REMARK VINA RESULT:     -11.3      4.227     10.400
REMARK SMILES Cc1ccc(/C=C/C(=O)N[C@@H](CO)C(=O)NCCCNC(=O)c2ccc(-c3c4nc(c(-c5cccc(S(=O)(=O)[O-])c5F)c5ccc([nH]5)c(-c5cccc(S(=O)(=O)[O-])c5F)c5nc(c(-c6cccc(S(=O)(=O)[O-])c6F)c6ccc3[nH]6)C=C5)C=C4)cc2)o1
REMARK SMILES IDX 18 1 17 2 16 3 14 4 15 5 11 7 10 8 8 9 9 10 7 12 6 13 5 14
REMARK SMILES IDX 1 15 2 16 3 17 86 18 4 19 12 20 13 21 19 23 20 24 21 25
REMARK SMILES IDX 22 27 23 28 24 29 85 30 25 31 84 32 26 33 27 34 28 35 78 36
REMARK SMILES IDX 29 37 83 38 77 39 79 40 30 41 82 42 76 43 75 44 31 46 63 47
REMARK SMILES IDX 43 48 62 49 44 50 47 51 61 52 80 53 45 54 46 55 60 57 81 58
REMARK SMILES IDX 48 59 32 60 33 61 41 62 34 63 36 64 42 65 35 66 37 67 38 68
REMARK SMILES IDX 39 69 40 70 64 71 65 72 73 73 66 74 68 75 74 76 67 77 69 78
REMARK SMILES IDX 70 79 71 80 72 81 49 82 50 83 58 84 51 85 53 86 59 87 52 88
REMARK SMILES IDX 54 89 55 90 56 91 57 92
REMARK H PARENT 16 6 10 11 13 22 20 26 79 45 47 56
REMARK Flexibility Score: inf
ROOT
ATOM      1  C   UNL A   1      34.661  34.905  28.740  1.00  0.00     0.042 C 
ENDROOT
BRANCH   1   2
ATOM      2  C   UNL A   1      33.398  35.546  29.291  1.00  0.00     0.117 C 
BRANCH   2   3
ATOM      3  N   UNL A   1      33.667  36.604  30.248  1.00  0.00    -0.354 N 
ATOM      4  C   UNL A   1      33.540  36.624  31.603  1.00  0.00     0.244 C 
ATOM      5  O   UNL A   1      33.947  37.627  32.200  1.00  0.00    -0.273 OA
ATOM      6  H   UNL A   1      33.996  37.444  29.853  1.00  0.00     0.163 HD
BRANCH   4   7
ATOM      7  C   UNL A   1      32.914  35.462  32.393  1.00  0.00     0.197 C 
BRANCH   7   8
ATOM      8  N   UNL A   1      33.728  35.134  33.564  1.00  0.00    -0.339 N 
ATOM      9  C   UNL A   1      35.047  34.828  33.696  1.00  0.00     0.244 C 
ATOM     10  O   UNL A   1      35.501  34.659  34.825  1.00  0.00    -0.270 OA
ATOM     11  H   UNL A   1      33.230  35.134  34.414  1.00  0.00     0.164 HD
BRANCH   9  12
ATOM     12  C   UNL A   1      35.918  34.558  32.530  1.00  0.00     0.075 C 
ATOM     13  C   UNL A   1      37.256  34.505  32.550  1.00  0.00     0.053 C 
BRANCH  13  14
ATOM     14  C   UNL A   1      38.002  34.308  31.359  1.00  0.00     0.127 A 
ATOM     15  C   UNL A   1      40.939  34.977  29.399  1.00  0.00     0.087 C 
ATOM     16  C   UNL A   1      39.637  34.463  29.865  1.00  0.00     0.101 A 
ATOM     17  C   UNL A   1      38.653  33.711  29.269  1.00  0.00     0.046 A 
ATOM     18  O   UNL A   1      39.271  34.793  31.134  1.00  0.00    -0.462 OA
ATOM     19  C   UNL A   1      37.610  33.617  30.217  1.00  0.00     0.050 A 
ENDBRANCH  13  14
ENDBRANCH   9  12
ENDBRANCH   7   8
BRANCH   7  20
ATOM     20  C   UNL A   1      31.405  35.596  32.648  1.00  0.00     0.191 C 
BRANCH  20  21
ATOM     21  O   UNL A   1      31.008  36.743  33.385  1.00  0.00    -0.394 OA
ATOM     22  H   UNL A   1      30.975  37.512  32.795  1.00  0.00     0.210 HD
ENDBRANCH  20  21
ENDBRANCH   7  20
ENDBRANCH   4   7
ENDBRANCH   2   3
ENDBRANCH   1   2
BRANCH   1  23
ATOM     23  C   UNL A   1      34.849  33.450  29.134  1.00  0.00     0.118 C 
BRANCH  23  24
ATOM     24  N   UNL A   1      34.013  32.538  28.362  1.00  0.00    -0.352 N 
ATOM     25  C   UNL A   1      34.290  31.279  27.879  1.00  0.00     0.251 C 
ATOM     26  H   UNL A   1      33.111  32.875  28.155  1.00  0.00     0.163 HD
ATOM     27  O   UNL A   1      33.520  30.741  27.096  1.00  0.00    -0.269 OA
BRANCH  25  28
ATOM     28  C   UNL A   1      35.533  30.593  28.294  1.00  0.00     0.039 A 
ATOM     29  C   UNL A   1      36.702  30.785  27.553  1.00  0.00     0.014 A 
ATOM     30  C   UNL A   1      35.546  29.778  29.427  1.00  0.00     0.014 A 
ATOM     31  C   UNL A   1      37.901  30.223  27.999  1.00  0.00     0.010 A 
ATOM     32  C   UNL A   1      36.755  29.313  29.926  1.00  0.00     0.010 A 
ATOM     33  C   UNL A   1      37.945  29.518  29.213  1.00  0.00    -0.014 A 
BRANCH  33  34
ATOM     34  C   UNL A   1      39.213  28.973  29.764  1.00  0.00     0.031 A 
ATOM     35  C   UNL A   1      39.895  29.684  30.903  1.00  0.00     0.074 A 
ATOM     36  C   UNL A   1      39.806  27.919  29.167  1.00  0.00     0.049 A 
ATOM     37  N   UNL A   1      41.067  29.454  31.435  1.00  0.00    -0.248 NA
ATOM     38  C   UNL A   1      39.184  30.829  31.501  1.00  0.00     0.031 C 
ATOM     39  C   UNL A   1      39.285  27.195  28.005  1.00  0.00     0.029 A 
ATOM     40  N   UNL A   1      41.002  27.297  29.432  1.00  0.00    -0.354 N 
ATOM     41  C   UNL A   1      41.255  30.453  32.384  1.00  0.00     0.074 A 
ATOM     42  C   UNL A   1      40.092  31.307  32.340  1.00  0.00     0.031 C 
ATOM     43  C   UNL A   1      40.156  26.235  27.655  1.00  0.00     0.029 A 
ATOM     44  C   UNL A   1      41.315  26.298  28.538  1.00  0.00     0.049 A 
ATOM     45  H   UNL A   1      41.582  27.542  30.190  1.00  0.00     0.167 HD
ATOM     46  C   UNL A   1      42.294  30.627  33.234  1.00  0.00     0.034 A 
ATOM     47  C   UNL A   1      42.421  25.533  28.429  1.00  0.00     0.034 A 
ATOM     48  C   UNL A   1      43.418  29.736  33.318  1.00  0.00     0.049 A 
ATOM     49  C   UNL A   1      43.533  25.715  29.428  1.00  0.00     0.074 A 
ATOM     50  C   UNL A   1      44.467  29.763  34.218  1.00  0.00     0.029 A 
ATOM     51  N   UNL A   1      43.641  28.664  32.470  1.00  0.00    -0.354 N 
ATOM     52  N   UNL A   1      43.618  26.566  30.421  1.00  0.00    -0.248 NA
ATOM     53  C   UNL A   1      44.686  24.810  29.315  1.00  0.00     0.031 C 
ATOM     54  C   UNL A   1      45.342  28.724  33.895  1.00  0.00     0.029 A 
ATOM     55  C   UNL A   1      44.816  28.025  32.821  1.00  0.00     0.049 A 
ATOM     56  H   UNL A   1      43.051  28.397  31.729  1.00  0.00     0.167 HD
ATOM     57  C   UNL A   1      44.804  26.265  31.079  1.00  0.00     0.074 A 
ATOM     58  C   UNL A   1      45.402  25.148  30.379  1.00  0.00     0.031 C 
ATOM     59  C   UNL A   1      45.356  26.868  32.160  1.00  0.00     0.034 A 
BRANCH  46  60
ATOM     60  C   UNL A   1      42.250  31.794  34.183  1.00  0.00     0.023 A 
ATOM     61  C   UNL A   1      42.690  33.063  33.754  1.00  0.00     0.012 A 
ATOM     62  C   UNL A   1      41.684  31.654  35.465  1.00  0.00     0.148 A 
ATOM     63  C   UNL A   1      42.588  34.170  34.595  1.00  0.00     0.002 A 
ATOM     64  C   UNL A   1      41.541  32.772  36.278  1.00  0.00     0.091 A 
ATOM     65  F   UNL A   1      41.289  30.436  35.860  1.00  0.00    -0.205 F 
ATOM     66  C   UNL A   1      42.002  34.027  35.850  1.00  0.00     0.022 A 
BRANCH  64  67
ATOM     67  S   UNL A   1      40.721  32.712  37.876  1.00  0.00     0.127 S 
ATOM     68  O   UNL A   1      40.651  34.131  38.224  1.00  0.00    -0.237 OA
ATOM     69  O   UNL A   1      39.435  32.103  37.536  1.00  0.00    -0.237 OA
ATOM     70  O   UNL A   1      41.573  31.905  38.738  1.00  0.00    -0.744 OA
ENDBRANCH  64  67
ENDBRANCH  46  60
BRANCH  47  71
ATOM     71  C   UNL A   1      42.518  24.494  27.363  1.00  0.00     0.023 A 
ATOM     72  C   UNL A   1      43.208  24.786  26.170  1.00  0.00     0.012 A 
ATOM     73  C   UNL A   1      41.929  23.225  27.521  1.00  0.00     0.148 A 
ATOM     74  C   UNL A   1      43.270  23.851  25.135  1.00  0.00     0.002 A 
ATOM     75  C   UNL A   1      42.045  22.278  26.509  1.00  0.00     0.091 A 
ATOM     76  F   UNL A   1      41.266  22.969  28.657  1.00  0.00    -0.205 F 
ATOM     77  C   UNL A   1      42.695  22.595  25.308  1.00  0.00     0.022 A 
BRANCH  75  78
ATOM     78  S   UNL A   1      41.451  20.594  26.702  1.00  0.00     0.127 S 
ATOM     79  O   UNL A   1      41.873  19.982  25.445  1.00  0.00    -0.237 OA
ATOM     80  O   UNL A   1      42.189  20.146  27.884  1.00  0.00    -0.237 OA
ATOM     81  O   UNL A   1      40.012  20.709  26.904  1.00  0.00    -0.744 OA
ENDBRANCH  75  78
ENDBRANCH  47  71
BRANCH  59  82
ATOM     82  C   UNL A   1      46.633  26.295  32.714  1.00  0.00     0.023 A 
ATOM     83  C   UNL A   1      46.593  25.342  33.748  1.00  0.00     0.012 A 
ATOM     84  C   UNL A   1      47.869  26.634  32.127  1.00  0.00     0.148 A 
ATOM     85  C   UNL A   1      47.769  24.749  34.208  1.00  0.00     0.002 A 
ATOM     86  C   UNL A   1      49.029  26.000  32.553  1.00  0.00     0.091 A 
ATOM     87  F   UNL A   1      47.884  27.556  31.155  1.00  0.00    -0.205 F 
ATOM     88  C   UNL A   1      48.983  25.068  33.601  1.00  0.00     0.022 A 
BRANCH  86  89
ATOM     89  S   UNL A   1      50.618  26.267  31.760  1.00  0.00     0.127 S 
ATOM     90  O   UNL A   1      50.808  27.705  31.952  1.00  0.00    -0.237 OA
ATOM     91  O   UNL A   1      51.508  25.422  32.557  1.00  0.00    -0.237 OA
ATOM     92  O   UNL A   1      50.456  25.842  30.376  1.00  0.00    -0.744 OA
ENDBRANCH  86  89
ENDBRANCH  59  82
ENDBRANCH  33  34
ENDBRANCH  25  28
ENDBRANCH  23  24
ENDBRANCH   1  23
TORSDOF 18
ENDMDL
MODEL 3
REMARK VINA RESULT:     -11.2      6.687     12.662
REMARK SMILES Cc1ccc(/C=C/C(=O)N[C@@H](CO)C(=O)NCCCNC(=O)c2ccc(-c3c4nc(c(-c5cccc(S(=O)(=O)[O-])c5F)c5ccc([nH]5)c(-c5cccc(S(=O)(=O)[O-])c5F)c5nc(c(-c6cccc(S(=O)(=O)[O-])c6F)c6ccc3[nH]6)C=C5)C=C4)cc2)o1
REMARK SMILES IDX 18 1 17 2 16 3 14 4 15 5 11 7 10 8 8 9 9 10 7 12 6 13 5 14
REMARK SMILES IDX 1 15 2 16 3 17 86 18 4 19 12 20 13 21 19 23 20 24 21 25
REMARK SMILES IDX 22 27 23 28 24 29 85 30 25 31 84 32 26 33 27 34 28 35 78 36
REMARK SMILES IDX 29 37 83 38 77 39 79 40 30 41 82 42 76 43 75 44 31 46 63 47
REMARK SMILES IDX 43 48 62 49 44 50 47 51 61 52 80 53 45 54 46 55 60 57 81 58
REMARK SMILES IDX 48 59 32 60 33 61 41 62 34 63 36 64 42 65 35 66 37 67 38 68
REMARK SMILES IDX 39 69 40 70 64 71 65 72 73 73 66 74 68 75 74 76 67 77 69 78
REMARK SMILES IDX 70 79 71 80 72 81 49 82 50 83 58 84 51 85 53 86 59 87 52 88
REMARK SMILES IDX 54 89 55 90 56 91 57 92
REMARK H PARENT 16 6 10 11 13 22 20 26 79 45 47 56
REMARK Flexibility Score: inf
ROOT
ATOM      1  C   UNL A   1      37.917  20.356  25.134  1.00  0.00     0.042 C 
ENDROOT
BRANCH   1   2
ATOM      2  C   UNL A   1      37.107  21.589  24.769  1.00  0.00     0.117 C 
BRANCH   2   3
ATOM      3  N   UNL A   1      36.394  22.157  25.898  1.00  0.00    -0.354 N 
ATOM      4  C   UNL A   1      35.134  22.667  25.981  1.00  0.00     0.244 C 
ATOM      5  O   UNL A   1      34.722  22.990  27.101  1.00  0.00    -0.273 OA
ATOM      6  H   UNL A   1      36.903  22.178  26.741  1.00  0.00     0.163 HD
BRANCH   4   7
ATOM      7  C   UNL A   1      34.231  22.851  24.749  1.00  0.00     0.197 C 
BRANCH   7   8
ATOM      8  N   UNL A   1      32.822  22.889  25.140  1.00  0.00    -0.339 N 
ATOM      9  C   UNL A   1      31.907  21.902  25.336  1.00  0.00     0.244 C 
ATOM     10  O   UNL A   1      30.787  22.210  25.738  1.00  0.00    -0.270 OA
ATOM     11  H   UNL A   1      32.469  23.797  25.288  1.00  0.00     0.164 HD
BRANCH   9  12
ATOM     12  C   UNL A   1      32.165  20.495  24.955  1.00  0.00     0.075 C 
ATOM     13  C   UNL A   1      32.926  19.628  25.635  1.00  0.00     0.053 C 
BRANCH  13  14
ATOM     14  C   UNL A   1      33.166  18.318  25.144  1.00  0.00     0.127 A 
ATOM     15  C   UNL A   1      32.672  14.769  25.420  1.00  0.00     0.087 C 
ATOM     16  C   UNL A   1      33.103  16.106  24.968  1.00  0.00     0.101 A 
ATOM     17  C   UNL A   1      33.967  16.536  23.990  1.00  0.00     0.046 A 
ATOM     18  O   UNL A   1      32.587  17.172  25.640  1.00  0.00    -0.462 OA
ATOM     19  C   UNL A   1      34.012  17.943  24.106  1.00  0.00     0.050 A 
ENDBRANCH  13  14
ENDBRANCH   9  12
ENDBRANCH   7   8
BRANCH   7  20
ATOM     20  C   UNL A   1      34.683  23.953  23.780  1.00  0.00     0.191 C 
BRANCH  20  21
ATOM     21  O   UNL A   1      35.317  23.502  22.591  1.00  0.00    -0.394 OA
ATOM     22  H   UNL A   1      35.587  22.577  22.700  1.00  0.00     0.210 HD
ENDBRANCH  20  21
ENDBRANCH   7  20
ENDBRANCH   4   7
ENDBRANCH   2   3
ENDBRANCH   1   2
BRANCH   1  23
ATOM     23  C   UNL A   1      39.161  20.644  25.957  1.00  0.00     0.118 C 
BRANCH  23  24
ATOM     24  N   UNL A   1      40.095  19.524  25.987  1.00  0.00    -0.352 N 
ATOM     25  C   UNL A   1      41.468  19.521  26.087  1.00  0.00     0.251 C 
ATOM     26  H   UNL A   1      39.679  18.633  25.927  1.00  0.00     0.163 HD
ATOM     27  O   UNL A   1      42.091  18.483  25.915  1.00  0.00    -0.269 OA
BRANCH  25  28
ATOM     28  C   UNL A   1      42.183  20.782  26.382  1.00  0.00     0.039 A 
ATOM     29  C   UNL A   1      42.542  21.628  25.329  1.00  0.00     0.014 A 
ATOM     30  C   UNL A   1      42.480  21.135  27.698  1.00  0.00     0.014 A 
ATOM     31  C   UNL A   1      43.126  22.867  25.608  1.00  0.00     0.010 A 
ATOM     32  C   UNL A   1      42.958  22.409  27.978  1.00  0.00     0.010 A 
ATOM     33  C   UNL A   1      43.298  23.286  26.938  1.00  0.00    -0.014 A 
BRANCH  33  34
ATOM     34  C   UNL A   1      43.840  24.626  27.279  1.00  0.00     0.031 A 
ATOM     35  C   UNL A   1      42.914  25.687  27.816  1.00  0.00     0.074 A 
ATOM     36  C   UNL A   1      45.124  24.924  26.996  1.00  0.00     0.049 A 
ATOM     37  N   UNL A   1      43.155  26.951  28.046  1.00  0.00    -0.248 NA
ATOM     38  C   UNL A   1      41.525  25.285  28.098  1.00  0.00     0.031 C 
ATOM     39  C   UNL A   1      46.098  24.006  26.399  1.00  0.00     0.029 A 
ATOM     40  N   UNL A   1      45.822  26.098  27.136  1.00  0.00    -0.354 N 
ATOM     41  C   UNL A   1      41.942  27.502  28.442  1.00  0.00     0.074 A 
ATOM     42  C   UNL A   1      40.959  26.445  28.398  1.00  0.00     0.031 C 
ATOM     43  C   UNL A   1      47.261  24.652  26.219  1.00  0.00     0.029 A 
ATOM     44  C   UNL A   1      47.109  26.037  26.648  1.00  0.00     0.049 A 
ATOM     45  H   UNL A   1      45.440  26.908  27.545  1.00  0.00     0.167 HD
ATOM     46  C   UNL A   1      41.676  28.770  28.833  1.00  0.00     0.034 A 
ATOM     47  C   UNL A   1      48.051  26.996  26.539  1.00  0.00     0.034 A 
ATOM     48  C   UNL A   1      42.672  29.801  28.937  1.00  0.00     0.049 A 
ATOM     49  C   UNL A   1      47.740  28.383  27.037  1.00  0.00     0.074 A 
ATOM     50  C   UNL A   1      42.526  31.086  29.426  1.00  0.00     0.029 A 
ATOM     51  N   UNL A   1      43.993  29.666  28.544  1.00  0.00    -0.354 N 
ATOM     52  N   UNL A   1      46.629  28.842  27.558  1.00  0.00    -0.248 NA
ATOM     53  C   UNL A   1      48.823  29.376  26.966  1.00  0.00     0.031 C 
ATOM     54  C   UNL A   1      43.754  31.740  29.300  1.00  0.00     0.029 A 
ATOM     55  C   UNL A   1      44.673  30.848  28.771  1.00  0.00     0.049 A 
ATOM     56  H   UNL A   1      44.388  28.851  28.159  1.00  0.00     0.167 HD
ATOM     57  C   UNL A   1      46.894  30.156  27.922  1.00  0.00     0.074 A 
ATOM     58  C   UNL A   1      48.273  30.420  27.571  1.00  0.00     0.031 C 
ATOM     59  C   UNL A   1      46.065  31.068  28.487  1.00  0.00     0.034 A 
BRANCH  46  60
ATOM     60  C   UNL A   1      40.266  29.113  29.230  1.00  0.00     0.023 A 
ATOM     61  C   UNL A   1      39.315  29.422  28.236  1.00  0.00     0.012 A 
ATOM     62  C   UNL A   1      39.860  29.034  30.576  1.00  0.00     0.148 A 
ATOM     63  C   UNL A   1      37.986  29.670  28.579  1.00  0.00     0.002 A 
ATOM     64  C   UNL A   1      38.525  29.235  30.904  1.00  0.00     0.091 A 
ATOM     65  F   UNL A   1      40.784  28.758  31.506  1.00  0.00    -0.205 F 
ATOM     66  C   UNL A   1      37.590  29.563  29.909  1.00  0.00     0.022 A 
BRANCH  64  67
ATOM     67  S   UNL A   1      37.894  29.035  32.574  1.00  0.00     0.127 S 
ATOM     68  O   UNL A   1      38.776  29.923  33.330  1.00  0.00    -0.237 OA
ATOM     69  O   UNL A   1      36.518  29.512  32.440  1.00  0.00    -0.237 OA
ATOM     70  O   UNL A   1      38.023  27.619  32.888  1.00  0.00    -0.744 OA
ENDBRANCH  64  67
ENDBRANCH  46  60
BRANCH  47  71
ATOM     71  C   UNL A   1      49.395  26.674  25.975  1.00  0.00     0.023 A 
ATOM     72  C   UNL A   1      50.298  25.903  26.732  1.00  0.00     0.012 A 
ATOM     73  C   UNL A   1      49.782  27.128  24.701  1.00  0.00     0.148 A 
ATOM     74  C   UNL A   1      51.580  25.630  26.251  1.00  0.00     0.002 A 
ATOM     75  C   UNL A   1      51.040  26.804  24.203  1.00  0.00     0.091 A 
ATOM     76  F   UNL A   1      48.914  27.871  23.999  1.00  0.00    -0.205 F 
ATOM     77  C   UNL A   1      51.948  26.074  24.984  1.00  0.00     0.022 A 
BRANCH  75  78
ATOM     78  S   UNL A   1      51.544  27.220  22.530  1.00  0.00     0.127 S 
ATOM     79  O   UNL A   1      50.419  26.721  21.746  1.00  0.00    -0.237 OA
ATOM     80  O   UNL A   1      51.649  28.678  22.599  1.00  0.00    -0.237 OA
ATOM     81  O   UNL A   1      52.816  26.538  22.326  1.00  0.00    -0.744 OA
ENDBRANCH  75  78
ENDBRANCH  47  71
BRANCH  59  82
ATOM     82  C   UNL A   1      46.633  32.417  28.839  1.00  0.00     0.023 A 
ATOM     83  C   UNL A   1      47.246  32.624  30.088  1.00  0.00     0.012 A 
ATOM     84  C   UNL A   1      46.645  33.448  27.878  1.00  0.00     0.148 A 
ATOM     85  C   UNL A   1      47.845  33.848  30.386  1.00  0.00     0.002 A 
ATOM     86  C   UNL A   1      47.290  34.644  28.161  1.00  0.00     0.091 A 
ATOM     87  F   UNL A   1      46.040  33.233  26.701  1.00  0.00    -0.205 F 
ATOM     88  C   UNL A   1      47.879  34.851  29.418  1.00  0.00     0.022 A 
BRANCH  86  89
ATOM     89  S   UNL A   1      47.476  35.950  26.942  1.00  0.00     0.127 S 
ATOM     90  O   UNL A   1      46.088  36.357  26.728  1.00  0.00    -0.237 OA
ATOM     91  O   UNL A   1      48.295  36.928  27.659  1.00  0.00    -0.237 OA
ATOM     92  O   UNL A   1      48.129  35.339  25.792  1.00  0.00    -0.744 OA
ENDBRANCH  86  89
ENDBRANCH  59  82
ENDBRANCH  33  34
ENDBRANCH  25  28
ENDBRANCH  23  24
ENDBRANCH   1  23
TORSDOF 18
ENDMDL
