MODEL 1
REMARK VINA RESULT:     -13.0      0.000      0.000
REMARK SMILES Cc1nn(C)c(C)c1C[C@@H](C)C(=O)N[C@@H](C(=O)NCCCNC(=O)c1ccc(-c2c3nc(c(-c4cccc(S(=O)(=O)[O-])c4F)c4ccc([nH]4)c(-c4cccc(S(=O)(=O)[O-])c4F)c4nc(c(-c5cccc(S(=O)(=O)[O-])c5F)c5ccc2[nH]5)C=C4)C=C3)cc1)c1ccccc1Cl
REMARK SMILES IDX 19 1 18 2 16 3 17 4 15 6 14 7 12 8 13 9 10 11 11 12 9 13
REMARK SMILES IDX 8 14 1 15 2 16 3 17 4 18 6 19 5 20 7 21 88 22 89 23 93 24
REMARK SMILES IDX 90 25 92 26 94 27 91 28 20 29 21 30 22 31 23 32 24 34 25 35
REMARK SMILES IDX 26 36 87 37 27 38 86 39 28 40 29 41 30 42 80 43 31 44 85 45
REMARK SMILES IDX 79 46 81 47 32 48 84 49 78 50 77 51 33 53 65 54 45 55 64 56
REMARK SMILES IDX 46 57 49 58 63 59 82 60 47 61 48 62 62 64 83 65 50 66 34 67
REMARK SMILES IDX 35 68 43 69 36 70 38 71 44 72 37 73 39 74 40 75 41 76 42 77
REMARK SMILES IDX 66 78 67 79 75 80 68 81 70 82 76 83 69 84 71 85 72 86 73 87
REMARK SMILES IDX 74 88 51 89 52 90 60 91 53 92 55 93 61 94 54 95 56 96 57 97
REMARK SMILES IDX 58 98 59 99
REMARK H PARENT 18 5 14 10 22 33 81 52 49 63
REMARK Flexibility Score: inf
ROOT
ATOM      1  C   UNL A   1      31.554  29.717  25.361  1.00  0.00     0.117 C 
ENDROOT
BRANCH   1   2
ATOM      2  N   UNL A   1      32.758  29.554  24.588  1.00  0.00    -0.354 N 
ATOM      3  C   UNL A   1      32.935  28.851  23.424  1.00  0.00     0.247 C 
ATOM      4  O   UNL A   1      33.902  29.193  22.734  1.00  0.00    -0.272 OA
ATOM      5  H   UNL A   1      33.559  30.005  24.941  1.00  0.00     0.163 HD
BRANCH   3   6
ATOM      6  C   UNL A   1      31.863  27.821  22.897  1.00  0.00     0.203 C 
BRANCH   6   7
ATOM      7  N   UNL A   1      32.248  27.062  21.701  1.00  0.00    -0.340 N 
ATOM      8  C   UNL A   1      32.740  25.812  21.488  1.00  0.00     0.224 C 
ATOM      9  O   UNL A   1      33.032  25.529  20.323  1.00  0.00    -0.275 OA
ATOM     10  H   UNL A   1      32.122  27.571  20.867  1.00  0.00     0.164 HD
BRANCH   8  11
ATOM     11  C   UNL A   1      32.936  24.758  22.589  1.00  0.00     0.080 C 
ATOM     12  C   UNL A   1      31.575  24.263  23.048  1.00  0.00     0.018 C 
BRANCH  11  13
ATOM     13  C   UNL A   1      33.935  25.210  23.662  1.00  0.00     0.052 C 
BRANCH  13  14
ATOM     14  C   UNL A   1      34.555  24.210  24.579  1.00  0.00    -0.003 A 
ATOM     15  C   UNL A   1      32.781  24.134  26.537  1.00  0.00     0.069 C 
ATOM     16  C   UNL A   1      34.042  23.762  25.836  1.00  0.00     0.063 A 
ATOM     17  N   UNL A   1      34.810  22.804  26.366  1.00  0.00    -0.178 NA
ATOM     18  N   UNL A   1      35.760  22.591  25.445  1.00  0.00    -0.272 N 
ATOM     19  C   UNL A   1      35.588  23.326  24.304  1.00  0.00     0.038 A 
ATOM     20  C   UNL A   1      36.761  21.589  25.721  1.00  0.00     0.174 C 
ATOM     21  C   UNL A   1      36.368  23.088  23.064  1.00  0.00     0.066 C 
ENDBRANCH  13  14
ENDBRANCH  11  13
ENDBRANCH   8  11
ENDBRANCH   6   7
BRANCH   6  22
ATOM     22  C   UNL A   1      30.515  28.500  22.675  1.00  0.00     0.002 A 
ATOM     23  C   UNL A   1      30.469  29.678  21.899  1.00  0.00     0.008 A 
ATOM     24  C   UNL A   1      29.306  27.989  23.174  1.00  0.00     0.046 A 
ATOM     25  C   UNL A   1      29.262  30.327  21.643  1.00  0.00     0.000 A 
ATOM     26  C   UNL A   1      28.095  28.637  22.903  1.00  0.00     0.021 A 
ATOM     27  Cl  UNL A   1      29.239  26.556  24.137  1.00  0.00    -0.084 Cl
ATOM     28  C   UNL A   1      28.074  29.805  22.143  1.00  0.00     0.002 A 
ENDBRANCH   6  22
ENDBRANCH   3   6
ENDBRANCH   1   2
BRANCH   1  29
ATOM     29  C   UNL A   1      31.484  30.970  26.201  1.00  0.00     0.042 C 
BRANCH  29  30
ATOM     30  C   UNL A   1      32.754  31.244  26.980  1.00  0.00     0.118 C 
BRANCH  30  31
ATOM     31  N   UNL A   1      32.944  32.661  27.283  1.00  0.00    -0.352 N 
ATOM     32  C   UNL A   1      33.941  33.297  27.983  1.00  0.00     0.251 C 
ATOM     33  H   UNL A   1      32.244  33.257  26.928  1.00  0.00     0.163 HD
ATOM     34  O   UNL A   1      33.822  34.491  28.251  1.00  0.00    -0.269 OA
BRANCH  32  35
ATOM     35  C   UNL A   1      35.135  32.548  28.434  1.00  0.00     0.039 A 
ATOM     36  C   UNL A   1      36.395  33.139  28.317  1.00  0.00     0.014 A 
ATOM     37  C   UNL A   1      35.013  31.273  28.986  1.00  0.00     0.014 A 
ATOM     38  C   UNL A   1      37.517  32.484  28.835  1.00  0.00     0.010 A 
ATOM     39  C   UNL A   1      36.105  30.682  29.609  1.00  0.00     0.010 A 
ATOM     40  C   UNL A   1      37.373  31.273  29.530  1.00  0.00    -0.014 A 
BRANCH  40  41
ATOM     41  C   UNL A   1      38.526  30.605  30.184  1.00  0.00     0.031 A 
ATOM     42  C   UNL A   1      38.950  31.012  31.572  1.00  0.00     0.074 A 
ATOM     43  C   UNL A   1      39.250  29.700  29.493  1.00  0.00     0.049 A 
ATOM     44  N   UNL A   1      39.969  30.595  32.278  1.00  0.00    -0.248 NA
ATOM     45  C   UNL A   1      38.147  32.051  32.242  1.00  0.00     0.031 C 
ATOM     46  C   UNL A   1      39.004  29.294  28.107  1.00  0.00     0.029 A 
ATOM     47  N   UNL A   1      40.360  28.978  29.854  1.00  0.00    -0.354 N 
ATOM     48  C   UNL A   1      39.951  31.344  33.449  1.00  0.00     0.074 A 
ATOM     49  C   UNL A   1      38.850  32.273  33.343  1.00  0.00     0.031 C 
ATOM     50  C   UNL A   1      39.923  28.387  27.743  1.00  0.00     0.029 A 
ATOM     51  C   UNL A   1      40.843  28.168  28.853  1.00  0.00     0.049 A 
ATOM     52  H   UNL A   1      40.772  29.034  30.747  1.00  0.00     0.167 HD
ATOM     53  C   UNL A   1      40.754  31.241  34.535  1.00  0.00     0.034 A 
ATOM     54  C   UNL A   1      41.908  27.344  28.831  1.00  0.00     0.034 A 
ATOM     55  C   UNL A   1      41.808  30.274  34.663  1.00  0.00     0.049 A 
ATOM     56  C   UNL A   1      42.746  27.206  30.075  1.00  0.00     0.074 A 
ATOM     57  C   UNL A   1      42.618  30.023  35.758  1.00  0.00     0.029 A 
ATOM     58  N   UNL A   1      42.202  29.396  33.665  1.00  0.00    -0.354 N 
ATOM     59  N   UNL A   1      42.607  27.803  31.234  1.00  0.00    -0.248 NA
ATOM     60  C   UNL A   1      43.861  26.250  30.021  1.00  0.00     0.031 C 
ATOM     61  C   UNL A   1      43.511  29.003  35.414  1.00  0.00     0.029 A 
ATOM     62  C   UNL A   1      43.243  28.604  34.115  1.00  0.00     0.049 A 
ATOM     63  H   UNL A   1      41.799  29.344  32.768  1.00  0.00     0.167 HD
ATOM     64  C   UNL A   1      43.594  27.271  32.055  1.00  0.00     0.074 A 
ATOM     65  C   UNL A   1      44.305  26.284  31.270  1.00  0.00     0.031 C 
ATOM     66  C   UNL A   1      43.900  27.586  33.338  1.00  0.00     0.034 A 
BRANCH  53  67
ATOM     67  C   UNL A   1      40.474  32.148  35.705  1.00  0.00     0.023 A 
ATOM     68  C   UNL A   1      41.275  33.291  35.903  1.00  0.00     0.012 A 
ATOM     69  C   UNL A   1      39.383  31.912  36.565  1.00  0.00     0.148 A 
ATOM     70  C   UNL A   1      41.017  34.169  36.954  1.00  0.00     0.002 A 
ATOM     71  C   UNL A   1      39.104  32.816  37.584  1.00  0.00     0.091 A 
ATOM     72  F   UNL A   1      38.644  30.809  36.374  1.00  0.00    -0.205 F 
ATOM     73  C   UNL A   1      39.926  33.937  37.787  1.00  0.00     0.022 A 
BRANCH  71  74
ATOM     74  S   UNL A   1      37.677  32.655  38.663  1.00  0.00     0.127 S 
ATOM     75  O   UNL A   1      37.927  33.712  39.642  1.00  0.00    -0.237 OA
ATOM     76  O   UNL A   1      36.568  32.923  37.746  1.00  0.00    -0.237 OA
ATOM     77  O   UNL A   1      37.720  31.297  39.188  1.00  0.00    -0.744 OA
ENDBRANCH  71  74
ENDBRANCH  53  67
BRANCH  54  78
ATOM     78  C   UNL A   1      42.205  26.529  27.618  1.00  0.00     0.023 A 
ATOM     79  C   UNL A   1      42.839  27.137  26.516  1.00  0.00     0.012 A 
ATOM     80  C   UNL A   1      41.876  25.162  27.551  1.00  0.00     0.148 A 
ATOM     81  C   UNL A   1      43.102  26.410  25.355  1.00  0.00     0.002 A 
ATOM     82  C   UNL A   1      42.191  24.429  26.411  1.00  0.00     0.091 A 
ATOM     83  F   UNL A   1      41.263  24.602  28.603  1.00  0.00    -0.205 F 
ATOM     84  C   UNL A   1      42.786  25.055  25.306  1.00  0.00     0.022 A 
BRANCH  82  85
ATOM     85  S   UNL A   1      41.936  22.654  26.312  1.00  0.00     0.127 S 
ATOM     86  O   UNL A   1      40.479  22.559  26.338  1.00  0.00    -0.237 OA
ATOM     87  O   UNL A   1      42.552  22.329  25.025  1.00  0.00    -0.237 OA
ATOM     88  O   UNL A   1      42.632  22.098  27.465  1.00  0.00    -0.744 OA
ENDBRANCH  82  85
ENDBRANCH  54  78
BRANCH  66  89
ATOM     89  C   UNL A   1      45.029  26.831  33.989  1.00  0.00     0.023 A 
ATOM     90  C   UNL A   1      46.348  27.312  33.876  1.00  0.00     0.012 A 
ATOM     91  C   UNL A   1      44.773  25.686  34.767  1.00  0.00     0.148 A 
ATOM     92  C   UNL A   1      47.401  26.642  34.497  1.00  0.00     0.002 A 
ATOM     93  C   UNL A   1      45.821  25.053  35.424  1.00  0.00     0.091 A 
ATOM     94  F   UNL A   1      43.514  25.233  34.849  1.00  0.00    -0.205 F 
ATOM     95  C   UNL A   1      47.137  25.521  35.280  1.00  0.00     0.022 A 
BRANCH  93  96
ATOM     96  S   UNL A   1      45.560  23.662  36.531  1.00  0.00     0.127 S 
ATOM     97  O   UNL A   1      46.929  23.334  36.926  1.00  0.00    -0.237 OA
ATOM     98  O   UNL A   1      44.746  24.257  37.593  1.00  0.00    -0.237 OA
ATOM     99  O   UNL A   1      44.874  22.647  35.744  1.00  0.00    -0.744 OA
ENDBRANCH  93  96
ENDBRANCH  66  89
ENDBRANCH  40  41
ENDBRANCH  32  35
ENDBRANCH  30  31
ENDBRANCH  29  30
ENDBRANCH   1  29
TORSDOF 18
ENDMDL
MODEL 2
REMARK VINA RESULT:     -12.8      2.551      3.159
REMARK SMILES Cc1nn(C)c(C)c1C[C@@H](C)C(=O)N[C@@H](C(=O)NCCCNC(=O)c1ccc(-c2c3nc(c(-c4cccc(S(=O)(=O)[O-])c4F)c4ccc([nH]4)c(-c4cccc(S(=O)(=O)[O-])c4F)c4nc(c(-c5cccc(S(=O)(=O)[O-])c5F)c5ccc2[nH]5)C=C4)C=C3)cc1)c1ccccc1Cl
REMARK SMILES IDX 19 1 18 2 16 3 17 4 15 6 14 7 12 8 13 9 10 11 11 12 9 13
REMARK SMILES IDX 8 14 1 15 2 16 3 17 4 18 6 19 5 20 7 21 88 22 89 23 93 24
REMARK SMILES IDX 90 25 92 26 94 27 91 28 20 29 21 30 22 31 23 32 24 34 25 35
REMARK SMILES IDX 26 36 87 37 27 38 86 39 28 40 29 41 30 42 80 43 31 44 85 45
REMARK SMILES IDX 79 46 81 47 32 48 84 49 78 50 77 51 33 53 65 54 45 55 64 56
REMARK SMILES IDX 46 57 49 58 63 59 82 60 47 61 48 62 62 64 83 65 50 66 34 67
REMARK SMILES IDX 35 68 43 69 36 70 38 71 44 72 37 73 39 74 40 75 41 76 42 77
REMARK SMILES IDX 66 78 67 79 75 80 68 81 70 82 76 83 69 84 71 85 72 86 73 87
REMARK SMILES IDX 74 88 51 89 52 90 60 91 53 92 55 93 61 94 54 95 56 96 57 97
REMARK SMILES IDX 58 98 59 99
REMARK H PARENT 18 5 14 10 22 33 81 52 49 63
REMARK Flexibility Score: inf
ROOT
ATOM      1  C   UNL A   1      31.925  29.330  25.396  1.00  0.00     0.117 C 
ENDROOT
BRANCH   1   2
ATOM      2  N   UNL A   1      33.032  29.265  24.476  1.00  0.00    -0.354 N 
ATOM      3  C   UNL A   1      33.076  28.679  23.237  1.00  0.00     0.247 C 
ATOM      4  O   UNL A   1      33.952  29.105  22.475  1.00  0.00    -0.272 OA
ATOM      5  H   UNL A   1      33.864  29.698  24.775  1.00  0.00     0.163 HD
BRANCH   3   6
ATOM      6  C   UNL A   1      31.960  27.681  22.742  1.00  0.00     0.203 C 
BRANCH   6   7
ATOM      7  N   UNL A   1      32.252  26.974  21.489  1.00  0.00    -0.340 N 
ATOM      8  C   UNL A   1      32.701  25.727  21.186  1.00  0.00     0.224 C 
ATOM      9  O   UNL A   1      32.913  25.496  19.992  1.00  0.00    -0.275 OA
ATOM     10  H   UNL A   1      32.086  27.526  20.691  1.00  0.00     0.164 HD
BRANCH   8  11
ATOM     11  C   UNL A   1      32.941  24.616  22.220  1.00  0.00     0.080 C 
ATOM     12  C   UNL A   1      31.599  24.108  22.721  1.00  0.00     0.018 C 
BRANCH  11  13
ATOM     13  C   UNL A   1      33.997  25.004  23.263  1.00  0.00     0.052 C 
BRANCH  13  14
ATOM     14  C   UNL A   1      34.305  24.085  24.397  1.00  0.00    -0.003 A 
ATOM     15  C   UNL A   1      36.561  22.985  23.572  1.00  0.00     0.069 C 
ATOM     16  C   UNL A   1      35.423  23.202  24.508  1.00  0.00     0.063 A 
ATOM     17  N   UNL A   1      35.435  22.573  25.688  1.00  0.00    -0.178 NA
ATOM     18  N   UNL A   1      34.388  23.083  26.350  1.00  0.00    -0.272 N 
ATOM     19  C   UNL A   1      33.744  24.078  25.666  1.00  0.00     0.038 A 
ATOM     20  C   UNL A   1      34.129  22.604  27.685  1.00  0.00     0.174 C 
ATOM     21  C   UNL A   1      32.714  24.949  26.285  1.00  0.00     0.066 C 
ENDBRANCH  13  14
ENDBRANCH  11  13
ENDBRANCH   8  11
ENDBRANCH   6   7
BRANCH   6  22
ATOM     22  C   UNL A   1      30.607  28.378  22.647  1.00  0.00     0.002 A 
ATOM     23  C   UNL A   1      30.512  29.578  21.912  1.00  0.00     0.008 A 
ATOM     24  C   UNL A   1      29.435  27.864  23.226  1.00  0.00     0.046 A 
ATOM     25  C   UNL A   1      29.296  30.246  21.771  1.00  0.00     0.000 A 
ATOM     26  C   UNL A   1      28.214  28.530  23.071  1.00  0.00     0.021 A 
ATOM     27  Cl  UNL A   1      29.429  26.403  24.150  1.00  0.00    -0.084 Cl
ATOM     28  C   UNL A   1      28.145  29.720  22.349  1.00  0.00     0.002 A 
ENDBRANCH   6  22
ENDBRANCH   3   6
ENDBRANCH   1   2
BRANCH   1  29
ATOM     29  C   UNL A   1      32.078  28.511  26.656  1.00  0.00     0.042 C 
BRANCH  29  30
ATOM     30  C   UNL A   1      33.324  28.852  27.448  1.00  0.00     0.118 C 
BRANCH  30  31
ATOM     31  N   UNL A   1      33.499  30.290  27.647  1.00  0.00    -0.352 N 
ATOM     32  C   UNL A   1      34.553  30.994  28.178  1.00  0.00     0.251 C 
ATOM     33  H   UNL A   1      32.740  30.843  27.351  1.00  0.00     0.163 HD
ATOM     34  O   UNL A   1      34.425  32.197  28.394  1.00  0.00    -0.269 OA
BRANCH  32  35
ATOM     35  C   UNL A   1      35.819  30.307  28.515  1.00  0.00     0.039 A 
ATOM     36  C   UNL A   1      36.877  30.342  27.603  1.00  0.00     0.014 A 
ATOM     37  C   UNL A   1      35.972  29.644  29.732  1.00  0.00     0.014 A 
ATOM     38  C   UNL A   1      38.111  29.786  27.954  1.00  0.00     0.010 A 
ATOM     39  C   UNL A   1      37.229  29.204  30.127  1.00  0.00     0.010 A 
ATOM     40  C   UNL A   1      38.311  29.258  29.239  1.00  0.00    -0.014 A 
BRANCH  40  41
ATOM     41  C   UNL A   1      39.638  28.757  29.681  1.00  0.00     0.031 A 
ATOM     42  C   UNL A   1      40.394  29.476  30.769  1.00  0.00     0.074 A 
ATOM     43  C   UNL A   1      40.203  27.715  29.038  1.00  0.00     0.049 A 
ATOM     44  N   UNL A   1      41.590  29.233  31.239  1.00  0.00    -0.248 NA
ATOM     45  C   UNL A   1      39.739  30.645  31.383  1.00  0.00     0.031 C 
ATOM     46  C   UNL A   1      39.617  26.997  27.903  1.00  0.00     0.029 A 
ATOM     47  N   UNL A   1      41.412  27.094  29.230  1.00  0.00    -0.354 N 
ATOM     48  C   UNL A   1      41.843  30.234  32.170  1.00  0.00     0.074 A 
ATOM     49  C   UNL A   1      40.699  31.116  32.166  1.00  0.00     0.031 C 
ATOM     50  C   UNL A   1      40.458  26.027  27.512  1.00  0.00     0.029 A 
ATOM     51  C   UNL A   1      41.655  26.071  28.343  1.00  0.00     0.049 A 
ATOM     52  H   UNL A   1      42.045  27.355  29.937  1.00  0.00     0.167 HD
ATOM     53  C   UNL A   1      42.914  30.385  32.985  1.00  0.00     0.034 A 
ATOM     54  C   UNL A   1      42.724  25.262  28.213  1.00  0.00     0.034 A 
ATOM     55  C   UNL A   1      44.021  29.471  33.030  1.00  0.00     0.049 A 
ATOM     56  C   UNL A   1      43.873  25.415  29.174  1.00  0.00     0.074 A 
ATOM     57  C   UNL A   1      45.110  29.481  33.885  1.00  0.00     0.029 A 
ATOM     58  N   UNL A   1      44.184  28.384  32.186  1.00  0.00    -0.354 N 
ATOM     59  N   UNL A   1      44.016  26.266  30.160  1.00  0.00    -0.248 NA
ATOM     60  C   UNL A   1      44.990  24.470  29.030  1.00  0.00     0.031 C 
ATOM     61  C   UNL A   1      45.939  28.406  33.546  1.00  0.00     0.029 A 
ATOM     62  C   UNL A   1      45.356  27.716  32.496  1.00  0.00     0.049 A 
ATOM     63  H   UNL A   1      43.558  28.125  31.471  1.00  0.00     0.167 HD
ATOM     64  C   UNL A   1      45.219  25.938  30.774  1.00  0.00     0.074 A 
ATOM     65  C   UNL A   1      45.751  24.793  30.066  1.00  0.00     0.031 C 
ATOM     66  C   UNL A   1      45.840  26.542  31.818  1.00  0.00     0.034 A 
BRANCH  53  67
ATOM     67  C   UNL A   1      42.904  31.541  33.952  1.00  0.00     0.023 A 
ATOM     68  C   UNL A   1      43.372  32.802  33.528  1.00  0.00     0.012 A 
ATOM     69  C   UNL A   1      42.373  31.400  35.249  1.00  0.00     0.148 A 
ATOM     70  C   UNL A   1      43.340  33.898  34.388  1.00  0.00     0.002 A 
ATOM     71  C   UNL A   1      42.303  32.509  36.086  1.00  0.00     0.091 A 
ATOM     72  F   UNL A   1      41.953  30.190  35.641  1.00  0.00    -0.205 F 
ATOM     73  C   UNL A   1      42.796  33.754  35.661  1.00  0.00     0.022 A 
BRANCH  71  74
ATOM     74  S   UNL A   1      41.550  32.452  37.715  1.00  0.00     0.127 S 
ATOM     75  O   UNL A   1      41.737  33.828  38.175  1.00  0.00    -0.237 OA
ATOM     76  O   UNL A   1      40.165  32.098  37.400  1.00  0.00    -0.237 OA
ATOM     77  O   UNL A   1      42.283  31.441  38.463  1.00  0.00    -0.744 OA
ENDBRANCH  71  74
ENDBRANCH  53  67
BRANCH  54  78
ATOM     78  C   UNL A   1      42.733  24.185  27.181  1.00  0.00     0.023 A 
ATOM     79  C   UNL A   1      43.388  24.411  25.954  1.00  0.00     0.012 A 
ATOM     80  C   UNL A   1      42.110  22.943  27.408  1.00  0.00     0.148 A 
ATOM     81  C   UNL A   1      43.386  23.436  24.956  1.00  0.00     0.002 A 
ATOM     82  C   UNL A   1      42.161  21.955  26.429  1.00  0.00     0.091 A 
ATOM     83  F   UNL A   1      41.482  22.750  28.575  1.00  0.00    -0.205 F 
ATOM     84  C   UNL A   1      42.781  22.206  25.196  1.00  0.00     0.022 A 
BRANCH  82  85
ATOM     85  S   UNL A   1      41.518  20.301  26.705  1.00  0.00     0.127 S 
ATOM     86  O   UNL A   1      40.095  20.560  26.898  1.00  0.00    -0.237 OA
ATOM     87  O   UNL A   1      41.857  19.630  25.449  1.00  0.00    -0.237 OA
ATOM     88  O   UNL A   1      42.238  19.794  27.865  1.00  0.00    -0.744 OA
ENDBRANCH  82  85
ENDBRANCH  54  78
BRANCH  66  89
ATOM     89  C   UNL A   1      47.147  25.958  32.283  1.00  0.00     0.023 A 
ATOM     90  C   UNL A   1      47.168  25.079  33.383  1.00  0.00     0.012 A 
ATOM     91  C   UNL A   1      48.343  26.227  31.588  1.00  0.00     0.148 A 
ATOM     92  C   UNL A   1      48.364  24.505  33.809  1.00  0.00     0.002 A 
ATOM     93  C   UNL A   1      49.523  25.612  31.988  1.00  0.00     0.091 A 
ATOM     94  F   UNL A   1      48.306  27.080  30.555  1.00  0.00    -0.205 F 
ATOM     95  C   UNL A   1      49.539  24.762  33.105  1.00  0.00     0.022 A 
BRANCH  93  96
ATOM     96  S   UNL A   1      51.062  25.808  31.082  1.00  0.00     0.127 S 
ATOM     97  O   UNL A   1      50.678  25.363  29.743  1.00  0.00    -0.237 OA
ATOM     98  O   UNL A   1      51.312  27.246  31.198  1.00  0.00    -0.237 OA
ATOM     99  O   UNL A   1      52.038  24.970  31.765  1.00  0.00    -0.744 OA
ENDBRANCH  93  96
ENDBRANCH  66  89
ENDBRANCH  40  41
ENDBRANCH  32  35
ENDBRANCH  30  31
ENDBRANCH  29  30
ENDBRANCH   1  29
TORSDOF 18
ENDMDL
MODEL 3
REMARK VINA RESULT:     -12.7      1.626      2.026
REMARK SMILES Cc1nn(C)c(C)c1C[C@@H](C)C(=O)N[C@@H](C(=O)NCCCNC(=O)c1ccc(-c2c3nc(c(-c4cccc(S(=O)(=O)[O-])c4F)c4ccc([nH]4)c(-c4cccc(S(=O)(=O)[O-])c4F)c4nc(c(-c5cccc(S(=O)(=O)[O-])c5F)c5ccc2[nH]5)C=C4)C=C3)cc1)c1ccccc1Cl
REMARK SMILES IDX 19 1 18 2 16 3 17 4 15 6 14 7 12 8 13 9 10 11 11 12 9 13
REMARK SMILES IDX 8 14 1 15 2 16 3 17 4 18 6 19 5 20 7 21 88 22 89 23 93 24
REMARK SMILES IDX 90 25 92 26 94 27 91 28 20 29 21 30 22 31 23 32 24 34 25 35
REMARK SMILES IDX 26 36 87 37 27 38 86 39 28 40 29 41 30 42 80 43 31 44 85 45
REMARK SMILES IDX 79 46 81 47 32 48 84 49 78 50 77 51 33 53 65 54 45 55 64 56
REMARK SMILES IDX 46 57 49 58 63 59 82 60 47 61 48 62 62 64 83 65 50 66 34 67
REMARK SMILES IDX 35 68 43 69 36 70 38 71 44 72 37 73 39 74 40 75 41 76 42 77
REMARK SMILES IDX 66 78 67 79 75 80 68 81 70 82 76 83 69 84 71 85 72 86 73 87
REMARK SMILES IDX 74 88 51 89 52 90 60 91 53 92 55 93 61 94 54 95 56 96 57 97
REMARK SMILES IDX 58 98 59 99
REMARK H PARENT 18 5 14 10 22 33 81 52 49 63
REMARK Flexibility Score: inf
ROOT
ATOM      1  C   UNL A   1      32.197  28.918  25.219  1.00  0.00     0.117 C 
ENDROOT
BRANCH   1   2
ATOM      2  N   UNL A   1      31.369  27.840  25.695  1.00  0.00    -0.354 N 
ATOM      3  C   UNL A   1      30.735  26.867  24.967  1.00  0.00     0.247 C 
ATOM      4  O   UNL A   1      30.451  25.835  25.586  1.00  0.00    -0.272 OA
ATOM      5  H   UNL A   1      31.243  27.796  26.671  1.00  0.00     0.163 HD
BRANCH   3   6
ATOM      6  C   UNL A   1      30.564  26.969  23.402  1.00  0.00     0.203 C 
BRANCH   6   7
ATOM      7  N   UNL A   1      31.808  27.113  22.637  1.00  0.00    -0.340 N 
ATOM      8  C   UNL A   1      33.021  26.498  22.672  1.00  0.00     0.224 C 
ATOM      9  O   UNL A   1      33.884  26.944  21.911  1.00  0.00    -0.275 OA
ATOM     10  H   UNL A   1      31.753  27.810  21.943  1.00  0.00     0.164 HD
BRANCH   8  11
ATOM     11  C   UNL A   1      33.361  25.303  23.576  1.00  0.00     0.080 C 
ATOM     12  C   UNL A   1      34.187  25.792  24.754  1.00  0.00     0.018 C 
BRANCH  11  13
ATOM     13  C   UNL A   1      33.887  24.099  22.781  1.00  0.00     0.052 C 
BRANCH  13  14
ATOM     14  C   UNL A   1      34.190  22.815  23.478  1.00  0.00    -0.003 A 
ATOM     15  C   UNL A   1      36.793  23.042  23.873  1.00  0.00     0.069 C 
ATOM     16  C   UNL A   1      35.467  22.366  23.936  1.00  0.00     0.063 A 
ATOM     17  N   UNL A   1      35.373  21.201  24.585  1.00  0.00    -0.178 NA
ATOM     18  N   UNL A   1      34.060  20.934  24.604  1.00  0.00    -0.272 N 
ATOM     19  C   UNL A   1      33.294  21.927  24.055  1.00  0.00     0.038 A 
ATOM     20  C   UNL A   1      33.621  19.723  25.253  1.00  0.00     0.174 C 
ATOM     21  C   UNL A   1      31.815  21.967  24.175  1.00  0.00     0.066 C 
ENDBRANCH  13  14
ENDBRANCH  11  13
ENDBRANCH   8  11
ENDBRANCH   6   7
BRANCH   6  22
ATOM     22  C   UNL A   1      29.589  28.081  23.030  1.00  0.00     0.002 A 
ATOM     23  C   UNL A   1      30.083  29.224  22.368  1.00  0.00     0.008 A 
ATOM     24  C   UNL A   1      28.209  28.008  23.281  1.00  0.00     0.046 A 
ATOM     25  C   UNL A   1      29.233  30.260  21.982  1.00  0.00     0.000 A 
ATOM     26  C   UNL A   1      27.357  29.044  22.881  1.00  0.00     0.021 A 
ATOM     27  Cl  UNL A   1      27.489  26.658  24.087  1.00  0.00    -0.084 Cl
ATOM     28  C   UNL A   1      27.869  30.169  22.236  1.00  0.00     0.002 A 
ENDBRANCH   6  22
ENDBRANCH   3   6
ENDBRANCH   1   2
BRANCH   1  29
ATOM     29  C   UNL A   1      31.697  30.309  25.528  1.00  0.00     0.042 C 
BRANCH  29  30
ATOM     30  C   UNL A   1      32.061  30.784  26.920  1.00  0.00     0.118 C 
BRANCH  30  31
ATOM     31  N   UNL A   1      32.211  32.235  27.007  1.00  0.00    -0.352 N 
ATOM     32  C   UNL A   1      33.211  32.996  27.563  1.00  0.00     0.251 C 
ATOM     33  H   UNL A   1      31.477  32.751  26.601  1.00  0.00     0.163 HD
ATOM     34  O   UNL A   1      33.060  34.212  27.662  1.00  0.00    -0.269 OA
BRANCH  32  35
ATOM     35  C   UNL A   1      34.448  32.357  28.065  1.00  0.00     0.039 A 
ATOM     36  C   UNL A   1      35.625  33.106  28.130  1.00  0.00     0.014 A 
ATOM     37  C   UNL A   1      34.446  31.027  28.485  1.00  0.00     0.014 A 
ATOM     38  C   UNL A   1      36.772  32.545  28.698  1.00  0.00     0.010 A 
ATOM     39  C   UNL A   1      35.546  30.514  29.161  1.00  0.00     0.010 A 
ATOM     40  C   UNL A   1      36.727  31.261  29.264  1.00  0.00    -0.014 A 
BRANCH  40  41
ATOM     41  C   UNL A   1      37.896  30.676  29.970  1.00  0.00     0.031 A 
ATOM     42  C   UNL A   1      38.237  31.123  31.369  1.00  0.00     0.074 A 
ATOM     43  C   UNL A   1      38.704  29.815  29.318  1.00  0.00     0.049 A 
ATOM     44  N   UNL A   1      39.253  30.780  32.118  1.00  0.00    -0.248 NA
ATOM     45  C   UNL A   1      37.342  32.112  31.995  1.00  0.00     0.031 C 
ATOM     46  C   UNL A   1      38.539  29.381  27.928  1.00  0.00     0.029 A 
ATOM     47  N   UNL A   1      39.844  29.171  29.729  1.00  0.00    -0.354 N 
ATOM     48  C   UNL A   1      39.140  31.536  33.279  1.00  0.00     0.074 A 
ATOM     49  C   UNL A   1      37.986  32.390  33.119  1.00  0.00     0.031 C 
ATOM     50  C   UNL A   1      39.530  28.534  27.609  1.00  0.00     0.029 A 
ATOM     51  C   UNL A   1      40.417  28.386  28.756  1.00  0.00     0.049 A 
ATOM     52  H   UNL A   1      40.216  29.262  30.636  1.00  0.00     0.167 HD
ATOM     53  C   UNL A   1      39.905  31.496  34.396  1.00  0.00     0.034 A 
ATOM     54  C   UNL A   1      41.535  27.634  28.785  1.00  0.00     0.034 A 
ATOM     55  C   UNL A   1      41.015  30.602  34.575  1.00  0.00     0.049 A 
ATOM     56  C   UNL A   1      42.330  27.562  30.062  1.00  0.00     0.074 A 
ATOM     57  C   UNL A   1      41.795  30.415  35.703  1.00  0.00     0.029 A 
ATOM     58  N   UNL A   1      41.503  29.743  33.603  1.00  0.00    -0.354 N 
ATOM     59  N   UNL A   1      42.108  28.159  31.207  1.00  0.00    -0.248 NA
ATOM     60  C   UNL A   1      43.507  26.682  30.061  1.00  0.00     0.031 C 
ATOM     61  C   UNL A   1      42.766  29.453  35.406  1.00  0.00     0.029 A 
ATOM     62  C   UNL A   1      42.576  29.026  34.102  1.00  0.00     0.049 A 
ATOM     63  H   UNL A   1      41.140  29.657  32.692  1.00  0.00     0.167 HD
ATOM     64  C   UNL A   1      43.094  27.701  32.072  1.00  0.00     0.074 A 
ATOM     65  C   UNL A   1      43.898  26.756  31.326  1.00  0.00     0.031 C 
ATOM     66  C   UNL A   1      43.329  28.046  33.362  1.00  0.00     0.034 A 
BRANCH  53  67
ATOM     67  C   UNL A   1      39.520  32.393  35.544  1.00  0.00     0.023 A 
ATOM     68  C   UNL A   1      38.750  31.870  36.603  1.00  0.00     0.012 A 
ATOM     69  C   UNL A   1      39.972  33.726  35.610  1.00  0.00     0.148 A 
ATOM     70  C   UNL A   1      38.409  32.665  37.695  1.00  0.00     0.002 A 
ATOM     71  C   UNL A   1      39.667  34.499  36.724  1.00  0.00     0.091 A 
ATOM     72  F   UNL A   1      40.684  34.212  34.584  1.00  0.00    -0.205 F 
ATOM     73  C   UNL A   1      38.877  33.975  37.761  1.00  0.00     0.022 A 
BRANCH  71  74
ATOM     74  S   UNL A   1      40.284  36.171  36.946  1.00  0.00     0.127 S 
ATOM     75  O   UNL A   1      39.928  36.789  35.669  1.00  0.00    -0.237 OA
ATOM     76  O   UNL A   1      39.498  36.639  38.089  1.00  0.00    -0.237 OA
ATOM     77  O   UNL A   1      41.712  36.044  37.199  1.00  0.00    -0.744 OA
ENDBRANCH  71  74
ENDBRANCH  53  67
BRANCH  54  78
ATOM     78  C   UNL A   1      41.932  26.829  27.594  1.00  0.00     0.023 A 
ATOM     79  C   UNL A   1      42.580  27.466  26.516  1.00  0.00     0.012 A 
ATOM     80  C   UNL A   1      41.684  25.446  27.524  1.00  0.00     0.148 A 
ATOM     81  C   UNL A   1      42.935  26.748  25.374  1.00  0.00     0.002 A 
ATOM     82  C   UNL A   1      42.091  24.725  26.405  1.00  0.00     0.091 A 
ATOM     83  F   UNL A   1      41.056  24.859  28.551  1.00  0.00    -0.205 F 
ATOM     84  C   UNL A   1      42.699  25.377  25.322  1.00  0.00     0.022 A 
BRANCH  82  85
ATOM     85  S   UNL A   1      41.941  22.938  26.310  1.00  0.00     0.127 S 
ATOM     86  O   UNL A   1      42.693  22.511  27.487  1.00  0.00    -0.237 OA
ATOM     87  O   UNL A   1      40.493  22.749  26.403  1.00  0.00    -0.237 OA
ATOM     88  O   UNL A   1      42.511  22.570  25.021  1.00  0.00    -0.744 OA
ENDBRANCH  82  85
ENDBRANCH  54  78
BRANCH  66  89
ATOM     89  C   UNL A   1      44.478  27.374  34.065  1.00  0.00     0.023 A 
ATOM     90  C   UNL A   1      45.766  27.940  33.998  1.00  0.00     0.012 A 
ATOM     91  C   UNL A   1      44.268  26.220  34.844  1.00  0.00     0.148 A 
ATOM     92  C   UNL A   1      46.835  27.347  34.666  1.00  0.00     0.002 A 
ATOM     93  C   UNL A   1      45.328  25.663  35.548  1.00  0.00     0.091 A 
ATOM     94  F   UNL A   1      43.039  25.685  34.881  1.00  0.00    -0.205 F 
ATOM     95  C   UNL A   1      46.615  26.217  35.450  1.00  0.00     0.022 A 
BRANCH  93  96
ATOM     96  S   UNL A   1      45.116  24.267  36.659  1.00  0.00     0.127 S 
ATOM     97  O   UNL A   1      46.481  24.062  37.144  1.00  0.00    -0.237 OA
ATOM     98  O   UNL A   1      44.188  24.801  37.658  1.00  0.00    -0.237 OA
ATOM     99  O   UNL A   1      44.571  23.188  35.847  1.00  0.00    -0.744 OA
ENDBRANCH  93  96
ENDBRANCH  66  89
ENDBRANCH  40  41
ENDBRANCH  32  35
ENDBRANCH  30  31
ENDBRANCH  29  30
ENDBRANCH   1  29
TORSDOF 18
ENDMDL
