MODEL 1
REMARK VINA RESULT:     -12.5      0.000      0.000
REMARK SMILES Cc1ccc(C)c(S(=O)(=O)N[C@H](CC2=c3ccccc3=NC2)C(=O)NCCCNC(=O)c2ccc(-c3c4nc(c(-c5cccc(S(=O)(=O)[O-])c5F)c5ccc([nH]5)c(-c5cccc(S(=O)(=O)[O-])c5F)c5nc(c(-c6cccc(S(=O)(=O)[O-])c6F)c6ccc3[nH]6)C=C5)C=C4)cc2)c1
REMARK SMILES IDX 27 1 26 2 25 3 23 4 24 5 12 7 11 8 8 10 9 11 10 12 7 13 1 14
REMARK SMILES IDX 2 15 3 16 95 17 4 18 5 19 6 20 13 21 14 22 15 23 22 24 16 25
REMARK SMILES IDX 20 26 21 27 17 28 19 29 18 30 28 31 29 32 30 33 31 35 32 36
REMARK SMILES IDX 33 37 94 38 34 39 93 40 35 41 36 42 37 43 87 44 38 45 92 46
REMARK SMILES IDX 86 47 88 48 39 49 91 50 85 51 84 52 40 54 72 55 52 56 71 57
REMARK SMILES IDX 53 58 56 59 70 60 89 61 54 62 55 63 69 65 90 66 57 67 41 68
REMARK SMILES IDX 42 69 50 70 43 71 45 72 51 73 44 74 46 75 47 76 48 77 49 78
REMARK SMILES IDX 73 79 74 80 82 81 75 82 77 83 83 84 76 85 78 86 79 87 80 88
REMARK SMILES IDX 81 89 58 90 59 91 67 92 60 93 62 94 68 95 61 96 63 97 64 98
REMARK SMILES IDX 65 99 66 100
REMARK H PARENT 25 6 11 9 29 34 88 53 56 64
REMARK Flexibility Score: inf
ROOT
ATOM      1  C   UNL A   1      34.467  29.724  27.612  1.00  0.00     0.042 C 
ENDROOT
BRANCH   1   2
ATOM      2  C   UNL A   1      33.249  29.646  26.689  1.00  0.00     0.117 C 
BRANCH   2   3
ATOM      3  N   UNL A   1      33.464  29.692  25.248  1.00  0.00    -0.355 N 
ATOM      4  C   UNL A   1      33.208  28.878  24.177  1.00  0.00     0.238 C 
ATOM      5  O   UNL A   1      33.477  29.359  23.072  1.00  0.00    -0.273 OA
ATOM      6  H   UNL A   1      33.909  30.527  24.973  1.00  0.00     0.163 HD
BRANCH   4   7
ATOM      7  C   UNL A   1      32.640  27.453  24.292  1.00  0.00     0.163 C 
BRANCH   7   8
ATOM      8  N   UNL A   1      31.907  27.150  23.016  1.00  0.00    -0.198 NA
ATOM      9  H   UNL A   1      31.034  26.697  23.284  1.00  0.00     0.142 HD
BRANCH   8  10
ATOM     10  S   UNL A   1      32.597  26.188  21.826  1.00  0.00     0.241 S 
ATOM     11  O   UNL A   1      33.832  26.806  21.389  1.00  0.00    -0.207 OA
ATOM     12  O   UNL A   1      31.508  25.935  20.911  1.00  0.00    -0.207 OA
BRANCH  10  13
ATOM     13  C   UNL A   1      32.955  24.651  22.628  1.00  0.00     0.085 A 
ATOM     14  C   UNL A   1      36.071  22.576  23.289  1.00  0.00     0.044 C 
ATOM     15  C   UNL A   1      34.635  23.006  23.253  1.00  0.00    -0.050 A 
ATOM     16  C   UNL A   1      33.613  22.151  23.664  1.00  0.00     0.004 A 
ATOM     17  C   UNL A   1      34.295  24.269  22.770  1.00  0.00     0.025 A 
ATOM     18  C   UNL A   1      32.275  22.557  23.594  1.00  0.00     0.005 A 
ATOM     19  C   UNL A   1      31.921  23.815  23.076  1.00  0.00    -0.031 A 
ATOM     20  C   UNL A   1      30.462  24.176  23.041  1.00  0.00     0.046 C 
ENDBRANCH  10  13
ENDBRANCH   8  10
ENDBRANCH   7   8
BRANCH   7  21
ATOM     21  C   UNL A   1      31.723  27.147  25.527  1.00  0.00     0.063 C 
BRANCH  21  22
ATOM     22  C   UNL A   1      31.664  25.787  26.186  1.00  0.00    -0.037 C 
ATOM     23  C   UNL A   1      32.609  24.879  26.455  1.00  0.00     0.001 A 
ATOM     24  C   UNL A   1      30.333  25.192  26.490  1.00  0.00     0.174 C 
ATOM     25  C   UNL A   1      34.027  24.769  26.305  1.00  0.00     0.010 A 
ATOM     26  C   UNL A   1      31.829  23.725  26.963  1.00  0.00     0.065 A 
ATOM     27  N   UNL A   1      30.533  23.811  26.946  1.00  0.00    -0.280 NA
ATOM     28  C   UNL A   1      34.635  23.631  26.692  1.00  0.00     0.001 A 
ATOM     29  C   UNL A   1      32.568  22.538  27.424  1.00  0.00     0.028 A 
ATOM     30  C   UNL A   1      33.902  22.526  27.286  1.00  0.00     0.002 A 
ENDBRANCH  21  22
ENDBRANCH   7  21
ENDBRANCH   4   7
ENDBRANCH   2   3
ENDBRANCH   1   2
BRANCH   1  31
ATOM     31  C   UNL A   1      35.169  31.060  27.754  1.00  0.00     0.118 C 
BRANCH  31  32
ATOM     32  N   UNL A   1      34.670  31.873  28.850  1.00  0.00    -0.352 N 
ATOM     33  C   UNL A   1      35.108  31.891  30.159  1.00  0.00     0.251 C 
ATOM     34  H   UNL A   1      33.931  32.486  28.632  1.00  0.00     0.163 HD
ATOM     35  O   UNL A   1      34.519  32.573  30.992  1.00  0.00    -0.269 OA
BRANCH  33  36
ATOM     36  C   UNL A   1      36.393  31.235  30.488  1.00  0.00     0.039 A 
ATOM     37  C   UNL A   1      37.550  31.976  30.236  1.00  0.00     0.014 A 
ATOM     38  C   UNL A   1      36.471  29.872  30.777  1.00  0.00     0.014 A 
ATOM     39  C   UNL A   1      38.746  31.305  30.036  1.00  0.00     0.010 A 
ATOM     40  C   UNL A   1      37.634  29.192  30.482  1.00  0.00     0.010 A 
ATOM     41  C   UNL A   1      38.751  29.907  30.055  1.00  0.00    -0.014 A 
BRANCH  41  42
ATOM     42  C   UNL A   1      40.004  29.197  29.870  1.00  0.00     0.031 A 
ATOM     43  C   UNL A   1      40.674  28.947  31.166  1.00  0.00     0.074 A 
ATOM     44  C   UNL A   1      40.441  28.670  28.710  1.00  0.00     0.049 A 
ATOM     45  N   UNL A   1      41.566  29.686  31.743  1.00  0.00    -0.248 NA
ATOM     46  C   UNL A   1      40.104  27.903  32.034  1.00  0.00     0.031 C 
ATOM     47  C   UNL A   1      39.711  28.513  27.452  1.00  0.00     0.029 A 
ATOM     48  N   UNL A   1      41.626  28.045  28.458  1.00  0.00    -0.354 N 
ATOM     49  C   UNL A   1      41.834  29.028  32.937  1.00  0.00     0.074 A 
ATOM     50  C   UNL A   1      40.713  28.164  33.191  1.00  0.00     0.031 C 
ATOM     51  C   UNL A   1      40.380  27.641  26.656  1.00  0.00     0.029 A 
ATOM     52  C   UNL A   1      41.642  27.292  27.286  1.00  0.00     0.049 A 
ATOM     53  H   UNL A   1      42.404  28.121  29.054  1.00  0.00     0.167 HD
ATOM     54  C   UNL A   1      43.099  28.929  33.428  1.00  0.00     0.034 A 
ATOM     55  C   UNL A   1      42.605  26.399  26.939  1.00  0.00     0.034 A 
ATOM     56  C   UNL A   1      44.020  29.746  32.688  1.00  0.00     0.049 A 
ATOM     57  C   UNL A   1      43.816  26.764  27.715  1.00  0.00     0.074 A 
ATOM     58  C   UNL A   1      44.236  31.092  32.496  1.00  0.00     0.029 A 
ATOM     59  N   UNL A   1      44.621  29.080  31.650  1.00  0.00    -0.354 N 
ATOM     60  N   UNL A   1      44.471  27.880  27.562  1.00  0.00    -0.248 NA
ATOM     61  C   UNL A   1      44.128  26.018  28.928  1.00  0.00     0.031 C 
ATOM     62  C   UNL A   1      44.748  31.214  31.170  1.00  0.00     0.029 A 
ATOM     63  C   UNL A   1      44.868  29.939  30.615  1.00  0.00     0.049 A 
ATOM     64  H   UNL A   1      44.842  28.121  31.650  1.00  0.00     0.167 HD
ATOM     65  C   UNL A   1      44.917  28.188  28.836  1.00  0.00     0.074 A 
ATOM     66  C   UNL A   1      44.840  26.939  29.581  1.00  0.00     0.031 C 
ATOM     67  C   UNL A   1      44.997  29.486  29.246  1.00  0.00     0.034 A 
BRANCH  54  68
ATOM     68  C   UNL A   1      43.584  27.751  34.236  1.00  0.00     0.023 A 
ATOM     69  C   UNL A   1      44.150  27.999  35.500  1.00  0.00     0.012 A 
ATOM     70  C   UNL A   1      43.724  26.442  33.715  1.00  0.00     0.148 A 
ATOM     71  C   UNL A   1      44.782  26.981  36.225  1.00  0.00     0.002 A 
ATOM     72  C   UNL A   1      44.254  25.412  34.478  1.00  0.00     0.091 A 
ATOM     73  F   UNL A   1      43.482  26.213  32.419  1.00  0.00    -0.205 F 
ATOM     74  C   UNL A   1      44.806  25.680  35.730  1.00  0.00     0.022 A 
BRANCH  72  75
ATOM     75  S   UNL A   1      44.240  23.715  33.893  1.00  0.00     0.127 S 
ATOM     76  O   UNL A   1      45.284  23.110  34.714  1.00  0.00    -0.237 OA
ATOM     77  O   UNL A   1      42.875  23.298  34.214  1.00  0.00    -0.237 OA
ATOM     78  O   UNL A   1      44.512  23.800  32.462  1.00  0.00    -0.744 OA
ENDBRANCH  72  75
ENDBRANCH  54  68
BRANCH  55  79
ATOM     79  C   UNL A   1      42.539  25.097  26.222  1.00  0.00     0.023 A 
ATOM     80  C   UNL A   1      43.638  24.707  25.421  1.00  0.00     0.012 A 
ATOM     81  C   UNL A   1      41.601  24.103  26.579  1.00  0.00     0.148 A 
ATOM     82  C   UNL A   1      43.849  23.367  25.073  1.00  0.00     0.002 A 
ATOM     83  C   UNL A   1      41.810  22.771  26.222  1.00  0.00     0.091 A 
ATOM     84  F   UNL A   1      40.563  24.439  27.354  1.00  0.00    -0.205 F 
ATOM     85  C   UNL A   1      42.945  22.396  25.490  1.00  0.00     0.022 A 
BRANCH  83  86
ATOM     86  S   UNL A   1      40.696  21.454  26.737  1.00  0.00     0.127 S 
ATOM     87  O   UNL A   1      41.316  20.273  26.135  1.00  0.00    -0.237 OA
ATOM     88  O   UNL A   1      40.798  21.517  28.193  1.00  0.00    -0.237 OA
ATOM     89  O   UNL A   1      39.391  21.789  26.180  1.00  0.00    -0.744 OA
ENDBRANCH  83  86
ENDBRANCH  55  79
BRANCH  67  90
ATOM     90  C   UNL A   1      45.038  30.544  28.180  1.00  0.00     0.023 A 
ATOM     91  C   UNL A   1      43.882  31.059  27.561  1.00  0.00     0.012 A 
ATOM     92  C   UNL A   1      46.286  31.124  27.900  1.00  0.00     0.148 A 
ATOM     93  C   UNL A   1      43.975  32.136  26.673  1.00  0.00     0.002 A 
ATOM     94  C   UNL A   1      46.369  32.215  27.047  1.00  0.00     0.091 A 
ATOM     95  F   UNL A   1      47.368  30.612  28.503  1.00  0.00    -0.205 F 
ATOM     96  C   UNL A   1      45.216  32.722  26.427  1.00  0.00     0.022 A 
BRANCH  94  97
ATOM     97  S   UNL A   1      47.919  33.072  26.766  1.00  0.00     0.127 S 
ATOM     98  O   UNL A   1      47.562  34.007  25.700  1.00  0.00    -0.237 OA
ATOM     99  O   UNL A   1      48.170  33.693  28.067  1.00  0.00    -0.237 OA
ATOM    100  O   UNL A   1      48.888  32.048  26.394  1.00  0.00    -0.744 OA
ENDBRANCH  94  97
ENDBRANCH  67  90
ENDBRANCH  41  42
ENDBRANCH  33  36
ENDBRANCH  31  32
ENDBRANCH   1  31
TORSDOF 18
ENDMDL
MODEL 2
REMARK VINA RESULT:     -12.5      1.969      2.885
REMARK SMILES Cc1ccc(C)c(S(=O)(=O)N[C@H](CC2=c3ccccc3=NC2)C(=O)NCCCNC(=O)c2ccc(-c3c4nc(c(-c5cccc(S(=O)(=O)[O-])c5F)c5ccc([nH]5)c(-c5cccc(S(=O)(=O)[O-])c5F)c5nc(c(-c6cccc(S(=O)(=O)[O-])c6F)c6ccc3[nH]6)C=C5)C=C4)cc2)c1
REMARK SMILES IDX 27 1 26 2 25 3 23 4 24 5 12 7 11 8 8 10 9 11 10 12 7 13 1 14
REMARK SMILES IDX 2 15 3 16 95 17 4 18 5 19 6 20 13 21 14 22 15 23 22 24 16 25
REMARK SMILES IDX 20 26 21 27 17 28 19 29 18 30 28 31 29 32 30 33 31 35 32 36
REMARK SMILES IDX 33 37 94 38 34 39 93 40 35 41 36 42 37 43 87 44 38 45 92 46
REMARK SMILES IDX 86 47 88 48 39 49 91 50 85 51 84 52 40 54 72 55 52 56 71 57
REMARK SMILES IDX 53 58 56 59 70 60 89 61 54 62 55 63 69 65 90 66 57 67 41 68
REMARK SMILES IDX 42 69 50 70 43 71 45 72 51 73 44 74 46 75 47 76 48 77 49 78
REMARK SMILES IDX 73 79 74 80 82 81 75 82 77 83 83 84 76 85 78 86 79 87 80 88
REMARK SMILES IDX 81 89 58 90 59 91 67 92 60 93 62 94 68 95 61 96 63 97 64 98
REMARK SMILES IDX 65 99 66 100
REMARK H PARENT 25 6 11 9 29 34 88 53 56 64
REMARK Flexibility Score: inf
ROOT
ATOM      1  C   UNL A   1      32.472  30.676  26.639  1.00  0.00     0.042 C 
ENDROOT
BRANCH   1   2
ATOM      2  C   UNL A   1      32.268  29.805  25.398  1.00  0.00     0.117 C 
BRANCH   2   3
ATOM      3  N   UNL A   1      31.102  30.051  24.559  1.00  0.00    -0.355 N 
ATOM      4  C   UNL A   1      30.173  29.291  23.898  1.00  0.00     0.238 C 
ATOM      5  O   UNL A   1      29.258  29.924  23.363  1.00  0.00    -0.273 OA
ATOM      6  H   UNL A   1      30.938  31.015  24.436  1.00  0.00     0.163 HD
BRANCH   4   7
ATOM      7  C   UNL A   1      30.230  27.758  23.791  1.00  0.00     0.163 C 
BRANCH   7   8
ATOM      8  N   UNL A   1      31.167  27.261  24.855  1.00  0.00    -0.198 NA
ATOM      9  H   UNL A   1      31.901  26.741  24.374  1.00  0.00     0.142 HD
BRANCH   8  10
ATOM     10  S   UNL A   1      30.623  26.277  26.101  1.00  0.00     0.241 S 
ATOM     11  O   UNL A   1      29.357  25.694  25.710  1.00  0.00    -0.207 OA
ATOM     12  O   UNL A   1      30.748  27.107  27.276  1.00  0.00    -0.207 OA
BRANCH  10  13
ATOM     13  C   UNL A   1      31.844  25.003  26.245  1.00  0.00     0.085 A 
ATOM     14  C   UNL A   1      35.530  24.644  25.391  1.00  0.00     0.044 C 
ATOM     15  C   UNL A   1      34.145  24.315  25.859  1.00  0.00    -0.050 A 
ATOM     16  C   UNL A   1      33.792  23.013  26.215  1.00  0.00     0.004 A 
ATOM     17  C   UNL A   1      33.170  25.309  25.913  1.00  0.00     0.025 A 
ATOM     18  C   UNL A   1      32.485  22.717  26.620  1.00  0.00     0.005 A 
ATOM     19  C   UNL A   1      31.487  23.706  26.643  1.00  0.00    -0.031 A 
ATOM     20  C   UNL A   1      30.111  23.306  27.097  1.00  0.00     0.046 C 
ENDBRANCH  10  13
ENDBRANCH   8  10
ENDBRANCH   7   8
BRANCH   7  21
ATOM     21  C   UNL A   1      30.625  27.153  22.398  1.00  0.00     0.063 C 
BRANCH  21  22
ATOM     22  C   UNL A   1      31.701  26.104  22.235  1.00  0.00    -0.037 C 
ATOM     23  C   UNL A   1      31.732  24.798  22.524  1.00  0.00     0.001 A 
ATOM     24  C   UNL A   1      33.070  26.534  21.831  1.00  0.00     0.174 C 
ATOM     25  C   UNL A   1      30.829  23.821  23.046  1.00  0.00     0.010 A 
ATOM     26  C   UNL A   1      33.143  24.429  22.255  1.00  0.00     0.065 A 
ATOM     27  N   UNL A   1      33.967  25.376  21.924  1.00  0.00    -0.280 NA
ATOM     28  C   UNL A   1      31.265  22.559  23.221  1.00  0.00     0.001 A 
ATOM     29  C   UNL A   1      33.532  23.018  22.411  1.00  0.00     0.028 A 
ATOM     30  C   UNL A   1      32.615  22.152  22.868  1.00  0.00     0.002 A 
ENDBRANCH  21  22
ENDBRANCH   7  21
ENDBRANCH   4   7
ENDBRANCH   2   3
ENDBRANCH   1   2
BRANCH   1  31
ATOM     31  C   UNL A   1      33.858  30.732  27.252  1.00  0.00     0.118 C 
BRANCH  31  32
ATOM     32  N   UNL A   1      33.952  31.598  28.414  1.00  0.00    -0.352 N 
ATOM     33  C   UNL A   1      34.979  31.672  29.333  1.00  0.00     0.251 C 
ATOM     34  H   UNL A   1      33.193  32.206  28.563  1.00  0.00     0.163 HD
ATOM     35  O   UNL A   1      34.868  32.397  30.318  1.00  0.00    -0.269 OA
BRANCH  33  36
ATOM     36  C   UNL A   1      36.269  31.022  29.013  1.00  0.00     0.039 A 
ATOM     37  C   UNL A   1      36.299  29.627  29.098  1.00  0.00     0.014 A 
ATOM     38  C   UNL A   1      37.452  31.752  28.896  1.00  0.00     0.014 A 
ATOM     39  C   UNL A   1      37.514  28.995  29.309  1.00  0.00     0.010 A 
ATOM     40  C   UNL A   1      38.649  31.139  29.204  1.00  0.00     0.010 A 
ATOM     41  C   UNL A   1      38.665  29.771  29.468  1.00  0.00    -0.014 A 
BRANCH  41  42
ATOM     42  C   UNL A   1      39.945  29.115  29.665  1.00  0.00     0.031 A 
ATOM     43  C   UNL A   1      40.385  29.214  31.076  1.00  0.00     0.074 A 
ATOM     44  C   UNL A   1      40.586  28.360  28.753  1.00  0.00     0.049 A 
ATOM     45  N   UNL A   1      41.149  30.121  31.596  1.00  0.00    -0.248 NA
ATOM     46  C   UNL A   1      39.694  28.369  32.063  1.00  0.00     0.031 C 
ATOM     47  C   UNL A   1      40.089  27.869  27.468  1.00  0.00     0.029 A 
ATOM     48  N   UNL A   1      41.810  27.766  28.856  1.00  0.00    -0.354 N 
ATOM     49  C   UNL A   1      41.219  29.776  32.940  1.00  0.00     0.074 A 
ATOM     50  C   UNL A   1      40.088  28.928  33.207  1.00  0.00     0.031 C 
ATOM     51  C   UNL A   1      40.903  26.879  27.025  1.00  0.00     0.029 A 
ATOM     52  C   UNL A   1      42.044  26.763  27.918  1.00  0.00     0.049 A 
ATOM     53  H   UNL A   1      42.471  28.026  29.536  1.00  0.00     0.167 HD
ATOM     54  C   UNL A   1      42.382  29.870  33.641  1.00  0.00     0.034 A 
ATOM     55  C   UNL A   1      43.070  25.874  27.958  1.00  0.00     0.034 A 
ATOM     56  C   UNL A   1      43.401  30.547  32.888  1.00  0.00     0.049 A 
ATOM     57  C   UNL A   1      44.120  26.482  28.811  1.00  0.00     0.074 A 
ATOM     58  C   UNL A   1      43.620  31.822  32.417  1.00  0.00     0.029 A 
ATOM     59  N   UNL A   1      44.185  29.695  32.152  1.00  0.00    -0.354 N 
ATOM     60  N   UNL A   1      44.770  27.569  28.503  1.00  0.00    -0.248 NA
ATOM     61  C   UNL A   1      44.232  26.059  30.201  1.00  0.00     0.031 C 
ATOM     62  C   UNL A   1      44.351  31.662  31.202  1.00  0.00     0.029 A 
ATOM     63  C   UNL A   1      44.590  30.303  30.996  1.00  0.00     0.049 A 
ATOM     64  H   UNL A   1      44.422  28.778  32.419  1.00  0.00     0.167 HD
ATOM     65  C   UNL A   1      44.981  28.192  29.722  1.00  0.00     0.074 A 
ATOM     66  C   UNL A   1      44.802  27.148  30.721  1.00  0.00     0.031 C 
ATOM     67  C   UNL A   1      44.964  29.553  29.816  1.00  0.00     0.034 A 
BRANCH  54  68
ATOM     68  C   UNL A   1      42.742  28.945  34.776  1.00  0.00     0.023 A 
ATOM     69  C   UNL A   1      43.221  29.512  35.971  1.00  0.00     0.012 A 
ATOM     70  C   UNL A   1      42.855  27.540  34.641  1.00  0.00     0.148 A 
ATOM     71  C   UNL A   1      43.743  28.714  36.996  1.00  0.00     0.002 A 
ATOM     72  C   UNL A   1      43.273  26.744  35.697  1.00  0.00     0.091 A 
ATOM     73  F   UNL A   1      42.702  26.973  33.439  1.00  0.00    -0.205 F 
ATOM     74  C   UNL A   1      43.739  27.327  36.875  1.00  0.00     0.022 A 
BRANCH  72  75
ATOM     75  S   UNL A   1      43.217  24.952  35.593  1.00  0.00     0.127 S 
ATOM     76  O   UNL A   1      43.747  24.563  36.896  1.00  0.00    -0.237 OA
ATOM     77  O   UNL A   1      41.787  24.707  35.404  1.00  0.00    -0.237 OA
ATOM     78  O   UNL A   1      44.035  24.610  34.434  1.00  0.00    -0.744 OA
ENDBRANCH  72  75
ENDBRANCH  54  68
BRANCH  55  79
ATOM     79  C   UNL A   1      43.154  24.439  27.573  1.00  0.00     0.023 A 
ATOM     80  C   UNL A   1      42.055  23.594  27.858  1.00  0.00     0.012 A 
ATOM     81  C   UNL A   1      44.113  23.977  26.644  1.00  0.00     0.148 A 
ATOM     82  C   UNL A   1      41.865  22.387  27.176  1.00  0.00     0.002 A 
ATOM     83  C   UNL A   1      43.925  22.768  25.974  1.00  0.00     0.091 A 
ATOM     84  F   UNL A   1      45.152  24.764  26.340  1.00  0.00    -0.205 F 
ATOM     85  C   UNL A   1      42.791  21.983  26.220  1.00  0.00     0.022 A 
BRANCH  83  86
ATOM     86  S   UNL A   1      45.069  22.185  24.712  1.00  0.00     0.127 S 
ATOM     87  O   UNL A   1      44.403  20.973  24.230  1.00  0.00    -0.237 OA
ATOM     88  O   UNL A   1      45.069  23.294  23.762  1.00  0.00    -0.237 OA
ATOM     89  O   UNL A   1      46.332  21.937  25.394  1.00  0.00    -0.744 OA
ENDBRANCH  83  86
ENDBRANCH  55  79
BRANCH  67  90
ATOM     90  C   UNL A   1      45.168  30.334  28.549  1.00  0.00     0.023 A 
ATOM     91  C   UNL A   1      44.112  30.705  27.694  1.00  0.00     0.012 A 
ATOM     92  C   UNL A   1      46.461  30.817  28.295  1.00  0.00     0.148 A 
ATOM     93  C   UNL A   1      44.348  31.545  26.600  1.00  0.00     0.002 A 
ATOM     94  C   UNL A   1      46.684  31.680  27.231  1.00  0.00     0.091 A 
ATOM     95  F   UNL A   1      47.447  30.445  29.125  1.00  0.00    -0.205 F 
ATOM     96  C   UNL A   1      45.631  32.043  26.378  1.00  0.00     0.022 A 
BRANCH  94  97
ATOM     97  S   UNL A   1      48.290  32.428  26.949  1.00  0.00     0.127 S 
ATOM     98  O   UNL A   1      49.103  31.273  26.571  1.00  0.00    -0.237 OA
ATOM     99  O   UNL A   1      48.008  33.361  25.857  1.00  0.00    -0.237 OA
ATOM    100  O   UNL A   1      48.666  33.069  28.203  1.00  0.00    -0.744 OA
ENDBRANCH  94  97
ENDBRANCH  67  90
ENDBRANCH  41  42
ENDBRANCH  33  36
ENDBRANCH  31  32
ENDBRANCH   1  31
TORSDOF 18
ENDMDL
MODEL 3
REMARK VINA RESULT:     -12.2      3.083      8.391
REMARK SMILES Cc1ccc(C)c(S(=O)(=O)N[C@H](CC2=c3ccccc3=NC2)C(=O)NCCCNC(=O)c2ccc(-c3c4nc(c(-c5cccc(S(=O)(=O)[O-])c5F)c5ccc([nH]5)c(-c5cccc(S(=O)(=O)[O-])c5F)c5nc(c(-c6cccc(S(=O)(=O)[O-])c6F)c6ccc3[nH]6)C=C5)C=C4)cc2)c1
REMARK SMILES IDX 27 1 26 2 25 3 23 4 24 5 12 7 11 8 8 10 9 11 10 12 7 13 1 14
REMARK SMILES IDX 2 15 3 16 95 17 4 18 5 19 6 20 13 21 14 22 15 23 22 24 16 25
REMARK SMILES IDX 20 26 21 27 17 28 19 29 18 30 28 31 29 32 30 33 31 35 32 36
REMARK SMILES IDX 33 37 94 38 34 39 93 40 35 41 36 42 37 43 87 44 38 45 92 46
REMARK SMILES IDX 86 47 88 48 39 49 91 50 85 51 84 52 40 54 72 55 52 56 71 57
REMARK SMILES IDX 53 58 56 59 70 60 89 61 54 62 55 63 69 65 90 66 57 67 41 68
REMARK SMILES IDX 42 69 50 70 43 71 45 72 51 73 44 74 46 75 47 76 48 77 49 78
REMARK SMILES IDX 73 79 74 80 82 81 75 82 77 83 83 84 76 85 78 86 79 87 80 88
REMARK SMILES IDX 81 89 58 90 59 91 67 92 60 93 62 94 68 95 61 96 63 97 64 98
REMARK SMILES IDX 65 99 66 100
REMARK H PARENT 25 6 11 9 29 34 88 53 56 64
REMARK Flexibility Score: inf
ROOT
ATOM      1  C   UNL A   1      37.356  21.130  25.054  1.00  0.00     0.042 C 
ENDROOT
BRANCH   1   2
ATOM      2  C   UNL A   1      35.992  20.866  25.693  1.00  0.00     0.117 C 
BRANCH   2   3
ATOM      3  N   UNL A   1      35.117  19.874  25.081  1.00  0.00    -0.355 N 
ATOM      4  C   UNL A   1      33.962  19.884  24.345  1.00  0.00     0.238 C 
ATOM      5  O   UNL A   1      33.592  18.783  23.927  1.00  0.00    -0.273 OA
ATOM      6  H   UNL A   1      35.441  18.956  25.236  1.00  0.00     0.163 HD
BRANCH   4   7
ATOM      7  C   UNL A   1      33.141  21.150  24.046  1.00  0.00     0.163 C 
BRANCH   7   8
ATOM      8  N   UNL A   1      34.018  22.338  24.321  1.00  0.00    -0.198 NA
ATOM      9  H   UNL A   1      33.566  22.864  25.068  1.00  0.00     0.142 HD
BRANCH   8  10
ATOM     10  S   UNL A   1      34.386  23.444  23.113  1.00  0.00     0.241 S 
ATOM     11  O   UNL A   1      33.519  23.199  21.981  1.00  0.00    -0.207 OA
ATOM     12  O   UNL A   1      35.824  23.367  23.001  1.00  0.00    -0.207 OA
BRANCH  10  13
ATOM     13  C   UNL A   1      34.015  25.027  23.813  1.00  0.00     0.085 A 
ATOM     14  C   UNL A   1      32.966  28.427  22.472  1.00  0.00     0.044 C 
ATOM     15  C   UNL A   1      33.371  27.341  23.424  1.00  0.00    -0.050 A 
ATOM     16  C   UNL A   1      33.624  27.614  24.768  1.00  0.00     0.004 A 
ATOM     17  C   UNL A   1      33.535  26.035  22.966  1.00  0.00     0.025 A 
ATOM     18  C   UNL A   1      34.032  26.594  25.636  1.00  0.00     0.005 A 
ATOM     19  C   UNL A   1      34.234  25.282  25.175  1.00  0.00    -0.031 A 
ATOM     20  C   UNL A   1      34.666  24.245  26.174  1.00  0.00     0.046 C 
ENDBRANCH  10  13
ENDBRANCH   8  10
ENDBRANCH   7   8
BRANCH   7  21
ATOM     21  C   UNL A   1      31.769  21.306  24.791  1.00  0.00     0.063 C 
BRANCH  21  22
ATOM     22  C   UNL A   1      31.313  22.612  25.402  1.00  0.00    -0.037 C 
ATOM     23  C   UNL A   1      30.837  23.738  24.860  1.00  0.00     0.001 A 
ATOM     24  C   UNL A   1      31.540  22.844  26.856  1.00  0.00     0.174 C 
ATOM     25  C   UNL A   1      30.511  24.212  23.550  1.00  0.00     0.010 A 
ATOM     26  C   UNL A   1      30.744  24.656  26.021  1.00  0.00     0.065 A 
ATOM     27  N   UNL A   1      31.188  24.235  27.166  1.00  0.00    -0.280 NA
ATOM     28  C   UNL A   1      30.061  25.474  23.408  1.00  0.00     0.001 A 
ATOM     29  C   UNL A   1      30.186  26.000  25.798  1.00  0.00     0.028 A 
ATOM     30  C   UNL A   1      29.867  26.357  24.546  1.00  0.00     0.002 A 
ENDBRANCH  21  22
ENDBRANCH   7  21
ENDBRANCH   4   7
ENDBRANCH   2   3
ENDBRANCH   1   2
BRANCH   1  31
ATOM     31  C   UNL A   1      38.343  21.997  25.810  1.00  0.00     0.118 C 
BRANCH  31  32
ATOM     32  N   UNL A   1      39.724  21.564  25.683  1.00  0.00    -0.352 N 
ATOM     33  C   UNL A   1      40.863  22.240  26.073  1.00  0.00     0.251 C 
ATOM     34  H   UNL A   1      39.865  20.681  25.271  1.00  0.00     0.163 HD
ATOM     35  O   UNL A   1      41.969  21.776  25.813  1.00  0.00    -0.269 OA
BRANCH  33  36
ATOM     36  C   UNL A   1      40.723  23.415  26.962  1.00  0.00     0.039 A 
ATOM     37  C   UNL A   1      40.054  24.520  26.431  1.00  0.00     0.014 A 
ATOM     38  C   UNL A   1      41.441  23.524  28.154  1.00  0.00     0.014 A 
ATOM     39  C   UNL A   1      40.305  25.775  26.961  1.00  0.00     0.010 A 
ATOM     40  C   UNL A   1      41.771  24.779  28.622  1.00  0.00     0.010 A 
ATOM     41  C   UNL A   1      41.248  25.903  27.985  1.00  0.00    -0.014 A 
BRANCH  41  42
ATOM     42  C   UNL A   1      41.500  27.211  28.562  1.00  0.00     0.031 A 
ATOM     43  C   UNL A   1      42.799  27.756  28.107  1.00  0.00     0.074 A 
ATOM     44  C   UNL A   1      40.617  27.934  29.276  1.00  0.00     0.049 A 
ATOM     45  N   UNL A   1      43.945  27.645  28.698  1.00  0.00    -0.248 NA
ATOM     46  C   UNL A   1      42.880  28.248  26.722  1.00  0.00     0.031 C 
ATOM     47  C   UNL A   1      39.188  27.687  29.474  1.00  0.00     0.029 A 
ATOM     48  N   UNL A   1      40.808  29.136  29.890  1.00  0.00    -0.354 N 
ATOM     49  C   UNL A   1      44.831  28.295  27.847  1.00  0.00     0.074 A 
ATOM     50  C   UNL A   1      44.199  28.345  26.556  1.00  0.00     0.031 C 
ATOM     51  C   UNL A   1      38.605  28.812  29.957  1.00  0.00     0.029 A 
ATOM     52  C   UNL A   1      39.633  29.803  30.232  1.00  0.00     0.049 A 
ATOM     53  H   UNL A   1      41.702  29.502  30.077  1.00  0.00     0.167 HD
ATOM     54  C   UNL A   1      45.828  29.088  28.326  1.00  0.00     0.034 A 
ATOM     55  C   UNL A   1      39.552  31.099  30.629  1.00  0.00     0.034 A 
ATOM     56  C   UNL A   1      45.953  28.978  29.752  1.00  0.00     0.049 A 
ATOM     57  C   UNL A   1      40.898  31.472  31.127  1.00  0.00     0.074 A 
ATOM     58  C   UNL A   1      46.335  28.011  30.654  1.00  0.00     0.029 A 
ATOM     59  N   UNL A   1      45.206  29.905  30.434  1.00  0.00    -0.354 N 
ATOM     60  N   UNL A   1      41.457  30.944  32.179  1.00  0.00    -0.248 NA
ATOM     61  C   UNL A   1      41.793  32.217  30.251  1.00  0.00     0.031 C 
ATOM     62  C   UNL A   1      45.563  28.253  31.828  1.00  0.00     0.029 A 
ATOM     63  C   UNL A   1      44.770  29.383  31.620  1.00  0.00     0.049 A 
ATOM     64  H   UNL A   1      45.012  30.815  30.115  1.00  0.00     0.167 HD
ATOM     65  C   UNL A   1      42.805  30.903  31.861  1.00  0.00     0.074 A 
ATOM     66  C   UNL A   1      42.968  31.853  30.768  1.00  0.00     0.031 C 
ATOM     67  C   UNL A   1      43.588  29.875  32.295  1.00  0.00     0.034 A 
BRANCH  54  68
ATOM     68  C   UNL A   1      46.346  30.300  27.592  1.00  0.00     0.023 A 
ATOM     69  C   UNL A   1      47.736  30.514  27.560  1.00  0.00     0.012 A 
ATOM     70  C   UNL A   1      45.522  31.358  27.138  1.00  0.00     0.148 A 
ATOM     71  C   UNL A   1      48.276  31.705  27.058  1.00  0.00     0.002 A 
ATOM     72  C   UNL A   1      46.061  32.490  26.545  1.00  0.00     0.091 A 
ATOM     73  F   UNL A   1      44.213  31.346  27.414  1.00  0.00    -0.205 F 
ATOM     74  C   UNL A   1      47.442  32.680  26.520  1.00  0.00     0.022 A 
BRANCH  72  75
ATOM     75  S   UNL A   1      45.011  33.733  25.784  1.00  0.00     0.127 S 
ATOM     76  O   UNL A   1      44.296  34.263  26.941  1.00  0.00    -0.237 OA
ATOM     77  O   UNL A   1      45.997  34.637  25.194  1.00  0.00    -0.237 OA
ATOM     78  O   UNL A   1      44.208  33.009  24.804  1.00  0.00    -0.744 OA
ENDBRANCH  72  75
ENDBRANCH  54  68
BRANCH  55  79
ATOM     79  C   UNL A   1      38.526  32.149  30.382  1.00  0.00     0.023 A 
ATOM     80  C   UNL A   1      37.981  32.274  29.082  1.00  0.00     0.012 A 
ATOM     81  C   UNL A   1      37.837  32.774  31.446  1.00  0.00     0.148 A 
ATOM     82  C   UNL A   1      36.753  32.908  28.863  1.00  0.00     0.002 A 
ATOM     83  C   UNL A   1      36.618  33.414  31.220  1.00  0.00     0.091 A 
ATOM     84  F   UNL A   1      38.318  32.655  32.689  1.00  0.00    -0.205 F 
ATOM     85  C   UNL A   1      36.062  33.461  29.935  1.00  0.00     0.022 A 
BRANCH  83  86
ATOM     86  S   UNL A   1      35.656  34.139  32.557  1.00  0.00     0.127 S 
ATOM     87  O   UNL A   1      34.535  34.746  31.836  1.00  0.00    -0.237 OA
ATOM     88  O   UNL A   1      35.301  32.966  33.352  1.00  0.00    -0.237 OA
ATOM     89  O   UNL A   1      36.533  35.103  33.211  1.00  0.00    -0.744 OA
ENDBRANCH  83  86
ENDBRANCH  55  79
BRANCH  67  90
ATOM     90  C   UNL A   1      43.088  29.074  33.463  1.00  0.00     0.023 A 
ATOM     91  C   UNL A   1      42.061  28.114  33.356  1.00  0.00     0.012 A 
ATOM     92  C   UNL A   1      43.778  29.209  34.678  1.00  0.00     0.148 A 
ATOM     93  C   UNL A   1      41.730  27.306  34.448  1.00  0.00     0.002 A 
ATOM     94  C   UNL A   1      43.472  28.380  35.747  1.00  0.00     0.091 A 
ATOM     95  F   UNL A   1      44.749  30.131  34.751  1.00  0.00    -0.205 F 
ATOM     96  C   UNL A   1      42.445  27.429  35.639  1.00  0.00     0.022 A 
BRANCH  94  97
ATOM     97  S   UNL A   1      44.417  28.425  37.271  1.00  0.00     0.127 S 
ATOM     98  O   UNL A   1      44.081  29.745  37.800  1.00  0.00    -0.237 OA
ATOM     99  O   UNL A   1      43.849  27.302  38.020  1.00  0.00    -0.237 OA
ATOM    100  O   UNL A   1      45.812  28.246  36.891  1.00  0.00    -0.744 OA
ENDBRANCH  94  97
ENDBRANCH  67  90
ENDBRANCH  41  42
ENDBRANCH  33  36
ENDBRANCH  31  32
ENDBRANCH   1  31
TORSDOF 18
ENDMDL
