MODEL 1
REMARK VINA RESULT:     -12.1      0.000      0.000
REMARK SMILES O=C(Cn1cccc1C(=O)NCCCNC(=O)c1ccc(-c2c3nc(c(-c4cccc(S(=O)(=O)[O-])c4F)c4ccc([nH]4)c(-c4cccc(S(=O)(=O)[O-])c4F)c4nc(c(-c5cccc(S(=O)(=O)[O-])c5F)c5ccc2[nH]5)C=C4)C=C3)cc1)NCC1CCCC1
REMARK SMILES IDX 12 1 11 2 9 3 10 4 8 6 4 7 5 8 6 9 7 10 3 11 2 12 1 13 81 14
REMARK SMILES IDX 82 16 83 17 84 18 87 19 85 20 86 21 13 22 14 23 15 24 16 25
REMARK SMILES IDX 17 27 18 28 19 29 80 30 20 31 79 32 21 33 22 34 23 35 73 36
REMARK SMILES IDX 24 37 78 38 72 39 74 40 25 41 77 42 71 43 70 44 26 46 58 47
REMARK SMILES IDX 38 48 57 49 39 50 42 51 56 52 75 53 40 54 41 55 55 57 76 58
REMARK SMILES IDX 43 59 27 60 28 61 36 62 29 63 31 64 37 65 30 66 32 67 33 68
REMARK SMILES IDX 34 69 35 70 59 71 60 72 68 73 61 74 63 75 69 76 62 77 64 78
REMARK SMILES IDX 65 79 66 80 67 81 44 82 45 83 53 84 46 85 48 86 54 87 47 88
REMARK SMILES IDX 49 89 50 90 51 91 52 92
REMARK H PARENT 11 5 81 15 15 26 74 45 42 56
REMARK Flexibility Score: inf
ROOT
ATOM      1  C   UNL A   1      32.140  28.584  27.087  1.00  0.00     0.118 C 
ENDROOT
BRANCH   1   2
ATOM      2  N   UNL A   1      31.584  29.301  25.962  1.00  0.00    -0.351 N 
ATOM      3  C   UNL A   1      31.265  28.970  24.675  1.00  0.00     0.267 C 
ATOM      4  O   UNL A   1      30.580  29.815  24.091  1.00  0.00    -0.268 OA
ATOM      5  H   UNL A   1      31.392  30.243  26.169  1.00  0.00     0.163 HD
BRANCH   3   6
ATOM      6  C   UNL A   1      31.603  27.721  24.006  1.00  0.00     0.107 A 
ATOM      7  N   UNL A   1      31.147  26.415  24.122  1.00  0.00    -0.334 N 
ATOM      8  C   UNL A   1      31.898  25.592  23.292  1.00  0.00     0.087 A 
ATOM      9  C   UNL A   1      32.934  26.315  22.767  1.00  0.00     0.020 A 
ATOM     10  C   UNL A   1      32.755  27.633  23.215  1.00  0.00     0.033 A 
BRANCH   7  11
ATOM     11  C   UNL A   1      30.126  25.795  24.970  1.00  0.00     0.222 C 
BRANCH  11  12
ATOM     12  C   UNL A   1      30.546  24.790  26.001  1.00  0.00     0.239 C 
ATOM     13  O   UNL A   1      31.295  25.142  26.911  1.00  0.00    -0.273 OA
ATOM     14  N   UNL A   1      30.021  23.528  25.895  1.00  0.00    -0.354 N 
ATOM     15  H   UNL A   1      29.067  23.414  25.681  1.00  0.00     0.163 HD
BRANCH  14  16
ATOM     16  C   UNL A   1      30.853  22.363  26.094  1.00  0.00     0.119 C 
BRANCH  16  17
ATOM     17  C   UNL A   1      32.162  22.273  25.344  1.00  0.00     0.008 C 
ATOM     18  C   UNL A   1      33.281  22.139  26.376  1.00  0.00     0.005 C 
ATOM     19  C   UNL A   1      32.340  21.027  24.474  1.00  0.00     0.005 C 
ATOM     20  C   UNL A   1      34.441  21.648  25.550  1.00  0.00     0.000 C 
ATOM     21  C   UNL A   1      33.813  20.634  24.599  1.00  0.00     0.000 C 
ENDBRANCH  16  17
ENDBRANCH  14  16
ENDBRANCH  11  12
ENDBRANCH   7  11
ENDBRANCH   3   6
ENDBRANCH   1   2
BRANCH   1  22
ATOM     22  C   UNL A   1      33.548  28.029  26.825  1.00  0.00     0.042 C 
BRANCH  22  23
ATOM     23  C   UNL A   1      34.616  29.040  26.391  1.00  0.00     0.118 C 
BRANCH  23  24
ATOM     24  N   UNL A   1      34.719  30.137  27.346  1.00  0.00    -0.352 N 
ATOM     25  C   UNL A   1      35.679  30.462  28.272  1.00  0.00     0.251 C 
ATOM     26  H   UNL A   1      33.958  30.762  27.321  1.00  0.00     0.163 HD
ATOM     27  O   UNL A   1      35.429  31.388  29.046  1.00  0.00    -0.269 OA
BRANCH  25  28
ATOM     28  C   UNL A   1      36.982  29.755  28.380  1.00  0.00     0.039 A 
ATOM     29  C   UNL A   1      37.233  29.035  29.561  1.00  0.00     0.014 A 
ATOM     30  C   UNL A   1      37.986  29.842  27.411  1.00  0.00     0.014 A 
ATOM     31  C   UNL A   1      38.462  28.404  29.763  1.00  0.00     0.010 A 
ATOM     32  C   UNL A   1      39.193  29.165  27.582  1.00  0.00     0.010 A 
ATOM     33  C   UNL A   1      39.445  28.463  28.769  1.00  0.00    -0.014 A 
BRANCH  33  34
ATOM     34  C   UNL A   1      40.757  27.794  28.982  1.00  0.00     0.031 A 
ATOM     35  C   UNL A   1      40.817  26.337  28.490  1.00  0.00     0.074 A 
ATOM     36  C   UNL A   1      41.720  28.559  29.579  1.00  0.00     0.049 A 
ATOM     37  N   UNL A   1      41.639  25.373  28.784  1.00  0.00    -0.248 NA
ATOM     38  C   UNL A   1      39.749  25.853  27.586  1.00  0.00     0.031 C 
ATOM     39  C   UNL A   1      41.514  29.958  30.018  1.00  0.00     0.029 A 
ATOM     40  N   UNL A   1      43.036  28.349  29.944  1.00  0.00    -0.354 N 
ATOM     41  C   UNL A   1      41.331  24.278  27.935  1.00  0.00     0.074 A 
ATOM     42  C   UNL A   1      40.116  24.611  27.262  1.00  0.00     0.031 C 
ATOM     43  C   UNL A   1      42.613  30.437  30.630  1.00  0.00     0.029 A 
ATOM     44  C   UNL A   1      43.646  29.421  30.634  1.00  0.00     0.049 A 
ATOM     45  H   UNL A   1      43.515  27.515  29.736  1.00  0.00     0.167 HD
ATOM     46  C   UNL A   1      42.141  23.190  27.787  1.00  0.00     0.034 A 
ATOM     47  C   UNL A   1      44.877  29.499  31.225  1.00  0.00     0.034 A 
ATOM     48  C   UNL A   1      43.280  23.321  28.631  1.00  0.00     0.049 A 
ATOM     49  C   UNL A   1      45.573  28.243  30.921  1.00  0.00     0.074 A 
ATOM     50  C   UNL A   1      43.476  23.133  29.972  1.00  0.00     0.029 A 
ATOM     51  N   UNL A   1      44.356  23.981  28.096  1.00  0.00    -0.354 N 
ATOM     52  N   UNL A   1      46.110  27.950  29.775  1.00  0.00    -0.248 NA
ATOM     53  C   UNL A   1      45.582  27.178  31.933  1.00  0.00     0.031 C 
ATOM     54  C   UNL A   1      44.529  24.012  30.294  1.00  0.00     0.029 A 
ATOM     55  C   UNL A   1      44.987  24.633  29.126  1.00  0.00     0.049 A 
ATOM     56  H   UNL A   1      44.625  23.987  27.149  1.00  0.00     0.167 HD
ATOM     57  C   UNL A   1      46.185  26.579  29.832  1.00  0.00     0.074 A 
ATOM     58  C   UNL A   1      46.188  26.227  31.231  1.00  0.00     0.031 C 
ATOM     59  C   UNL A   1      45.719  25.833  28.799  1.00  0.00     0.034 A 
BRANCH  46  60
ATOM     60  C   UNL A   1      42.153  21.998  26.857  1.00  0.00     0.023 A 
ATOM     61  C   UNL A   1      41.016  21.143  26.953  1.00  0.00     0.012 A 
ATOM     62  C   UNL A   1      43.276  21.499  26.175  1.00  0.00     0.148 A 
ATOM     63  C   UNL A   1      41.027  19.821  26.516  1.00  0.00     0.002 A 
ATOM     64  C   UNL A   1      43.268  20.180  25.698  1.00  0.00     0.091 A 
ATOM     65  F   UNL A   1      44.369  22.264  26.069  1.00  0.00    -0.205 F 
ATOM     66  C   UNL A   1      42.165  19.334  25.901  1.00  0.00     0.022 A 
BRANCH  64  67
ATOM     67  S   UNL A   1      44.650  19.453  24.804  1.00  0.00     0.127 S 
ATOM     68  O   UNL A   1      44.665  18.086  25.321  1.00  0.00    -0.237 OA
ATOM     69  O   UNL A   1      44.211  19.563  23.409  1.00  0.00    -0.237 OA
ATOM     70  O   UNL A   1      45.797  20.288  25.125  1.00  0.00    -0.744 OA
ENDBRANCH  64  67
ENDBRANCH  46  60
BRANCH  47  71
ATOM     71  C   UNL A   1      45.534  30.469  32.177  1.00  0.00     0.023 A 
ATOM     72  C   UNL A   1      46.652  31.250  31.850  1.00  0.00     0.012 A 
ATOM     73  C   UNL A   1      44.988  30.685  33.474  1.00  0.00     0.148 A 
ATOM     74  C   UNL A   1      47.107  32.277  32.699  1.00  0.00     0.002 A 
ATOM     75  C   UNL A   1      45.370  31.758  34.270  1.00  0.00     0.091 A 
ATOM     76  F   UNL A   1      44.104  29.818  33.977  1.00  0.00    -0.205 F 
ATOM     77  C   UNL A   1      46.437  32.563  33.885  1.00  0.00     0.022 A 
BRANCH  75  78
ATOM     78  S   UNL A   1      44.428  32.237  35.731  1.00  0.00     0.127 S 
ATOM     79  O   UNL A   1      44.788  31.194  36.689  1.00  0.00    -0.237 OA
ATOM     80  O   UNL A   1      44.986  33.558  36.018  1.00  0.00    -0.237 OA
ATOM     81  O   UNL A   1      43.026  32.251  35.330  1.00  0.00    -0.744 OA
ENDBRANCH  75  78
ENDBRANCH  47  71
BRANCH  59  82
ATOM     82  C   UNL A   1      45.714  26.560  27.462  1.00  0.00     0.023 A 
ATOM     83  C   UNL A   1      44.491  27.117  27.043  1.00  0.00     0.012 A 
ATOM     84  C   UNL A   1      46.802  26.602  26.557  1.00  0.00     0.148 A 
ATOM     85  C   UNL A   1      44.346  27.686  25.775  1.00  0.00     0.002 A 
ATOM     86  C   UNL A   1      46.657  27.171  25.289  1.00  0.00     0.091 A 
ATOM     87  F   UNL A   1      47.967  26.077  26.931  1.00  0.00    -0.205 F 
ATOM     88  C   UNL A   1      45.426  27.715  24.901  1.00  0.00     0.022 A 
BRANCH  86  89
ATOM     89  S   UNL A   1      47.972  27.199  24.050  1.00  0.00     0.127 S 
ATOM     90  O   UNL A   1      48.155  25.775  23.755  1.00  0.00    -0.237 OA
ATOM     91  O   UNL A   1      47.355  27.959  22.966  1.00  0.00    -0.237 OA
ATOM     92  O   UNL A   1      49.130  27.826  24.676  1.00  0.00    -0.744 OA
ENDBRANCH  86  89
ENDBRANCH  59  82
ENDBRANCH  33  34
ENDBRANCH  25  28
ENDBRANCH  23  24
ENDBRANCH  22  23
ENDBRANCH   1  22
TORSDOF 17
ENDMDL
MODEL 2
REMARK VINA RESULT:     -12.0      3.818      5.908
REMARK SMILES O=C(Cn1cccc1C(=O)NCCCNC(=O)c1ccc(-c2c3nc(c(-c4cccc(S(=O)(=O)[O-])c4F)c4ccc([nH]4)c(-c4cccc(S(=O)(=O)[O-])c4F)c4nc(c(-c5cccc(S(=O)(=O)[O-])c5F)c5ccc2[nH]5)C=C4)C=C3)cc1)NCC1CCCC1
REMARK SMILES IDX 12 1 11 2 9 3 10 4 8 6 4 7 5 8 6 9 7 10 3 11 2 12 1 13 81 14
REMARK SMILES IDX 82 16 83 17 84 18 87 19 85 20 86 21 13 22 14 23 15 24 16 25
REMARK SMILES IDX 17 27 18 28 19 29 80 30 20 31 79 32 21 33 22 34 23 35 73 36
REMARK SMILES IDX 24 37 78 38 72 39 74 40 25 41 77 42 71 43 70 44 26 46 58 47
REMARK SMILES IDX 38 48 57 49 39 50 42 51 56 52 75 53 40 54 41 55 55 57 76 58
REMARK SMILES IDX 43 59 27 60 28 61 36 62 29 63 31 64 37 65 30 66 32 67 33 68
REMARK SMILES IDX 34 69 35 70 59 71 60 72 68 73 61 74 63 75 69 76 62 77 64 78
REMARK SMILES IDX 65 79 66 80 67 81 44 82 45 83 53 84 46 85 48 86 54 87 47 88
REMARK SMILES IDX 49 89 50 90 51 91 52 92
REMARK H PARENT 11 5 81 15 15 26 74 45 42 56
REMARK Flexibility Score: inf
ROOT
ATOM      1  C   UNL A   1      34.666  32.946  32.479  1.00  0.00     0.118 C 
ENDROOT
BRANCH   1   2
ATOM      2  N   UNL A   1      34.774  34.260  33.069  1.00  0.00    -0.351 N 
ATOM      3  C   UNL A   1      34.362  35.513  32.707  1.00  0.00     0.267 C 
ATOM      4  O   UNL A   1      34.441  36.351  33.610  1.00  0.00    -0.268 OA
ATOM      5  H   UNL A   1      35.254  34.253  33.927  1.00  0.00     0.163 HD
BRANCH   3   6
ATOM      6  C   UNL A   1      33.802  35.888  31.416  1.00  0.00     0.107 A 
ATOM      7  N   UNL A   1      33.771  35.277  30.169  1.00  0.00    -0.334 N 
ATOM      8  C   UNL A   1      33.178  36.138  29.253  1.00  0.00     0.087 A 
ATOM      9  C   UNL A   1      32.976  37.352  29.850  1.00  0.00     0.020 A 
ATOM     10  C   UNL A   1      33.370  37.200  31.188  1.00  0.00     0.033 A 
BRANCH   7  11
ATOM     11  C   UNL A   1      34.288  33.998  29.680  1.00  0.00     0.222 C 
BRANCH  11  12
ATOM     12  C   UNL A   1      35.448  33.994  28.729  1.00  0.00     0.239 C 
ATOM     13  O   UNL A   1      35.252  33.714  27.547  1.00  0.00    -0.273 OA
ATOM     14  N   UNL A   1      36.670  34.360  29.231  1.00  0.00    -0.354 N 
ATOM     15  H   UNL A   1      36.735  35.129  29.841  1.00  0.00     0.163 HD
BRANCH  14  16
ATOM     16  C   UNL A   1      37.864  33.627  28.875  1.00  0.00     0.119 C 
BRANCH  16  17
ATOM     17  C   UNL A   1      39.061  33.707  29.794  1.00  0.00     0.008 C 
ATOM     18  C   UNL A   1      38.671  34.574  30.991  1.00  0.00     0.005 C 
ATOM     19  C   UNL A   1      39.484  32.387  30.444  1.00  0.00     0.005 C 
ATOM     20  C   UNL A   1      39.739  34.249  32.001  1.00  0.00     0.000 C 
ATOM     21  C   UNL A   1      39.933  32.743  31.862  1.00  0.00     0.000 C 
ENDBRANCH  16  17
ENDBRANCH  14  16
ENDBRANCH  11  12
ENDBRANCH   7  11
ENDBRANCH   3   6
ENDBRANCH   1   2
BRANCH   1  22
ATOM     22  C   UNL A   1      36.025  32.294  32.185  1.00  0.00     0.042 C 
BRANCH  22  23
ATOM     23  C   UNL A   1      35.998  30.846  31.680  1.00  0.00     0.118 C 
BRANCH  23  24
ATOM     24  N   UNL A   1      35.519  30.778  30.304  1.00  0.00    -0.352 N 
ATOM     25  C   UNL A   1      36.107  30.326  29.149  1.00  0.00     0.251 C 
ATOM     26  H   UNL A   1      34.604  31.119  30.182  1.00  0.00     0.163 HD
ATOM     27  O   UNL A   1      35.502  30.521  28.092  1.00  0.00    -0.269 OA
BRANCH  25  28
ATOM     28  C   UNL A   1      37.420  29.629  29.119  1.00  0.00     0.039 A 
ATOM     29  C   UNL A   1      37.755  28.830  30.225  1.00  0.00     0.014 A 
ATOM     30  C   UNL A   1      38.356  29.799  28.094  1.00  0.00     0.014 A 
ATOM     31  C   UNL A   1      38.999  28.202  30.299  1.00  0.00     0.010 A 
ATOM     32  C   UNL A   1      39.577  29.126  28.135  1.00  0.00     0.010 A 
ATOM     33  C   UNL A   1      39.913  28.344  29.249  1.00  0.00    -0.014 A 
BRANCH  33  34
ATOM     34  C   UNL A   1      41.242  27.677  29.326  1.00  0.00     0.031 A 
ATOM     35  C   UNL A   1      41.258  26.227  28.813  1.00  0.00     0.074 A 
ATOM     36  C   UNL A   1      42.257  28.440  29.833  1.00  0.00     0.049 A 
ATOM     37  N   UNL A   1      42.106  25.262  29.016  1.00  0.00    -0.248 NA
ATOM     38  C   UNL A   1      40.107  25.747  28.014  1.00  0.00     0.031 C 
ATOM     39  C   UNL A   1      42.090  29.833  30.306  1.00  0.00     0.029 A 
ATOM     40  N   UNL A   1      43.602  28.231  30.065  1.00  0.00    -0.354 N 
ATOM     41  C   UNL A   1      41.720  24.175  28.188  1.00  0.00     0.074 A 
ATOM     42  C   UNL A   1      40.444  24.511  27.642  1.00  0.00     0.031 C 
ATOM     43  C   UNL A   1      43.243  30.310  30.813  1.00  0.00     0.029 A 
ATOM     44  C   UNL A   1      44.274  29.298  30.705  1.00  0.00     0.049 A 
ATOM     45  H   UNL A   1      44.061  27.401  29.803  1.00  0.00     0.167 HD
ATOM     46  C   UNL A   1      42.515  23.092  27.950  1.00  0.00     0.034 A 
ATOM     47  C   UNL A   1      45.557  29.374  31.174  1.00  0.00     0.034 A 
ATOM     48  C   UNL A   1      43.731  23.218  28.680  1.00  0.00     0.049 A 
ATOM     49  C   UNL A   1      46.223  28.124  30.789  1.00  0.00     0.074 A 
ATOM     50  C   UNL A   1      44.057  23.016  29.993  1.00  0.00     0.029 A 
ATOM     51  N   UNL A   1      44.747  23.889  28.049  1.00  0.00    -0.354 N 
ATOM     52  N   UNL A   1      46.646  27.846  29.592  1.00  0.00    -0.248 NA
ATOM     53  C   UNL A   1      46.334  27.049  31.783  1.00  0.00     0.031 C 
ATOM     54  C   UNL A   1      45.134  23.896  30.220  1.00  0.00     0.029 A 
ATOM     55  C   UNL A   1      45.474  24.532  29.020  1.00  0.00     0.049 A 
ATOM     56  H   UNL A   1      44.923  23.905  27.081  1.00  0.00     0.167 HD
ATOM     57  C   UNL A   1      46.730  26.475  29.627  1.00  0.00     0.074 A 
ATOM     58  C   UNL A   1      46.871  26.107  31.016  1.00  0.00     0.031 C 
ATOM     59  C   UNL A   1      46.167  25.738  28.636  1.00  0.00     0.034 A 
BRANCH  46  60
ATOM     60  C   UNL A   1      42.439  21.910  27.011  1.00  0.00     0.023 A 
ATOM     61  C   UNL A   1      41.385  20.988  27.280  1.00  0.00     0.012 A 
ATOM     62  C   UNL A   1      43.459  21.485  26.142  1.00  0.00     0.148 A 
ATOM     63  C   UNL A   1      41.399  19.672  26.824  1.00  0.00     0.002 A 
ATOM     64  C   UNL A   1      43.446  20.171  25.649  1.00  0.00     0.091 A 
ATOM     65  F   UNL A   1      44.472  22.314  25.867  1.00  0.00    -0.205 F 
ATOM     66  C   UNL A   1      42.443  19.259  26.019  1.00  0.00     0.022 A 
BRANCH  64  67
ATOM     67  S   UNL A   1      44.698  19.535  24.524  1.00  0.00     0.127 S 
ATOM     68  O   UNL A   1      45.933  19.798  25.259  1.00  0.00    -0.237 OA
ATOM     69  O   UNL A   1      44.344  18.114  24.435  1.00  0.00    -0.237 OA
ATOM     70  O   UNL A   1      44.505  20.266  23.282  1.00  0.00    -0.744 OA
ENDBRANCH  64  67
ENDBRANCH  46  60
BRANCH  47  71
ATOM     71  C   UNL A   1      46.301  30.336  32.067  1.00  0.00     0.023 A 
ATOM     72  C   UNL A   1      47.457  31.030  31.679  1.00  0.00     0.012 A 
ATOM     73  C   UNL A   1      45.806  30.640  33.368  1.00  0.00     0.148 A 
ATOM     74  C   UNL A   1      48.001  32.057  32.474  1.00  0.00     0.002 A 
ATOM     75  C   UNL A   1      46.278  31.716  34.108  1.00  0.00     0.091 A 
ATOM     76  F   UNL A   1      44.883  29.853  33.928  1.00  0.00    -0.205 F 
ATOM     77  C   UNL A   1      47.384  32.434  33.663  1.00  0.00     0.022 A 
BRANCH  75  78
ATOM     78  S   UNL A   1      45.410  32.314  35.571  1.00  0.00     0.127 S 
ATOM     79  O   UNL A   1      44.071  32.580  35.051  1.00  0.00    -0.237 OA
ATOM     80  O   UNL A   1      45.507  31.157  36.460  1.00  0.00    -0.237 OA
ATOM     81  O   UNL A   1      46.140  33.489  36.031  1.00  0.00    -0.744 OA
ENDBRANCH  75  78
ENDBRANCH  47  71
BRANCH  59  82
ATOM     82  C   UNL A   1      46.029  26.479  27.314  1.00  0.00     0.023 A 
ATOM     83  C   UNL A   1      44.751  26.970  26.988  1.00  0.00     0.012 A 
ATOM     84  C   UNL A   1      47.049  26.595  26.339  1.00  0.00     0.148 A 
ATOM     85  C   UNL A   1      44.488  27.545  25.742  1.00  0.00     0.002 A 
ATOM     86  C   UNL A   1      46.785  27.169  25.093  1.00  0.00     0.091 A 
ATOM     87  F   UNL A   1      48.265  26.133  26.624  1.00  0.00    -0.205 F 
ATOM     88  C   UNL A   1      45.502  27.645  24.797  1.00  0.00     0.022 A 
BRANCH  86  89
ATOM     89  S   UNL A   1      48.008  27.287  23.768  1.00  0.00     0.127 S 
ATOM     90  O   UNL A   1      48.180  25.886  23.374  1.00  0.00    -0.237 OA
ATOM     91  O   UNL A   1      47.310  28.103  22.779  1.00  0.00    -0.237 OA
ATOM     92  O   UNL A   1      49.203  27.888  24.348  1.00  0.00    -0.744 OA
ENDBRANCH  86  89
ENDBRANCH  59  82
ENDBRANCH  33  34
ENDBRANCH  25  28
ENDBRANCH  23  24
ENDBRANCH  22  23
ENDBRANCH   1  22
TORSDOF 17
ENDMDL
MODEL 3
REMARK VINA RESULT:     -12.0      2.048      2.517
REMARK SMILES O=C(Cn1cccc1C(=O)NCCCNC(=O)c1ccc(-c2c3nc(c(-c4cccc(S(=O)(=O)[O-])c4F)c4ccc([nH]4)c(-c4cccc(S(=O)(=O)[O-])c4F)c4nc(c(-c5cccc(S(=O)(=O)[O-])c5F)c5ccc2[nH]5)C=C4)C=C3)cc1)NCC1CCCC1
REMARK SMILES IDX 12 1 11 2 9 3 10 4 8 6 4 7 5 8 6 9 7 10 3 11 2 12 1 13 81 14
REMARK SMILES IDX 82 16 83 17 84 18 87 19 85 20 86 21 13 22 14 23 15 24 16 25
REMARK SMILES IDX 17 27 18 28 19 29 80 30 20 31 79 32 21 33 22 34 23 35 73 36
REMARK SMILES IDX 24 37 78 38 72 39 74 40 25 41 77 42 71 43 70 44 26 46 58 47
REMARK SMILES IDX 38 48 57 49 39 50 42 51 56 52 75 53 40 54 41 55 55 57 76 58
REMARK SMILES IDX 43 59 27 60 28 61 36 62 29 63 31 64 37 65 30 66 32 67 33 68
REMARK SMILES IDX 34 69 35 70 59 71 60 72 68 73 61 74 63 75 69 76 62 77 64 78
REMARK SMILES IDX 65 79 66 80 67 81 44 82 45 83 53 84 46 85 48 86 54 87 47 88
REMARK SMILES IDX 49 89 50 90 51 91 52 92
REMARK H PARENT 11 5 81 15 15 26 74 45 42 56
REMARK Flexibility Score: inf
ROOT
ATOM      1  C   UNL A   1      32.418  26.947  26.101  1.00  0.00     0.118 C 
ENDROOT
BRANCH   1   2
ATOM      2  N   UNL A   1      32.904  27.073  24.746  1.00  0.00    -0.351 N 
ATOM      3  C   UNL A   1      33.633  26.277  23.908  1.00  0.00     0.267 C 
ATOM      4  O   UNL A   1      33.636  26.650  22.731  1.00  0.00    -0.268 OA
ATOM      5  H   UNL A   1      32.653  27.930  24.331  1.00  0.00     0.163 HD
BRANCH   3   6
ATOM      6  C   UNL A   1      34.314  25.044  24.280  1.00  0.00     0.107 A 
ATOM      7  N   UNL A   1      34.180  23.718  23.891  1.00  0.00    -0.334 N 
ATOM      8  C   UNL A   1      35.037  22.930  24.649  1.00  0.00     0.087 A 
ATOM      9  C   UNL A   1      35.600  23.700  25.629  1.00  0.00     0.020 A 
ATOM     10  C   UNL A   1      35.146  25.009  25.406  1.00  0.00     0.033 A 
BRANCH   7  11
ATOM     11  C   UNL A   1      33.296  23.053  22.932  1.00  0.00     0.222 C 
BRANCH  11  12
ATOM     12  C   UNL A   1      32.331  22.016  23.427  1.00  0.00     0.239 C 
ATOM     13  O   UNL A   1      31.211  22.368  23.794  1.00  0.00    -0.273 OA
ATOM     14  N   UNL A   1      32.744  20.710  23.395  1.00  0.00    -0.354 N 
ATOM     15  H   UNL A   1      33.228  20.372  22.607  1.00  0.00     0.163 HD
BRANCH  14  16
ATOM     16  C   UNL A   1      32.478  19.823  24.504  1.00  0.00     0.119 C 
BRANCH  16  17
ATOM     17  C   UNL A   1      33.330  18.583  24.658  1.00  0.00     0.008 C 
ATOM     18  C   UNL A   1      32.659  17.684  25.696  1.00  0.00     0.005 C 
ATOM     19  C   UNL A   1      33.414  17.684  23.422  1.00  0.00     0.005 C 
ATOM     20  C   UNL A   1      33.325  16.353  25.466  1.00  0.00     0.000 C 
ATOM     21  C   UNL A   1      33.424  16.247  23.948  1.00  0.00     0.000 C 
ENDBRANCH  16  17
ENDBRANCH  14  16
ENDBRANCH  11  12
ENDBRANCH   7  11
ENDBRANCH   3   6
ENDBRANCH   1   2
BRANCH   1  22
ATOM     22  C   UNL A   1      32.942  28.039  27.044  1.00  0.00     0.042 C 
BRANCH  22  23
ATOM     23  C   UNL A   1      34.353  28.570  26.764  1.00  0.00     0.118 C 
BRANCH  23  24
ATOM     24  N   UNL A   1      34.557  29.875  27.383  1.00  0.00    -0.352 N 
ATOM     25  C   UNL A   1      35.615  30.407  28.075  1.00  0.00     0.251 C 
ATOM     26  H   UNL A   1      33.792  30.487  27.286  1.00  0.00     0.163 HD
ATOM     27  O   UNL A   1      35.449  31.507  28.607  1.00  0.00    -0.269 OA
BRANCH  25  28
ATOM     28  C   UNL A   1      36.929  29.725  28.211  1.00  0.00     0.039 A 
ATOM     29  C   UNL A   1      37.169  29.011  29.397  1.00  0.00     0.014 A 
ATOM     30  C   UNL A   1      37.951  29.831  27.262  1.00  0.00     0.014 A 
ATOM     31  C   UNL A   1      38.405  28.403  29.625  1.00  0.00     0.010 A 
ATOM     32  C   UNL A   1      39.167  29.176  27.459  1.00  0.00     0.010 A 
ATOM     33  C   UNL A   1      39.407  28.481  28.652  1.00  0.00    -0.014 A 
BRANCH  33  34
ATOM     34  C   UNL A   1      40.727  27.836  28.893  1.00  0.00     0.031 A 
ATOM     35  C   UNL A   1      40.809  26.365  28.449  1.00  0.00     0.074 A 
ATOM     36  C   UNL A   1      41.678  28.634  29.467  1.00  0.00     0.049 A 
ATOM     37  N   UNL A   1      41.642  25.422  28.779  1.00  0.00    -0.248 NA
ATOM     38  C   UNL A   1      39.751  25.836  27.558  1.00  0.00     0.031 C 
ATOM     39  C   UNL A   1      41.450  30.043  29.859  1.00  0.00     0.029 A 
ATOM     40  N   UNL A   1      42.994  28.454  29.844  1.00  0.00    -0.354 N 
ATOM     41  C   UNL A   1      41.352  24.296  27.965  1.00  0.00     0.074 A 
ATOM     42  C   UNL A   1      40.136  24.589  27.277  1.00  0.00     0.031 C 
ATOM     43  C   UNL A   1      42.541  30.558  30.459  1.00  0.00     0.029 A 
ATOM     44  C   UNL A   1      43.587  29.556  30.502  1.00  0.00     0.049 A 
ATOM     45  H   UNL A   1      43.485  27.619  29.667  1.00  0.00     0.167 HD
ATOM     46  C   UNL A   1      42.177  23.214  27.857  1.00  0.00     0.034 A 
ATOM     47  C   UNL A   1      44.814  29.670  31.095  1.00  0.00     0.034 A 
ATOM     48  C   UNL A   1      43.311  23.388  28.701  1.00  0.00     0.049 A 
ATOM     49  C   UNL A   1      45.528  28.414  30.836  1.00  0.00     0.074 A 
ATOM     50  C   UNL A   1      43.503  23.247  30.048  1.00  0.00     0.029 A 
ATOM     51  N   UNL A   1      44.380  24.045  28.149  1.00  0.00    -0.354 N 
ATOM     52  N   UNL A   1      46.074  28.090  29.701  1.00  0.00    -0.248 NA
ATOM     53  C   UNL A   1      45.547  27.383  31.882  1.00  0.00     0.031 C 
ATOM     54  C   UNL A   1      44.543  24.151  30.345  1.00  0.00     0.029 A 
ATOM     55  C   UNL A   1      44.998  24.739  29.159  1.00  0.00     0.049 A 
ATOM     56  H   UNL A   1      44.654  24.023  27.204  1.00  0.00     0.167 HD
ATOM     57  C   UNL A   1      46.166  26.723  29.805  1.00  0.00     0.074 A 
ATOM     58  C   UNL A   1      46.168  26.417  31.215  1.00  0.00     0.031 C 
ATOM     59  C   UNL A   1      45.715  25.937  28.795  1.00  0.00     0.034 A 
BRANCH  46  60
ATOM     60  C   UNL A   1      42.209  21.992  26.968  1.00  0.00     0.023 A 
ATOM     61  C   UNL A   1      41.211  21.013  27.248  1.00  0.00     0.012 A 
ATOM     62  C   UNL A   1      43.281  21.601  26.147  1.00  0.00     0.148 A 
ATOM     63  C   UNL A   1      41.327  19.683  26.849  1.00  0.00     0.002 A 
ATOM     64  C   UNL A   1      43.371  20.270  25.712  1.00  0.00     0.091 A 
ATOM     65  F   UNL A   1      44.245  22.485  25.866  1.00  0.00    -0.205 F 
ATOM     66  C   UNL A   1      42.420  19.308  26.092  1.00  0.00     0.022 A 
BRANCH  64  67
ATOM     67  S   UNL A   1      44.697  19.674  24.651  1.00  0.00     0.127 S 
ATOM     68  O   UNL A   1      44.392  18.249  24.550  1.00  0.00    -0.237 OA
ATOM     69  O   UNL A   1      44.466  20.427  23.413  1.00  0.00    -0.237 OA
ATOM     70  O   UNL A   1      45.928  20.035  25.336  1.00  0.00    -0.744 OA
ENDBRANCH  64  67
ENDBRANCH  46  60
BRANCH  47  71
ATOM     71  C   UNL A   1      45.454  30.680  32.016  1.00  0.00     0.023 A 
ATOM     72  C   UNL A   1      44.915  31.062  33.254  1.00  0.00     0.012 A 
ATOM     73  C   UNL A   1      46.711  31.261  31.683  1.00  0.00     0.148 A 
ATOM     74  C   UNL A   1      45.644  31.856  34.160  1.00  0.00     0.002 A 
ATOM     75  C   UNL A   1      47.473  31.962  32.610  1.00  0.00     0.091 A 
ATOM     76  F   UNL A   1      47.174  31.175  30.433  1.00  0.00    -0.205 F 
ATOM     77  C   UNL A   1      46.940  32.264  33.859  1.00  0.00     0.022 A 
BRANCH  75  78
ATOM     78  S   UNL A   1      49.201  32.372  32.301  1.00  0.00     0.127 S 
ATOM     79  O   UNL A   1      49.100  33.341  31.212  1.00  0.00    -0.237 OA
ATOM     80  O   UNL A   1      49.602  32.932  33.591  1.00  0.00    -0.237 OA
ATOM     81  O   UNL A   1      49.865  31.121  31.956  1.00  0.00    -0.744 OA
ENDBRANCH  75  78
ENDBRANCH  47  71
BRANCH  59  82
ATOM     82  C   UNL A   1      45.707  26.618  27.435  1.00  0.00     0.023 A 
ATOM     83  C   UNL A   1      44.474  27.129  26.985  1.00  0.00     0.012 A 
ATOM     84  C   UNL A   1      46.803  26.660  26.541  1.00  0.00     0.148 A 
ATOM     85  C   UNL A   1      44.330  27.652  25.697  1.00  0.00     0.002 A 
ATOM     86  C   UNL A   1      46.659  27.183  25.253  1.00  0.00     0.091 A 
ATOM     87  F   UNL A   1      47.978  26.178  26.944  1.00  0.00    -0.205 F 
ATOM     88  C   UNL A   1      45.419  27.680  24.834  1.00  0.00     0.022 A 
BRANCH  86  89
ATOM     89  S   UNL A   1      47.986  27.204  24.028  1.00  0.00     0.127 S 
ATOM     90  O   UNL A   1      48.155  25.780  23.723  1.00  0.00    -0.237 OA
ATOM     91  O   UNL A   1      47.390  27.979  22.944  1.00  0.00    -0.237 OA
ATOM     92  O   UNL A   1      49.145  27.812  24.671  1.00  0.00    -0.744 OA
ENDBRANCH  86  89
ENDBRANCH  59  82
ENDBRANCH  33  34
ENDBRANCH  25  28
ENDBRANCH  23  24
ENDBRANCH  22  23
ENDBRANCH   1  22
TORSDOF 17
ENDMDL
