MODEL 1
REMARK VINA RESULT:     -13.3      0.000      0.000
REMARK SMILES COc1cc2c(CC(=O)NCCCNC(=O)c3ccc(-c4c5nc(c(-c6cccc(S(=O)(=O)[O-])c6F)c6ccc([nH]6)c(-c6cccc(S(=O)(=O)[O-])c6F)c6nc(c(-c7cccc(S(=O)(=O)[O-])c7F)c7ccc4[nH]7)C=C6)C=C5)cc3)c(C)n(C(=O)c3ccc(Cl)cc3)c2cc1Cl
REMARK SMILES IDX 12 1 11 2 10 3 8 4 9 5 7 7 6 8 3 9 4 10 94 11 5 12 93 13
REMARK SMILES IDX 95 14 92 15 80 16 82 17 81 18 2 19 1 20 83 21 84 22 85 23
REMARK SMILES IDX 86 24 91 25 87 26 90 27 88 28 89 29 13 30 14 31 15 32 16 34
REMARK SMILES IDX 17 35 18 36 79 37 19 38 78 39 20 40 21 41 22 42 72 43 23 44
REMARK SMILES IDX 77 45 71 46 73 47 24 48 76 49 70 50 69 51 25 53 57 54 37 55
REMARK SMILES IDX 56 56 38 57 41 58 55 59 74 60 39 61 40 62 54 64 75 65 42 66
REMARK SMILES IDX 26 67 27 68 35 69 28 70 30 71 36 72 29 73 31 74 32 75 33 76
REMARK SMILES IDX 34 77 58 78 59 79 67 80 60 81 62 82 68 83 61 84 63 85 64 86
REMARK SMILES IDX 65 87 66 88 43 89 44 90 52 91 45 92 47 93 53 94 46 95 48 96
REMARK SMILES IDX 49 97 50 98 51 99
REMARK H PARENT 10 6 14 33 73 52 41 63
REMARK Flexibility Score: inf
ROOT
ATOM      1  C   UNL A   1      31.783  29.000  26.825  1.00  0.00     0.042 C 
ENDROOT
BRANCH   1   2
ATOM      2  C   UNL A   1      31.476  27.858  25.853  1.00  0.00     0.117 C 
BRANCH   2   3
ATOM      3  N   UNL A   1      31.237  26.587  26.518  1.00  0.00    -0.356 N 
ATOM      4  C   UNL A   1      32.005  25.458  26.531  1.00  0.00     0.224 C 
ATOM      5  O   UNL A   1      31.625  24.503  27.217  1.00  0.00    -0.275 OA
ATOM      6  H   UNL A   1      30.399  26.533  27.033  1.00  0.00     0.163 HD
BRANCH   4   7
ATOM      7  C   UNL A   1      33.316  25.399  25.763  1.00  0.00     0.138 C 
BRANCH   7   8
ATOM      8  C   UNL A   1      33.566  24.070  25.110  1.00  0.00    -0.009 A 
ATOM      9  C   UNL A   1      37.021  22.535  25.745  1.00  0.00     0.138 A 
ATOM     10  C   UNL A   1      36.002  23.492  25.846  1.00  0.00     0.058 A 
ATOM     11  C   UNL A   1      36.803  21.376  25.011  1.00  0.00     0.085 A 
ATOM     12  C   UNL A   1      34.757  23.294  25.198  1.00  0.00     0.008 A 
ATOM     13  C   UNL A   1      35.606  21.199  24.309  1.00  0.00     0.051 A 
ATOM     14  Cl  UNL A   1      37.916  20.053  24.979  1.00  0.00    -0.080 Cl
ATOM     15  C   UNL A   1      34.558  22.132  24.446  1.00  0.00     0.058 A 
ATOM     16  C   UNL A   1      32.703  23.402  24.248  1.00  0.00     0.028 A 
ATOM     17  N   UNL A   1      33.225  22.128  23.990  1.00  0.00    -0.280 N 
ATOM     18  C   UNL A   1      31.398  23.912  23.711  1.00  0.00     0.065 C 
BRANCH   9  19
ATOM     19  O   UNL A   1      38.165  22.796  26.457  1.00  0.00    -0.495 OA
ATOM     20  C   UNL A   1      38.480  24.189  26.498  1.00  0.00     0.278 C 
ENDBRANCH   9  19
BRANCH  17  21
ATOM     21  C   UNL A   1      32.530  21.030  23.395  1.00  0.00     0.262 C 
ATOM     22  O   UNL A   1      31.869  21.230  22.378  1.00  0.00    -0.268 OA
BRANCH  21  23
ATOM     23  C   UNL A   1      32.533  19.650  23.910  1.00  0.00     0.040 A 
ATOM     24  C   UNL A   1      32.573  19.400  25.287  1.00  0.00     0.015 A 
ATOM     25  C   UNL A   1      32.576  18.597  22.989  1.00  0.00     0.015 A 
ATOM     26  C   UNL A   1      32.767  18.091  25.738  1.00  0.00     0.021 A 
ATOM     27  C   UNL A   1      32.755  17.291  23.448  1.00  0.00     0.021 A 
ATOM     28  C   UNL A   1      32.879  17.047  24.817  1.00  0.00     0.041 A 
ATOM     29  Cl  UNL A   1      33.218  15.454  25.370  1.00  0.00    -0.084 Cl
ENDBRANCH  21  23
ENDBRANCH  17  21
ENDBRANCH   7   8
ENDBRANCH   4   7
ENDBRANCH   2   3
ENDBRANCH   1   2
BRANCH   1  30
ATOM     30  C   UNL A   1      33.219  29.523  26.742  1.00  0.00     0.118 C 
BRANCH  30  31
ATOM     31  N   UNL A   1      33.395  30.845  27.312  1.00  0.00    -0.352 N 
ATOM     32  C   UNL A   1      34.407  31.535  27.919  1.00  0.00     0.251 C 
ATOM     33  H   UNL A   1      32.575  31.384  27.244  1.00  0.00     0.163 HD
ATOM     34  O   UNL A   1      34.148  32.717  28.170  1.00  0.00    -0.269 OA
BRANCH  32  35
ATOM     35  C   UNL A   1      35.733  30.991  28.325  1.00  0.00     0.039 A 
ATOM     36  C   UNL A   1      36.834  31.740  28.741  1.00  0.00     0.014 A 
ATOM     37  C   UNL A   1      35.873  29.590  28.239  1.00  0.00     0.014 A 
ATOM     38  C   UNL A   1      38.050  31.108  29.011  1.00  0.00     0.010 A 
ATOM     39  C   UNL A   1      37.084  28.955  28.511  1.00  0.00     0.010 A 
ATOM     40  C   UNL A   1      38.187  29.719  28.870  1.00  0.00    -0.014 A 
BRANCH  40  41
ATOM     41  C   UNL A   1      39.464  29.106  29.242  1.00  0.00     0.031 A 
ATOM     42  C   UNL A   1      39.852  29.292  30.667  1.00  0.00     0.074 A 
ATOM     43  C   UNL A   1      40.228  28.335  28.439  1.00  0.00     0.049 A 
ATOM     44  N   UNL A   1      40.809  30.027  31.134  1.00  0.00    -0.248 NA
ATOM     45  C   UNL A   1      39.004  28.678  31.699  1.00  0.00     0.031 C 
ATOM     46  C   UNL A   1      39.899  27.809  27.113  1.00  0.00     0.029 A 
ATOM     47  N   UNL A   1      41.444  27.766  28.702  1.00  0.00    -0.354 N 
ATOM     48  C   UNL A   1      40.835  29.777  32.503  1.00  0.00     0.074 A 
ATOM     49  C   UNL A   1      39.612  29.079  32.816  1.00  0.00     0.031 C 
ATOM     50  C   UNL A   1      40.775  26.830  26.791  1.00  0.00     0.029 A 
ATOM     51  C   UNL A   1      41.801  26.752  27.815  1.00  0.00     0.049 A 
ATOM     52  H   UNL A   1      42.018  28.049  29.451  1.00  0.00     0.167 HD
ATOM     53  C   UNL A   1      41.964  29.941  33.245  1.00  0.00     0.034 A 
ATOM     54  C   UNL A   1      42.834  25.881  27.956  1.00  0.00     0.034 A 
ATOM     55  C   UNL A   1      42.964  30.717  32.567  1.00  0.00     0.049 A 
ATOM     56  C   UNL A   1      43.818  26.529  28.853  1.00  0.00     0.074 A 
ATOM     57  C   UNL A   1      43.016  31.973  31.998  1.00  0.00     0.029 A 
ATOM     58  N   UNL A   1      44.058  30.039  32.087  1.00  0.00    -0.354 N 
ATOM     59  N   UNL A   1      44.510  27.587  28.532  1.00  0.00    -0.248 NA
ATOM     60  C   UNL A   1      43.794  26.198  30.268  1.00  0.00     0.031 C 
ATOM     61  C   UNL A   1      43.844  31.819  30.849  1.00  0.00     0.029 A 
ATOM     62  C   UNL A   1      44.277  30.491  30.815  1.00  0.00     0.049 A 
ATOM     63  H   UNL A   1      44.583  29.359  32.566  1.00  0.00     0.167 HD
ATOM     64  C   UNL A   1      44.632  28.290  29.721  1.00  0.00     0.074 A 
ATOM     65  C   UNL A   1      44.286  27.333  30.767  1.00  0.00     0.031 C 
ATOM     66  C   UNL A   1      44.721  29.651  29.727  1.00  0.00     0.034 A 
BRANCH  53  67
ATOM     67  C   UNL A   1      42.317  29.085  34.433  1.00  0.00     0.023 A 
ATOM     68  C   UNL A   1      42.801  29.723  35.595  1.00  0.00     0.012 A 
ATOM     69  C   UNL A   1      42.466  27.683  34.353  1.00  0.00     0.148 A 
ATOM     70  C   UNL A   1      43.418  28.999  36.620  1.00  0.00     0.002 A 
ATOM     71  C   UNL A   1      43.004  26.959  35.408  1.00  0.00     0.091 A 
ATOM     72  F   UNL A   1      42.218  27.054  33.198  1.00  0.00    -0.205 F 
ATOM     73  C   UNL A   1      43.507  27.613  36.535  1.00  0.00     0.022 A 
BRANCH  71  74
ATOM     74  S   UNL A   1      43.097  25.167  35.357  1.00  0.00     0.127 S 
ATOM     75  O   UNL A   1      43.765  24.947  34.078  1.00  0.00    -0.237 OA
ATOM     76  O   UNL A   1      43.907  24.875  36.540  1.00  0.00    -0.237 OA
ATOM     77  O   UNL A   1      41.716  24.712  35.453  1.00  0.00    -0.744 OA
ENDBRANCH  71  74
ENDBRANCH  53  67
BRANCH  54  78
ATOM     78  C   UNL A   1      42.970  24.452  27.560  1.00  0.00     0.023 A 
ATOM     79  C   UNL A   1      41.923  23.552  27.865  1.00  0.00     0.012 A 
ATOM     80  C   UNL A   1      43.952  24.022  26.641  1.00  0.00     0.148 A 
ATOM     81  C   UNL A   1      41.820  22.308  27.230  1.00  0.00     0.002 A 
ATOM     82  C   UNL A   1      43.854  22.776  26.023  1.00  0.00     0.091 A 
ATOM     83  F   UNL A   1      44.931  24.865  26.290  1.00  0.00    -0.205 F 
ATOM     84  C   UNL A   1      42.778  21.924  26.300  1.00  0.00     0.022 A 
BRANCH  82  85
ATOM     85  S   UNL A   1      45.066  22.220  24.815  1.00  0.00     0.127 S 
ATOM     86  O   UNL A   1      45.098  23.339  23.872  1.00  0.00    -0.237 OA
ATOM     87  O   UNL A   1      46.267  22.074  25.631  1.00  0.00    -0.237 OA
ATOM     88  O   UNL A   1      44.521  20.989  24.255  1.00  0.00    -0.744 OA
ENDBRANCH  82  85
ENDBRANCH  54  78
BRANCH  66  89
ATOM     89  C   UNL A   1      44.999  30.363  28.431  1.00  0.00     0.023 A 
ATOM     90  C   UNL A   1      43.960  30.776  27.572  1.00  0.00     0.012 A 
ATOM     91  C   UNL A   1      46.304  30.834  28.209  1.00  0.00     0.148 A 
ATOM     92  C   UNL A   1      44.220  31.649  26.513  1.00  0.00     0.002 A 
ATOM     93  C   UNL A   1      46.550  31.736  27.183  1.00  0.00     0.091 A 
ATOM     94  F   UNL A   1      47.269  30.437  29.053  1.00  0.00    -0.205 F 
ATOM     95  C   UNL A   1      45.512  32.143  26.330  1.00  0.00     0.022 A 
BRANCH  93  96
ATOM     96  S   UNL A   1      48.154  32.511  26.964  1.00  0.00     0.127 S 
ATOM     97  O   UNL A   1      47.874  33.512  25.936  1.00  0.00    -0.237 OA
ATOM     98  O   UNL A   1      48.414  33.059  28.296  1.00  0.00    -0.237 OA
ATOM     99  O   UNL A   1      49.069  31.452  26.559  1.00  0.00    -0.744 OA
ENDBRANCH  93  96
ENDBRANCH  66  89
ENDBRANCH  40  41
ENDBRANCH  32  35
ENDBRANCH  30  31
ENDBRANCH   1  30
TORSDOF 17
ENDMDL
MODEL 2
REMARK VINA RESULT:     -13.1      3.623      9.207
REMARK SMILES COc1cc2c(CC(=O)NCCCNC(=O)c3ccc(-c4c5nc(c(-c6cccc(S(=O)(=O)[O-])c6F)c6ccc([nH]6)c(-c6cccc(S(=O)(=O)[O-])c6F)c6nc(c(-c7cccc(S(=O)(=O)[O-])c7F)c7ccc4[nH]7)C=C6)C=C5)cc3)c(C)n(C(=O)c3ccc(Cl)cc3)c2cc1Cl
REMARK SMILES IDX 12 1 11 2 10 3 8 4 9 5 7 7 6 8 3 9 4 10 94 11 5 12 93 13
REMARK SMILES IDX 95 14 92 15 80 16 82 17 81 18 2 19 1 20 83 21 84 22 85 23
REMARK SMILES IDX 86 24 91 25 87 26 90 27 88 28 89 29 13 30 14 31 15 32 16 34
REMARK SMILES IDX 17 35 18 36 79 37 19 38 78 39 20 40 21 41 22 42 72 43 23 44
REMARK SMILES IDX 77 45 71 46 73 47 24 48 76 49 70 50 69 51 25 53 57 54 37 55
REMARK SMILES IDX 56 56 38 57 41 58 55 59 74 60 39 61 40 62 54 64 75 65 42 66
REMARK SMILES IDX 26 67 27 68 35 69 28 70 30 71 36 72 29 73 31 74 32 75 33 76
REMARK SMILES IDX 34 77 58 78 59 79 67 80 60 81 62 82 68 83 61 84 63 85 64 86
REMARK SMILES IDX 65 87 66 88 43 89 44 90 52 91 45 92 47 93 53 94 46 95 48 96
REMARK SMILES IDX 49 97 50 98 51 99
REMARK H PARENT 10 6 14 33 73 52 41 63
REMARK Flexibility Score: inf
ROOT
ATOM      1  C   UNL A   1      36.414  21.768  24.318  1.00  0.00     0.042 C 
ENDROOT
BRANCH   1   2
ATOM      2  C   UNL A   1      34.925  22.108  24.197  1.00  0.00     0.117 C 
BRANCH   2   3
ATOM      3  N   UNL A   1      34.647  23.115  23.185  1.00  0.00    -0.356 N 
ATOM      4  C   UNL A   1      34.307  24.429  23.340  1.00  0.00     0.224 C 
ATOM      5  O   UNL A   1      34.168  25.119  22.325  1.00  0.00    -0.275 OA
ATOM      6  H   UNL A   1      34.712  22.803  22.253  1.00  0.00     0.163 HD
BRANCH   4   7
ATOM      7  C   UNL A   1      34.155  25.035  24.727  1.00  0.00     0.138 C 
BRANCH   7   8
ATOM      8  C   UNL A   1      32.984  25.967  24.846  1.00  0.00    -0.009 A 
ATOM      9  C   UNL A   1      33.725  29.362  26.465  1.00  0.00     0.138 A 
ATOM     10  C   UNL A   1      34.013  28.076  25.988  1.00  0.00     0.058 A 
ATOM     11  C   UNL A   1      32.435  29.864  26.349  1.00  0.00     0.085 A 
ATOM     12  C   UNL A   1      32.999  27.280  25.398  1.00  0.00     0.008 A 
ATOM     13  C   UNL A   1      31.410  29.065  25.833  1.00  0.00     0.051 A 
ATOM     14  Cl  UNL A   1      32.019  31.499  26.729  1.00  0.00    -0.080 Cl
ATOM     15  C   UNL A   1      31.701  27.790  25.305  1.00  0.00     0.058 A 
ATOM     16  C   UNL A   1      31.667  25.681  24.501  1.00  0.00     0.028 A 
ATOM     17  N   UNL A   1      30.912  26.858  24.603  1.00  0.00    -0.280 N 
ATOM     18  C   UNL A   1      31.126  24.359  24.043  1.00  0.00     0.065 C 
BRANCH   9  19
ATOM     19  O   UNL A   1      34.789  30.071  26.964  1.00  0.00    -0.495 OA
ATOM     20  C   UNL A   1      35.217  29.592  28.240  1.00  0.00     0.278 C 
ENDBRANCH   9  19
BRANCH  17  21
ATOM     21  C   UNL A   1      29.601  27.072  24.076  1.00  0.00     0.262 C 
ATOM     22  O   UNL A   1      28.701  26.298  24.397  1.00  0.00    -0.268 OA
BRANCH  21  23
ATOM     23  C   UNL A   1      29.228  28.162  23.158  1.00  0.00     0.040 A 
ATOM     24  C   UNL A   1      30.199  28.809  22.383  1.00  0.00     0.015 A 
ATOM     25  C   UNL A   1      27.895  28.588  23.139  1.00  0.00     0.015 A 
ATOM     26  C   UNL A   1      29.847  29.958  21.670  1.00  0.00     0.021 A 
ATOM     27  C   UNL A   1      27.550  29.728  22.413  1.00  0.00     0.021 A 
ATOM     28  C   UNL A   1      28.532  30.424  21.705  1.00  0.00     0.041 A 
ATOM     29  Cl  UNL A   1      28.126  31.894  20.909  1.00  0.00    -0.084 Cl
ENDBRANCH  21  23
ENDBRANCH  17  21
ENDBRANCH   7   8
ENDBRANCH   4   7
ENDBRANCH   2   3
ENDBRANCH   1   2
BRANCH   1  30
ATOM     30  C   UNL A   1      36.977  21.920  25.732  1.00  0.00     0.118 C 
BRANCH  30  31
ATOM     31  N   UNL A   1      38.315  21.384  25.890  1.00  0.00    -0.352 N 
ATOM     32  C   UNL A   1      39.502  21.819  26.412  1.00  0.00     0.251 C 
ATOM     33  H   UNL A   1      38.388  20.471  25.530  1.00  0.00     0.163 HD
ATOM     34  O   UNL A   1      40.399  20.970  26.432  1.00  0.00    -0.269 OA
BRANCH  32  35
ATOM     35  C   UNL A   1      39.804  23.193  26.903  1.00  0.00     0.039 A 
ATOM     36  C   UNL A   1      39.160  24.365  26.508  1.00  0.00     0.014 A 
ATOM     37  C   UNL A   1      40.868  23.294  27.824  1.00  0.00     0.014 A 
ATOM     38  C   UNL A   1      39.602  25.602  26.982  1.00  0.00     0.010 A 
ATOM     39  C   UNL A   1      41.309  24.526  28.302  1.00  0.00     0.010 A 
ATOM     40  C   UNL A   1      40.694  25.689  27.858  1.00  0.00    -0.014 A 
BRANCH  40  41
ATOM     41  C   UNL A   1      41.061  27.007  28.381  1.00  0.00     0.031 A 
ATOM     42  C   UNL A   1      42.368  27.527  27.895  1.00  0.00     0.074 A 
ATOM     43  C   UNL A   1      40.282  27.787  29.160  1.00  0.00     0.049 A 
ATOM     44  N   UNL A   1      43.461  27.670  28.574  1.00  0.00    -0.248 NA
ATOM     45  C   UNL A   1      42.508  27.813  26.460  1.00  0.00     0.031 C 
ATOM     46  C   UNL A   1      38.876  27.589  29.517  1.00  0.00     0.029 A 
ATOM     47  N   UNL A   1      40.571  29.003  29.717  1.00  0.00    -0.354 N 
ATOM     48  C   UNL A   1      44.356  28.291  27.709  1.00  0.00     0.074 A 
ATOM     49  C   UNL A   1      43.781  28.205  26.390  1.00  0.00     0.031 C 
ATOM     50  C   UNL A   1      38.379  28.738  30.029  1.00  0.00     0.029 A 
ATOM     51  C   UNL A   1      39.453  29.705  30.163  1.00  0.00     0.049 A 
ATOM     52  H   UNL A   1      41.489  29.351  29.796  1.00  0.00     0.167 HD
ATOM     53  C   UNL A   1      45.391  29.050  28.165  1.00  0.00     0.034 A 
ATOM     54  C   UNL A   1      39.418  31.005  30.554  1.00  0.00     0.034 A 
ATOM     55  C   UNL A   1      45.661  28.838  29.558  1.00  0.00     0.049 A 
ATOM     56  C   UNL A   1      40.793  31.361  30.974  1.00  0.00     0.074 A 
ATOM     57  C   UNL A   1      45.962  27.746  30.347  1.00  0.00     0.029 A 
ATOM     58  N   UNL A   1      45.289  29.838  30.423  1.00  0.00    -0.354 N 
ATOM     59  N   UNL A   1      41.386  30.866  32.024  1.00  0.00    -0.248 NA
ATOM     60  C   UNL A   1      41.661  32.029  30.018  1.00  0.00     0.031 C 
ATOM     61  C   UNL A   1      45.293  27.992  31.581  1.00  0.00     0.029 A 
ATOM     62  C   UNL A   1      44.664  29.235  31.480  1.00  0.00     0.049 A 
ATOM     63  H   UNL A   1      45.444  30.802  30.306  1.00  0.00     0.167 HD
ATOM     64  C   UNL A   1      42.718  30.769  31.652  1.00  0.00     0.074 A 
ATOM     65  C   UNL A   1      42.845  31.609  30.466  1.00  0.00     0.031 C 
ATOM     66  C   UNL A   1      43.522  29.795  32.167  1.00  0.00     0.034 A 
BRANCH  53  67
ATOM     67  C   UNL A   1      45.919  30.263  27.446  1.00  0.00     0.023 A 
ATOM     68  C   UNL A   1      47.311  30.494  27.461  1.00  0.00     0.012 A 
ATOM     69  C   UNL A   1      45.091  31.323  27.014  1.00  0.00     0.148 A 
ATOM     70  C   UNL A   1      47.849  31.728  27.079  1.00  0.00     0.002 A 
ATOM     71  C   UNL A   1      45.634  32.516  26.559  1.00  0.00     0.091 A 
ATOM     72  F   UNL A   1      43.765  31.236  27.176  1.00  0.00    -0.205 F 
ATOM     73  C   UNL A   1      47.012  32.736  26.613  1.00  0.00     0.022 A 
BRANCH  71  74
ATOM     74  S   UNL A   1      44.593  33.825  25.908  1.00  0.00     0.127 S 
ATOM     75  O   UNL A   1      45.590  34.787  25.445  1.00  0.00    -0.237 OA
ATOM     76  O   UNL A   1      43.862  33.129  24.849  1.00  0.00    -0.237 OA
ATOM     77  O   UNL A   1      43.762  34.244  27.029  1.00  0.00    -0.744 OA
ENDBRANCH  71  74
ENDBRANCH  53  67
BRANCH  54  78
ATOM     78  C   UNL A   1      38.358  32.042  30.413  1.00  0.00     0.023 A 
ATOM     79  C   UNL A   1      38.028  32.513  29.122  1.00  0.00     0.012 A 
ATOM     80  C   UNL A   1      37.474  32.354  31.468  1.00  0.00     0.148 A 
ATOM     81  C   UNL A   1      36.833  33.203  28.879  1.00  0.00     0.002 A 
ATOM     82  C   UNL A   1      36.294  33.057  31.225  1.00  0.00     0.091 A 
ATOM     83  F   UNL A   1      37.729  31.884  32.695  1.00  0.00    -0.205 F 
ATOM     84  C   UNL A   1      35.960  33.465  29.928  1.00  0.00     0.022 A 
BRANCH  82  85
ATOM     85  S   UNL A   1      35.126  33.430  32.542  1.00  0.00     0.127 S 
ATOM     86  O   UNL A   1      34.957  34.878  32.404  1.00  0.00    -0.237 OA
ATOM     87  O   UNL A   1      33.963  32.640  32.153  1.00  0.00    -0.237 OA
ATOM     88  O   UNL A   1      35.789  33.026  33.776  1.00  0.00    -0.744 OA
ENDBRANCH  82  85
ENDBRANCH  54  78
BRANCH  66  89
ATOM     89  C   UNL A   1      43.047  29.023  33.367  1.00  0.00     0.023 A 
ATOM     90  C   UNL A   1      42.166  27.929  33.246  1.00  0.00     0.012 A 
ATOM     91  C   UNL A   1      43.692  29.256  34.593  1.00  0.00     0.148 A 
ATOM     92  C   UNL A   1      41.941  27.077  34.330  1.00  0.00     0.002 A 
ATOM     93  C   UNL A   1      43.499  28.382  35.654  1.00  0.00     0.091 A 
ATOM     94  F   UNL A   1      44.537  30.295  34.674  1.00  0.00    -0.205 F 
ATOM     95  C   UNL A   1      42.621  27.294  35.529  1.00  0.00     0.022 A 
BRANCH  93  96
ATOM     96  S   UNL A   1      44.432  28.520  37.181  1.00  0.00     0.127 S 
ATOM     97  O   UNL A   1      43.967  27.356  37.933  1.00  0.00    -0.237 OA
ATOM     98  O   UNL A   1      45.813  28.430  36.705  1.00  0.00    -0.237 OA
ATOM     99  O   UNL A   1      44.078  29.809  37.762  1.00  0.00    -0.744 OA
ENDBRANCH  93  96
ENDBRANCH  66  89
ENDBRANCH  40  41
ENDBRANCH  32  35
ENDBRANCH  30  31
ENDBRANCH   1  30
TORSDOF 17
ENDMDL
MODEL 3
REMARK VINA RESULT:     -13.0      3.951      7.871
REMARK SMILES COc1cc2c(CC(=O)NCCCNC(=O)c3ccc(-c4c5nc(c(-c6cccc(S(=O)(=O)[O-])c6F)c6ccc([nH]6)c(-c6cccc(S(=O)(=O)[O-])c6F)c6nc(c(-c7cccc(S(=O)(=O)[O-])c7F)c7ccc4[nH]7)C=C6)C=C5)cc3)c(C)n(C(=O)c3ccc(Cl)cc3)c2cc1Cl
REMARK SMILES IDX 12 1 11 2 10 3 8 4 9 5 7 7 6 8 3 9 4 10 94 11 5 12 93 13
REMARK SMILES IDX 95 14 92 15 80 16 82 17 81 18 2 19 1 20 83 21 84 22 85 23
REMARK SMILES IDX 86 24 91 25 87 26 90 27 88 28 89 29 13 30 14 31 15 32 16 34
REMARK SMILES IDX 17 35 18 36 79 37 19 38 78 39 20 40 21 41 22 42 72 43 23 44
REMARK SMILES IDX 77 45 71 46 73 47 24 48 76 49 70 50 69 51 25 53 57 54 37 55
REMARK SMILES IDX 56 56 38 57 41 58 55 59 74 60 39 61 40 62 54 64 75 65 42 66
REMARK SMILES IDX 26 67 27 68 35 69 28 70 30 71 36 72 29 73 31 74 32 75 33 76
REMARK SMILES IDX 34 77 58 78 59 79 67 80 60 81 62 82 68 83 61 84 63 85 64 86
REMARK SMILES IDX 65 87 66 88 43 89 44 90 52 91 45 92 47 93 53 94 46 95 48 96
REMARK SMILES IDX 49 97 50 98 51 99
REMARK H PARENT 10 6 14 33 73 52 41 63
REMARK Flexibility Score: inf
ROOT
ATOM      1  C   UNL A   1      34.341  22.201  24.013  1.00  0.00     0.042 C 
ENDROOT
BRANCH   1   2
ATOM      2  C   UNL A   1      33.580  22.884  22.872  1.00  0.00     0.117 C 
BRANCH   2   3
ATOM      3  N   UNL A   1      32.183  23.137  23.186  1.00  0.00    -0.356 N 
ATOM      4  C   UNL A   1      31.460  24.288  23.053  1.00  0.00     0.224 C 
ATOM      5  O   UNL A   1      30.258  24.258  23.336  1.00  0.00    -0.275 OA
ATOM      6  H   UNL A   1      31.687  22.367  23.547  1.00  0.00     0.163 HD
BRANCH   4   7
ATOM      7  C   UNL A   1      32.108  25.558  22.523  1.00  0.00     0.138 C 
BRANCH   7   8
ATOM      8  C   UNL A   1      31.996  26.723  23.464  1.00  0.00    -0.009 A 
ATOM      9  C   UNL A   1      29.410  29.385  22.501  1.00  0.00     0.138 A 
ATOM     10  C   UNL A   1      30.143  28.198  22.367  1.00  0.00     0.058 A 
ATOM     11  C   UNL A   1      29.628  30.205  23.601  1.00  0.00     0.085 A 
ATOM     12  C   UNL A   1      31.111  27.832  23.336  1.00  0.00     0.008 A 
ATOM     13  C   UNL A   1      30.627  29.892  24.528  1.00  0.00     0.051 A 
ATOM     14  Cl  UNL A   1      28.651  31.585  23.960  1.00  0.00    -0.080 Cl
ATOM     15  C   UNL A   1      31.333  28.675  24.428  1.00  0.00     0.058 A 
ATOM     16  C   UNL A   1      32.786  26.955  24.584  1.00  0.00     0.028 A 
ATOM     17  N   UNL A   1      32.260  28.049  25.284  1.00  0.00    -0.280 N 
ATOM     18  C   UNL A   1      33.975  26.154  25.025  1.00  0.00     0.065 C 
BRANCH   9  19
ATOM     19  O   UNL A   1      28.459  29.617  21.540  1.00  0.00    -0.495 OA
ATOM     20  C   UNL A   1      28.551  30.929  20.981  1.00  0.00     0.278 C 
ENDBRANCH   9  19
BRANCH  17  21
ATOM     21  C   UNL A   1      32.589  28.439  26.619  1.00  0.00     0.262 C 
ATOM     22  O   UNL A   1      31.987  27.913  27.554  1.00  0.00    -0.268 OA
BRANCH  21  23
ATOM     23  C   UNL A   1      33.606  29.442  26.980  1.00  0.00     0.040 A 
ATOM     24  C   UNL A   1      34.946  29.072  27.150  1.00  0.00     0.015 A 
ATOM     25  C   UNL A   1      33.189  30.754  27.226  1.00  0.00     0.015 A 
ATOM     26  C   UNL A   1      35.849  30.000  27.675  1.00  0.00     0.021 A 
ATOM     27  C   UNL A   1      34.100  31.680  27.736  1.00  0.00     0.021 A 
ATOM     28  C   UNL A   1      35.418  31.291  27.986  1.00  0.00     0.041 A 
ATOM     29  Cl  UNL A   1      36.506  32.400  28.725  1.00  0.00    -0.084 Cl
ENDBRANCH  21  23
ENDBRANCH  17  21
ENDBRANCH   7   8
ENDBRANCH   4   7
ENDBRANCH   2   3
ENDBRANCH   1   2
BRANCH   1  30
ATOM     30  C   UNL A   1      35.827  22.559  24.076  1.00  0.00     0.118 C 
BRANCH  30  31
ATOM     31  N   UNL A   1      36.697  21.417  24.280  1.00  0.00    -0.352 N 
ATOM     32  C   UNL A   1      37.790  21.129  25.050  1.00  0.00     0.251 C 
ATOM     33  H   UNL A   1      36.432  20.652  23.721  1.00  0.00     0.163 HD
ATOM     34  O   UNL A   1      38.173  19.956  24.984  1.00  0.00    -0.269 OA
BRANCH  32  35
ATOM     35  C   UNL A   1      38.555  22.087  25.898  1.00  0.00     0.039 A 
ATOM     36  C   UNL A   1      38.223  23.421  26.131  1.00  0.00     0.014 A 
ATOM     37  C   UNL A   1      39.737  21.582  26.478  1.00  0.00     0.014 A 
ATOM     38  C   UNL A   1      39.077  24.236  26.879  1.00  0.00     0.010 A 
ATOM     39  C   UNL A   1      40.590  22.390  27.227  1.00  0.00     0.010 A 
ATOM     40  C   UNL A   1      40.274  23.731  27.405  1.00  0.00    -0.014 A 
BRANCH  40  41
ATOM     41  C   UNL A   1      41.089  24.612  28.245  1.00  0.00     0.031 A 
ATOM     42  C   UNL A   1      40.518  25.970  28.460  1.00  0.00     0.074 A 
ATOM     43  C   UNL A   1      42.222  24.257  28.888  1.00  0.00     0.049 A 
ATOM     44  N   UNL A   1      40.955  27.092  27.985  1.00  0.00    -0.248 NA
ATOM     45  C   UNL A   1      39.250  26.078  29.193  1.00  0.00     0.031 C 
ATOM     46  C   UNL A   1      42.795  22.917  29.033  1.00  0.00     0.029 A 
ATOM     47  N   UNL A   1      43.053  25.030  29.652  1.00  0.00    -0.354 N 
ATOM     48  C   UNL A   1      40.154  28.074  28.559  1.00  0.00     0.074 A 
ATOM     49  C   UNL A   1      39.031  27.393  29.154  1.00  0.00     0.031 C 
ATOM     50  C   UNL A   1      43.734  22.936  30.007  1.00  0.00     0.029 A 
ATOM     51  C   UNL A   1      43.926  24.303  30.458  1.00  0.00     0.049 A 
ATOM     52  H   UNL A   1      43.036  26.014  29.633  1.00  0.00     0.167 HD
ATOM     53  C   UNL A   1      40.588  29.354  28.723  1.00  0.00     0.034 A 
ATOM     54  C   UNL A   1      44.701  24.794  31.460  1.00  0.00     0.034 A 
ATOM     55  C   UNL A   1      41.753  29.648  27.937  1.00  0.00     0.049 A 
ATOM     56  C   UNL A   1      44.902  26.234  31.176  1.00  0.00     0.074 A 
ATOM     57  C   UNL A   1      42.078  29.586  26.597  1.00  0.00     0.029 A 
ATOM     58  N   UNL A   1      42.945  29.759  28.610  1.00  0.00    -0.354 N 
ATOM     59  N   UNL A   1      45.591  26.688  30.167  1.00  0.00    -0.248 NA
ATOM     60  C   UNL A   1      44.037  27.199  31.833  1.00  0.00     0.031 C 
ATOM     61  C   UNL A   1      43.441  29.172  26.571  1.00  0.00     0.029 A 
ATOM     62  C   UNL A   1      43.871  29.050  27.895  1.00  0.00     0.049 A 
ATOM     63  H   UNL A   1      43.103  30.253  29.446  1.00  0.00     0.167 HD
ATOM     64  C   UNL A   1      44.929  27.847  29.793  1.00  0.00     0.074 A 
ATOM     65  C   UNL A   1      44.065  28.174  30.923  1.00  0.00     0.031 C 
ATOM     66  C   UNL A   1      44.927  28.269  28.496  1.00  0.00     0.034 A 
BRANCH  53  67
ATOM     67  C   UNL A   1      40.186  30.234  29.877  1.00  0.00     0.023 A 
ATOM     68  C   UNL A   1      39.819  31.568  29.604  1.00  0.00     0.012 A 
ATOM     69  C   UNL A   1      40.432  29.892  31.226  1.00  0.00     0.148 A 
ATOM     70  C   UNL A   1      39.718  32.520  30.624  1.00  0.00     0.002 A 
ATOM     71  C   UNL A   1      40.251  30.819  32.243  1.00  0.00     0.091 A 
ATOM     72  F   UNL A   1      40.981  28.708  31.520  1.00  0.00    -0.205 F 
ATOM     73  C   UNL A   1      39.919  32.143  31.947  1.00  0.00     0.022 A 
BRANCH  71  74
ATOM     74  S   UNL A   1      40.457  30.362  33.966  1.00  0.00     0.127 S 
ATOM     75  O   UNL A   1      39.949  31.552  34.645  1.00  0.00    -0.237 OA
ATOM     76  O   UNL A   1      39.605  29.177  34.067  1.00  0.00    -0.237 OA
ATOM     77  O   UNL A   1      41.880  30.088  34.121  1.00  0.00    -0.744 OA
ENDBRANCH  71  74
ENDBRANCH  53  67
BRANCH  54  78
ATOM     78  C   UNL A   1      45.121  24.193  32.756  1.00  0.00     0.023 A 
ATOM     79  C   UNL A   1      44.342  23.155  33.316  1.00  0.00     0.012 A 
ATOM     80  C   UNL A   1      46.409  24.406  33.294  1.00  0.00     0.148 A 
ATOM     81  C   UNL A   1      44.851  22.320  34.320  1.00  0.00     0.002 A 
ATOM     82  C   UNL A   1      46.904  23.583  34.305  1.00  0.00     0.091 A 
ATOM     83  F   UNL A   1      47.194  25.347  32.757  1.00  0.00    -0.205 F 
ATOM     84  C   UNL A   1      46.136  22.526  34.806  1.00  0.00     0.022 A 
BRANCH  82  85
ATOM     85  S   UNL A   1      48.558  23.802  34.979  1.00  0.00     0.127 S 
ATOM     86  O   UNL A   1      48.528  22.937  36.160  1.00  0.00    -0.237 OA
ATOM     87  O   UNL A   1      49.400  23.319  33.889  1.00  0.00    -0.237 OA
ATOM     88  O   UNL A   1      48.667  25.223  35.289  1.00  0.00    -0.744 OA
ENDBRANCH  82  85
ENDBRANCH  54  78
BRANCH  66  89
ATOM     89  C   UNL A   1      45.901  27.647  27.532  1.00  0.00     0.023 A 
ATOM     90  C   UNL A   1      47.253  28.044  27.483  1.00  0.00     0.012 A 
ATOM     91  C   UNL A   1      45.498  26.487  26.850  1.00  0.00     0.148 A 
ATOM     92  C   UNL A   1      48.188  27.289  26.771  1.00  0.00     0.002 A 
ATOM     93  C   UNL A   1      46.438  25.716  26.180  1.00  0.00     0.091 A 
ATOM     94  F   UNL A   1      44.208  26.125  26.929  1.00  0.00    -0.205 F 
ATOM     95  C   UNL A   1      47.783  26.115  26.134  1.00  0.00     0.022 A 
BRANCH  93  96
ATOM     96  S   UNL A   1      46.019  24.132  25.447  1.00  0.00     0.127 S 
ATOM     97  O   UNL A   1      46.917  24.079  24.295  1.00  0.00    -0.237 OA
ATOM     98  O   UNL A   1      46.350  23.199  26.524  1.00  0.00    -0.237 OA
ATOM     99  O   UNL A   1      44.600  24.195  25.119  1.00  0.00    -0.744 OA
ENDBRANCH  93  96
ENDBRANCH  66  89
ENDBRANCH  40  41
ENDBRANCH  32  35
ENDBRANCH  30  31
ENDBRANCH   1  30
TORSDOF 17
ENDMDL
