MODEL 1
REMARK VINA RESULT:     -12.3      0.000      0.000
REMARK SMILES CCC(CC)(NC(=O)c1cc(C)ccc1OC)C(=O)NCCCNC(=O)c1ccc(-c2c3nc(c(-c4cccc(S(=O)(=O)[O-])c4F)c4ccc([nH]4)c(-c4cccc(S(=O)(=O)[O-])c4F)c4nc(c(-c5cccc(S(=O)(=O)[O-])c5F)c5ccc2[nH]5)C=C4)C=C3)cc1
REMARK SMILES IDX 22 1 21 2 20 3 18 4 19 5 3 7 2 8 1 9 4 10 5 11 6 12 7 13
REMARK SMILES IDX 8 15 9 16 10 17 15 18 11 19 14 20 12 21 13 22 16 23 17 24
REMARK SMILES IDX 23 25 24 26 25 27 26 29 27 30 28 31 89 32 29 33 88 34 30 35
REMARK SMILES IDX 31 36 32 37 82 38 33 39 87 40 81 41 83 42 34 43 86 44 80 45
REMARK SMILES IDX 79 46 35 48 67 49 47 50 66 51 48 52 51 53 65 54 84 55 49 56
REMARK SMILES IDX 50 57 64 59 85 60 52 61 36 62 37 63 45 64 38 65 40 66 46 67
REMARK SMILES IDX 39 68 41 69 42 70 43 71 44 72 68 73 69 74 77 75 70 76 72 77
REMARK SMILES IDX 78 78 71 79 73 80 74 81 75 82 76 83 53 84 54 85 62 86 55 87
REMARK SMILES IDX 57 88 63 89 56 90 58 91 59 92 60 93 61 94
REMARK H PARENT 20 6 6 14 24 28 83 47 51 58
REMARK Flexibility Score: inf
ROOT
ATOM      1  C   UNL A   1      32.642  29.881  26.397  1.00  0.00     0.042 C 
ENDROOT
BRANCH   1   2
ATOM      2  C   UNL A   1      31.432  30.103  25.428  1.00  0.00     0.117 C 
BRANCH   2   3
ATOM      3  N   UNL A   1      31.234  29.458  24.108  1.00  0.00    -0.354 N 
ATOM      4  C   UNL A   1      31.395  28.274  23.426  1.00  0.00     0.245 C 
ATOM      5  O   UNL A   1      30.781  28.269  22.341  1.00  0.00    -0.272 OA
ATOM      6  H   UNL A   1      30.843  30.120  23.493  1.00  0.00     0.163 HD
BRANCH   4   7
ATOM      7  C   UNL A   1      32.292  26.978  23.772  1.00  0.00     0.118 C 
BRANCH   7   8
ATOM      8  C   UNL A   1      31.781  26.404  25.152  1.00  0.00     0.035 C 
ATOM      9  C   UNL A   1      30.377  25.817  25.221  1.00  0.00     0.007 C 
ENDBRANCH   7   8
BRANCH   7  10
ATOM     10  C   UNL A   1      33.759  27.473  23.874  1.00  0.00     0.035 C 
ATOM     11  C   UNL A   1      34.258  28.415  22.785  1.00  0.00     0.007 C 
ENDBRANCH   7  10
BRANCH   7  12
ATOM     12  N   UNL A   1      32.290  25.701  22.901  1.00  0.00    -0.338 N 
ATOM     13  C   UNL A   1      33.182  24.667  22.638  1.00  0.00     0.255 C 
ATOM     14  H   UNL A   1      31.445  25.592  22.409  1.00  0.00     0.164 HD
ATOM     15  O   UNL A   1      33.217  24.175  21.513  1.00  0.00    -0.269 OA
BRANCH  13  16
ATOM     16  C   UNL A   1      33.957  24.051  23.727  1.00  0.00     0.082 A 
ATOM     17  C   UNL A   1      35.346  24.099  23.885  1.00  0.00     0.021 A 
ATOM     18  C   UNL A   1      33.271  23.276  24.621  1.00  0.00     0.131 A 
ATOM     19  C   UNL A   1      35.878  23.728  25.122  1.00  0.00    -0.050 A 
ATOM     20  C   UNL A   1      33.695  23.345  25.929  1.00  0.00     0.047 A 
ATOM     21  C   UNL A   1      37.284  23.286  25.384  1.00  0.00     0.044 C 
ATOM     22  C   UNL A   1      35.000  23.692  26.186  1.00  0.00     0.007 A 
BRANCH  18  23
ATOM     23  O   UNL A   1      32.159  22.555  24.305  1.00  0.00    -0.496 OA
ATOM     24  C   UNL A   1      32.175  21.185  24.729  1.00  0.00     0.278 C 
ENDBRANCH  18  23
ENDBRANCH  13  16
ENDBRANCH   7  12
ENDBRANCH   4   7
ENDBRANCH   2   3
ENDBRANCH   1   2
BRANCH   1  25
ATOM     25  C   UNL A   1      33.290  30.914  27.350  1.00  0.00     0.118 C 
BRANCH  25  26
ATOM     26  N   UNL A   1      34.728  31.139  27.331  1.00  0.00    -0.352 N 
ATOM     27  C   UNL A   1      35.392  31.313  28.570  1.00  0.00     0.251 C 
ATOM     28  H   UNL A   1      35.224  31.171  26.481  1.00  0.00     0.163 HD
ATOM     29  O   UNL A   1      35.048  32.108  29.439  1.00  0.00    -0.269 OA
BRANCH  27  30
ATOM     30  C   UNL A   1      36.374  30.229  28.865  1.00  0.00     0.039 A 
ATOM     31  C   UNL A   1      36.617  29.580  30.078  1.00  0.00     0.014 A 
ATOM     32  C   UNL A   1      37.099  29.846  27.752  1.00  0.00     0.014 A 
ATOM     33  C   UNL A   1      37.742  28.726  30.203  1.00  0.00     0.010 A 
ATOM     34  C   UNL A   1      38.177  29.016  27.872  1.00  0.00     0.010 A 
ATOM     35  C   UNL A   1      38.571  28.520  29.104  1.00  0.00    -0.014 A 
BRANCH  35  36
ATOM     36  C   UNL A   1      39.914  27.945  29.032  1.00  0.00     0.031 A 
ATOM     37  C   UNL A   1      40.176  26.525  28.766  1.00  0.00     0.074 A 
ATOM     38  C   UNL A   1      40.920  28.834  28.838  1.00  0.00     0.049 A 
ATOM     39  N   UNL A   1      41.285  25.944  29.075  1.00  0.00    -0.248 NA
ATOM     40  C   UNL A   1      39.230  25.663  28.072  1.00  0.00     0.031 C 
ATOM     41  C   UNL A   1      42.250  28.619  28.284  1.00  0.00     0.029 A 
ATOM     42  N   UNL A   1      40.932  30.181  29.216  1.00  0.00    -0.354 N 
ATOM     43  C   UNL A   1      41.312  24.736  28.411  1.00  0.00     0.074 A 
ATOM     44  C   UNL A   1      39.977  24.568  27.876  1.00  0.00     0.031 C 
ATOM     45  C   UNL A   1      43.026  29.664  28.615  1.00  0.00     0.029 A 
ATOM     46  C   UNL A   1      42.257  30.498  29.525  1.00  0.00     0.049 A 
ATOM     47  H   UNL A   1      40.158  30.787  29.256  1.00  0.00     0.167 HD
ATOM     48  C   UNL A   1      42.499  24.090  28.228  1.00  0.00     0.034 A 
ATOM     49  C   UNL A   1      42.633  30.886  30.779  1.00  0.00     0.034 A 
ATOM     50  C   UNL A   1      43.624  24.921  28.681  1.00  0.00     0.049 A 
ATOM     51  C   UNL A   1      43.614  29.917  31.404  1.00  0.00     0.074 A 
ATOM     52  C   UNL A   1      44.490  25.755  27.990  1.00  0.00     0.029 A 
ATOM     53  N   UNL A   1      43.803  25.200  30.030  1.00  0.00    -0.354 N 
ATOM     54  N   UNL A   1      43.932  28.764  30.886  1.00  0.00    -0.248 NA
ATOM     55  C   UNL A   1      44.306  30.161  32.664  1.00  0.00     0.031 C 
ATOM     56  C   UNL A   1      45.147  26.585  28.931  1.00  0.00     0.029 A 
ATOM     57  C   UNL A   1      44.703  26.244  30.197  1.00  0.00     0.049 A 
ATOM     58  H   UNL A   1      43.353  24.725  30.766  1.00  0.00     0.167 HD
ATOM     59  C   UNL A   1      44.729  28.061  31.750  1.00  0.00     0.074 A 
ATOM     60  C   UNL A   1      44.999  29.017  32.811  1.00  0.00     0.031 C 
ATOM     61  C   UNL A   1      45.038  26.743  31.529  1.00  0.00     0.034 A 
BRANCH  48  62
ATOM     62  C   UNL A   1      42.700  22.869  27.343  1.00  0.00     0.023 A 
ATOM     63  C   UNL A   1      42.008  21.684  27.690  1.00  0.00     0.012 A 
ATOM     64  C   UNL A   1      43.516  22.795  26.192  1.00  0.00     0.148 A 
ATOM     65  C   UNL A   1      42.186  20.476  27.011  1.00  0.00     0.002 A 
ATOM     66  C   UNL A   1      43.740  21.572  25.543  1.00  0.00     0.091 A 
ATOM     67  F   UNL A   1      44.027  23.919  25.673  1.00  0.00    -0.205 F 
ATOM     68  C   UNL A   1      43.079  20.411  25.955  1.00  0.00     0.022 A 
BRANCH  66  69
ATOM     69  S   UNL A   1      44.941  21.379  24.214  1.00  0.00     0.127 S 
ATOM     70  O   UNL A   1      44.519  22.410  23.263  1.00  0.00    -0.237 OA
ATOM     71  O   UNL A   1      46.207  21.657  24.887  1.00  0.00    -0.237 OA
ATOM     72  O   UNL A   1      44.773  20.017  23.720  1.00  0.00    -0.744 OA
ENDBRANCH  66  69
ENDBRANCH  48  62
BRANCH  49  73
ATOM     73  C   UNL A   1      41.563  31.650  31.498  1.00  0.00     0.023 A 
ATOM     74  C   UNL A   1      41.103  32.828  30.859  1.00  0.00     0.012 A 
ATOM     75  C   UNL A   1      40.739  31.039  32.461  1.00  0.00     0.148 A 
ATOM     76  C   UNL A   1      39.805  33.302  31.064  1.00  0.00     0.002 A 
ATOM     77  C   UNL A   1      39.442  31.519  32.661  1.00  0.00     0.091 A 
ATOM     78  F   UNL A   1      41.186  29.945  33.089  1.00  0.00    -0.205 F 
ATOM     79  C   UNL A   1      38.962  32.622  31.936  1.00  0.00     0.022 A 
BRANCH  77  80
ATOM     80  S   UNL A   1      38.281  30.672  33.745  1.00  0.00     0.127 S 
ATOM     81  O   UNL A   1      38.699  31.156  35.056  1.00  0.00    -0.237 OA
ATOM     82  O   UNL A   1      36.988  31.184  33.288  1.00  0.00    -0.237 OA
ATOM     83  O   UNL A   1      38.490  29.257  33.476  1.00  0.00    -0.744 OA
ENDBRANCH  77  80
ENDBRANCH  49  73
BRANCH  61  84
ATOM     84  C   UNL A   1      45.698  25.803  32.528  1.00  0.00     0.023 A 
ATOM     85  C   UNL A   1      47.094  25.720  32.680  1.00  0.00     0.012 A 
ATOM     86  C   UNL A   1      44.921  25.052  33.453  1.00  0.00     0.148 A 
ATOM     87  C   UNL A   1      47.695  24.897  33.639  1.00  0.00     0.002 A 
ATOM     88  C   UNL A   1      45.522  24.329  34.483  1.00  0.00     0.091 A 
ATOM     89  F   UNL A   1      43.588  25.006  33.332  1.00  0.00    -0.205 F 
ATOM     90  C   UNL A   1      46.909  24.221  34.558  1.00  0.00     0.022 A 
BRANCH  88  91
ATOM     91  S   UNL A   1      44.546  23.651  35.834  1.00  0.00     0.127 S 
ATOM     92  O   UNL A   1      43.786  24.817  36.274  1.00  0.00    -0.237 OA
ATOM     93  O   UNL A   1      43.749  22.623  35.160  1.00  0.00    -0.237 OA
ATOM     94  O   UNL A   1      45.523  23.122  36.775  1.00  0.00    -0.744 OA
ENDBRANCH  88  91
ENDBRANCH  61  84
ENDBRANCH  35  36
ENDBRANCH  27  30
ENDBRANCH  25  26
ENDBRANCH   1  25
TORSDOF 18
ENDMDL
MODEL 2
REMARK VINA RESULT:     -12.2      3.881      9.439
REMARK SMILES CCC(CC)(NC(=O)c1cc(C)ccc1OC)C(=O)NCCCNC(=O)c1ccc(-c2c3nc(c(-c4cccc(S(=O)(=O)[O-])c4F)c4ccc([nH]4)c(-c4cccc(S(=O)(=O)[O-])c4F)c4nc(c(-c5cccc(S(=O)(=O)[O-])c5F)c5ccc2[nH]5)C=C4)C=C3)cc1
REMARK SMILES IDX 22 1 21 2 20 3 18 4 19 5 3 7 2 8 1 9 4 10 5 11 6 12 7 13
REMARK SMILES IDX 8 15 9 16 10 17 15 18 11 19 14 20 12 21 13 22 16 23 17 24
REMARK SMILES IDX 23 25 24 26 25 27 26 29 27 30 28 31 89 32 29 33 88 34 30 35
REMARK SMILES IDX 31 36 32 37 82 38 33 39 87 40 81 41 83 42 34 43 86 44 80 45
REMARK SMILES IDX 79 46 35 48 67 49 47 50 66 51 48 52 51 53 65 54 84 55 49 56
REMARK SMILES IDX 50 57 64 59 85 60 52 61 36 62 37 63 45 64 38 65 40 66 46 67
REMARK SMILES IDX 39 68 41 69 42 70 43 71 44 72 68 73 69 74 77 75 70 76 72 77
REMARK SMILES IDX 78 78 71 79 73 80 74 81 75 82 76 83 53 84 54 85 62 86 55 87
REMARK SMILES IDX 57 88 63 89 56 90 58 91 59 92 60 93 61 94
REMARK H PARENT 20 6 6 14 24 28 83 47 51 58
REMARK Flexibility Score: inf
ROOT
ATOM      1  C   UNL A   1      37.167  21.668  25.420  1.00  0.00     0.042 C 
ENDROOT
BRANCH   1   2
ATOM      2  C   UNL A   1      36.137  20.564  25.005  1.00  0.00     0.117 C 
BRANCH   2   3
ATOM      3  N   UNL A   1      34.708  20.504  25.395  1.00  0.00    -0.354 N 
ATOM      4  C   UNL A   1      33.542  21.235  25.422  1.00  0.00     0.245 C 
ATOM      5  O   UNL A   1      32.546  20.523  25.652  1.00  0.00    -0.272 OA
ATOM      6  H   UNL A   1      34.525  19.613  25.773  1.00  0.00     0.163 HD
BRANCH   4   7
ATOM      7  C   UNL A   1      33.299  22.825  25.288  1.00  0.00     0.118 C 
BRANCH   7   8
ATOM      8  C   UNL A   1      33.630  23.229  23.798  1.00  0.00     0.035 C 
ATOM      9  C   UNL A   1      32.814  22.604  22.674  1.00  0.00     0.007 C 
ENDBRANCH   7   8
BRANCH   7  10
ATOM     10  C   UNL A   1      34.271  23.505  26.288  1.00  0.00     0.035 C 
ATOM     11  C   UNL A   1      35.358  24.400  25.708  1.00  0.00     0.007 C 
ENDBRANCH   7  10
BRANCH   7  12
ATOM     12  N   UNL A   1      31.910  23.478  25.470  1.00  0.00    -0.338 N 
ATOM     13  C   UNL A   1      31.428  24.683  25.965  1.00  0.00     0.255 C 
ATOM     14  H   UNL A   1      31.184  22.892  25.156  1.00  0.00     0.164 HD
ATOM     15  O   UNL A   1      30.357  24.701  26.569  1.00  0.00    -0.269 OA
BRANCH  13  16
ATOM     16  C   UNL A   1      32.097  25.951  25.634  1.00  0.00     0.082 A 
ATOM     17  C   UNL A   1      32.683  26.841  26.541  1.00  0.00     0.021 A 
ATOM     18  C   UNL A   1      32.063  26.352  24.327  1.00  0.00     0.131 A 
ATOM     19  C   UNL A   1      33.531  27.828  26.034  1.00  0.00    -0.050 A 
ATOM     20  C   UNL A   1      33.195  26.981  23.859  1.00  0.00     0.047 A 
ATOM     21  C   UNL A   1      33.903  29.109  26.713  1.00  0.00     0.044 C 
ATOM     22  C   UNL A   1      34.007  27.636  24.753  1.00  0.00     0.007 A 
BRANCH  18  23
ATOM     23  O   UNL A   1      31.043  26.065  23.470  1.00  0.00    -0.496 OA
ATOM     24  C   UNL A   1      30.611  27.155  22.643  1.00  0.00     0.278 C 
ENDBRANCH  18  23
ENDBRANCH  13  16
ENDBRANCH   7  12
ENDBRANCH   4   7
ENDBRANCH   2   3
ENDBRANCH   1   2
BRANCH   1  25
ATOM     25  C   UNL A   1      38.686  21.501  25.658  1.00  0.00     0.118 C 
BRANCH  25  26
ATOM     26  N   UNL A   1      39.336  22.155  26.785  1.00  0.00    -0.352 N 
ATOM     27  C   UNL A   1      40.521  22.890  26.536  1.00  0.00     0.251 C 
ATOM     28  H   UNL A   1      38.964  22.087  27.693  1.00  0.00     0.163 HD
ATOM     29  O   UNL A   1      41.496  22.456  25.929  1.00  0.00    -0.269 OA
BRANCH  27  30
ATOM     30  C   UNL A   1      40.372  24.350  26.805  1.00  0.00     0.039 A 
ATOM     31  C   UNL A   1      40.896  25.427  26.088  1.00  0.00     0.014 A 
ATOM     32  C   UNL A   1      39.590  24.611  27.915  1.00  0.00     0.014 A 
ATOM     33  C   UNL A   1      40.820  26.735  26.629  1.00  0.00     0.010 A 
ATOM     34  C   UNL A   1      39.510  25.873  28.432  1.00  0.00     0.010 A 
ATOM     35  C   UNL A   1      40.193  26.932  27.856  1.00  0.00    -0.014 A 
BRANCH  35  36
ATOM     36  C   UNL A   1      40.226  28.085  28.756  1.00  0.00     0.031 A 
ATOM     37  C   UNL A   1      39.223  29.156  28.740  1.00  0.00     0.074 A 
ATOM     38  C   UNL A   1      40.997  27.939  29.864  1.00  0.00     0.049 A 
ATOM     39  N   UNL A   1      39.438  30.329  29.233  1.00  0.00    -0.248 NA
ATOM     40  C   UNL A   1      37.875  28.969  28.224  1.00  0.00     0.031 C 
ATOM     41  C   UNL A   1      40.921  28.635  31.141  1.00  0.00     0.029 A 
ATOM     42  N   UNL A   1      42.123  27.119  29.998  1.00  0.00    -0.354 N 
ATOM     43  C   UNL A   1      38.216  30.958  29.337  1.00  0.00     0.074 A 
ATOM     44  C   UNL A   1      37.290  30.111  28.614  1.00  0.00     0.031 C 
ATOM     45  C   UNL A   1      42.079  28.451  31.798  1.00  0.00     0.029 A 
ATOM     46  C   UNL A   1      42.984  27.766  30.889  1.00  0.00     0.049 A 
ATOM     47  H   UNL A   1      42.278  26.256  29.553  1.00  0.00     0.167 HD
ATOM     48  C   UNL A   1      38.074  32.031  30.168  1.00  0.00     0.034 A 
ATOM     49  C   UNL A   1      44.226  28.189  30.513  1.00  0.00     0.034 A 
ATOM     50  C   UNL A   1      39.296  32.247  30.957  1.00  0.00     0.049 A 
ATOM     51  C   UNL A   1      44.369  29.693  30.615  1.00  0.00     0.074 A 
ATOM     52  C   UNL A   1      39.640  31.867  32.245  1.00  0.00     0.029 A 
ATOM     53  N   UNL A   1      40.468  32.674  30.347  1.00  0.00    -0.354 N 
ATOM     54  N   UNL A   1      43.381  30.506  30.864  1.00  0.00    -0.248 NA
ATOM     55  C   UNL A   1      45.629  30.403  30.436  1.00  0.00     0.031 C 
ATOM     56  C   UNL A   1      41.042  32.009  32.387  1.00  0.00     0.029 A 
ATOM     57  C   UNL A   1      41.553  32.497  31.196  1.00  0.00     0.049 A 
ATOM     58  H   UNL A   1      40.524  33.049  29.438  1.00  0.00     0.167 HD
ATOM     59  C   UNL A   1      43.797  31.805  30.753  1.00  0.00     0.074 A 
ATOM     60  C   UNL A   1      45.234  31.683  30.565  1.00  0.00     0.031 C 
ATOM     61  C   UNL A   1      42.906  32.848  30.773  1.00  0.00     0.034 A 
BRANCH  48  62
ATOM     62  C   UNL A   1      36.749  32.681  30.533  1.00  0.00     0.023 A 
ATOM     63  C   UNL A   1      36.248  32.465  31.840  1.00  0.00     0.012 A 
ATOM     64  C   UNL A   1      35.955  33.494  29.693  1.00  0.00     0.148 A 
ATOM     65  C   UNL A   1      35.000  32.930  32.260  1.00  0.00     0.002 A 
ATOM     66  C   UNL A   1      34.679  33.915  30.092  1.00  0.00     0.091 A 
ATOM     67  F   UNL A   1      36.457  33.925  28.529  1.00  0.00    -0.205 F 
ATOM     68  C   UNL A   1      34.198  33.629  31.373  1.00  0.00     0.022 A 
BRANCH  66  69
ATOM     69  S   UNL A   1      33.539  34.759  28.981  1.00  0.00     0.127 S 
ATOM     70  O   UNL A   1      34.376  35.830  28.434  1.00  0.00    -0.237 OA
ATOM     71  O   UNL A   1      33.194  33.712  28.023  1.00  0.00    -0.237 OA
ATOM     72  O   UNL A   1      32.445  35.235  29.819  1.00  0.00    -0.744 OA
ENDBRANCH  66  69
ENDBRANCH  48  62
BRANCH  49  73
ATOM     73  C   UNL A   1      44.854  27.309  29.476  1.00  0.00     0.023 A 
ATOM     74  C   UNL A   1      45.059  25.957  29.849  1.00  0.00     0.012 A 
ATOM     75  C   UNL A   1      44.808  27.632  28.107  1.00  0.00     0.148 A 
ATOM     76  C   UNL A   1      45.075  24.938  28.893  1.00  0.00     0.002 A 
ATOM     77  C   UNL A   1      44.825  26.607  27.157  1.00  0.00     0.091 A 
ATOM     78  F   UNL A   1      44.647  28.913  27.754  1.00  0.00    -0.205 F 
ATOM     79  C   UNL A   1      44.917  25.261  27.551  1.00  0.00     0.022 A 
BRANCH  77  80
ATOM     80  S   UNL A   1      44.589  26.943  25.405  1.00  0.00     0.127 S 
ATOM     81  O   UNL A   1      45.942  27.300  24.992  1.00  0.00    -0.237 OA
ATOM     82  O   UNL A   1      44.115  25.656  24.895  1.00  0.00    -0.237 OA
ATOM     83  O   UNL A   1      43.595  28.004  25.363  1.00  0.00    -0.744 OA
ENDBRANCH  77  80
ENDBRANCH  49  73
BRANCH  61  84
ATOM     84  C   UNL A   1      43.219  34.294  30.414  1.00  0.00     0.023 A 
ATOM     85  C   UNL A   1      43.519  35.266  31.386  1.00  0.00     0.012 A 
ATOM     86  C   UNL A   1      43.351  34.703  29.058  1.00  0.00     0.148 A 
ATOM     87  C   UNL A   1      43.862  36.580  31.049  1.00  0.00     0.002 A 
ATOM     88  C   UNL A   1      43.809  35.977  28.728  1.00  0.00     0.091 A 
ATOM     89  F   UNL A   1      43.007  33.870  28.067  1.00  0.00    -0.205 F 
ATOM     90  C   UNL A   1      44.033  36.930  29.720  1.00  0.00     0.022 A 
BRANCH  88  91
ATOM     91  S   UNL A   1      44.282  36.387  27.041  1.00  0.00     0.127 S 
ATOM     92  O   UNL A   1      43.100  35.977  26.287  1.00  0.00    -0.237 OA
ATOM     93  O   UNL A   1      44.485  37.835  27.115  1.00  0.00    -0.237 OA
ATOM     94  O   UNL A   1      45.500  35.628  26.796  1.00  0.00    -0.744 OA
ENDBRANCH  88  91
ENDBRANCH  61  84
ENDBRANCH  35  36
ENDBRANCH  27  30
ENDBRANCH  25  26
ENDBRANCH   1  25
TORSDOF 18
ENDMDL
MODEL 3
REMARK VINA RESULT:     -11.9      1.310      2.097
REMARK SMILES CCC(CC)(NC(=O)c1cc(C)ccc1OC)C(=O)NCCCNC(=O)c1ccc(-c2c3nc(c(-c4cccc(S(=O)(=O)[O-])c4F)c4ccc([nH]4)c(-c4cccc(S(=O)(=O)[O-])c4F)c4nc(c(-c5cccc(S(=O)(=O)[O-])c5F)c5ccc2[nH]5)C=C4)C=C3)cc1
REMARK SMILES IDX 22 1 21 2 20 3 18 4 19 5 3 7 2 8 1 9 4 10 5 11 6 12 7 13
REMARK SMILES IDX 8 15 9 16 10 17 15 18 11 19 14 20 12 21 13 22 16 23 17 24
REMARK SMILES IDX 23 25 24 26 25 27 26 29 27 30 28 31 89 32 29 33 88 34 30 35
REMARK SMILES IDX 31 36 32 37 82 38 33 39 87 40 81 41 83 42 34 43 86 44 80 45
REMARK SMILES IDX 79 46 35 48 67 49 47 50 66 51 48 52 51 53 65 54 84 55 49 56
REMARK SMILES IDX 50 57 64 59 85 60 52 61 36 62 37 63 45 64 38 65 40 66 46 67
REMARK SMILES IDX 39 68 41 69 42 70 43 71 44 72 68 73 69 74 77 75 70 76 72 77
REMARK SMILES IDX 78 78 71 79 73 80 74 81 75 82 76 83 53 84 54 85 62 86 55 87
REMARK SMILES IDX 57 88 63 89 56 90 58 91 59 92 60 93 61 94
REMARK H PARENT 20 6 6 14 24 28 83 47 51 58
REMARK Flexibility Score: inf
ROOT
ATOM      1  C   UNL A   1      32.635  30.082  26.178  1.00  0.00     0.042 C 
ENDROOT
BRANCH   1   2
ATOM      2  C   UNL A   1      31.342  30.404  25.357  1.00  0.00     0.117 C 
BRANCH   2   3
ATOM      3  N   UNL A   1      31.035  29.940  23.982  1.00  0.00    -0.354 N 
ATOM      4  C   UNL A   1      31.027  28.828  23.172  1.00  0.00     0.245 C 
ATOM      5  O   UNL A   1      30.396  29.022  22.115  1.00  0.00    -0.272 OA
ATOM      6  H   UNL A   1      30.722  30.711  23.456  1.00  0.00     0.163 HD
BRANCH   4   7
ATOM      7  C   UNL A   1      31.755  27.399  23.346  1.00  0.00     0.118 C 
BRANCH   7   8
ATOM      8  C   UNL A   1      33.270  27.588  22.941  1.00  0.00     0.035 C 
ATOM      9  C   UNL A   1      34.224  28.207  23.954  1.00  0.00     0.007 C 
ENDBRANCH   7   8
BRANCH   7  10
ATOM     10  C   UNL A   1      31.031  26.416  22.388  1.00  0.00     0.035 C 
ATOM     11  C   UNL A   1      31.799  25.943  21.159  1.00  0.00     0.007 C 
ENDBRANCH   7  10
BRANCH   7  12
ATOM     12  N   UNL A   1      31.901  26.694  24.714  1.00  0.00    -0.338 N 
ATOM     13  C   UNL A   1      31.804  25.389  25.183  1.00  0.00     0.255 C 
ATOM     14  H   UNL A   1      32.117  27.329  25.434  1.00  0.00     0.164 HD
ATOM     15  O   UNL A   1      31.341  25.185  26.303  1.00  0.00    -0.269 OA
BRANCH  13  16
ATOM     16  C   UNL A   1      32.397  24.274  24.428  1.00  0.00     0.082 A 
ATOM     17  C   UNL A   1      31.705  23.214  23.834  1.00  0.00     0.021 A 
ATOM     18  C   UNL A   1      33.763  24.211  24.377  1.00  0.00     0.131 A 
ATOM     19  C   UNL A   1      32.387  22.423  22.908  1.00  0.00    -0.050 A 
ATOM     20  C   UNL A   1      34.303  23.770  23.190  1.00  0.00     0.047 A 
ATOM     21  C   UNL A   1      32.024  21.030  22.495  1.00  0.00     0.044 C 
ATOM     22  C   UNL A   1      33.551  22.949  22.384  1.00  0.00     0.007 A 
BRANCH  18  23
ATOM     23  O   UNL A   1      34.581  24.658  25.371  1.00  0.00    -0.496 OA
ATOM     24  C   UNL A   1      35.871  24.032  25.431  1.00  0.00     0.278 C 
ENDBRANCH  18  23
ENDBRANCH  13  16
ENDBRANCH   7  12
ENDBRANCH   4   7
ENDBRANCH   2   3
ENDBRANCH   1   2
BRANCH   1  25
ATOM     25  C   UNL A   1      33.270  30.927  27.309  1.00  0.00     0.118 C 
BRANCH  25  26
ATOM     26  N   UNL A   1      34.698  31.212  27.308  1.00  0.00    -0.352 N 
ATOM     27  C   UNL A   1      35.344  31.382  28.557  1.00  0.00     0.251 C 
ATOM     28  H   UNL A   1      35.198  31.286  26.464  1.00  0.00     0.163 HD
ATOM     29  O   UNL A   1      34.960  32.139  29.443  1.00  0.00    -0.269 OA
BRANCH  27  30
ATOM     30  C   UNL A   1      36.368  30.332  28.834  1.00  0.00     0.039 A 
ATOM     31  C   UNL A   1      36.593  29.625  30.016  1.00  0.00     0.014 A 
ATOM     32  C   UNL A   1      37.159  30.055  27.734  1.00  0.00     0.014 A 
ATOM     33  C   UNL A   1      37.755  28.822  30.143  1.00  0.00     0.010 A 
ATOM     34  C   UNL A   1      38.274  29.274  27.855  1.00  0.00     0.010 A 
ATOM     35  C   UNL A   1      38.640  28.725  29.073  1.00  0.00    -0.014 A 
BRANCH  35  36
ATOM     36  C   UNL A   1      40.013  28.223  29.029  1.00  0.00     0.031 A 
ATOM     37  C   UNL A   1      40.363  26.844  28.666  1.00  0.00     0.074 A 
ATOM     38  C   UNL A   1      40.980  29.173  28.961  1.00  0.00     0.049 A 
ATOM     39  N   UNL A   1      41.484  26.294  28.988  1.00  0.00    -0.248 NA
ATOM     40  C   UNL A   1      39.500  25.997  27.856  1.00  0.00     0.031 C 
ATOM     41  C   UNL A   1      42.346  29.068  28.465  1.00  0.00     0.029 A 
ATOM     42  N   UNL A   1      40.902  30.483  29.444  1.00  0.00    -0.354 N 
ATOM     43  C   UNL A   1      41.608  25.147  28.233  1.00  0.00     0.074 A 
ATOM     44  C   UNL A   1      40.312  24.958  27.615  1.00  0.00     0.031 C 
ATOM     45  C   UNL A   1      43.048  30.119  28.920  1.00  0.00     0.029 A 
ATOM     46  C   UNL A   1      42.191  30.837  29.850  1.00  0.00     0.049 A 
ATOM     47  H   UNL A   1      40.096  31.046  29.490  1.00  0.00     0.167 HD
ATOM     48  C   UNL A   1      42.835  24.576  28.066  1.00  0.00     0.034 A 
ATOM     49  C   UNL A   1      42.482  31.140  31.149  1.00  0.00     0.034 A 
ATOM     50  C   UNL A   1      43.890  25.421  28.643  1.00  0.00     0.049 A 
ATOM     51  C   UNL A   1      43.480  30.171  31.748  1.00  0.00     0.074 A 
ATOM     52  C   UNL A   1      44.745  26.349  28.069  1.00  0.00     0.029 A 
ATOM     53  N   UNL A   1      43.985  25.597  30.018  1.00  0.00    -0.354 N 
ATOM     54  N   UNL A   1      43.884  29.081  31.159  1.00  0.00    -0.248 NA
ATOM     55  C   UNL A   1      44.094  30.344  33.059  1.00  0.00     0.031 C 
ATOM     56  C   UNL A   1      45.309  27.130  29.107  1.00  0.00     0.029 A 
ATOM     57  C   UNL A   1      44.820  26.666  30.316  1.00  0.00     0.049 A 
ATOM     58  H   UNL A   1      43.525  25.042  30.688  1.00  0.00     0.167 HD
ATOM     59  C   UNL A   1      44.672  28.349  32.006  1.00  0.00     0.074 A 
ATOM     60  C   UNL A   1      44.838  29.227  33.153  1.00  0.00     0.031 C 
ATOM     61  C   UNL A   1      45.061  27.070  31.699  1.00  0.00     0.034 A 
BRANCH  48  62
ATOM     62  C   UNL A   1      43.144  23.443  27.099  1.00  0.00     0.023 A 
ATOM     63  C   UNL A   1      43.946  23.741  25.971  1.00  0.00     0.012 A 
ATOM     64  C   UNL A   1      42.711  22.102  27.213  1.00  0.00     0.148 A 
ATOM     65  C   UNL A   1      44.217  22.809  24.966  1.00  0.00     0.002 A 
ATOM     66  C   UNL A   1      42.934  21.181  26.180  1.00  0.00     0.091 A 
ATOM     67  F   UNL A   1      42.139  21.690  28.352  1.00  0.00    -0.205 F 
ATOM     68  C   UNL A   1      43.683  21.535  25.054  1.00  0.00     0.022 A 
BRANCH  66  69
ATOM     69  S   UNL A   1      42.213  19.530  26.173  1.00  0.00     0.127 S 
ATOM     70  O   UNL A   1      40.785  19.817  26.012  1.00  0.00    -0.237 OA
ATOM     71  O   UNL A   1      42.841  18.914  25.008  1.00  0.00    -0.237 OA
ATOM     72  O   UNL A   1      42.554  18.941  27.462  1.00  0.00    -0.744 OA
ENDBRANCH  66  69
ENDBRANCH  48  62
BRANCH  49  73
ATOM     73  C   UNL A   1      41.339  31.790  31.867  1.00  0.00     0.023 A 
ATOM     74  C   UNL A   1      40.894  33.027  31.337  1.00  0.00     0.012 A 
ATOM     75  C   UNL A   1      40.461  31.050  32.682  1.00  0.00     0.148 A 
ATOM     76  C   UNL A   1      39.571  33.446  31.495  1.00  0.00     0.002 A 
ATOM     77  C   UNL A   1      39.140  31.476  32.834  1.00  0.00     0.091 A 
ATOM     78  F   UNL A   1      40.892  29.897  33.209  1.00  0.00    -0.205 F 
ATOM     79  C   UNL A   1      38.684  32.650  32.209  1.00  0.00     0.022 A 
BRANCH  77  80
ATOM     80  S   UNL A   1      37.925  30.482  33.714  1.00  0.00     0.127 S 
ATOM     81  O   UNL A   1      38.314  29.131  33.323  1.00  0.00    -0.237 OA
ATOM     82  O   UNL A   1      38.198  30.813  35.114  1.00  0.00    -0.237 OA
ATOM     83  O   UNL A   1      36.638  30.956  33.229  1.00  0.00    -0.744 OA
ENDBRANCH  77  80
ENDBRANCH  49  73
BRANCH  61  84
ATOM     84  C   UNL A   1      45.717  26.084  32.656  1.00  0.00     0.023 A 
ATOM     85  C   UNL A   1      47.110  26.033  32.849  1.00  0.00     0.012 A 
ATOM     86  C   UNL A   1      44.936  25.250  33.501  1.00  0.00     0.148 A 
ATOM     87  C   UNL A   1      47.706  25.165  33.772  1.00  0.00     0.002 A 
ATOM     88  C   UNL A   1      45.526  24.477  34.500  1.00  0.00     0.091 A 
ATOM     89  F   UNL A   1      43.609  25.172  33.332  1.00  0.00    -0.205 F 
ATOM     90  C   UNL A   1      46.913  24.405  34.615  1.00  0.00     0.022 A 
BRANCH  88  91
ATOM     91  S   UNL A   1      44.530  23.680  35.769  1.00  0.00     0.127 S 
ATOM     92  O   UNL A   1      43.749  24.799  36.289  1.00  0.00    -0.237 OA
ATOM     93  O   UNL A   1      43.757  22.706  34.994  1.00  0.00    -0.237 OA
ATOM     94  O   UNL A   1      45.492  23.082  36.684  1.00  0.00    -0.744 OA
ENDBRANCH  88  91
ENDBRANCH  61  84
ENDBRANCH  35  36
ENDBRANCH  27  30
ENDBRANCH  25  26
ENDBRANCH   1  25
TORSDOF 18
ENDMDL
