MODEL 1
REMARK VINA RESULT:     -12.5      0.000      0.000
REMARK SMILES O=C(NCCCNC(=O)c1ccc([C@H]2CCC[N@@H+](CCN3CCCC3=O)C2)cc1)c1ccc(-c2c3nc(c(-c4cccc(S(=O)(=O)[O-])c4F)c4ccc([nH]4)c(-c4cccc(S(=O)(=O)[O-])c4F)c4nc(c(-c5cccc(S(=O)(=O)[O-])c5F)c5ccc2[nH]5)C=C4)C=C3)cc1
REMARK SMILES IDX 5 1 4 2 3 3 1 4 2 5 30 7 31 8 92 9 32 10 91 11 33 12 34 13
REMARK SMILES IDX 35 14 85 15 36 16 90 17 84 18 86 19 37 20 89 21 83 22 82 23
REMARK SMILES IDX 38 25 70 26 50 27 69 28 51 29 54 30 68 31 87 32 52 33 53 34
REMARK SMILES IDX 67 36 88 37 55 38 39 39 40 40 48 41 41 42 43 43 49 44 42 45
REMARK SMILES IDX 44 46 45 47 46 48 47 49 71 50 72 51 80 52 73 53 75 54 81 55
REMARK SMILES IDX 74 56 76 57 77 58 78 59 79 60 56 61 57 62 65 63 58 64 60 65
REMARK SMILES IDX 66 66 59 67 61 68 62 69 63 70 64 71 6 72 7 73 8 74 9 76
REMARK SMILES IDX 10 77 11 78 29 79 12 80 28 81 13 82 14 83 15 84 27 85 16 86
REMARK SMILES IDX 18 87 17 88 19 90 20 91 21 92 22 93 25 94 23 95 24 96 26 97
REMARK H PARENT 3 6 86 24 54 35 7 75 18 89
REMARK Flexibility Score: inf
ROOT
ATOM      1  C   UNL A   1      31.306  31.943  26.610  1.00  0.00     0.042 C 
ENDROOT
BRANCH   1   2
ATOM      2  C   UNL A   1      32.582  32.497  27.231  1.00  0.00     0.118 C 
BRANCH   2   3
ATOM      3  N   UNL A   1      32.477  33.904  27.596  1.00  0.00    -0.352 N 
ATOM      4  O   UNL A   1      32.792  35.767  28.814  1.00  0.00    -0.269 OA
ATOM      5  C   UNL A   1      33.151  34.621  28.557  1.00  0.00     0.251 C 
ATOM      6  H   UNL A   1      31.823  34.421  27.073  1.00  0.00     0.163 HD
BRANCH   5   7
ATOM      7  C   UNL A   1      34.277  34.006  29.296  1.00  0.00     0.039 A 
ATOM      8  C   UNL A   1      35.595  34.375  29.026  1.00  0.00     0.014 A 
ATOM      9  C   UNL A   1      34.012  33.049  30.281  1.00  0.00     0.014 A 
ATOM     10  C   UNL A   1      36.645  33.670  29.601  1.00  0.00     0.010 A 
ATOM     11  C   UNL A   1      35.071  32.416  30.941  1.00  0.00     0.010 A 
ATOM     12  C   UNL A   1      36.398  32.696  30.582  1.00  0.00    -0.014 A 
BRANCH  12  13
ATOM     13  C   UNL A   1      37.547  32.050  31.268  1.00  0.00     0.031 A 
ATOM     14  C   UNL A   1      38.322  30.931  30.627  1.00  0.00     0.074 A 
ATOM     15  C   UNL A   1      37.897  32.498  32.492  1.00  0.00     0.049 A 
ATOM     16  N   UNL A   1      39.360  30.282  31.091  1.00  0.00    -0.248 NA
ATOM     17  C   UNL A   1      37.878  30.476  29.300  1.00  0.00     0.031 C 
ATOM     18  C   UNL A   1      37.199  33.556  33.230  1.00  0.00     0.029 A 
ATOM     19  N   UNL A   1      38.917  32.128  33.330  1.00  0.00    -0.354 N 
ATOM     20  C   UNL A   1      39.670  29.320  30.136  1.00  0.00     0.074 A 
ATOM     21  C   UNL A   1      38.704  29.464  29.069  1.00  0.00     0.031 C 
ATOM     22  C   UNL A   1      37.828  33.771  34.393  1.00  0.00     0.029 A 
ATOM     23  C   UNL A   1      38.928  32.824  34.517  1.00  0.00     0.049 A 
ATOM     24  H   UNL A   1      39.575  31.433  33.105  1.00  0.00     0.167 HD
ATOM     25  C   UNL A   1      40.675  28.410  30.144  1.00  0.00     0.034 A 
ATOM     26  C   UNL A   1      39.719  32.699  35.599  1.00  0.00     0.034 A 
ATOM     27  C   UNL A   1      41.642  28.285  31.204  1.00  0.00     0.049 A 
ATOM     28  C   UNL A   1      40.815  31.674  35.583  1.00  0.00     0.074 A 
ATOM     29  C   UNL A   1      42.729  27.429  31.279  1.00  0.00     0.029 A 
ATOM     30  N   UNL A   1      41.635  29.021  32.379  1.00  0.00    -0.354 N 
ATOM     31  N   UNL A   1      41.161  30.853  34.622  1.00  0.00    -0.248 NA
ATOM     32  C   UNL A   1      41.647  31.577  36.788  1.00  0.00     0.031 C 
ATOM     33  C   UNL A   1      43.355  27.622  32.516  1.00  0.00     0.029 A 
ATOM     34  C   UNL A   1      42.687  28.629  33.193  1.00  0.00     0.049 A 
ATOM     35  H   UNL A   1      40.979  29.719  32.604  1.00  0.00     0.167 HD
ATOM     36  C   UNL A   1      42.270  30.165  35.093  1.00  0.00     0.074 A 
ATOM     37  C   UNL A   1      42.552  30.683  36.416  1.00  0.00     0.031 C 
ATOM     38  C   UNL A   1      42.984  29.182  34.489  1.00  0.00     0.034 A 
BRANCH  25  39
ATOM     39  C   UNL A   1      40.801  27.484  28.960  1.00  0.00     0.023 A 
ATOM     40  C   UNL A   1      39.933  26.378  28.841  1.00  0.00     0.012 A 
ATOM     41  C   UNL A   1      41.723  27.750  27.928  1.00  0.00     0.148 A 
ATOM     42  C   UNL A   1      40.005  25.533  27.733  1.00  0.00     0.002 A 
ATOM     43  C   UNL A   1      41.757  26.930  26.805  1.00  0.00     0.091 A 
ATOM     44  F   UNL A   1      42.549  28.796  28.063  1.00  0.00    -0.205 F 
ATOM     45  C   UNL A   1      40.907  25.815  26.712  1.00  0.00     0.022 A 
BRANCH  43  46
ATOM     46  S   UNL A   1      42.828  27.250  25.398  1.00  0.00     0.127 S 
ATOM     47  O   UNL A   1      42.768  25.973  24.688  1.00  0.00    -0.237 OA
ATOM     48  O   UNL A   1      42.136  28.352  24.731  1.00  0.00    -0.237 OA
ATOM     49  O   UNL A   1      44.130  27.594  25.953  1.00  0.00    -0.744 OA
ENDBRANCH  43  46
ENDBRANCH  25  39
BRANCH  26  50
ATOM     50  C   UNL A   1      39.511  33.588  36.775  1.00  0.00     0.023 A 
ATOM     51  C   UNL A   1      39.913  34.936  36.708  1.00  0.00     0.012 A 
ATOM     52  C   UNL A   1      38.889  33.113  37.947  1.00  0.00     0.148 A 
ATOM     53  C   UNL A   1      39.729  35.786  37.799  1.00  0.00     0.002 A 
ATOM     54  C   UNL A   1      38.653  33.980  39.005  1.00  0.00     0.091 A 
ATOM     55  F   UNL A   1      38.521  31.825  37.992  1.00  0.00    -0.205 F 
ATOM     56  C   UNL A   1      39.091  35.312  38.942  1.00  0.00     0.022 A 
BRANCH  54  57
ATOM     57  S   UNL A   1      37.719  33.492  40.459  1.00  0.00     0.127 S 
ATOM     58  O   UNL A   1      36.465  33.034  39.867  1.00  0.00    -0.237 OA
ATOM     59  O   UNL A   1      38.562  32.433  41.016  1.00  0.00    -0.237 OA
ATOM     60  O   UNL A   1      37.626  34.685  41.288  1.00  0.00    -0.744 OA
ENDBRANCH  54  57
ENDBRANCH  26  50
BRANCH  38  61
ATOM     61  C   UNL A   1      44.172  28.631  35.234  1.00  0.00     0.023 A 
ATOM     62  C   UNL A   1      45.458  29.160  35.006  1.00  0.00     0.012 A 
ATOM     63  C   UNL A   1      44.000  27.624  36.204  1.00  0.00     0.148 A 
ATOM     64  C   UNL A   1      46.560  28.669  35.704  1.00  0.00     0.002 A 
ATOM     65  C   UNL A   1      45.094  27.177  36.935  1.00  0.00     0.091 A 
ATOM     66  F   UNL A   1      42.772  27.120  36.393  1.00  0.00    -0.205 F 
ATOM     67  C   UNL A   1      46.377  27.688  36.676  1.00  0.00     0.022 A 
BRANCH  65  68
ATOM     68  S   UNL A   1      44.939  25.990  38.273  1.00  0.00     0.127 S 
ATOM     69  O   UNL A   1      46.305  25.949  38.795  1.00  0.00    -0.237 OA
ATOM     70  O   UNL A   1      43.969  26.642  39.153  1.00  0.00    -0.237 OA
ATOM     71  O   UNL A   1      44.470  24.753  37.663  1.00  0.00    -0.744 OA
ENDBRANCH  65  68
ENDBRANCH  38  61
ENDBRANCH  12  13
ENDBRANCH   5   7
ENDBRANCH   2   3
ENDBRANCH   1   2
BRANCH   1  72
ATOM     72  C   UNL A   1      31.513  30.724  25.721  1.00  0.00     0.118 C 
BRANCH  72  73
ATOM     73  N   UNL A   1      30.567  30.677  24.614  1.00  0.00    -0.352 N 
ATOM     74  C   UNL A   1      30.405  29.736  23.628  1.00  0.00     0.251 C 
ATOM     75  H   UNL A   1      29.946  31.440  24.566  1.00  0.00     0.163 HD
ATOM     76  O   UNL A   1      29.680  29.974  22.666  1.00  0.00    -0.269 OA
BRANCH  74  77
ATOM     77  C   UNL A   1      31.108  28.441  23.710  1.00  0.00     0.039 A 
ATOM     78  C   UNL A   1      32.347  28.303  23.086  1.00  0.00     0.014 A 
ATOM     79  C   UNL A   1      30.529  27.348  24.350  1.00  0.00     0.014 A 
ATOM     80  C   UNL A   1      33.062  27.109  23.218  1.00  0.00     0.005 A 
ATOM     81  C   UNL A   1      31.250  26.158  24.478  1.00  0.00     0.005 A 
ATOM     82  C   UNL A   1      32.560  26.041  23.983  1.00  0.00    -0.039 A 
BRANCH  82  83
ATOM     83  C   UNL A   1      33.444  24.817  24.267  1.00  0.00     0.074 C 
ATOM     84  C   UNL A   1      34.551  25.174  25.283  1.00  0.00     0.020 C 
ATOM     85  C   UNL A   1      32.658  23.596  24.814  1.00  0.00     0.270 C 
ATOM     86  C   UNL A   1      35.371  23.951  25.677  1.00  0.00     0.062 C 
ATOM     87  N   UNL A   1      33.486  22.456  25.224  1.00  0.00    -0.333 N 
ATOM     88  C   UNL A   1      34.483  22.836  26.223  1.00  0.00     0.262 C 
ATOM     89  H   UNL A   1      34.009  22.156  24.401  1.00  0.00     0.348 HD
BRANCH  87  90
ATOM     90  C   UNL A   1      32.678  21.282  25.627  1.00  0.00     0.284 C 
BRANCH  90  91
ATOM     91  C   UNL A   1      33.310  19.861  25.684  1.00  0.00     0.180 C 
BRANCH  91  92
ATOM     92  N   UNL A   1      33.112  18.987  24.533  1.00  0.00    -0.337 N 
ATOM     93  C   UNL A   1      33.628  17.637  24.515  1.00  0.00     0.120 C 
ATOM     94  C   UNL A   1      32.545  19.338  23.317  1.00  0.00     0.222 C 
ATOM     95  C   UNL A   1      33.536  17.222  23.056  1.00  0.00     0.031 C 
ATOM     96  C   UNL A   1      32.400  18.071  22.515  1.00  0.00     0.102 C 
ATOM     97  O   UNL A   1      32.140  20.437  22.971  1.00  0.00    -0.275 OA
ENDBRANCH  91  92
ENDBRANCH  90  91
ENDBRANCH  87  90
ENDBRANCH  82  83
ENDBRANCH  74  77
ENDBRANCH  72  73
ENDBRANCH   1  72
TORSDOF 17
ENDMDL
MODEL 2
REMARK VINA RESULT:     -12.4      6.012     11.885
REMARK SMILES O=C(NCCCNC(=O)c1ccc([C@H]2CCC[N@@H+](CCN3CCCC3=O)C2)cc1)c1ccc(-c2c3nc(c(-c4cccc(S(=O)(=O)[O-])c4F)c4ccc([nH]4)c(-c4cccc(S(=O)(=O)[O-])c4F)c4nc(c(-c5cccc(S(=O)(=O)[O-])c5F)c5ccc2[nH]5)C=C4)C=C3)cc1
REMARK SMILES IDX 5 1 4 2 3 3 1 4 2 5 30 7 31 8 92 9 32 10 91 11 33 12 34 13
REMARK SMILES IDX 35 14 85 15 36 16 90 17 84 18 86 19 37 20 89 21 83 22 82 23
REMARK SMILES IDX 38 25 70 26 50 27 69 28 51 29 54 30 68 31 87 32 52 33 53 34
REMARK SMILES IDX 67 36 88 37 55 38 39 39 40 40 48 41 41 42 43 43 49 44 42 45
REMARK SMILES IDX 44 46 45 47 46 48 47 49 71 50 72 51 80 52 73 53 75 54 81 55
REMARK SMILES IDX 74 56 76 57 77 58 78 59 79 60 56 61 57 62 65 63 58 64 60 65
REMARK SMILES IDX 66 66 59 67 61 68 62 69 63 70 64 71 6 72 7 73 8 74 9 76
REMARK SMILES IDX 10 77 11 78 29 79 12 80 28 81 13 82 14 83 15 84 27 85 16 86
REMARK SMILES IDX 18 87 17 88 19 90 20 91 21 92 22 93 25 94 23 95 24 96 26 97
REMARK H PARENT 3 6 86 24 54 35 7 75 18 89
REMARK Flexibility Score: inf
ROOT
ATOM      1  C   UNL A   1      38.071  19.713  25.018  1.00  0.00     0.042 C 
ENDROOT
BRANCH   1   2
ATOM      2  C   UNL A   1      39.031  19.946  26.177  1.00  0.00     0.118 C 
BRANCH   2   3
ATOM      3  N   UNL A   1      40.260  19.171  26.068  1.00  0.00    -0.352 N 
ATOM      4  O   UNL A   1      42.459  18.782  25.807  1.00  0.00    -0.269 OA
ATOM      5  C   UNL A   1      41.572  19.585  26.080  1.00  0.00     0.251 C 
ATOM      6  H   UNL A   1      40.132  18.200  25.970  1.00  0.00     0.163 HD
BRANCH   5   7
ATOM      7  C   UNL A   1      41.907  20.994  26.388  1.00  0.00     0.039 A 
ATOM      8  C   UNL A   1      41.895  21.965  25.386  1.00  0.00     0.014 A 
ATOM      9  C   UNL A   1      42.232  21.353  27.700  1.00  0.00     0.014 A 
ATOM     10  C   UNL A   1      42.377  23.241  25.652  1.00  0.00     0.010 A 
ATOM     11  C   UNL A   1      42.612  22.669  27.989  1.00  0.00     0.010 A 
ATOM     12  C   UNL A   1      42.721  23.617  26.960  1.00  0.00    -0.014 A 
BRANCH  12  13
ATOM     13  C   UNL A   1      43.111  25.025  27.232  1.00  0.00     0.031 A 
ATOM     14  C   UNL A   1      42.173  25.986  27.911  1.00  0.00     0.074 A 
ATOM     15  C   UNL A   1      44.343  25.432  26.863  1.00  0.00     0.049 A 
ATOM     16  N   UNL A   1      42.375  27.238  28.234  1.00  0.00    -0.248 NA
ATOM     17  C   UNL A   1      40.837  25.485  28.269  1.00  0.00     0.031 C 
ATOM     18  C   UNL A   1      45.329  24.600  26.166  1.00  0.00     0.029 A 
ATOM     19  N   UNL A   1      44.978  26.637  27.018  1.00  0.00    -0.354 N 
ATOM     20  C   UNL A   1      41.186  27.687  28.798  1.00  0.00     0.074 A 
ATOM     21  C   UNL A   1      40.262  26.574  28.764  1.00  0.00     0.031 C 
ATOM     22  C   UNL A   1      46.452  25.306  25.983  1.00  0.00     0.029 A 
ATOM     23  C   UNL A   1      46.246  26.659  26.483  1.00  0.00     0.049 A 
ATOM     24  H   UNL A   1      44.568  27.410  27.466  1.00  0.00     0.167 HD
ATOM     25  C   UNL A   1      40.897  28.909  29.308  1.00  0.00     0.034 A 
ATOM     26  C   UNL A   1      47.138  27.662  26.382  1.00  0.00     0.034 A 
ATOM     27  C   UNL A   1      41.829  30.006  29.352  1.00  0.00     0.049 A 
ATOM     28  C   UNL A   1      46.784  29.007  26.944  1.00  0.00     0.074 A 
ATOM     29  C   UNL A   1      41.647  31.267  29.895  1.00  0.00     0.029 A 
ATOM     30  N   UNL A   1      43.110  29.985  28.821  1.00  0.00    -0.354 N 
ATOM     31  N   UNL A   1      45.696  29.376  27.575  1.00  0.00    -0.248 NA
ATOM     32  C   UNL A   1      47.790  30.067  26.805  1.00  0.00     0.031 C 
ATOM     33  C   UNL A   1      42.803  32.019  29.659  1.00  0.00     0.029 A 
ATOM     34  C   UNL A   1      43.724  31.213  29.009  1.00  0.00     0.049 A 
ATOM     35  H   UNL A   1      43.523  29.210  28.375  1.00  0.00     0.167 HD
ATOM     36  C   UNL A   1      45.900  30.701  27.938  1.00  0.00     0.074 A 
ATOM     37  C   UNL A   1      47.225  31.061  27.476  1.00  0.00     0.031 C 
ATOM     38  C   UNL A   1      45.059  31.547  28.584  1.00  0.00     0.034 A 
BRANCH  25  39
ATOM     39  C   UNL A   1      39.520  29.129  29.883  1.00  0.00     0.023 A 
ATOM     40  C   UNL A   1      39.233  28.701  31.196  1.00  0.00     0.012 A 
ATOM     41  C   UNL A   1      38.534  29.824  29.154  1.00  0.00     0.148 A 
ATOM     42  C   UNL A   1      37.978  28.932  31.761  1.00  0.00     0.002 A 
ATOM     43  C   UNL A   1      37.301  30.090  29.741  1.00  0.00     0.091 A 
ATOM     44  F   UNL A   1      38.818  30.211  27.904  1.00  0.00    -0.205 F 
ATOM     45  C   UNL A   1      37.018  29.635  31.040  1.00  0.00     0.022 A 
BRANCH  43  46
ATOM     46  S   UNL A   1      36.024  31.056  28.926  1.00  0.00     0.127 S 
ATOM     47  O   UNL A   1      35.177  31.434  30.057  1.00  0.00    -0.237 OA
ATOM     48  O   UNL A   1      36.793  32.156  28.347  1.00  0.00    -0.237 OA
ATOM     49  O   UNL A   1      35.405  30.165  27.954  1.00  0.00    -0.744 OA
ENDBRANCH  43  46
ENDBRANCH  25  39
BRANCH  26  50
ATOM     50  C   UNL A   1      48.459  27.417  25.740  1.00  0.00     0.023 A 
ATOM     51  C   UNL A   1      49.541  26.972  26.524  1.00  0.00     0.012 A 
ATOM     52  C   UNL A   1      48.639  27.592  24.353  1.00  0.00     0.148 A 
ATOM     53  C   UNL A   1      50.788  26.737  25.943  1.00  0.00     0.002 A 
ATOM     54  C   UNL A   1      49.866  27.298  23.773  1.00  0.00     0.091 A 
ATOM     55  F   UNL A   1      47.599  28.024  23.628  1.00  0.00    -0.205 F 
ATOM     56  C   UNL A   1      50.947  26.890  24.568  1.00  0.00     0.022 A 
BRANCH  54  57
ATOM     57  S   UNL A   1      50.123  27.335  21.996  1.00  0.00     0.127 S 
ATOM     58  O   UNL A   1      51.497  26.854  21.884  1.00  0.00    -0.237 OA
ATOM     59  O   UNL A   1      49.101  26.399  21.526  1.00  0.00    -0.237 OA
ATOM     60  O   UNL A   1      49.903  28.717  21.594  1.00  0.00    -0.744 OA
ENDBRANCH  54  57
ENDBRANCH  26  50
BRANCH  38  61
ATOM     61  C   UNL A   1      45.563  32.936  28.874  1.00  0.00     0.023 A 
ATOM     62  C   UNL A   1      46.259  33.202  30.070  1.00  0.00     0.012 A 
ATOM     63  C   UNL A   1      45.394  33.968  27.929  1.00  0.00     0.148 A 
ATOM     64  C   UNL A   1      46.745  34.481  30.339  1.00  0.00     0.002 A 
ATOM     65  C   UNL A   1      45.929  35.226  28.178  1.00  0.00     0.091 A 
ATOM     66  F   UNL A   1      44.713  33.700  26.805  1.00  0.00    -0.205 F 
ATOM     67  C   UNL A   1      46.591  35.488  29.389  1.00  0.00     0.022 A 
BRANCH  65  68
ATOM     68  S   UNL A   1      45.867  36.556  26.973  1.00  0.00     0.127 S 
ATOM     69  O   UNL A   1      46.748  37.551  27.583  1.00  0.00    -0.237 OA
ATOM     70  O   UNL A   1      46.409  35.912  25.776  1.00  0.00    -0.237 OA
ATOM     71  O   UNL A   1      44.466  36.943  26.872  1.00  0.00    -0.744 OA
ENDBRANCH  65  68
ENDBRANCH  38  61
ENDBRANCH  12  13
ENDBRANCH   5   7
ENDBRANCH   2   3
ENDBRANCH   1   2
BRANCH   1  72
ATOM     72  C   UNL A   1      36.848  20.621  25.017  1.00  0.00     0.118 C 
BRANCH  72  73
ATOM     73  N   UNL A   1      35.599  19.871  25.004  1.00  0.00    -0.352 N 
ATOM     74  C   UNL A   1      34.313  20.291  25.233  1.00  0.00     0.251 C 
ATOM     75  H   UNL A   1      35.693  18.913  24.798  1.00  0.00     0.163 HD
ATOM     76  O   UNL A   1      33.414  19.466  25.371  1.00  0.00    -0.269 OA
BRANCH  74  77
ATOM     77  C   UNL A   1      34.004  21.730  25.326  1.00  0.00     0.039 A 
ATOM     78  C   UNL A   1      34.059  22.511  24.173  1.00  0.00     0.014 A 
ATOM     79  C   UNL A   1      33.714  22.325  26.552  1.00  0.00     0.014 A 
ATOM     80  C   UNL A   1      33.694  23.859  24.229  1.00  0.00     0.005 A 
ATOM     81  C   UNL A   1      33.351  23.674  26.600  1.00  0.00     0.005 A 
ATOM     82  C   UNL A   1      33.258  24.447  25.430  1.00  0.00    -0.039 A 
BRANCH  82  83
ATOM     83  C   UNL A   1      32.687  25.873  25.426  1.00  0.00     0.074 C 
ATOM     84  C   UNL A   1      33.796  26.899  25.748  1.00  0.00     0.020 C 
ATOM     85  C   UNL A   1      32.030  26.276  24.080  1.00  0.00     0.270 C 
ATOM     86  C   UNL A   1      33.289  28.332  25.635  1.00  0.00     0.062 C 
ATOM     87  N   UNL A   1      31.596  27.676  23.994  1.00  0.00    -0.333 N 
ATOM     88  C   UNL A   1      32.692  28.605  24.257  1.00  0.00     0.262 C 
ATOM     89  H   UNL A   1      30.914  27.822  24.739  1.00  0.00     0.348 HD
BRANCH  87  90
ATOM     90  C   UNL A   1      30.873  27.970  22.735  1.00  0.00     0.284 C 
BRANCH  90  91
ATOM     91  C   UNL A   1      29.398  28.462  22.759  1.00  0.00     0.180 C 
BRANCH  91  92
ATOM     92  N   UNL A   1      29.164  29.902  22.718  1.00  0.00    -0.337 N 
ATOM     93  C   UNL A   1      29.501  30.752  23.837  1.00  0.00     0.120 C 
ATOM     94  C   UNL A   1      28.515  30.605  21.714  1.00  0.00     0.222 C 
ATOM     95  C   UNL A   1      28.782  32.058  23.541  1.00  0.00     0.031 C 
ATOM     96  C   UNL A   1      28.670  32.070  22.028  1.00  0.00     0.102 C 
ATOM     97  O   UNL A   1      27.993  30.156  20.705  1.00  0.00    -0.275 OA
ENDBRANCH  91  92
ENDBRANCH  90  91
ENDBRANCH  87  90
ENDBRANCH  82  83
ENDBRANCH  74  77
ENDBRANCH  72  73
ENDBRANCH   1  72
TORSDOF 17
ENDMDL
MODEL 3
REMARK VINA RESULT:     -12.4      1.917      7.877
REMARK SMILES O=C(NCCCNC(=O)c1ccc([C@H]2CCC[N@@H+](CCN3CCCC3=O)C2)cc1)c1ccc(-c2c3nc(c(-c4cccc(S(=O)(=O)[O-])c4F)c4ccc([nH]4)c(-c4cccc(S(=O)(=O)[O-])c4F)c4nc(c(-c5cccc(S(=O)(=O)[O-])c5F)c5ccc2[nH]5)C=C4)C=C3)cc1
REMARK SMILES IDX 5 1 4 2 3 3 1 4 2 5 30 7 31 8 92 9 32 10 91 11 33 12 34 13
REMARK SMILES IDX 35 14 85 15 36 16 90 17 84 18 86 19 37 20 89 21 83 22 82 23
REMARK SMILES IDX 38 25 70 26 50 27 69 28 51 29 54 30 68 31 87 32 52 33 53 34
REMARK SMILES IDX 67 36 88 37 55 38 39 39 40 40 48 41 41 42 43 43 49 44 42 45
REMARK SMILES IDX 44 46 45 47 46 48 47 49 71 50 72 51 80 52 73 53 75 54 81 55
REMARK SMILES IDX 74 56 76 57 77 58 78 59 79 60 56 61 57 62 65 63 58 64 60 65
REMARK SMILES IDX 66 66 59 67 61 68 62 69 63 70 64 71 6 72 7 73 8 74 9 76
REMARK SMILES IDX 10 77 11 78 29 79 12 80 28 81 13 82 14 83 15 84 27 85 16 86
REMARK SMILES IDX 18 87 17 88 19 90 20 91 21 92 22 93 25 94 23 95 24 96 26 97
REMARK H PARENT 3 6 86 24 54 35 7 75 18 89
REMARK Flexibility Score: inf
ROOT
ATOM      1  C   UNL A   1      31.225  30.962  26.013  1.00  0.00     0.042 C 
ENDROOT
BRANCH   1   2
ATOM      2  C   UNL A   1      32.522  31.442  26.651  1.00  0.00     0.118 C 
BRANCH   2   3
ATOM      3  N   UNL A   1      32.499  32.856  27.000  1.00  0.00    -0.352 N 
ATOM      4  O   UNL A   1      33.013  34.727  28.136  1.00  0.00    -0.269 OA
ATOM      5  C   UNL A   1      33.308  33.569  27.855  1.00  0.00     0.251 C 
ATOM      6  H   UNL A   1      31.797  33.383  26.556  1.00  0.00     0.163 HD
BRANCH   5   7
ATOM      7  C   UNL A   1      34.503  32.934  28.457  1.00  0.00     0.039 A 
ATOM      8  C   UNL A   1      34.404  31.711  29.120  1.00  0.00     0.014 A 
ATOM      9  C   UNL A   1      35.745  33.568  28.350  1.00  0.00     0.014 A 
ATOM     10  C   UNL A   1      35.493  31.214  29.825  1.00  0.00     0.010 A 
ATOM     11  C   UNL A   1      36.869  33.009  28.968  1.00  0.00     0.010 A 
ATOM     12  C   UNL A   1      36.745  31.844  29.742  1.00  0.00    -0.014 A 
BRANCH  12  13
ATOM     13  C   UNL A   1      37.918  31.216  30.404  1.00  0.00     0.031 A 
ATOM     14  C   UNL A   1      38.292  31.544  31.824  1.00  0.00     0.074 A 
ATOM     15  C   UNL A   1      38.649  30.325  29.703  1.00  0.00     0.049 A 
ATOM     16  N   UNL A   1      39.274  31.066  32.545  1.00  0.00    -0.248 NA
ATOM     17  C   UNL A   1      37.466  32.540  32.526  1.00  0.00     0.031 C 
ATOM     18  C   UNL A   1      38.404  29.951  28.306  1.00  0.00     0.029 A 
ATOM     19  N   UNL A   1      39.740  29.574  30.059  1.00  0.00    -0.354 N 
ATOM     20  C   UNL A   1      39.210  31.723  33.768  1.00  0.00     0.074 A 
ATOM     21  C   UNL A   1      38.096  32.644  33.689  1.00  0.00     0.031 C 
ATOM     22  C   UNL A   1      39.294  29.021  27.936  1.00  0.00     0.029 A 
ATOM     23  C   UNL A   1      40.215  28.783  29.039  1.00  0.00     0.049 A 
ATOM     24  H   UNL A   1      40.142  29.600  30.956  1.00  0.00     0.167 HD
ATOM     25  C   UNL A   1      39.999  31.564  34.859  1.00  0.00     0.034 A 
ATOM     26  C   UNL A   1      41.288  27.972  28.985  1.00  0.00     0.034 A 
ATOM     27  C   UNL A   1      41.095  30.633  34.934  1.00  0.00     0.049 A 
ATOM     28  C   UNL A   1      42.149  27.827  30.205  1.00  0.00     0.074 A 
ATOM     29  C   UNL A   1      41.920  30.361  36.013  1.00  0.00     0.029 A 
ATOM     30  N   UNL A   1      41.533  29.833  33.889  1.00  0.00    -0.354 N 
ATOM     31  N   UNL A   1      42.002  28.372  31.388  1.00  0.00    -0.248 NA
ATOM     32  C   UNL A   1      43.309  26.934  30.093  1.00  0.00     0.031 C 
ATOM     33  C   UNL A   1      42.879  29.427  35.608  1.00  0.00     0.029 A 
ATOM     34  C   UNL A   1      42.624  29.080  34.291  1.00  0.00     0.049 A 
ATOM     35  H   UNL A   1      41.128  29.805  32.992  1.00  0.00     0.167 HD
ATOM     36  C   UNL A   1      43.030  27.863  32.170  1.00  0.00     0.074 A 
ATOM     37  C   UNL A   1      43.778  26.948  31.333  1.00  0.00     0.031 C 
ATOM     38  C   UNL A   1      43.334  28.140  33.463  1.00  0.00     0.034 A 
BRANCH  25  39
ATOM     39  C   UNL A   1      39.697  32.400  36.078  1.00  0.00     0.023 A 
ATOM     40  C   UNL A   1      40.328  33.651  36.243  1.00  0.00     0.012 A 
ATOM     41  C   UNL A   1      38.734  31.985  37.020  1.00  0.00     0.148 A 
ATOM     42  C   UNL A   1      40.032  34.458  37.342  1.00  0.00     0.002 A 
ATOM     43  C   UNL A   1      38.411  32.815  38.088  1.00  0.00     0.091 A 
ATOM     44  F   UNL A   1      38.154  30.789  36.856  1.00  0.00    -0.205 F 
ATOM     45  C   UNL A   1      39.067  34.046  38.256  1.00  0.00     0.022 A 
BRANCH  43  46
ATOM     46  S   UNL A   1      37.127  32.414  39.279  1.00  0.00     0.127 S 
ATOM     47  O   UNL A   1      37.376  33.407  40.324  1.00  0.00    -0.237 OA
ATOM     48  O   UNL A   1      35.908  32.640  38.503  1.00  0.00    -0.237 OA
ATOM     49  O   UNL A   1      37.355  31.030  39.667  1.00  0.00    -0.744 OA
ENDBRANCH  43  46
ENDBRANCH  25  39
BRANCH  26  50
ATOM     50  C   UNL A   1      41.588  27.221  27.735  1.00  0.00     0.023 A 
ATOM     51  C   UNL A   1      42.024  27.919  26.592  1.00  0.00     0.012 A 
ATOM     52  C   UNL A   1      41.474  25.818  27.682  1.00  0.00     0.148 A 
ATOM     53  C   UNL A   1      42.310  27.236  25.410  1.00  0.00     0.002 A 
ATOM     54  C   UNL A   1      41.818  25.139  26.521  1.00  0.00     0.091 A 
ATOM     55  F   UNL A   1      41.049  25.175  28.778  1.00  0.00    -0.205 F 
ATOM     56  C   UNL A   1      42.217  25.847  25.377  1.00  0.00     0.022 A 
BRANCH  54  57
ATOM     57  S   UNL A   1      41.858  23.346  26.432  1.00  0.00     0.127 S 
ATOM     58  O   UNL A   1      42.629  23.006  27.625  1.00  0.00    -0.237 OA
ATOM     59  O   UNL A   1      40.436  23.010  26.499  1.00  0.00    -0.237 OA
ATOM     60  O   UNL A   1      42.491  23.028  25.160  1.00  0.00    -0.744 OA
ENDBRANCH  54  57
ENDBRANCH  26  50
BRANCH  38  61
ATOM     61  C   UNL A   1      44.502  27.408  34.071  1.00  0.00     0.023 A 
ATOM     62  C   UNL A   1      45.807  27.925  33.941  1.00  0.00     0.012 A 
ATOM     63  C   UNL A   1      44.295  26.234  34.822  1.00  0.00     0.148 A 
ATOM     64  C   UNL A   1      46.892  27.263  34.515  1.00  0.00     0.002 A 
ATOM     65  C   UNL A   1      45.373  25.610  35.438  1.00  0.00     0.091 A 
ATOM     66  F   UNL A   1      43.049  25.748  34.918  1.00  0.00    -0.205 F 
ATOM     67  C   UNL A   1      46.674  26.115  35.273  1.00  0.00     0.022 A 
BRANCH  65  68
ATOM     68  S   UNL A   1      45.177  24.186  36.513  1.00  0.00     0.127 S 
ATOM     69  O   UNL A   1      44.326  24.727  37.572  1.00  0.00    -0.237 OA
ATOM     70  O   UNL A   1      44.517  23.223  35.631  1.00  0.00    -0.237 OA
ATOM     71  O   UNL A   1      46.520  23.805  36.928  1.00  0.00    -0.744 OA
ENDBRANCH  65  68
ENDBRANCH  38  61
ENDBRANCH  12  13
ENDBRANCH   5   7
ENDBRANCH   2   3
ENDBRANCH   1   2
BRANCH   1  72
ATOM     72  C   UNL A   1      31.395  29.832  25.005  1.00  0.00     0.118 C 
BRANCH  72  73
ATOM     73  N   UNL A   1      30.678  30.082  23.762  1.00  0.00    -0.352 N 
ATOM     74  C   UNL A   1      30.289  29.213  22.774  1.00  0.00     0.251 C 
ATOM     75  H   UNL A   1      30.433  31.024  23.608  1.00  0.00     0.163 HD
ATOM     76  O   UNL A   1      29.866  29.647  21.707  1.00  0.00    -0.269 OA
BRANCH  74  77
ATOM     77  C   UNL A   1      30.388  27.756  22.982  1.00  0.00     0.039 A 
ATOM     78  C   UNL A   1      31.436  27.056  22.385  1.00  0.00     0.014 A 
ATOM     79  C   UNL A   1      29.424  27.067  23.715  1.00  0.00     0.014 A 
ATOM     80  C   UNL A   1      31.589  25.689  22.635  1.00  0.00     0.005 A 
ATOM     81  C   UNL A   1      29.585  25.700  23.959  1.00  0.00     0.005 A 
ATOM     82  C   UNL A   1      30.710  25.002  23.490  1.00  0.00    -0.039 A 
BRANCH  82  83
ATOM     83  C   UNL A   1      31.008  23.550  23.894  1.00  0.00     0.074 C 
ATOM     84  C   UNL A   1      31.738  22.811  22.751  1.00  0.00     0.020 C 
ATOM     85  C   UNL A   1      31.869  23.426  25.179  1.00  0.00     0.270 C 
ATOM     86  C   UNL A   1      32.155  21.404  23.164  1.00  0.00     0.062 C 
ATOM     87  N   UNL A   1      32.287  22.061  25.519  1.00  0.00    -0.333 N 
ATOM     88  C   UNL A   1      33.017  21.425  24.424  1.00  0.00     0.262 C 
ATOM     89  H   UNL A   1      31.437  21.513  25.650  1.00  0.00     0.348 HD
BRANCH  87  90
ATOM     90  C   UNL A   1      33.004  21.992  26.812  1.00  0.00     0.284 C 
BRANCH  90  91
ATOM     91  C   UNL A   1      34.402  21.316  26.914  1.00  0.00     0.180 C 
BRANCH  91  92
ATOM     92  N   UNL A   1      35.496  21.907  26.150  1.00  0.00    -0.337 N 
ATOM     93  C   UNL A   1      35.710  23.336  26.122  1.00  0.00     0.120 C 
ATOM     94  C   UNL A   1      36.361  21.240  25.295  1.00  0.00     0.222 C 
ATOM     95  C   UNL A   1      36.671  23.546  24.964  1.00  0.00     0.031 C 
ATOM     96  C   UNL A   1      37.418  22.228  24.876  1.00  0.00     0.102 C 
ATOM     97  O   UNL A   1      36.350  20.056  24.997  1.00  0.00    -0.275 OA
ENDBRANCH  91  92
ENDBRANCH  90  91
ENDBRANCH  87  90
ENDBRANCH  82  83
ENDBRANCH  74  77
ENDBRANCH  72  73
ENDBRANCH   1  72
TORSDOF 17
ENDMDL
