MODEL 1
REMARK VINA RESULT:     -13.1      0.000      0.000
REMARK SMILES NS(=O)(=O)c1ccc(-n2nc(NC(=O)NCCCC(=O)NCCCNC(=O)c3ccc(-c4c5nc(c(-c6cccc(S(=O)(=O)[O-])c6F)c6ccc([nH]6)c(-c6cccc(S(=O)(=O)[O-])c6F)c6nc(c(-c7cccc(S(=O)(=O)[O-])c7F)c7ccc4[nH]7)C=C6)C=C5)cc3)cc2-c2ccccc2)cc1
REMARK SMILES IDX 19 1 20 2 21 3 18 5 17 6 16 7 15 8 12 9 13 10 14 12 11 14
REMARK SMILES IDX 9 15 10 16 92 17 91 18 8 19 5 20 6 21 100 22 7 23 99 24 2 25
REMARK SMILES IDX 3 26 4 27 1 28 93 31 94 32 98 33 95 34 97 35 96 36 22 37
REMARK SMILES IDX 23 38 24 39 25 40 26 41 27 43 28 44 29 45 90 46 30 47 89 48
REMARK SMILES IDX 31 49 32 50 33 51 83 52 34 53 88 54 82 55 84 56 35 57 87 58
REMARK SMILES IDX 81 59 80 60 36 62 68 63 48 64 67 65 49 66 52 67 66 68 85 69
REMARK SMILES IDX 50 70 51 71 65 73 86 74 53 75 37 76 38 77 46 78 39 79 41 80
REMARK SMILES IDX 47 81 40 82 42 83 43 84 44 85 45 86 69 87 70 88 78 89 71 90
REMARK SMILES IDX 73 91 79 92 72 93 74 94 75 95 76 96 77 97 54 98 55 99 63 100
REMARK SMILES IDX 56 101 58 102 64 103 57 104 59 105 60 106 61 107 62 108
REMARK H PARENT 21 4 12 11 15 13 1 29 1 30 25 42 84 61 52 72
REMARK Flexibility Score: inf
ROOT
ATOM      1  C   UNL A   1      33.368  28.993  26.344  1.00  0.00     0.220 C 
ATOM      2  O   UNL A   1      34.509  28.745  26.731  1.00  0.00    -0.275 OA
ATOM      3  N   UNL A   1      32.843  30.222  26.614  1.00  0.00    -0.356 N 
ATOM      4  H   UNL A   1      33.453  30.834  27.085  1.00  0.00     0.163 HD
ENDROOT
BRANCH   1   5
ATOM      5  C   UNL A   1      32.583  27.962  25.560  1.00  0.00     0.102 C 
BRANCH   5   6
ATOM      6  C   UNL A   1      32.845  27.983  24.053  1.00  0.00     0.031 C 
BRANCH   6   7
ATOM      7  C   UNL A   1      31.889  27.146  23.218  1.00  0.00     0.118 C 
BRANCH   7   8
ATOM      8  N   UNL A   1      30.506  27.127  23.670  1.00  0.00    -0.338 N 
ATOM      9  N   UNL A   1      29.985  24.797  23.825  1.00  0.00    -0.291 N 
ATOM     10  C   UNL A   1      29.666  26.103  23.950  1.00  0.00     0.320 C 
ATOM     11  H   UNL A   1      29.211  24.193  23.765  1.00  0.00     0.173 HD
ATOM     12  O   UNL A   1      28.501  26.396  24.242  1.00  0.00    -0.248 OA
ATOM     13  H   UNL A   1      30.110  28.019  23.796  1.00  0.00     0.165 HD
BRANCH   9  14
ATOM     14  C   UNL A   1      31.202  24.162  23.768  1.00  0.00     0.157 A 
ATOM     15  N   UNL A   1      32.577  22.558  23.690  1.00  0.00    -0.231 N 
ATOM     16  N   UNL A   1      31.414  22.995  23.174  1.00  0.00    -0.149 NA
ATOM     17  C   UNL A   1      33.317  23.622  24.189  1.00  0.00     0.076 A 
ATOM     18  C   UNL A   1      32.421  24.678  24.255  1.00  0.00     0.078 A 
BRANCH  15  19
ATOM     19  C   UNL A   1      32.807  21.159  23.791  1.00  0.00     0.065 A 
ATOM     20  C   UNL A   1      33.281  18.422  23.987  1.00  0.00     0.082 A 
ATOM     21  C   UNL A   1      32.408  18.898  23.009  1.00  0.00     0.024 A 
ATOM     22  C   UNL A   1      33.949  19.305  24.843  1.00  0.00     0.024 A 
ATOM     23  C   UNL A   1      32.164  20.270  22.917  1.00  0.00     0.030 A 
ATOM     24  C   UNL A   1      33.731  20.678  24.730  1.00  0.00     0.030 A 
BRANCH  20  25
ATOM     25  S   UNL A   1      33.513  16.687  24.250  1.00  0.00     0.238 S 
ATOM     26  O   UNL A   1      34.006  16.132  23.006  1.00  0.00    -0.207 OA
ATOM     27  O   UNL A   1      32.406  16.204  25.023  1.00  0.00    -0.207 OA
BRANCH  25  28
ATOM     28  N   UNL A   1      34.847  16.593  25.294  1.00  0.00    -0.225 NA
ATOM     29  H   UNL A   1      34.587  16.073  26.132  1.00  0.00     0.137 HD
ATOM     30  H   UNL A   1      35.141  17.534  25.555  1.00  0.00     0.137 HD
ENDBRANCH  25  28
ENDBRANCH  20  25
ENDBRANCH  15  19
BRANCH  17  31
ATOM     31  C   UNL A   1      34.729  23.527  24.541  1.00  0.00     0.000 A 
ATOM     32  C   UNL A   1      35.137  23.825  25.850  1.00  0.00     0.010 A 
ATOM     33  C   UNL A   1      35.690  23.223  23.574  1.00  0.00     0.010 A 
ATOM     34  C   UNL A   1      36.491  23.866  26.176  1.00  0.00     0.001 A 
ATOM     35  C   UNL A   1      37.047  23.262  23.904  1.00  0.00     0.001 A 
ATOM     36  C   UNL A   1      37.445  23.593  25.201  1.00  0.00     0.000 A 
ENDBRANCH  17  31
ENDBRANCH   9  14
ENDBRANCH   7   8
ENDBRANCH   6   7
ENDBRANCH   5   6
ENDBRANCH   1   5
BRANCH   3  37
ATOM     37  C   UNL A   1      31.527  30.780  26.321  1.00  0.00     0.117 C 
BRANCH  37  38
ATOM     38  C   UNL A   1      31.362  32.207  26.846  1.00  0.00     0.042 C 
BRANCH  38  39
ATOM     39  C   UNL A   1      32.661  32.895  27.174  1.00  0.00     0.118 C 
BRANCH  39  40
ATOM     40  N   UNL A   1      32.499  34.192  27.844  1.00  0.00    -0.352 N 
ATOM     41  C   UNL A   1      33.143  34.640  28.994  1.00  0.00     0.251 C 
ATOM     42  H   UNL A   1      31.861  34.818  27.431  1.00  0.00     0.163 HD
ATOM     43  O   UNL A   1      32.680  35.561  29.657  1.00  0.00    -0.269 OA
BRANCH  41  44
ATOM     44  C   UNL A   1      34.403  33.982  29.395  1.00  0.00     0.039 A 
ATOM     45  C   UNL A   1      34.539  33.099  30.469  1.00  0.00     0.014 A 
ATOM     46  C   UNL A   1      35.491  34.225  28.583  1.00  0.00     0.014 A 
ATOM     47  C   UNL A   1      35.793  32.519  30.673  1.00  0.00     0.010 A 
ATOM     48  C   UNL A   1      36.421  33.251  28.479  1.00  0.00     0.010 A 
ATOM     49  C   UNL A   1      36.752  32.648  29.659  1.00  0.00    -0.014 A 
BRANCH  49  50
ATOM     50  C   UNL A   1      38.099  32.119  29.702  1.00  0.00     0.031 A 
ATOM     51  C   UNL A   1      38.191  30.773  29.120  1.00  0.00     0.074 A 
ATOM     52  C   UNL A   1      39.189  32.856  30.020  1.00  0.00     0.049 A 
ATOM     53  N   UNL A   1      38.133  29.661  29.767  1.00  0.00    -0.248 NA
ATOM     54  C   UNL A   1      38.084  30.635  27.662  1.00  0.00     0.031 C 
ATOM     55  C   UNL A   1      39.310  34.302  30.274  1.00  0.00     0.029 A 
ATOM     56  N   UNL A   1      40.481  32.446  30.093  1.00  0.00    -0.354 N 
ATOM     57  C   UNL A   1      38.289  28.680  28.800  1.00  0.00     0.074 A 
ATOM     58  C   UNL A   1      37.965  29.310  27.547  1.00  0.00     0.031 C 
ATOM     59  C   UNL A   1      40.616  34.662  30.264  1.00  0.00     0.029 A 
ATOM     60  C   UNL A   1      41.426  33.463  30.177  1.00  0.00     0.049 A 
ATOM     61  H   UNL A   1      40.733  31.494  30.086  1.00  0.00     0.167 HD
ATOM     62  C   UNL A   1      38.973  27.540  29.086  1.00  0.00     0.034 A 
ATOM     63  C   UNL A   1      42.774  33.308  30.158  1.00  0.00     0.034 A 
ATOM     64  C   UNL A   1      39.223  27.435  30.509  1.00  0.00     0.049 A 
ATOM     65  C   UNL A   1      43.043  31.910  30.577  1.00  0.00     0.074 A 
ATOM     66  C   UNL A   1      38.434  27.400  31.642  1.00  0.00     0.029 A 
ATOM     67  N   UNL A   1      40.479  27.804  30.936  1.00  0.00    -0.354 N 
ATOM     68  N   UNL A   1      42.760  31.458  31.768  1.00  0.00    -0.248 NA
ATOM     69  C   UNL A   1      43.162  30.901  29.537  1.00  0.00     0.031 C 
ATOM     70  C   UNL A   1      39.129  28.201  32.600  1.00  0.00     0.029 A 
ATOM     71  C   UNL A   1      40.336  28.616  32.032  1.00  0.00     0.049 A 
ATOM     72  H   UNL A   1      41.332  27.534  30.525  1.00  0.00     0.167 HD
ATOM     73  C   UNL A   1      42.206  30.204  31.540  1.00  0.00     0.074 A 
ATOM     74  C   UNL A   1      42.579  29.874  30.162  1.00  0.00     0.031 C 
ATOM     75  C   UNL A   1      41.253  29.686  32.373  1.00  0.00     0.034 A 
BRANCH  62  76
ATOM     76  C   UNL A   1      39.773  26.728  28.095  1.00  0.00     0.023 A 
ATOM     77  C   UNL A   1      39.596  25.327  28.142  1.00  0.00     0.012 A 
ATOM     78  C   UNL A   1      40.858  27.209  27.325  1.00  0.00     0.148 A 
ATOM     79  C   UNL A   1      40.493  24.452  27.525  1.00  0.00     0.002 A 
ATOM     80  C   UNL A   1      41.707  26.337  26.654  1.00  0.00     0.091 A 
ATOM     81  F   UNL A   1      41.171  28.505  27.330  1.00  0.00    -0.205 F 
ATOM     82  C   UNL A   1      41.550  24.956  26.779  1.00  0.00     0.022 A 
BRANCH  80  83
ATOM     83  S   UNL A   1      43.064  26.937  25.638  1.00  0.00     0.127 S 
ATOM     84  O   UNL A   1      42.372  27.859  24.743  1.00  0.00    -0.237 OA
ATOM     85  O   UNL A   1      43.926  27.570  26.637  1.00  0.00    -0.237 OA
ATOM     86  O   UNL A   1      43.647  25.755  25.015  1.00  0.00    -0.744 OA
ENDBRANCH  80  83
ENDBRANCH  62  76
BRANCH  63  87
ATOM     87  C   UNL A   1      43.821  34.168  29.555  1.00  0.00     0.023 A 
ATOM     88  C   UNL A   1      44.712  34.888  30.377  1.00  0.00     0.012 A 
ATOM     89  C   UNL A   1      44.131  34.054  28.181  1.00  0.00     0.148 A 
ATOM     90  C   UNL A   1      45.886  35.451  29.853  1.00  0.00     0.002 A 
ATOM     91  C   UNL A   1      45.297  34.617  27.666  1.00  0.00     0.091 A 
ATOM     92  F   UNL A   1      43.328  33.315  27.404  1.00  0.00    -0.205 F 
ATOM     93  C   UNL A   1      46.183  35.307  28.502  1.00  0.00     0.022 A 
BRANCH  91  94
ATOM     94  S   UNL A   1      45.751  34.473  25.930  1.00  0.00     0.127 S 
ATOM     95  O   UNL A   1      46.364  33.144  25.890  1.00  0.00    -0.237 OA
ATOM     96  O   UNL A   1      44.452  34.562  25.265  1.00  0.00    -0.237 OA
ATOM     97  O   UNL A   1      46.680  35.568  25.682  1.00  0.00    -0.744 OA
ENDBRANCH  91  94
ENDBRANCH  63  87
BRANCH  75  98
ATOM     98  C   UNL A   1      40.962  30.429  33.658  1.00  0.00     0.023 A 
ATOM     99  C   UNL A   1      41.841  30.402  34.764  1.00  0.00     0.012 A 
ATOM    100  C   UNL A   1      39.874  31.317  33.688  1.00  0.00     0.148 A 
ATOM    101  C   UNL A   1      41.632  31.225  35.875  1.00  0.00     0.002 A 
ATOM    102  C   UNL A   1      39.690  32.162  34.776  1.00  0.00     0.091 A 
ATOM    103  F   UNL A   1      39.055  31.343  32.627  1.00  0.00    -0.205 F 
ATOM    104  C   UNL A   1      40.563  32.114  35.877  1.00  0.00     0.022 A 
BRANCH 102 105
ATOM    105  S   UNL A   1      38.406  33.415  34.794  1.00  0.00     0.127 S 
ATOM    106  O   UNL A   1      38.945  34.418  33.879  1.00  0.00    -0.237 OA
ATOM    107  O   UNL A   1      37.247  32.681  34.284  1.00  0.00    -0.237 OA
ATOM    108  O   UNL A   1      38.278  33.842  36.182  1.00  0.00    -0.744 OA
ENDBRANCH 102 105
ENDBRANCH  75  98
ENDBRANCH  49  50
ENDBRANCH  41  44
ENDBRANCH  39  40
ENDBRANCH  38  39
ENDBRANCH  37  38
ENDBRANCH   3  37
TORSDOF 21
ENDMDL
MODEL 2
REMARK VINA RESULT:     -12.9      2.971      6.839
REMARK SMILES NS(=O)(=O)c1ccc(-n2nc(NC(=O)NCCCC(=O)NCCCNC(=O)c3ccc(-c4c5nc(c(-c6cccc(S(=O)(=O)[O-])c6F)c6ccc([nH]6)c(-c6cccc(S(=O)(=O)[O-])c6F)c6nc(c(-c7cccc(S(=O)(=O)[O-])c7F)c7ccc4[nH]7)C=C6)C=C5)cc3)cc2-c2ccccc2)cc1
REMARK SMILES IDX 19 1 20 2 21 3 18 5 17 6 16 7 15 8 12 9 13 10 14 12 11 14
REMARK SMILES IDX 9 15 10 16 92 17 91 18 8 19 5 20 6 21 100 22 7 23 99 24 2 25
REMARK SMILES IDX 3 26 4 27 1 28 93 31 94 32 98 33 95 34 97 35 96 36 22 37
REMARK SMILES IDX 23 38 24 39 25 40 26 41 27 43 28 44 29 45 90 46 30 47 89 48
REMARK SMILES IDX 31 49 32 50 33 51 83 52 34 53 88 54 82 55 84 56 35 57 87 58
REMARK SMILES IDX 81 59 80 60 36 62 68 63 48 64 67 65 49 66 52 67 66 68 85 69
REMARK SMILES IDX 50 70 51 71 65 73 86 74 53 75 37 76 38 77 46 78 39 79 41 80
REMARK SMILES IDX 47 81 40 82 42 83 43 84 44 85 45 86 69 87 70 88 78 89 71 90
REMARK SMILES IDX 73 91 79 92 72 93 74 94 75 95 76 96 77 97 54 98 55 99 63 100
REMARK SMILES IDX 56 101 58 102 64 103 57 104 59 105 60 106 61 107 62 108
REMARK H PARENT 21 4 12 11 15 13 1 29 1 30 25 42 84 61 52 72
REMARK Flexibility Score: inf
ROOT
ATOM      1  C   UNL A   1      33.349  28.428  24.314  1.00  0.00     0.220 C 
ATOM      2  O   UNL A   1      34.307  27.659  24.260  1.00  0.00    -0.275 OA
ATOM      3  N   UNL A   1      33.174  29.171  25.444  1.00  0.00    -0.356 N 
ATOM      4  H   UNL A   1      33.869  29.044  26.129  1.00  0.00     0.163 HD
ENDROOT
BRANCH   1   5
ATOM      5  C   UNL A   1      32.407  28.564  23.134  1.00  0.00     0.102 C 
BRANCH   5   6
ATOM      6  C   UNL A   1      32.565  27.474  22.073  1.00  0.00     0.031 C 
BRANCH   6   7
ATOM      7  C   UNL A   1      31.410  26.489  21.979  1.00  0.00     0.118 C 
BRANCH   7   8
ATOM      8  N   UNL A   1      30.242  26.807  22.786  1.00  0.00    -0.338 N 
ATOM      9  N   UNL A   1      29.979  24.892  24.195  1.00  0.00    -0.291 N 
ATOM     10  C   UNL A   1      29.613  26.120  23.767  1.00  0.00     0.320 C 
ATOM     11  H   UNL A   1      29.274  24.402  24.675  1.00  0.00     0.173 HD
ATOM     12  O   UNL A   1      28.577  26.616  24.225  1.00  0.00    -0.248 OA
ATOM     13  H   UNL A   1      29.836  27.681  22.582  1.00  0.00     0.165 HD
BRANCH   9  14
ATOM     14  C   UNL A   1      31.164  24.207  24.079  1.00  0.00     0.157 A 
ATOM     15  N   UNL A   1      32.470  22.548  23.982  1.00  0.00    -0.231 N 
ATOM     16  N   UNL A   1      31.286  23.004  23.534  1.00  0.00    -0.149 NA
ATOM     17  C   UNL A   1      33.285  23.606  24.364  1.00  0.00     0.076 A 
ATOM     18  C   UNL A   1      32.436  24.699  24.442  1.00  0.00     0.078 A 
BRANCH  15  19
ATOM     19  C   UNL A   1      32.657  21.148  24.141  1.00  0.00     0.065 A 
ATOM     20  C   UNL A   1      32.997  18.401  24.446  1.00  0.00     0.082 A 
ATOM     21  C   UNL A   1      33.309  19.253  25.507  1.00  0.00     0.024 A 
ATOM     22  C   UNL A   1      32.481  18.907  23.248  1.00  0.00     0.024 A 
ATOM     23  C   UNL A   1      33.146  20.631  25.349  1.00  0.00     0.030 A 
ATOM     24  C   UNL A   1      32.286  20.281  23.103  1.00  0.00     0.030 A 
BRANCH  20  25
ATOM     25  S   UNL A   1      33.325  16.663  24.533  1.00  0.00     0.238 S 
ATOM     26  O   UNL A   1      33.632  16.224  23.188  1.00  0.00    -0.207 OA
ATOM     27  O   UNL A   1      32.370  16.077  25.428  1.00  0.00    -0.207 OA
BRANCH  25  28
ATOM     28  N   UNL A   1      34.809  16.554  25.346  1.00  0.00    -0.225 NA
ATOM     29  H   UNL A   1      34.683  16.823  26.322  1.00  0.00     0.137 HD
ATOM     30  H   UNL A   1      35.484  17.179  24.906  1.00  0.00     0.137 HD
ENDBRANCH  25  28
ENDBRANCH  20  25
ENDBRANCH  15  19
BRANCH  17  31
ATOM     31  C   UNL A   1      34.716  23.473  24.612  1.00  0.00     0.000 A 
ATOM     32  C   UNL A   1      35.563  23.062  23.572  1.00  0.00     0.010 A 
ATOM     33  C   UNL A   1      35.244  23.668  25.891  1.00  0.00     0.010 A 
ATOM     34  C   UNL A   1      36.909  22.802  23.817  1.00  0.00     0.001 A 
ATOM     35  C   UNL A   1      36.595  23.411  26.134  1.00  0.00     0.001 A 
ATOM     36  C   UNL A   1      37.423  22.970  25.100  1.00  0.00     0.000 A 
ENDBRANCH  17  31
ENDBRANCH   9  14
ENDBRANCH   7   8
ENDBRANCH   6   7
ENDBRANCH   5   6
ENDBRANCH   1   5
BRANCH   3  37
ATOM     37  C   UNL A   1      32.128  30.121  25.805  1.00  0.00     0.117 C 
BRANCH  37  38
ATOM     38  C   UNL A   1      32.451  30.895  27.084  1.00  0.00     0.042 C 
BRANCH  38  39
ATOM     39  C   UNL A   1      33.915  30.914  27.436  1.00  0.00     0.118 C 
BRANCH  39  40
ATOM     40  N   UNL A   1      34.387  32.201  27.965  1.00  0.00    -0.352 N 
ATOM     41  C   UNL A   1      35.519  32.437  28.740  1.00  0.00     0.251 C 
ATOM     42  H   UNL A   1      33.838  32.989  27.747  1.00  0.00     0.163 HD
ATOM     43  O   UNL A   1      35.619  33.455  29.416  1.00  0.00    -0.269 OA
BRANCH  41  44
ATOM     44  C   UNL A   1      36.602  31.433  28.725  1.00  0.00     0.039 A 
ATOM     45  C   UNL A   1      36.635  30.303  27.904  1.00  0.00     0.014 A 
ATOM     46  C   UNL A   1      37.679  31.700  29.544  1.00  0.00     0.014 A 
ATOM     47  C   UNL A   1      37.766  29.486  27.976  1.00  0.00     0.010 A 
ATOM     48  C   UNL A   1      38.889  31.248  29.150  1.00  0.00     0.010 A 
ATOM     49  C   UNL A   1      38.890  29.975  28.656  1.00  0.00    -0.014 A 
BRANCH  49  50
ATOM     50  C   UNL A   1      40.140  29.266  28.832  1.00  0.00     0.031 A 
ATOM     51  C   UNL A   1      40.471  29.057  30.248  1.00  0.00     0.074 A 
ATOM     52  C   UNL A   1      40.811  28.658  27.826  1.00  0.00     0.049 A 
ATOM     53  N   UNL A   1      41.226  29.810  30.970  1.00  0.00    -0.248 NA
ATOM     54  C   UNL A   1      39.696  28.068  31.007  1.00  0.00     0.031 C 
ATOM     55  C   UNL A   1      40.428  28.467  26.416  1.00  0.00     0.029 A 
ATOM     56  N   UNL A   1      41.986  27.980  27.895  1.00  0.00    -0.354 N 
ATOM     57  C   UNL A   1      41.253  29.198  32.213  1.00  0.00     0.074 A 
ATOM     58  C   UNL A   1      40.101  28.336  32.250  1.00  0.00     0.031 C 
ATOM     59  C   UNL A   1      41.248  27.556  25.837  1.00  0.00     0.029 A 
ATOM     60  C   UNL A   1      42.310  27.231  26.769  1.00  0.00     0.049 A 
ATOM     61  H   UNL A   1      42.568  28.017  28.688  1.00  0.00     0.167 HD
ATOM     62  C   UNL A   1      42.389  29.218  32.962  1.00  0.00     0.034 A 
ATOM     63  C   UNL A   1      43.373  26.397  26.641  1.00  0.00     0.034 A 
ATOM     64  C   UNL A   1      43.355  30.141  32.403  1.00  0.00     0.049 A 
ATOM     65  C   UNL A   1      44.374  26.833  27.645  1.00  0.00     0.074 A 
ATOM     66  C   UNL A   1      43.365  31.493  32.116  1.00  0.00     0.029 A 
ATOM     67  N   UNL A   1      44.360  29.588  31.642  1.00  0.00    -0.354 N 
ATOM     68  N   UNL A   1      44.967  27.995  27.600  1.00  0.00    -0.248 NA
ATOM     69  C   UNL A   1      44.348  26.195  28.951  1.00  0.00     0.031 C 
ATOM     70  C   UNL A   1      44.045  31.598  30.864  1.00  0.00     0.029 A 
ATOM     71  C   UNL A   1      44.479  30.324  30.491  1.00  0.00     0.049 A 
ATOM     72  H   UNL A   1      44.898  28.799  31.881  1.00  0.00     0.167 HD
ATOM     73  C   UNL A   1      44.959  28.439  28.917  1.00  0.00     0.074 A 
ATOM     74  C   UNL A   1      44.664  27.246  29.713  1.00  0.00     0.031 C 
ATOM     75  C   UNL A   1      44.894  29.772  29.215  1.00  0.00     0.034 A 
BRANCH  62  76
ATOM     76  C   UNL A   1      42.815  28.143  33.935  1.00  0.00     0.023 A 
ATOM     77  C   UNL A   1      43.003  28.549  35.275  1.00  0.00     0.012 A 
ATOM     78  C   UNL A   1      43.292  26.859  33.583  1.00  0.00     0.148 A 
ATOM     79  C   UNL A   1      43.695  27.755  36.192  1.00  0.00     0.002 A 
ATOM     80  C   UNL A   1      43.917  26.043  34.518  1.00  0.00     0.091 A 
ATOM     81  F   UNL A   1      43.268  26.451  32.314  1.00  0.00    -0.205 F 
ATOM     82  C   UNL A   1      44.153  26.500  35.815  1.00  0.00     0.022 A 
BRANCH  80  83
ATOM     83  S   UNL A   1      44.490  24.392  34.095  1.00  0.00     0.127 S 
ATOM     84  O   UNL A   1      43.227  23.679  33.929  1.00  0.00    -0.237 OA
ATOM     85  O   UNL A   1      45.230  24.641  32.858  1.00  0.00    -0.237 OA
ATOM     86  O   UNL A   1      45.325  23.963  35.210  1.00  0.00    -0.744 OA
ENDBRANCH  80  83
ENDBRANCH  62  76
BRANCH  63  87
ATOM     87  C   UNL A   1      43.484  25.104  25.923  1.00  0.00     0.023 A 
ATOM     88  C   UNL A   1      44.564  24.865  25.048  1.00  0.00     0.012 A 
ATOM     89  C   UNL A   1      42.694  24.001  26.318  1.00  0.00     0.148 A 
ATOM     90  C   UNL A   1      44.863  23.568  24.606  1.00  0.00     0.002 A 
ATOM     91  C   UNL A   1      42.994  22.715  25.873  1.00  0.00     0.091 A 
ATOM     92  F   UNL A   1      41.707  24.205  27.201  1.00  0.00    -0.205 F 
ATOM     93  C   UNL A   1      44.085  22.493  25.025  1.00  0.00     0.022 A 
BRANCH  91  94
ATOM     94  S   UNL A   1      42.036  21.274  26.370  1.00  0.00     0.127 S 
ATOM     95  O   UNL A   1      42.591  20.233  25.503  1.00  0.00    -0.237 OA
ATOM     96  O   UNL A   1      42.394  21.142  27.782  1.00  0.00    -0.237 OA
ATOM     97  O   UNL A   1      40.650  21.615  26.084  1.00  0.00    -0.744 OA
ENDBRANCH  91  94
ENDBRANCH  63  87
BRANCH  75  98
ATOM     98  C   UNL A   1      45.029  30.758  28.076  1.00  0.00     0.023 A 
ATOM     99  C   UNL A   1      43.914  31.233  27.350  1.00  0.00     0.012 A 
ATOM    100  C   UNL A   1      46.280  31.355  27.851  1.00  0.00     0.148 A 
ATOM    101  C   UNL A   1      44.047  32.263  26.413  1.00  0.00     0.002 A 
ATOM    102  C   UNL A   1      46.402  32.406  26.949  1.00  0.00     0.091 A 
ATOM    103  F   UNL A   1      47.328  30.904  28.557  1.00  0.00    -0.205 F 
ATOM    104  C   UNL A   1      45.289  32.859  26.221  1.00  0.00     0.022 A 
BRANCH 102 105
ATOM    105  S   UNL A   1      47.944  33.297  26.739  1.00  0.00     0.127 S 
ATOM    106  O   UNL A   1      48.063  34.007  28.011  1.00  0.00    -0.237 OA
ATOM    107  O   UNL A   1      48.908  32.213  26.551  1.00  0.00    -0.237 OA
ATOM    108  O   UNL A   1      47.764  34.146  25.567  1.00  0.00    -0.744 OA
ENDBRANCH 102 105
ENDBRANCH  75  98
ENDBRANCH  49  50
ENDBRANCH  41  44
ENDBRANCH  39  40
ENDBRANCH  38  39
ENDBRANCH  37  38
ENDBRANCH   3  37
TORSDOF 21
ENDMDL
MODEL 3
REMARK VINA RESULT:     -12.8      3.266      7.085
REMARK SMILES NS(=O)(=O)c1ccc(-n2nc(NC(=O)NCCCC(=O)NCCCNC(=O)c3ccc(-c4c5nc(c(-c6cccc(S(=O)(=O)[O-])c6F)c6ccc([nH]6)c(-c6cccc(S(=O)(=O)[O-])c6F)c6nc(c(-c7cccc(S(=O)(=O)[O-])c7F)c7ccc4[nH]7)C=C6)C=C5)cc3)cc2-c2ccccc2)cc1
REMARK SMILES IDX 19 1 20 2 21 3 18 5 17 6 16 7 15 8 12 9 13 10 14 12 11 14
REMARK SMILES IDX 9 15 10 16 92 17 91 18 8 19 5 20 6 21 100 22 7 23 99 24 2 25
REMARK SMILES IDX 3 26 4 27 1 28 93 31 94 32 98 33 95 34 97 35 96 36 22 37
REMARK SMILES IDX 23 38 24 39 25 40 26 41 27 43 28 44 29 45 90 46 30 47 89 48
REMARK SMILES IDX 31 49 32 50 33 51 83 52 34 53 88 54 82 55 84 56 35 57 87 58
REMARK SMILES IDX 81 59 80 60 36 62 68 63 48 64 67 65 49 66 52 67 66 68 85 69
REMARK SMILES IDX 50 70 51 71 65 73 86 74 53 75 37 76 38 77 46 78 39 79 41 80
REMARK SMILES IDX 47 81 40 82 42 83 43 84 44 85 45 86 69 87 70 88 78 89 71 90
REMARK SMILES IDX 73 91 79 92 72 93 74 94 75 95 76 96 77 97 54 98 55 99 63 100
REMARK SMILES IDX 56 101 58 102 64 103 57 104 59 105 60 106 61 107 62 108
REMARK H PARENT 21 4 12 11 15 13 1 29 1 30 25 42 84 61 52 72
REMARK Flexibility Score: inf
ROOT
ATOM      1  C   UNL A   1      32.152  28.376  25.916  1.00  0.00     0.220 C 
ATOM      2  O   UNL A   1      31.310  27.553  26.274  1.00  0.00    -0.275 OA
ATOM      3  N   UNL A   1      33.145  28.710  26.788  1.00  0.00    -0.356 N 
ATOM      4  H   UNL A   1      33.117  28.227  27.645  1.00  0.00     0.163 HD
ENDROOT
BRANCH   1   5
ATOM      5  C   UNL A   1      32.097  28.975  24.525  1.00  0.00     0.102 C 
BRANCH   5   6
ATOM      6  C   UNL A   1      32.666  28.073  23.428  1.00  0.00     0.031 C 
BRANCH   6   7
ATOM      7  C   UNL A   1      31.662  27.136  22.774  1.00  0.00     0.118 C 
BRANCH   7   8
ATOM      8  N   UNL A   1      30.324  27.147  23.346  1.00  0.00    -0.338 N 
ATOM      9  N   UNL A   1      29.897  24.847  23.849  1.00  0.00    -0.291 N 
ATOM     10  C   UNL A   1      29.546  26.151  23.830  1.00  0.00     0.320 C 
ATOM     11  H   UNL A   1      29.141  24.224  23.938  1.00  0.00     0.173 HD
ATOM     12  O   UNL A   1      28.400  26.455  24.184  1.00  0.00    -0.248 OA
ATOM     13  H   UNL A   1      29.910  28.039  23.389  1.00  0.00     0.165 HD
BRANCH   9  14
ATOM     14  C   UNL A   1      31.126  24.237  23.769  1.00  0.00     0.157 A 
ATOM     15  N   UNL A   1      32.532  22.663  23.660  1.00  0.00    -0.231 N 
ATOM     16  N   UNL A   1      31.351  23.078  23.166  1.00  0.00    -0.149 NA
ATOM     17  C   UNL A   1      33.258  23.740  24.150  1.00  0.00     0.076 A 
ATOM     18  C   UNL A   1      32.342  24.777  24.236  1.00  0.00     0.078 A 
BRANCH  15  19
ATOM     19  C   UNL A   1      32.791  21.268  23.751  1.00  0.00     0.065 A 
ATOM     20  C   UNL A   1      33.325  18.541  23.927  1.00  0.00     0.082 A 
ATOM     21  C   UNL A   1      32.434  19.004  22.959  1.00  0.00     0.024 A 
ATOM     22  C   UNL A   1      33.981  19.433  24.783  1.00  0.00     0.024 A 
ATOM     23  C   UNL A   1      32.160  20.371  22.877  1.00  0.00     0.030 A 
ATOM     24  C   UNL A   1      33.733  20.802  24.679  1.00  0.00     0.030 A 
BRANCH  20  25
ATOM     25  S   UNL A   1      33.596  16.809  24.178  1.00  0.00     0.238 S 
ATOM     26  O   UNL A   1      34.116  16.278  22.935  1.00  0.00    -0.207 OA
ATOM     27  O   UNL A   1      32.492  16.294  24.935  1.00  0.00    -0.207 OA
BRANCH  25  28
ATOM     28  N   UNL A   1      34.920  16.739  25.236  1.00  0.00    -0.225 NA
ATOM     29  H   UNL A   1      35.004  15.796  25.614  1.00  0.00     0.137 HD
ATOM     30  H   UNL A   1      34.781  17.400  26.000  1.00  0.00     0.137 HD
ENDBRANCH  25  28
ENDBRANCH  20  25
ENDBRANCH  15  19
BRANCH  17  31
ATOM     31  C   UNL A   1      34.678  23.672  24.478  1.00  0.00     0.000 A 
ATOM     32  C   UNL A   1      35.602  23.321  23.483  1.00  0.00     0.010 A 
ATOM     33  C   UNL A   1      35.121  23.871  25.788  1.00  0.00     0.010 A 
ATOM     34  C   UNL A   1      36.943  23.124  23.801  1.00  0.00     0.001 A 
ATOM     35  C   UNL A   1      36.468  23.676  26.105  1.00  0.00     0.001 A 
ATOM     36  C   UNL A   1      37.374  23.294  25.114  1.00  0.00     0.000 A 
ENDBRANCH  17  31
ENDBRANCH   9  14
ENDBRANCH   7   8
ENDBRANCH   6   7
ENDBRANCH   5   6
ENDBRANCH   1   5
BRANCH   3  37
ATOM     37  C   UNL A   1      34.241  29.665  26.661  1.00  0.00     0.117 C 
BRANCH  37  38
ATOM     38  C   UNL A   1      34.100  30.853  27.614  1.00  0.00     0.042 C 
BRANCH  38  39
ATOM     39  C   UNL A   1      35.347  31.689  27.741  1.00  0.00     0.118 C 
BRANCH  39  40
ATOM     40  N   UNL A   1      35.345  32.596  28.896  1.00  0.00    -0.352 N 
ATOM     41  C   UNL A   1      35.823  32.339  30.179  1.00  0.00     0.251 C 
ATOM     42  H   UNL A   1      34.960  33.490  28.747  1.00  0.00     0.163 HD
ATOM     43  O   UNL A   1      35.451  33.009  31.135  1.00  0.00    -0.269 OA
BRANCH  41  44
ATOM     44  C   UNL A   1      36.795  31.241  30.358  1.00  0.00     0.039 A 
ATOM     45  C   UNL A   1      36.468  29.885  30.427  1.00  0.00     0.014 A 
ATOM     46  C   UNL A   1      38.122  31.615  30.386  1.00  0.00     0.014 A 
ATOM     47  C   UNL A   1      37.520  28.973  30.541  1.00  0.00     0.010 A 
ATOM     48  C   UNL A   1      39.028  30.728  29.921  1.00  0.00     0.010 A 
ATOM     49  C   UNL A   1      38.823  29.438  30.320  1.00  0.00    -0.014 A 
BRANCH  49  50
ATOM     50  C   UNL A   1      40.027  28.638  30.400  1.00  0.00     0.031 A 
ATOM     51  C   UNL A   1      40.566  28.571  31.765  1.00  0.00     0.074 A 
ATOM     52  C   UNL A   1      40.477  27.850  29.395  1.00  0.00     0.049 A 
ATOM     53  N   UNL A   1      41.484  29.330  32.256  1.00  0.00    -0.248 NA
ATOM     54  C   UNL A   1      39.850  27.762  32.759  1.00  0.00     0.031 C 
ATOM     55  C   UNL A   1      39.856  27.527  28.098  1.00  0.00     0.029 A 
ATOM     56  N   UNL A   1      41.592  27.075  29.378  1.00  0.00    -0.354 N 
ATOM     57  C   UNL A   1      41.665  28.873  33.552  1.00  0.00     0.074 A 
ATOM     58  C   UNL A   1      40.472  28.139  33.879  1.00  0.00     0.031 C 
ATOM     59  C   UNL A   1      40.499  26.477  27.531  1.00  0.00     0.029 A 
ATOM     60  C   UNL A   1      41.670  26.167  28.328  1.00  0.00     0.049 A 
ATOM     61  H   UNL A   1      42.296  27.151  30.061  1.00  0.00     0.167 HD
ATOM     62  C   UNL A   1      42.906  28.874  34.110  1.00  0.00     0.034 A 
ATOM     63  C   UNL A   1      42.631  25.224  28.155  1.00  0.00     0.034 A 
ATOM     64  C   UNL A   1      43.836  29.625  33.293  1.00  0.00     0.049 A 
ATOM     65  C   UNL A   1      43.813  25.679  28.927  1.00  0.00     0.074 A 
ATOM     66  C   UNL A   1      43.903  30.924  32.827  1.00  0.00     0.029 A 
ATOM     67  N   UNL A   1      44.658  28.887  32.470  1.00  0.00    -0.354 N 
ATOM     68  N   UNL A   1      44.477  26.764  28.636  1.00  0.00    -0.248 NA
ATOM     69  C   UNL A   1      43.950  25.210  30.296  1.00  0.00     0.031 C 
ATOM     70  C   UNL A   1      44.376  30.809  31.484  1.00  0.00     0.029 A 
ATOM     71  C   UNL A   1      44.646  29.463  31.226  1.00  0.00     0.049 A 
ATOM     72  H   UNL A   1      45.166  28.085  32.731  1.00  0.00     0.167 HD
ATOM     73  C   UNL A   1      44.718  27.364  29.867  1.00  0.00     0.074 A 
ATOM     74  C   UNL A   1      44.465  26.311  30.853  1.00  0.00     0.031 C 
ATOM     75  C   UNL A   1      44.804  28.723  29.989  1.00  0.00     0.034 A 
BRANCH  62  76
ATOM     76  C   UNL A   1      43.400  27.889  35.145  1.00  0.00     0.023 A 
ATOM     77  C   UNL A   1      43.997  28.440  36.300  1.00  0.00     0.012 A 
ATOM     78  C   UNL A   1      43.559  26.498  34.944  1.00  0.00     0.148 A 
ATOM     79  C   UNL A   1      44.775  27.666  37.165  1.00  0.00     0.002 A 
ATOM     80  C   UNL A   1      44.273  25.719  35.845  1.00  0.00     0.091 A 
ATOM     81  F   UNL A   1      43.136  25.923  33.818  1.00  0.00    -0.205 F 
ATOM     82  C   UNL A   1      44.913  26.303  36.939  1.00  0.00     0.022 A 
BRANCH  80  83
ATOM     83  S   UNL A   1      44.447  23.942  35.625  1.00  0.00     0.127 S 
ATOM     84  O   UNL A   1      45.415  23.878  34.535  1.00  0.00    -0.237 OA
ATOM     85  O   UNL A   1      44.957  23.529  36.933  1.00  0.00    -0.237 OA
ATOM     86  O   UNL A   1      43.110  23.446  35.325  1.00  0.00    -0.744 OA
ENDBRANCH  80  83
ENDBRANCH  62  76
BRANCH  63  87
ATOM     87  C   UNL A   1      42.524  23.848  27.610  1.00  0.00     0.023 A 
ATOM     88  C   UNL A   1      41.311  23.135  27.708  1.00  0.00     0.012 A 
ATOM     89  C   UNL A   1      43.518  23.349  26.739  1.00  0.00     0.148 A 
ATOM     90  C   UNL A   1      41.087  21.981  26.943  1.00  0.00     0.002 A 
ATOM     91  C   UNL A   1      43.291  22.201  25.983  1.00  0.00     0.091 A 
ATOM     92  F   UNL A   1      44.647  24.055  26.586  1.00  0.00    -0.205 F 
ATOM     93  C   UNL A   1      42.072  21.520  26.075  1.00  0.00     0.022 A 
BRANCH  91  94
ATOM     94  S   UNL A   1      44.514  21.542  24.838  1.00  0.00     0.127 S 
ATOM     95  O   UNL A   1      44.431  22.497  23.731  1.00  0.00    -0.237 OA
ATOM     96  O   UNL A   1      45.745  21.628  25.622  1.00  0.00    -0.237 OA
ATOM     97  O   UNL A   1      44.050  20.202  24.507  1.00  0.00    -0.744 OA
ENDBRANCH  91  94
ENDBRANCH  63  87
BRANCH  75  98
ATOM     98  C   UNL A   1      44.828  29.545  28.719  1.00  0.00     0.023 A 
ATOM     99  C   UNL A   1      43.670  29.773  27.944  1.00  0.00     0.012 A 
ATOM    100  C   UNL A   1      45.999  30.250  28.400  1.00  0.00     0.148 A 
ATOM    101  C   UNL A   1      43.683  30.668  26.868  1.00  0.00     0.002 A 
ATOM    102  C   UNL A   1      46.000  31.169  27.356  1.00  0.00     0.091 A 
ATOM    103  F   UNL A   1      47.088  30.035  29.152  1.00  0.00    -0.205 F 
ATOM    104  C   UNL A   1      44.846  31.375  26.582  1.00  0.00     0.022 A 
BRANCH 102 105
ATOM    105  S   UNL A   1      47.424  32.201  27.006  1.00  0.00     0.127 S 
ATOM    106  O   UNL A   1      48.408  31.221  26.551  1.00  0.00    -0.237 OA
ATOM    107  O   UNL A   1      46.916  33.090  25.960  1.00  0.00    -0.237 OA
ATOM    108  O   UNL A   1      47.751  32.877  28.256  1.00  0.00    -0.744 OA
ENDBRANCH 102 105
ENDBRANCH  75  98
ENDBRANCH  49  50
ENDBRANCH  41  44
ENDBRANCH  39  40
ENDBRANCH  38  39
ENDBRANCH  37  38
ENDBRANCH   3  37
TORSDOF 21
ENDMDL
