MODEL 1
REMARK VINA RESULT:     -12.4      0.000      0.000
REMARK SMILES C[C@@H](c1ccc(F)cc1)N1C[C@H](C(=O)NCCCNC(=O)c2ccc(-c3c4nc(c(-c5cccc(S(=O)(=O)[O-])c5F)c5ccc([nH]5)c(-c5cccc(S(=O)(=O)[O-])c5F)c5nc(c(-c6cccc(S(=O)(=O)[O-])c6F)c6ccc3[nH]6)C=C5)C=C4)cc2)CC1=O
REMARK SMILES IDX 17 1 16 2 15 3 13 4 14 5 12 7 10 8 11 9 86 10 85 11 87 12
REMARK SMILES IDX 2 13 1 14 3 15 4 16 9 17 5 18 8 19 6 20 7 21 18 22 19 23
REMARK SMILES IDX 20 24 21 26 22 27 23 28 84 29 24 30 83 31 25 32 26 33 27 34
REMARK SMILES IDX 77 35 28 36 82 37 76 38 78 39 29 40 81 41 75 42 74 43 30 45
REMARK SMILES IDX 62 46 42 47 61 48 43 49 46 50 60 51 79 52 44 53 45 54 59 56
REMARK SMILES IDX 80 57 47 58 31 59 32 60 40 61 33 62 35 63 41 64 34 65 36 66
REMARK SMILES IDX 37 67 38 68 39 69 63 70 64 71 72 72 65 73 67 74 73 75 66 76
REMARK SMILES IDX 68 77 69 78 70 79 71 80 48 81 49 82 57 83 50 84 52 85 58 86
REMARK SMILES IDX 51 87 53 88 54 89 55 90 56 91
REMARK H PARENT 15 6 19 25 78 44 46 55
REMARK Flexibility Score: inf
ROOT
ATOM      1  C   UNL A   1      31.442  28.913  26.371  1.00  0.00     0.042 C 
ENDROOT
BRANCH   1   2
ATOM      2  C   UNL A   1      31.910  27.801  27.301  1.00  0.00     0.117 C 
BRANCH   2   3
ATOM      3  N   UNL A   1      31.546  26.482  26.817  1.00  0.00    -0.356 N 
ATOM      4  C   UNL A   1      32.226  25.639  25.990  1.00  0.00     0.225 C 
ATOM      5  O   UNL A   1      31.757  24.519  25.793  1.00  0.00    -0.275 OA
ATOM      6  H   UNL A   1      30.677  26.145  27.134  1.00  0.00     0.163 HD
BRANCH   4   7
ATOM      7  C   UNL A   1      33.543  26.099  25.391  1.00  0.00     0.107 C 
ATOM      8  N   UNL A   1      34.372  24.494  23.886  1.00  0.00    -0.335 N 
ATOM      9  C   UNL A   1      34.524  24.951  25.249  1.00  0.00     0.134 C 
ATOM     10  C   UNL A   1      33.867  25.512  23.093  1.00  0.00     0.223 C 
ATOM     11  C   UNL A   1      33.372  26.629  23.973  1.00  0.00     0.115 C 
ATOM     12  O   UNL A   1      33.869  25.570  21.867  1.00  0.00    -0.275 OA
BRANCH   8  13
ATOM     13  C   UNL A   1      35.006  23.274  23.363  1.00  0.00     0.112 C 
ATOM     14  C   UNL A   1      36.526  23.228  23.596  1.00  0.00     0.036 C 
BRANCH  13  15
ATOM     15  C   UNL A   1      34.314  22.005  23.873  1.00  0.00    -0.026 A 
ATOM     16  C   UNL A   1      32.951  21.802  23.578  1.00  0.00     0.009 A 
ATOM     17  C   UNL A   1      34.970  21.035  24.650  1.00  0.00     0.009 A 
ATOM     18  C   UNL A   1      32.262  20.686  24.055  1.00  0.00     0.039 A 
ATOM     19  C   UNL A   1      34.288  19.898  25.100  1.00  0.00     0.039 A 
ATOM     20  C   UNL A   1      32.940  19.739  24.806  1.00  0.00     0.123 A 
ATOM     21  F   UNL A   1      32.286  18.660  25.256  1.00  0.00    -0.207 F 
ENDBRANCH  13  15
ENDBRANCH   8  13
ENDBRANCH   4   7
ENDBRANCH   2   3
ENDBRANCH   1   2
BRANCH   1  22
ATOM     22  C   UNL A   1      32.550  29.830  25.860  1.00  0.00     0.118 C 
BRANCH  22  23
ATOM     23  N   UNL A   1      32.376  31.217  26.266  1.00  0.00    -0.352 N 
ATOM     24  C   UNL A   1      33.093  31.986  27.150  1.00  0.00     0.251 C 
ATOM     25  H   UNL A   1      31.620  31.681  25.837  1.00  0.00     0.163 HD
ATOM     26  O   UNL A   1      32.661  33.095  27.455  1.00  0.00    -0.269 OA
BRANCH  24  27
ATOM     27  C   UNL A   1      34.354  31.493  27.749  1.00  0.00     0.039 A 
ATOM     28  C   UNL A   1      35.395  32.404  27.951  1.00  0.00     0.014 A 
ATOM     29  C   UNL A   1      34.537  30.149  28.083  1.00  0.00     0.014 A 
ATOM     30  C   UNL A   1      36.587  31.981  28.545  1.00  0.00     0.010 A 
ATOM     31  C   UNL A   1      35.694  29.745  28.750  1.00  0.00     0.010 A 
ATOM     32  C   UNL A   1      36.733  30.655  28.986  1.00  0.00    -0.014 A 
BRANCH  32  33
ATOM     33  C   UNL A   1      37.953  30.232  29.723  1.00  0.00     0.031 A 
ATOM     34  C   UNL A   1      38.225  30.722  31.120  1.00  0.00     0.074 A 
ATOM     35  C   UNL A   1      38.851  29.437  29.105  1.00  0.00     0.049 A 
ATOM     36  N   UNL A   1      39.224  30.428  31.911  1.00  0.00    -0.248 NA
ATOM     37  C   UNL A   1      37.268  31.679  31.699  1.00  0.00     0.031 C 
ATOM     38  C   UNL A   1      38.745  28.966  27.722  1.00  0.00     0.029 A 
ATOM     39  N   UNL A   1      40.031  28.892  29.549  1.00  0.00    -0.354 N 
ATOM     40  C   UNL A   1      39.031  31.176  33.066  1.00  0.00     0.074 A 
ATOM     41  C   UNL A   1      37.839  31.968  32.861  1.00  0.00     0.031 C 
ATOM     42  C   UNL A   1      39.797  28.185  27.440  1.00  0.00     0.029 A 
ATOM     43  C   UNL A   1      40.671  28.118  28.607  1.00  0.00     0.049 A 
ATOM     44  H   UNL A   1      40.385  29.040  30.455  1.00  0.00     0.167 HD
ATOM     45  C   UNL A   1      39.761  31.177  34.205  1.00  0.00     0.034 A 
ATOM     46  C   UNL A   1      41.827  27.427  28.674  1.00  0.00     0.034 A 
ATOM     47  C   UNL A   1      40.920  30.352  34.419  1.00  0.00     0.049 A 
ATOM     48  C   UNL A   1      42.596  27.409  29.966  1.00  0.00     0.074 A 
ATOM     49  C   UNL A   1      41.671  30.216  35.573  1.00  0.00     0.029 A 
ATOM     50  N   UNL A   1      41.496  29.530  33.465  1.00  0.00    -0.354 N 
ATOM     51  N   UNL A   1      42.307  27.999  31.100  1.00  0.00    -0.248 NA
ATOM     52  C   UNL A   1      43.826  26.605  30.006  1.00  0.00     0.031 C 
ATOM     53  C   UNL A   1      42.719  29.334  35.308  1.00  0.00     0.029 A 
ATOM     54  C   UNL A   1      42.600  28.892  34.001  1.00  0.00     0.049 A 
ATOM     55  H   UNL A   1      41.169  29.417  32.543  1.00  0.00     0.167 HD
ATOM     56  C   UNL A   1      43.294  27.610  31.997  1.00  0.00     0.074 A 
ATOM     57  C   UNL A   1      44.188  26.725  31.279  1.00  0.00     0.031 C 
ATOM     58  C   UNL A   1      43.448  27.963  33.296  1.00  0.00     0.034 A 
BRANCH  45  59
ATOM     59  C   UNL A   1      39.302  32.042  35.350  1.00  0.00     0.023 A 
ATOM     60  C   UNL A   1      38.489  31.480  36.356  1.00  0.00     0.012 A 
ATOM     61  C   UNL A   1      39.767  33.364  35.496  1.00  0.00     0.148 A 
ATOM     62  C   UNL A   1      38.132  32.225  37.478  1.00  0.00     0.002 A 
ATOM     63  C   UNL A   1      39.443  34.084  36.639  1.00  0.00     0.091 A 
ATOM     64  F   UNL A   1      40.525  33.885  34.520  1.00  0.00    -0.205 F 
ATOM     65  C   UNL A   1      38.619  33.520  37.627  1.00  0.00     0.022 A 
BRANCH  63  66
ATOM     66  S   UNL A   1      40.095  35.726  36.970  1.00  0.00     0.127 S 
ATOM     67  O   UNL A   1      39.450  36.047  38.243  1.00  0.00    -0.237 OA
ATOM     68  O   UNL A   1      41.533  35.474  37.063  1.00  0.00    -0.237 OA
ATOM     69  O   UNL A   1      39.693  36.554  35.843  1.00  0.00    -0.744 OA
ENDBRANCH  63  66
ENDBRANCH  45  59
BRANCH  46  70
ATOM     70  C   UNL A   1      42.266  26.623  27.498  1.00  0.00     0.023 A 
ATOM     71  C   UNL A   1      43.096  27.215  26.526  1.00  0.00     0.012 A 
ATOM     72  C   UNL A   1      41.936  25.258  27.380  1.00  0.00     0.148 A 
ATOM     73  C   UNL A   1      43.578  26.468  25.451  1.00  0.00     0.002 A 
ATOM     74  C   UNL A   1      42.468  24.505  26.339  1.00  0.00     0.091 A 
ATOM     75  F   UNL A   1      41.137  24.716  28.310  1.00  0.00    -0.205 F 
ATOM     76  C   UNL A   1      43.276  25.112  25.365  1.00  0.00     0.022 A 
BRANCH  74  77
ATOM     77  S   UNL A   1      42.259  22.723  26.232  1.00  0.00     0.127 S 
ATOM     78  O   UNL A   1      40.804  22.592  26.233  1.00  0.00    -0.237 OA
ATOM     79  O   UNL A   1      42.906  22.421  24.954  1.00  0.00    -0.237 OA
ATOM     80  O   UNL A   1      42.943  22.176  27.395  1.00  0.00    -0.744 OA
ENDBRANCH  74  77
ENDBRANCH  46  70
BRANCH  58  81
ATOM     81  C   UNL A   1      44.598  27.381  34.072  1.00  0.00     0.023 A 
ATOM     82  C   UNL A   1      45.819  28.079  34.137  1.00  0.00     0.012 A 
ATOM     83  C   UNL A   1      44.407  26.235  34.871  1.00  0.00     0.148 A 
ATOM     84  C   UNL A   1      46.835  27.643  34.988  1.00  0.00     0.002 A 
ATOM     85  C   UNL A   1      45.405  25.836  35.752  1.00  0.00     0.091 A 
ATOM     86  F   UNL A   1      43.239  25.583  34.780  1.00  0.00    -0.205 F 
ATOM     87  C   UNL A   1      46.622  26.535  35.806  1.00  0.00     0.022 A 
BRANCH  85  88
ATOM     88  S   UNL A   1      45.183  24.492  36.923  1.00  0.00     0.127 S 
ATOM     89  O   UNL A   1      46.477  24.475  37.603  1.00  0.00    -0.237 OA
ATOM     90  O   UNL A   1      44.070  24.975  37.739  1.00  0.00    -0.237 OA
ATOM     91  O   UNL A   1      44.888  23.307  36.129  1.00  0.00    -0.744 OA
ENDBRANCH  85  88
ENDBRANCH  58  81
ENDBRANCH  32  33
ENDBRANCH  24  27
ENDBRANCH  22  23
ENDBRANCH   1  22
TORSDOF 15
ENDMDL
MODEL 2
REMARK VINA RESULT:     -12.3      1.246      1.594
REMARK SMILES C[C@@H](c1ccc(F)cc1)N1C[C@H](C(=O)NCCCNC(=O)c2ccc(-c3c4nc(c(-c5cccc(S(=O)(=O)[O-])c5F)c5ccc([nH]5)c(-c5cccc(S(=O)(=O)[O-])c5F)c5nc(c(-c6cccc(S(=O)(=O)[O-])c6F)c6ccc3[nH]6)C=C5)C=C4)cc2)CC1=O
REMARK SMILES IDX 17 1 16 2 15 3 13 4 14 5 12 7 10 8 11 9 86 10 85 11 87 12
REMARK SMILES IDX 2 13 1 14 3 15 4 16 9 17 5 18 8 19 6 20 7 21 18 22 19 23
REMARK SMILES IDX 20 24 21 26 22 27 23 28 84 29 24 30 83 31 25 32 26 33 27 34
REMARK SMILES IDX 77 35 28 36 82 37 76 38 78 39 29 40 81 41 75 42 74 43 30 45
REMARK SMILES IDX 62 46 42 47 61 48 43 49 46 50 60 51 79 52 44 53 45 54 59 56
REMARK SMILES IDX 80 57 47 58 31 59 32 60 40 61 33 62 35 63 41 64 34 65 36 66
REMARK SMILES IDX 37 67 38 68 39 69 63 70 64 71 72 72 65 73 67 74 73 75 66 76
REMARK SMILES IDX 68 77 69 78 70 79 71 80 48 81 49 82 57 83 50 84 52 85 58 86
REMARK SMILES IDX 51 87 53 88 54 89 55 90 56 91
REMARK H PARENT 15 6 19 25 78 44 46 55
REMARK Flexibility Score: inf
ROOT
ATOM      1  C   UNL A   1      31.526  29.070  26.683  1.00  0.00     0.042 C 
ENDROOT
BRANCH   1   2
ATOM      2  C   UNL A   1      31.907  27.836  27.491  1.00  0.00     0.117 C 
BRANCH   2   3
ATOM      3  N   UNL A   1      31.476  26.603  26.859  1.00  0.00    -0.356 N 
ATOM      4  C   UNL A   1      32.109  25.831  25.932  1.00  0.00     0.225 C 
ATOM      5  O   UNL A   1      31.583  24.767  25.609  1.00  0.00    -0.275 OA
ATOM      6  H   UNL A   1      30.591  26.275  27.142  1.00  0.00     0.163 HD
BRANCH   4   7
ATOM      7  C   UNL A   1      33.445  26.292  25.379  1.00  0.00     0.107 C 
ATOM      8  N   UNL A   1      34.362  24.655  23.962  1.00  0.00    -0.335 N 
ATOM      9  C   UNL A   1      34.447  25.154  25.316  1.00  0.00     0.134 C 
ATOM     10  C   UNL A   1      33.881  25.643  23.116  1.00  0.00     0.223 C 
ATOM     11  C   UNL A   1      33.332  26.778  23.940  1.00  0.00     0.115 C 
ATOM     12  O   UNL A   1      33.937  25.665  21.891  1.00  0.00    -0.275 OA
BRANCH   8  13
ATOM     13  C   UNL A   1      35.035  23.429  23.504  1.00  0.00     0.112 C 
ATOM     14  C   UNL A   1      36.528  23.379  23.872  1.00  0.00     0.036 C 
BRANCH  13  15
ATOM     15  C   UNL A   1      34.295  22.167  23.959  1.00  0.00    -0.026 A 
ATOM     16  C   UNL A   1      32.909  22.064  23.728  1.00  0.00     0.009 A 
ATOM     17  C   UNL A   1      34.931  21.104  24.624  1.00  0.00     0.009 A 
ATOM     18  C   UNL A   1      32.179  20.955  24.159  1.00  0.00     0.039 A 
ATOM     19  C   UNL A   1      34.206  19.977  25.027  1.00  0.00     0.039 A 
ATOM     20  C   UNL A   1      32.837  19.917  24.800  1.00  0.00     0.123 A 
ATOM     21  F   UNL A   1      32.144  18.846  25.205  1.00  0.00    -0.207 F 
ENDBRANCH  13  15
ENDBRANCH   8  13
ENDBRANCH   4   7
ENDBRANCH   2   3
ENDBRANCH   1   2
BRANCH   1  22
ATOM     22  C   UNL A   1      32.708  29.886  26.163  1.00  0.00     0.118 C 
BRANCH  22  23
ATOM     23  N   UNL A   1      32.637  31.292  26.532  1.00  0.00    -0.352 N 
ATOM     24  C   UNL A   1      33.438  32.040  27.360  1.00  0.00     0.251 C 
ATOM     25  H   UNL A   1      31.892  31.789  26.122  1.00  0.00     0.163 HD
ATOM     26  O   UNL A   1      33.089  33.182  27.649  1.00  0.00    -0.269 OA
BRANCH  24  27
ATOM     27  C   UNL A   1      34.693  31.487  27.920  1.00  0.00     0.039 A 
ATOM     28  C   UNL A   1      35.809  32.324  28.003  1.00  0.00     0.014 A 
ATOM     29  C   UNL A   1      34.794  30.155  28.331  1.00  0.00     0.014 A 
ATOM     30  C   UNL A   1      37.000  31.845  28.556  1.00  0.00     0.010 A 
ATOM     31  C   UNL A   1      35.955  29.703  28.958  1.00  0.00     0.010 A 
ATOM     32  C   UNL A   1      37.072  30.541  29.075  1.00  0.00    -0.014 A 
BRANCH  32  33
ATOM     33  C   UNL A   1      38.299  30.070  29.770  1.00  0.00     0.031 A 
ATOM     34  C   UNL A   1      38.658  30.577  31.141  1.00  0.00     0.074 A 
ATOM     35  C   UNL A   1      39.124  29.212  29.135  1.00  0.00     0.049 A 
ATOM     36  N   UNL A   1      39.674  30.247  31.895  1.00  0.00    -0.248 NA
ATOM     37  C   UNL A   1      37.781  31.599  31.735  1.00  0.00     0.031 C 
ATOM     38  C   UNL A   1      38.931  28.715  27.770  1.00  0.00     0.029 A 
ATOM     39  N   UNL A   1      40.291  28.614  29.542  1.00  0.00    -0.354 N 
ATOM     40  C   UNL A   1      39.573  31.032  33.037  1.00  0.00     0.074 A 
ATOM     41  C   UNL A   1      38.418  31.883  32.864  1.00  0.00     0.031 C 
ATOM     42  C   UNL A   1      39.927  27.870  27.465  1.00  0.00     0.029 A 
ATOM     43  C   UNL A   1      40.846  27.784  28.594  1.00  0.00     0.049 A 
ATOM     44  H   UNL A   1      40.693  28.764  30.428  1.00  0.00     0.167 HD
ATOM     45  C   UNL A   1      40.353  31.020  34.144  1.00  0.00     0.034 A 
ATOM     46  C   UNL A   1      41.965  27.032  28.629  1.00  0.00     0.034 A 
ATOM     47  C   UNL A   1      41.473  30.138  34.329  1.00  0.00     0.049 A 
ATOM     48  C   UNL A   1      42.789  27.002  29.887  1.00  0.00     0.074 A 
ATOM     49  C   UNL A   1      42.266  29.988  35.453  1.00  0.00     0.029 A 
ATOM     50  N   UNL A   1      41.962  29.263  33.373  1.00  0.00    -0.354 N 
ATOM     51  N   UNL A   1      42.583  27.634  31.017  1.00  0.00    -0.248 NA
ATOM     52  C   UNL A   1      43.975  26.132  29.895  1.00  0.00     0.031 C 
ATOM     53  C   UNL A   1      43.253  29.043  35.167  1.00  0.00     0.029 A 
ATOM     54  C   UNL A   1      43.052  28.578  33.877  1.00  0.00     0.049 A 
ATOM     55  H   UNL A   1      41.588  29.146  32.470  1.00  0.00     0.167 HD
ATOM     56  C   UNL A   1      43.587  27.212  31.880  1.00  0.00     0.074 A 
ATOM     57  C   UNL A   1      44.398  26.263  31.147  1.00  0.00     0.031 C 
ATOM     58  C   UNL A   1      43.817  27.587  33.162  1.00  0.00     0.034 A 
BRANCH  45  59
ATOM     59  C   UNL A   1      39.991  31.935  35.284  1.00  0.00     0.023 A 
ATOM     60  C   UNL A   1      40.504  33.249  35.304  1.00  0.00     0.012 A 
ATOM     61  C   UNL A   1      39.057  31.544  36.264  1.00  0.00     0.148 A 
ATOM     62  C   UNL A   1      40.108  34.151  36.290  1.00  0.00     0.002 A 
ATOM     63  C   UNL A   1      38.633  32.462  37.216  1.00  0.00     0.091 A 
ATOM     64  F   UNL A   1      38.594  30.285  36.237  1.00  0.00    -0.205 F 
ATOM     65  C   UNL A   1      39.163  33.763  37.236  1.00  0.00     0.022 A 
BRANCH  63  66
ATOM     66  S   UNL A   1      37.352  32.092  38.422  1.00  0.00     0.127 S 
ATOM     67  O   UNL A   1      38.017  32.449  39.674  1.00  0.00    -0.237 OA
ATOM     68  O   UNL A   1      36.280  33.002  38.021  1.00  0.00    -0.237 OA
ATOM     69  O   UNL A   1      37.044  30.679  38.261  1.00  0.00    -0.744 OA
ENDBRANCH  63  66
ENDBRANCH  45  59
BRANCH  46  70
ATOM     70  C   UNL A   1      42.308  26.177  27.456  1.00  0.00     0.023 A 
ATOM     71  C   UNL A   1      43.157  26.685  26.455  1.00  0.00     0.012 A 
ATOM     72  C   UNL A   1      41.867  24.841  27.371  1.00  0.00     0.148 A 
ATOM     73  C   UNL A   1      43.549  25.886  25.381  1.00  0.00     0.002 A 
ATOM     74  C   UNL A   1      42.310  24.032  26.330  1.00  0.00     0.091 A 
ATOM     75  F   UNL A   1      41.052  24.379  28.329  1.00  0.00    -0.205 F 
ATOM     76  C   UNL A   1      43.138  24.557  25.326  1.00  0.00     0.022 A 
BRANCH  74  77
ATOM     77  S   UNL A   1      41.956  22.271  26.260  1.00  0.00     0.127 S 
ATOM     78  O   UNL A   1      42.622  21.881  25.020  1.00  0.00    -0.237 OA
ATOM     79  O   UNL A   1      42.596  21.788  27.484  1.00  0.00    -0.237 OA
ATOM     80  O   UNL A   1      40.504  22.161  26.259  1.00  0.00    -0.744 OA
ENDBRANCH  74  77
ENDBRANCH  46  70
BRANCH  58  81
ATOM     81  C   UNL A   1      44.967  26.961  33.902  1.00  0.00     0.023 A 
ATOM     82  C   UNL A   1      46.226  27.593  33.897  1.00  0.00     0.012 A 
ATOM     83  C   UNL A   1      44.751  25.846  34.738  1.00  0.00     0.148 A 
ATOM     84  C   UNL A   1      47.253  27.122  34.714  1.00  0.00     0.002 A 
ATOM     85  C   UNL A   1      45.763  25.414  35.585  1.00  0.00     0.091 A 
ATOM     86  F   UNL A   1      43.546  25.257  34.714  1.00  0.00    -0.205 F 
ATOM     87  C   UNL A   1      47.018  26.047  35.569  1.00  0.00     0.022 A 
BRANCH  85  88
ATOM     88  S   UNL A   1      45.521  24.112  36.798  1.00  0.00     0.127 S 
ATOM     89  O   UNL A   1      44.274  24.529  37.437  1.00  0.00    -0.237 OA
ATOM     90  O   UNL A   1      45.407  22.923  35.955  1.00  0.00    -0.237 OA
ATOM     91  O   UNL A   1      46.695  24.138  37.661  1.00  0.00    -0.744 OA
ENDBRANCH  85  88
ENDBRANCH  58  81
ENDBRANCH  32  33
ENDBRANCH  24  27
ENDBRANCH  22  23
ENDBRANCH   1  22
TORSDOF 15
ENDMDL
MODEL 3
REMARK VINA RESULT:     -12.1      5.223     10.270
REMARK SMILES C[C@@H](c1ccc(F)cc1)N1C[C@H](C(=O)NCCCNC(=O)c2ccc(-c3c4nc(c(-c5cccc(S(=O)(=O)[O-])c5F)c5ccc([nH]5)c(-c5cccc(S(=O)(=O)[O-])c5F)c5nc(c(-c6cccc(S(=O)(=O)[O-])c6F)c6ccc3[nH]6)C=C5)C=C4)cc2)CC1=O
REMARK SMILES IDX 17 1 16 2 15 3 13 4 14 5 12 7 10 8 11 9 86 10 85 11 87 12
REMARK SMILES IDX 2 13 1 14 3 15 4 16 9 17 5 18 8 19 6 20 7 21 18 22 19 23
REMARK SMILES IDX 20 24 21 26 22 27 23 28 84 29 24 30 83 31 25 32 26 33 27 34
REMARK SMILES IDX 77 35 28 36 82 37 76 38 78 39 29 40 81 41 75 42 74 43 30 45
REMARK SMILES IDX 62 46 42 47 61 48 43 49 46 50 60 51 79 52 44 53 45 54 59 56
REMARK SMILES IDX 80 57 47 58 31 59 32 60 40 61 33 62 35 63 41 64 34 65 36 66
REMARK SMILES IDX 37 67 38 68 39 69 63 70 64 71 72 72 65 73 67 74 73 75 66 76
REMARK SMILES IDX 68 77 69 78 70 79 71 80 48 81 49 82 57 83 50 84 52 85 58 86
REMARK SMILES IDX 51 87 53 88 54 89 55 90 56 91
REMARK H PARENT 15 6 19 25 78 44 46 55
REMARK Flexibility Score: inf
ROOT
ATOM      1  C   UNL A   1      36.667  22.019  23.901  1.00  0.00     0.042 C 
ENDROOT
BRANCH   1   2
ATOM      2  C   UNL A   1      36.113  23.383  23.508  1.00  0.00     0.117 C 
BRANCH   2   3
ATOM      3  N   UNL A   1      34.707  23.329  23.150  1.00  0.00    -0.356 N 
ATOM      4  C   UNL A   1      33.602  23.501  23.929  1.00  0.00     0.225 C 
ATOM      5  O   UNL A   1      32.502  23.503  23.378  1.00  0.00    -0.275 OA
ATOM      6  H   UNL A   1      34.524  23.139  22.201  1.00  0.00     0.163 HD
BRANCH   4   7
ATOM      7  C   UNL A   1      33.780  23.724  25.419  1.00  0.00     0.107 C 
ATOM      8  N   UNL A   1      32.388  25.467  26.165  1.00  0.00    -0.335 N 
ATOM      9  C   UNL A   1      33.752  25.201  25.770  1.00  0.00     0.134 C 
ATOM     10  C   UNL A   1      31.779  24.300  26.600  1.00  0.00     0.223 C 
ATOM     11  C   UNL A   1      32.640  23.121  26.229  1.00  0.00     0.115 C 
ATOM     12  O   UNL A   1      30.743  24.199  27.251  1.00  0.00    -0.275 OA
BRANCH   8  13
ATOM     13  C   UNL A   1      31.864  26.818  26.418  1.00  0.00     0.112 C 
ATOM     14  C   UNL A   1      32.945  27.819  26.859  1.00  0.00     0.036 C 
BRANCH  13  15
ATOM     15  C   UNL A   1      31.049  27.347  25.232  1.00  0.00    -0.026 A 
ATOM     16  C   UNL A   1      31.260  28.667  24.790  1.00  0.00     0.009 A 
ATOM     17  C   UNL A   1      30.072  26.581  24.572  1.00  0.00     0.009 A 
ATOM     18  C   UNL A   1      30.514  29.212  23.743  1.00  0.00     0.039 A 
ATOM     19  C   UNL A   1      29.347  27.116  23.501  1.00  0.00     0.039 A 
ATOM     20  C   UNL A   1      29.569  28.428  23.103  1.00  0.00     0.123 A 
ATOM     21  F   UNL A   1      28.859  28.942  22.091  1.00  0.00    -0.207 F 
ENDBRANCH  13  15
ENDBRANCH   8  13
ENDBRANCH   4   7
ENDBRANCH   2   3
ENDBRANCH   1   2
BRANCH   1  22
ATOM     22  C   UNL A   1      36.939  21.843  25.393  1.00  0.00     0.118 C 
BRANCH  22  23
ATOM     23  N   UNL A   1      37.995  20.880  25.671  1.00  0.00    -0.352 N 
ATOM     24  C   UNL A   1      39.277  21.067  26.127  1.00  0.00     0.251 C 
ATOM     25  H   UNL A   1      37.750  19.940  25.505  1.00  0.00     0.163 HD
ATOM     26  O   UNL A   1      40.048  20.110  26.136  1.00  0.00    -0.269 OA
BRANCH  24  27
ATOM     27  C   UNL A   1      39.744  22.396  26.582  1.00  0.00     0.039 A 
ATOM     28  C   UNL A   1      40.732  22.451  27.570  1.00  0.00     0.014 A 
ATOM     29  C   UNL A   1      39.204  23.582  26.077  1.00  0.00     0.014 A 
ATOM     30  C   UNL A   1      41.219  23.688  28.000  1.00  0.00     0.010 A 
ATOM     31  C   UNL A   1      39.749  24.812  26.446  1.00  0.00     0.010 A 
ATOM     32  C   UNL A   1      40.760  24.880  27.414  1.00  0.00    -0.014 A 
BRANCH  32  33
ATOM     33  C   UNL A   1      41.362  26.187  27.785  1.00  0.00     0.031 A 
ATOM     34  C   UNL A   1      42.781  26.523  27.413  1.00  0.00     0.074 A 
ATOM     35  C   UNL A   1      40.635  27.062  28.511  1.00  0.00     0.049 A 
ATOM     36  N   UNL A   1      43.447  27.627  27.634  1.00  0.00    -0.248 NA
ATOM     37  C   UNL A   1      43.563  25.484  26.722  1.00  0.00     0.031 C 
ATOM     38  C   UNL A   1      39.279  26.818  29.008  1.00  0.00     0.029 A 
ATOM     39  N   UNL A   1      40.931  28.323  28.966  1.00  0.00    -0.354 N 
ATOM     40  C   UNL A   1      44.725  27.409  27.135  1.00  0.00     0.074 A 
ATOM     41  C   UNL A   1      44.757  26.055  26.631  1.00  0.00     0.031 C 
ATOM     42  C   UNL A   1      38.852  27.901  29.674  1.00  0.00     0.029 A 
ATOM     43  C   UNL A   1      39.909  28.907  29.680  1.00  0.00     0.049 A 
ATOM     44  H   UNL A   1      41.793  28.768  28.798  1.00  0.00     0.167 HD
ATOM     45  C   UNL A   1      45.767  28.271  27.072  1.00  0.00     0.034 A 
ATOM     46  C   UNL A   1      39.826  30.118  30.268  1.00  0.00     0.034 A 
ATOM     47  C   UNL A   1      45.714  29.632  27.534  1.00  0.00     0.049 A 
ATOM     48  C   UNL A   1      40.980  31.074  30.145  1.00  0.00     0.074 A 
ATOM     49  C   UNL A   1      46.688  30.609  27.429  1.00  0.00     0.029 A 
ATOM     50  N   UNL A   1      44.637  30.208  28.189  1.00  0.00    -0.354 N 
ATOM     51  N   UNL A   1      42.123  30.902  29.526  1.00  0.00    -0.248 NA
ATOM     52  C   UNL A   1      40.827  32.399  30.763  1.00  0.00     0.031 C 
ATOM     53  C   UNL A   1      46.212  31.767  28.046  1.00  0.00     0.029 A 
ATOM     54  C   UNL A   1      44.927  31.523  28.503  1.00  0.00     0.049 A 
ATOM     55  H   UNL A   1      43.791  29.749  28.399  1.00  0.00     0.167 HD
ATOM     56  C   UNL A   1      42.808  32.105  29.647  1.00  0.00     0.074 A 
ATOM     57  C   UNL A   1      41.950  33.003  30.392  1.00  0.00     0.031 C 
ATOM     58  C   UNL A   1      44.041  32.429  29.189  1.00  0.00     0.034 A 
BRANCH  45  59
ATOM     59  C   UNL A   1      47.042  27.807  26.419  1.00  0.00     0.023 A 
ATOM     60  C   UNL A   1      47.986  27.090  27.180  1.00  0.00     0.012 A 
ATOM     61  C   UNL A   1      47.252  27.971  25.035  1.00  0.00     0.148 A 
ATOM     62  C   UNL A   1      49.128  26.559  26.581  1.00  0.00     0.002 A 
ATOM     63  C   UNL A   1      48.368  27.401  24.436  1.00  0.00     0.091 A 
ATOM     64  F   UNL A   1      46.349  28.671  24.331  1.00  0.00    -0.205 F 
ATOM     65  C   UNL A   1      49.311  26.702  25.208  1.00  0.00     0.022 A 
BRANCH  63  66
ATOM     66  S   UNL A   1      48.651  27.449  22.662  1.00  0.00     0.127 S 
ATOM     67  O   UNL A   1      49.960  28.096  22.590  1.00  0.00    -0.237 OA
ATOM     68  O   UNL A   1      48.655  26.028  22.313  1.00  0.00    -0.237 OA
ATOM     69  O   UNL A   1      47.547  28.212  22.098  1.00  0.00    -0.744 OA
ENDBRANCH  63  66
ENDBRANCH  45  59
BRANCH  46  70
ATOM     70  C   UNL A   1      38.558  30.515  30.945  1.00  0.00     0.023 A 
ATOM     71  C   UNL A   1      38.409  30.281  32.326  1.00  0.00     0.012 A 
ATOM     72  C   UNL A   1      37.539  31.196  30.250  1.00  0.00     0.148 A 
ATOM     73  C   UNL A   1      37.262  30.703  33.000  1.00  0.00     0.002 A 
ATOM     74  C   UNL A   1      36.426  31.666  30.939  1.00  0.00     0.091 A 
ATOM     75  F   UNL A   1      37.696  31.401  28.935  1.00  0.00    -0.205 F 
ATOM     76  C   UNL A   1      36.279  31.407  32.311  1.00  0.00     0.022 A 
BRANCH  74  77
ATOM     77  S   UNL A   1      35.185  32.712  30.167  1.00  0.00     0.127 S 
ATOM     78  O   UNL A   1      35.989  33.840  29.706  1.00  0.00    -0.237 OA
ATOM     79  O   UNL A   1      34.676  31.841  29.106  1.00  0.00    -0.237 OA
ATOM     80  O   UNL A   1      34.217  33.012  31.213  1.00  0.00    -0.744 OA
ENDBRANCH  74  77
ENDBRANCH  46  70
BRANCH  58  81
ATOM     81  C   UNL A   1      44.557  33.822  29.429  1.00  0.00     0.023 A 
ATOM     82  C   UNL A   1      45.295  34.101  30.595  1.00  0.00     0.012 A 
ATOM     83  C   UNL A   1      44.458  34.800  28.418  1.00  0.00     0.148 A 
ATOM     84  C   UNL A   1      45.926  35.335  30.752  1.00  0.00     0.002 A 
ATOM     85  C   UNL A   1      45.129  36.007  28.559  1.00  0.00     0.091 A 
ATOM     86  F   UNL A   1      43.739  34.512  27.323  1.00  0.00    -0.205 F 
ATOM     87  C   UNL A   1      45.858  36.279  29.729  1.00  0.00     0.022 A 
BRANCH  85  88
ATOM     88  S   UNL A   1      45.193  37.240  27.253  1.00  0.00     0.127 S 
ATOM     89  O   UNL A   1      45.875  38.347  27.923  1.00  0.00    -0.237 OA
ATOM     90  O   UNL A   1      45.989  36.563  26.231  1.00  0.00    -0.237 OA
ATOM     91  O   UNL A   1      43.811  37.503  26.877  1.00  0.00    -0.744 OA
ENDBRANCH  85  88
ENDBRANCH  58  81
ENDBRANCH  32  33
ENDBRANCH  24  27
ENDBRANCH  22  23
ENDBRANCH   1  22
TORSDOF 15
ENDMDL
