MODEL 1
REMARK VINA RESULT:     -12.7      0.000      0.000
REMARK SMILES O=C(NCCCNC(=O)c1nccnc1C(=O)Nc1ccc2c(c1)OCO2)c1ccc(-c2c3nc(c(-c4cccc(S(=O)(=O)[O-])c4F)c4ccc([nH]4)c(-c4cccc(S(=O)(=O)[O-])c4F)c4nc(c(-c5cccc(S(=O)(=O)[O-])c5F)c5ccc2[nH]5)C=C4)C=C3)cc1
REMARK SMILES IDX 4 1 3 2 1 3 2 4 28 6 29 7 90 8 30 9 89 10 31 11 32 12 33 13
REMARK SMILES IDX 83 14 34 15 88 16 82 17 84 18 35 19 87 20 81 21 80 22 36 24
REMARK SMILES IDX 68 25 48 26 67 27 49 28 52 29 66 30 85 31 50 32 51 33 65 35
REMARK SMILES IDX 86 36 53 37 37 38 38 39 46 40 39 41 41 42 47 43 40 44 42 45
REMARK SMILES IDX 43 46 44 47 45 48 69 49 70 50 78 51 71 52 73 53 79 54 72 55
REMARK SMILES IDX 74 56 75 57 76 58 77 59 54 60 55 61 63 62 56 63 58 64 64 65
REMARK SMILES IDX 57 66 59 67 60 68 61 69 62 70 5 71 6 72 7 73 8 74 9 76 10 77
REMARK SMILES IDX 11 78 15 79 12 80 14 81 13 82 16 83 17 84 18 85 19 87 20 88
REMARK SMILES IDX 24 89 21 90 23 91 22 92 25 93 27 94 26 95
REMARK H PARENT 3 5 84 23 52 34 7 75 18 86
REMARK Flexibility Score: inf
ROOT
ATOM      1  C   UNL A   1      32.758  29.661  25.748  1.00  0.00     0.118 C 
ENDROOT
BRANCH   1   2
ATOM      2  N   UNL A   1      32.310  30.989  26.121  1.00  0.00    -0.352 N 
ATOM      3  O   UNL A   1      32.397  32.924  27.288  1.00  0.00    -0.269 OA
ATOM      4  C   UNL A   1      32.923  31.861  27.003  1.00  0.00     0.251 C 
ATOM      5  H   UNL A   1      31.478  31.305  25.701  1.00  0.00     0.163 HD
BRANCH   4   6
ATOM      6  C   UNL A   1      34.214  31.465  27.612  1.00  0.00     0.039 A 
ATOM      7  C   UNL A   1      34.426  30.142  28.005  1.00  0.00     0.014 A 
ATOM      8  C   UNL A   1      35.207  32.428  27.817  1.00  0.00     0.014 A 
ATOM      9  C   UNL A   1      35.570  29.812  28.725  1.00  0.00     0.010 A 
ATOM     10  C   UNL A   1      36.387  32.076  28.483  1.00  0.00     0.010 A 
ATOM     11  C   UNL A   1      36.566  30.773  28.976  1.00  0.00    -0.014 A 
BRANCH  11  12
ATOM     12  C   UNL A   1      37.800  30.366  29.701  1.00  0.00     0.031 A 
ATOM     13  C   UNL A   1      38.089  30.840  31.100  1.00  0.00     0.074 A 
ATOM     14  C   UNL A   1      38.659  29.524  29.091  1.00  0.00     0.049 A 
ATOM     15  N   UNL A   1      39.079  30.509  31.891  1.00  0.00    -0.248 NA
ATOM     16  C   UNL A   1      37.156  31.813  31.690  1.00  0.00     0.031 C 
ATOM     17  C   UNL A   1      38.523  29.039  27.715  1.00  0.00     0.029 A 
ATOM     18  N   UNL A   1      39.808  28.927  29.543  1.00  0.00    -0.354 N 
ATOM     19  C   UNL A   1      38.905  31.243  33.059  1.00  0.00     0.074 A 
ATOM     20  C   UNL A   1      37.720  32.054  32.868  1.00  0.00     0.031 C 
ATOM     21  C   UNL A   1      39.537  28.205  27.442  1.00  0.00     0.029 A 
ATOM     22  C   UNL A   1      40.414  28.123  28.606  1.00  0.00     0.049 A 
ATOM     23  H   UNL A   1      40.166  29.062  30.450  1.00  0.00     0.167 HD
ATOM     24  C   UNL A   1      39.646  31.227  34.194  1.00  0.00     0.034 A 
ATOM     25  C   UNL A   1      41.550  27.404  28.667  1.00  0.00     0.034 A 
ATOM     26  C   UNL A   1      40.813  30.403  34.393  1.00  0.00     0.049 A 
ATOM     27  C   UNL A   1      42.330  27.376  29.951  1.00  0.00     0.074 A 
ATOM     28  C   UNL A   1      41.603  30.290  35.525  1.00  0.00     0.029 A 
ATOM     29  N   UNL A   1      41.360  29.556  33.442  1.00  0.00    -0.354 N 
ATOM     30  N   UNL A   1      42.069  27.974  31.087  1.00  0.00    -0.248 NA
ATOM     31  C   UNL A   1      43.541  26.544  29.973  1.00  0.00     0.031 C 
ATOM     32  C   UNL A   1      42.634  29.384  35.254  1.00  0.00     0.029 A 
ATOM     33  C   UNL A   1      42.476  28.918  33.960  1.00  0.00     0.049 A 
ATOM     34  H   UNL A   1      41.008  29.427  32.532  1.00  0.00     0.167 HD
ATOM     35  C   UNL A   1      43.074  27.581  31.963  1.00  0.00     0.074 A 
ATOM     36  C   UNL A   1      43.923  26.658  31.238  1.00  0.00     0.031 C 
ATOM     37  C   UNL A   1      43.290  27.971  33.243  1.00  0.00     0.034 A 
BRANCH  24  38
ATOM     38  C   UNL A   1      39.190  32.083  35.349  1.00  0.00     0.023 A 
ATOM     39  C   UNL A   1      38.314  31.533  36.308  1.00  0.00     0.012 A 
ATOM     40  C   UNL A   1      39.694  33.385  35.541  1.00  0.00     0.148 A 
ATOM     41  C   UNL A   1      37.931  32.270  37.428  1.00  0.00     0.002 A 
ATOM     42  C   UNL A   1      39.338  34.100  36.680  1.00  0.00     0.091 A 
ATOM     43  F   UNL A   1      40.514  33.897  34.612  1.00  0.00    -0.205 F 
ATOM     44  C   UNL A   1      38.451  33.547  37.620  1.00  0.00     0.022 A 
BRANCH  42  45
ATOM     45  S   UNL A   1      40.008  35.724  37.060  1.00  0.00     0.127 S 
ATOM     46  O   UNL A   1      39.310  36.045  38.304  1.00  0.00    -0.237 OA
ATOM     47  O   UNL A   1      41.434  35.439  37.219  1.00  0.00    -0.237 OA
ATOM     48  O   UNL A   1      39.678  36.570  35.923  1.00  0.00    -0.744 OA
ENDBRANCH  42  45
ENDBRANCH  24  38
BRANCH  25  49
ATOM     49  C   UNL A   1      41.992  26.619  27.480  1.00  0.00     0.023 A 
ATOM     50  C   UNL A   1      42.728  27.249  26.459  1.00  0.00     0.012 A 
ATOM     51  C   UNL A   1      41.719  25.242  27.381  1.00  0.00     0.148 A 
ATOM     52  C   UNL A   1      43.159  26.525  25.346  1.00  0.00     0.002 A 
ATOM     53  C   UNL A   1      42.205  24.514  26.303  1.00  0.00     0.091 A 
ATOM     54  F   UNL A   1      40.996  24.664  28.352  1.00  0.00    -0.205 F 
ATOM     55  C   UNL A   1      42.910  25.156  25.274  1.00  0.00     0.022 A 
BRANCH  53  56
ATOM     56  S   UNL A   1      42.057  22.726  26.226  1.00  0.00     0.127 S 
ATOM     57  O   UNL A   1      42.733  22.424  24.968  1.00  0.00    -0.237 OA
ATOM     58  O   UNL A   1      42.776  22.305  27.429  1.00  0.00    -0.237 OA
ATOM     59  O   UNL A   1      40.626  22.458  26.265  1.00  0.00    -0.744 OA
ENDBRANCH  53  56
ENDBRANCH  25  49
BRANCH  37  60
ATOM     60  C   UNL A   1      44.492  27.392  33.944  1.00  0.00     0.023 A 
ATOM     61  C   UNL A   1      45.747  28.017  33.803  1.00  0.00     0.012 A 
ATOM     62  C   UNL A   1      44.378  26.253  34.765  1.00  0.00     0.148 A 
ATOM     63  C   UNL A   1      46.877  27.496  34.432  1.00  0.00     0.002 A 
ATOM     64  C   UNL A   1      45.499  25.765  35.427  1.00  0.00     0.091 A 
ATOM     65  F   UNL A   1      43.180  25.657  34.872  1.00  0.00    -0.205 F 
ATOM     66  C   UNL A   1      46.751  26.376  35.251  1.00  0.00     0.022 A 
BRANCH  64  67
ATOM     67  S   UNL A   1      45.410  24.380  36.566  1.00  0.00     0.127 S 
ATOM     68  O   UNL A   1      46.799  24.262  37.002  1.00  0.00    -0.237 OA
ATOM     69  O   UNL A   1      44.489  24.875  37.592  1.00  0.00    -0.237 OA
ATOM     70  O   UNL A   1      44.895  23.260  35.790  1.00  0.00    -0.744 OA
ENDBRANCH  64  67
ENDBRANCH  37  60
ENDBRANCH  11  12
ENDBRANCH   4   6
ENDBRANCH   1   2
BRANCH   1  71
ATOM     71  C   UNL A   1      31.719  28.537  25.707  1.00  0.00     0.042 C 
BRANCH  71  72
ATOM     72  C   UNL A   1      31.978  27.261  26.500  1.00  0.00     0.118 C 
BRANCH  72  73
ATOM     73  N   UNL A   1      33.297  26.657  26.340  1.00  0.00    -0.351 N 
ATOM     74  C   UNL A   1      33.728  25.722  25.409  1.00  0.00     0.272 C 
ATOM     75  H   UNL A   1      33.978  26.957  26.985  1.00  0.00     0.163 HD
ATOM     76  O   UNL A   1      34.927  25.589  25.175  1.00  0.00    -0.267 OA
BRANCH  74  77
ATOM     77  C   UNL A   1      32.751  24.940  24.625  1.00  0.00     0.159 A 
ATOM     78  N   UNL A   1      32.144  23.977  25.406  1.00  0.00    -0.247 NA
ATOM     79  C   UNL A   1      32.350  25.198  23.317  1.00  0.00     0.159 A 
ATOM     80  C   UNL A   1      31.133  23.283  24.857  1.00  0.00     0.132 A 
ATOM     81  N   UNL A   1      31.346  24.414  22.779  1.00  0.00    -0.247 NA
ATOM     82  C   UNL A   1      30.745  23.491  23.560  1.00  0.00     0.132 A 
BRANCH  79  83
ATOM     83  C   UNL A   1      32.680  26.326  22.357  1.00  0.00     0.276 C 
ATOM     84  O   UNL A   1      33.790  26.291  21.801  1.00  0.00    -0.267 OA
ATOM     85  N   UNL A   1      31.867  27.325  21.888  1.00  0.00    -0.320 N 
ATOM     86  H   UNL A   1      32.153  27.665  21.010  1.00  0.00     0.170 HD
BRANCH  85  87
ATOM     87  C   UNL A   1      30.733  27.966  22.367  1.00  0.00     0.045 A 
ATOM     88  C   UNL A   1      29.685  27.284  23.001  1.00  0.00     0.030 A 
ATOM     89  C   UNL A   1      30.685  29.356  22.186  1.00  0.00     0.076 A 
ATOM     90  C   UNL A   1      28.533  27.987  23.369  1.00  0.00     0.053 A 
ATOM     91  C   UNL A   1      29.492  29.985  22.446  1.00  0.00     0.167 A 
ATOM     92  C   UNL A   1      28.436  29.313  23.006  1.00  0.00     0.165 A 
ATOM     93  O   UNL A   1      29.181  31.270  22.129  1.00  0.00    -0.454 OA
ATOM     94  O   UNL A   1      27.323  30.087  23.098  1.00  0.00    -0.454 OA
ATOM     95  C   UNL A   1      27.756  31.248  22.355  1.00  0.00     0.468 C 
ENDBRANCH  85  87
ENDBRANCH  79  83
ENDBRANCH  74  77
ENDBRANCH  72  73
ENDBRANCH  71  72
ENDBRANCH   1  71
TORSDOF 15
ENDMDL
MODEL 2
REMARK VINA RESULT:     -12.5      1.277      1.907
REMARK SMILES O=C(NCCCNC(=O)c1nccnc1C(=O)Nc1ccc2c(c1)OCO2)c1ccc(-c2c3nc(c(-c4cccc(S(=O)(=O)[O-])c4F)c4ccc([nH]4)c(-c4cccc(S(=O)(=O)[O-])c4F)c4nc(c(-c5cccc(S(=O)(=O)[O-])c5F)c5ccc2[nH]5)C=C4)C=C3)cc1
REMARK SMILES IDX 4 1 3 2 1 3 2 4 28 6 29 7 90 8 30 9 89 10 31 11 32 12 33 13
REMARK SMILES IDX 83 14 34 15 88 16 82 17 84 18 35 19 87 20 81 21 80 22 36 24
REMARK SMILES IDX 68 25 48 26 67 27 49 28 52 29 66 30 85 31 50 32 51 33 65 35
REMARK SMILES IDX 86 36 53 37 37 38 38 39 46 40 39 41 41 42 47 43 40 44 42 45
REMARK SMILES IDX 43 46 44 47 45 48 69 49 70 50 78 51 71 52 73 53 79 54 72 55
REMARK SMILES IDX 74 56 75 57 76 58 77 59 54 60 55 61 63 62 56 63 58 64 64 65
REMARK SMILES IDX 57 66 59 67 60 68 61 69 62 70 5 71 6 72 7 73 8 74 9 76 10 77
REMARK SMILES IDX 11 78 15 79 12 80 14 81 13 82 16 83 17 84 18 85 19 87 20 88
REMARK SMILES IDX 24 89 21 90 23 91 22 92 25 93 27 94 26 95
REMARK H PARENT 3 5 84 23 52 34 7 75 18 86
REMARK Flexibility Score: inf
ROOT
ATOM      1  C   UNL A   1      32.927  29.122  25.940  1.00  0.00     0.118 C 
ENDROOT
BRANCH   1   2
ATOM      2  N   UNL A   1      32.479  30.473  26.222  1.00  0.00    -0.352 N 
ATOM      3  O   UNL A   1      32.571  32.486  27.247  1.00  0.00    -0.269 OA
ATOM      4  C   UNL A   1      33.097  31.406  27.034  1.00  0.00     0.251 C 
ATOM      5  H   UNL A   1      31.643  30.756  25.787  1.00  0.00     0.163 HD
BRANCH   4   6
ATOM      6  C   UNL A   1      34.394  31.058  27.659  1.00  0.00     0.039 A 
ATOM      7  C   UNL A   1      34.609  29.769  28.151  1.00  0.00     0.014 A 
ATOM      8  C   UNL A   1      35.389  32.032  27.779  1.00  0.00     0.014 A 
ATOM      9  C   UNL A   1      35.761  29.494  28.883  1.00  0.00     0.010 A 
ATOM     10  C   UNL A   1      36.576  31.731  28.458  1.00  0.00     0.010 A 
ATOM     11  C   UNL A   1      36.759  30.471  29.049  1.00  0.00    -0.014 A 
BRANCH  11  12
ATOM     12  C   UNL A   1      38.000  30.119  29.791  1.00  0.00     0.031 A 
ATOM     13  C   UNL A   1      38.267  30.639  31.179  1.00  0.00     0.074 A 
ATOM     14  C   UNL A   1      38.887  29.288  29.209  1.00  0.00     0.049 A 
ATOM     15  N   UNL A   1      39.261  30.358  31.984  1.00  0.00    -0.248 NA
ATOM     16  C   UNL A   1      37.302  31.599  31.737  1.00  0.00     0.031 C 
ATOM     17  C   UNL A   1      38.774  28.763  27.846  1.00  0.00     0.029 A 
ATOM     18  N   UNL A   1      40.051  28.737  29.682  1.00  0.00    -0.354 N 
ATOM     19  C   UNL A   1      39.058  31.117  33.131  1.00  0.00     0.074 A 
ATOM     20  C   UNL A   1      37.851  31.887  32.911  1.00  0.00     0.031 C 
ATOM     21  C   UNL A   1      39.814  27.952  27.600  1.00  0.00     0.029 A 
ATOM     22  C   UNL A   1      40.685  27.927  28.770  1.00  0.00     0.049 A 
ATOM     23  H   UNL A   1      40.399  28.907  30.587  1.00  0.00     0.167 HD
ATOM     24  C   UNL A   1      39.792  31.153  34.270  1.00  0.00     0.034 A 
ATOM     25  C   UNL A   1      41.842  27.244  28.856  1.00  0.00     0.034 A 
ATOM     26  C   UNL A   1      40.981  30.370  34.496  1.00  0.00     0.049 A 
ATOM     27  C   UNL A   1      42.615  27.273  30.145  1.00  0.00     0.074 A 
ATOM     28  C   UNL A   1      41.768  30.310  35.635  1.00  0.00     0.029 A 
ATOM     29  N   UNL A   1      41.560  29.514  33.571  1.00  0.00    -0.354 N 
ATOM     30  N   UNL A   1      42.329  27.893  31.263  1.00  0.00    -0.248 NA
ATOM     31  C   UNL A   1      43.850  26.478  30.195  1.00  0.00     0.031 C 
ATOM     32  C   UNL A   1      42.827  29.428  35.394  1.00  0.00     0.029 A 
ATOM     33  C   UNL A   1      42.690  28.923  34.112  1.00  0.00     0.049 A 
ATOM     34  H   UNL A   1      41.217  29.351  32.663  1.00  0.00     0.167 HD
ATOM     35  C   UNL A   1      43.340  27.553  32.154  1.00  0.00     0.074 A 
ATOM     36  C   UNL A   1      44.220  26.637  31.459  1.00  0.00     0.031 C 
ATOM     37  C   UNL A   1      43.537  27.982  33.425  1.00  0.00     0.034 A 
BRANCH  24  38
ATOM     38  C   UNL A   1      39.304  32.025  35.399  1.00  0.00     0.023 A 
ATOM     39  C   UNL A   1      38.407  31.487  36.344  1.00  0.00     0.012 A 
ATOM     40  C   UNL A   1      39.798  33.332  35.583  1.00  0.00     0.148 A 
ATOM     41  C   UNL A   1      37.993  32.240  37.443  1.00  0.00     0.002 A 
ATOM     42  C   UNL A   1      39.411  34.064  36.701  1.00  0.00     0.091 A 
ATOM     43  F   UNL A   1      40.639  33.833  34.666  1.00  0.00    -0.205 F 
ATOM     44  C   UNL A   1      38.503  33.522  37.627  1.00  0.00     0.022 A 
BRANCH  42  45
ATOM     45  S   UNL A   1      40.065  35.696  37.072  1.00  0.00     0.127 S 
ATOM     46  O   UNL A   1      39.647  36.454  35.893  1.00  0.00    -0.237 OA
ATOM     47  O   UNL A   1      39.352  36.041  38.302  1.00  0.00    -0.237 OA
ATOM     48  O   UNL A   1      41.503  35.527  37.228  1.00  0.00    -0.744 OA
ENDBRANCH  42  45
ENDBRANCH  24  38
BRANCH  25  49
ATOM     49  C   UNL A   1      42.314  26.441  27.693  1.00  0.00     0.023 A 
ATOM     50  C   UNL A   1      43.224  27.003  26.778  1.00  0.00     0.012 A 
ATOM     51  C   UNL A   1      41.893  25.109  27.515  1.00  0.00     0.148 A 
ATOM     52  C   UNL A   1      43.685  26.260  25.690  1.00  0.00     0.002 A 
ATOM     53  C   UNL A   1      42.404  24.356  26.466  1.00  0.00     0.091 A 
ATOM     54  F   UNL A   1      41.008  24.599  28.383  1.00  0.00    -0.205 F 
ATOM     55  C   UNL A   1      43.287  24.934  25.541  1.00  0.00     0.022 A 
BRANCH  53  56
ATOM     56  S   UNL A   1      42.058  22.601  26.307  1.00  0.00     0.127 S 
ATOM     57  O   UNL A   1      42.675  22.063  27.515  1.00  0.00    -0.237 OA
ATOM     58  O   UNL A   1      40.594  22.574  26.299  1.00  0.00    -0.237 OA
ATOM     59  O   UNL A   1      42.666  22.203  25.044  1.00  0.00    -0.744 OA
ENDBRANCH  53  56
ENDBRANCH  25  49
BRANCH  37  60
ATOM     60  C   UNL A   1      44.751  27.458  34.148  1.00  0.00     0.023 A 
ATOM     61  C   UNL A   1      45.968  28.164  34.065  1.00  0.00     0.012 A 
ATOM     62  C   UNL A   1      44.683  26.290  34.932  1.00  0.00     0.148 A 
ATOM     63  C   UNL A   1      47.108  27.695  34.715  1.00  0.00     0.002 A 
ATOM     64  C   UNL A   1      45.812  25.852  35.615  1.00  0.00     0.091 A 
ATOM     65  F   UNL A   1      43.523  25.617  34.983  1.00  0.00    -0.205 F 
ATOM     66  C   UNL A   1      47.028  26.545  35.497  1.00  0.00     0.022 A 
BRANCH  64  67
ATOM     67  S   UNL A   1      45.776  24.430  36.711  1.00  0.00     0.127 S 
ATOM     68  O   UNL A   1      47.185  24.295  37.073  1.00  0.00    -0.237 OA
ATOM     69  O   UNL A   1      44.909  24.891  37.797  1.00  0.00    -0.237 OA
ATOM     70  O   UNL A   1      45.220  23.337  35.924  1.00  0.00    -0.744 OA
ENDBRANCH  64  67
ENDBRANCH  37  60
ENDBRANCH  11  12
ENDBRANCH   4   6
ENDBRANCH   1   2
BRANCH   1  71
ATOM     71  C   UNL A   1      32.008  27.963  26.334  1.00  0.00     0.042 C 
BRANCH  71  72
ATOM     72  C   UNL A   1      32.493  26.532  26.131  1.00  0.00     0.118 C 
BRANCH  72  73
ATOM     73  N   UNL A   1      31.557  25.474  26.494  1.00  0.00    -0.351 N 
ATOM     74  C   UNL A   1      31.773  24.106  26.598  1.00  0.00     0.272 C 
ATOM     75  H   UNL A   1      30.641  25.774  26.695  1.00  0.00     0.163 HD
ATOM     76  O   UNL A   1      31.005  23.406  27.253  1.00  0.00    -0.267 OA
BRANCH  74  77
ATOM     77  C   UNL A   1      32.974  23.490  26.000  1.00  0.00     0.159 A 
ATOM     78  N   UNL A   1      33.967  23.320  26.945  1.00  0.00    -0.247 NA
ATOM     79  C   UNL A   1      33.086  22.990  24.706  1.00  0.00     0.159 A 
ATOM     80  C   UNL A   1      35.067  22.645  26.570  1.00  0.00     0.132 A 
ATOM     81  N   UNL A   1      34.263  22.355  24.354  1.00  0.00    -0.247 NA
ATOM     82  C   UNL A   1      35.217  22.176  25.292  1.00  0.00     0.132 A 
BRANCH  79  83
ATOM     83  C   UNL A   1      32.074  22.836  23.586  1.00  0.00     0.276 C 
ATOM     84  O   UNL A   1      31.783  21.679  23.240  1.00  0.00    -0.267 OA
ATOM     85  N   UNL A   1      31.304  23.795  22.981  1.00  0.00    -0.320 N 
ATOM     86  H   UNL A   1      30.471  23.431  22.605  1.00  0.00     0.170 HD
BRANCH  85  87
ATOM     87  C   UNL A   1      31.430  25.163  22.778  1.00  0.00     0.045 A 
ATOM     88  C   UNL A   1      32.641  25.769  22.416  1.00  0.00     0.030 A 
ATOM     89  C   UNL A   1      30.265  25.924  22.951  1.00  0.00     0.076 A 
ATOM     90  C   UNL A   1      32.709  27.164  22.325  1.00  0.00     0.053 A 
ATOM     91  C   UNL A   1      30.402  27.290  22.975  1.00  0.00     0.167 A 
ATOM     92  C   UNL A   1      31.599  27.895  22.687  1.00  0.00     0.165 A 
ATOM     93  O   UNL A   1      29.445  28.183  23.344  1.00  0.00    -0.454 OA
ATOM     94  O   UNL A   1      31.549  29.243  22.854  1.00  0.00    -0.454 OA
ATOM     95  C   UNL A   1      30.246  29.377  23.462  1.00  0.00     0.468 C 
ENDBRANCH  85  87
ENDBRANCH  79  83
ENDBRANCH  74  77
ENDBRANCH  72  73
ENDBRANCH  71  72
ENDBRANCH   1  71
TORSDOF 15
ENDMDL
MODEL 3
REMARK VINA RESULT:     -12.4      5.036     10.066
REMARK SMILES O=C(NCCCNC(=O)c1nccnc1C(=O)Nc1ccc2c(c1)OCO2)c1ccc(-c2c3nc(c(-c4cccc(S(=O)(=O)[O-])c4F)c4ccc([nH]4)c(-c4cccc(S(=O)(=O)[O-])c4F)c4nc(c(-c5cccc(S(=O)(=O)[O-])c5F)c5ccc2[nH]5)C=C4)C=C3)cc1
REMARK SMILES IDX 4 1 3 2 1 3 2 4 28 6 29 7 90 8 30 9 89 10 31 11 32 12 33 13
REMARK SMILES IDX 83 14 34 15 88 16 82 17 84 18 35 19 87 20 81 21 80 22 36 24
REMARK SMILES IDX 68 25 48 26 67 27 49 28 52 29 66 30 85 31 50 32 51 33 65 35
REMARK SMILES IDX 86 36 53 37 37 38 38 39 46 40 39 41 41 42 47 43 40 44 42 45
REMARK SMILES IDX 43 46 44 47 45 48 69 49 70 50 78 51 71 52 73 53 79 54 72 55
REMARK SMILES IDX 74 56 75 57 76 58 77 59 54 60 55 61 63 62 56 63 58 64 64 65
REMARK SMILES IDX 57 66 59 67 60 68 61 69 62 70 5 71 6 72 7 73 8 74 9 76 10 77
REMARK SMILES IDX 11 78 15 79 12 80 14 81 13 82 16 83 17 84 18 85 19 87 20 88
REMARK SMILES IDX 24 89 21 90 23 91 22 92 25 93 27 94 26 95
REMARK H PARENT 3 5 84 23 52 34 7 75 18 86
REMARK Flexibility Score: inf
ROOT
ATOM      1  C   UNL A   1      36.585  22.785  25.721  1.00  0.00     0.118 C 
ENDROOT
BRANCH   1   2
ATOM      2  N   UNL A   1      37.511  21.669  25.719  1.00  0.00    -0.352 N 
ATOM      3  O   UNL A   1      39.529  20.684  25.989  1.00  0.00    -0.269 OA
ATOM      4  C   UNL A   1      38.837  21.681  26.113  1.00  0.00     0.251 C 
ATOM      5  H   UNL A   1      37.157  20.807  25.403  1.00  0.00     0.163 HD
BRANCH   4   6
ATOM      6  C   UNL A   1      39.404  22.934  26.663  1.00  0.00     0.039 A 
ATOM      7  C   UNL A   1      39.006  24.168  26.145  1.00  0.00     0.014 A 
ATOM      8  C   UNL A   1      40.359  22.874  27.682  1.00  0.00     0.014 A 
ATOM      9  C   UNL A   1      39.660  25.328  26.548  1.00  0.00     0.010 A 
ATOM     10  C   UNL A   1      40.968  24.051  28.132  1.00  0.00     0.010 A 
ATOM     11  C   UNL A   1      40.651  25.286  27.545  1.00  0.00    -0.014 A 
BRANCH  11  12
ATOM     12  C   UNL A   1      41.288  26.557  27.987  1.00  0.00     0.031 A 
ATOM     13  C   UNL A   1      42.726  26.874  27.670  1.00  0.00     0.074 A 
ATOM     14  C   UNL A   1      40.540  27.454  28.660  1.00  0.00     0.049 A 
ATOM     15  N   UNL A   1      43.398  27.971  27.916  1.00  0.00    -0.248 NA
ATOM     16  C   UNL A   1      43.515  25.831  26.997  1.00  0.00     0.031 C 
ATOM     17  C   UNL A   1      39.153  27.242  29.081  1.00  0.00     0.029 A 
ATOM     18  N   UNL A   1      40.834  28.717  29.107  1.00  0.00    -0.354 N 
ATOM     19  C   UNL A   1      44.689  27.748  27.450  1.00  0.00     0.074 A 
ATOM     20  C   UNL A   1      44.712  26.400  26.922  1.00  0.00     0.031 C 
ATOM     21  C   UNL A   1      38.710  28.343  29.706  1.00  0.00     0.029 A 
ATOM     22  C   UNL A   1      39.790  29.324  29.763  1.00  0.00     0.049 A 
ATOM     23  H   UNL A   1      41.709  29.148  28.971  1.00  0.00     0.167 HD
ATOM     24  C   UNL A   1      45.749  28.592  27.441  1.00  0.00     0.034 A 
ATOM     25  C   UNL A   1      39.704  30.530  30.355  1.00  0.00     0.034 A 
ATOM     26  C   UNL A   1      45.719  29.942  27.948  1.00  0.00     0.049 A 
ATOM     27  C   UNL A   1      40.884  31.459  30.296  1.00  0.00     0.074 A 
ATOM     28  C   UNL A   1      46.734  30.885  27.943  1.00  0.00     0.029 A 
ATOM     29  N   UNL A   1      44.625  30.541  28.552  1.00  0.00    -0.354 N 
ATOM     30  N   UNL A   1      42.051  31.273  29.730  1.00  0.00    -0.248 NA
ATOM     31  C   UNL A   1      40.722  32.777  30.925  1.00  0.00     0.031 C 
ATOM     32  C   UNL A   1      46.257  32.049  28.555  1.00  0.00     0.029 A 
ATOM     33  C   UNL A   1      44.938  31.839  28.923  1.00  0.00     0.049 A 
ATOM     34  H   UNL A   1      43.753  30.108  28.695  1.00  0.00     0.167 HD
ATOM     35  C   UNL A   1      42.758  32.455  29.922  1.00  0.00     0.074 A 
ATOM     36  C   UNL A   1      41.871  33.364  30.617  1.00  0.00     0.031 C 
ATOM     37  C   UNL A   1      44.035  32.750  29.578  1.00  0.00     0.034 A 
BRANCH  24  38
ATOM     38  C   UNL A   1      47.030  28.111  26.808  1.00  0.00     0.023 A 
ATOM     39  C   UNL A   1      48.071  27.639  27.635  1.00  0.00     0.012 A 
ATOM     40  C   UNL A   1      47.173  28.034  25.408  1.00  0.00     0.148 A 
ATOM     41  C   UNL A   1      49.240  27.117  27.082  1.00  0.00     0.002 A 
ATOM     42  C   UNL A   1      48.326  27.477  24.863  1.00  0.00     0.091 A 
ATOM     43  F   UNL A   1      46.180  28.501  24.637  1.00  0.00    -0.205 F 
ATOM     44  C   UNL A   1      49.362  27.026  25.698  1.00  0.00     0.022 A 
BRANCH  42  45
ATOM     45  S   UNL A   1      48.554  27.246  23.095  1.00  0.00     0.127 S 
ATOM     46  O   UNL A   1      47.578  28.186  22.548  1.00  0.00    -0.237 OA
ATOM     47  O   UNL A   1      49.951  27.641  22.912  1.00  0.00    -0.237 OA
ATOM     48  O   UNL A   1      48.280  25.839  22.835  1.00  0.00    -0.744 OA
ENDBRANCH  42  45
ENDBRANCH  24  38
BRANCH  25  49
ATOM     49  C   UNL A   1      38.434  30.939  31.020  1.00  0.00     0.023 A 
ATOM     50  C   UNL A   1      38.270  30.733  32.402  1.00  0.00     0.012 A 
ATOM     51  C   UNL A   1      37.407  31.568  30.291  1.00  0.00     0.148 A 
ATOM     52  C   UNL A   1      37.092  31.121  33.042  1.00  0.00     0.002 A 
ATOM     53  C   UNL A   1      36.264  32.008  30.945  1.00  0.00     0.091 A 
ATOM     54  F   UNL A   1      37.572  31.734  28.970  1.00  0.00    -0.205 F 
ATOM     55  C   UNL A   1      36.095  31.770  32.317  1.00  0.00     0.022 A 
BRANCH  53  56
ATOM     56  S   UNL A   1      35.014  32.988  30.106  1.00  0.00     0.127 S 
ATOM     57  O   UNL A   1      34.475  32.029  29.147  1.00  0.00    -0.237 OA
ATOM     58  O   UNL A   1      34.110  33.339  31.202  1.00  0.00    -0.237 OA
ATOM     59  O   UNL A   1      35.733  34.123  29.543  1.00  0.00    -0.744 OA
ENDBRANCH  53  56
ENDBRANCH  25  49
BRANCH  37  60
ATOM     60  C   UNL A   1      44.548  34.119  29.944  1.00  0.00     0.023 A 
ATOM     61  C   UNL A   1      45.243  34.299  31.157  1.00  0.00     0.012 A 
ATOM     62  C   UNL A   1      44.371  35.217  29.080  1.00  0.00     0.148 A 
ATOM     63  C   UNL A   1      45.717  35.557  31.524  1.00  0.00     0.002 A 
ATOM     64  C   UNL A   1      44.887  36.460  29.431  1.00  0.00     0.091 A 
ATOM     65  F   UNL A   1      43.688  35.033  27.940  1.00  0.00    -0.205 F 
ATOM     66  C   UNL A   1      45.548  36.635  30.658  1.00  0.00     0.022 A 
BRANCH  64  67
ATOM     67  S   UNL A   1      44.788  37.880  28.337  1.00  0.00     0.127 S 
ATOM     68  O   UNL A   1      45.494  38.901  29.108  1.00  0.00    -0.237 OA
ATOM     69  O   UNL A   1      45.502  37.412  27.148  1.00  0.00    -0.237 OA
ATOM     70  O   UNL A   1      43.366  38.120  28.127  1.00  0.00    -0.744 OA
ENDBRANCH  64  67
ENDBRANCH  37  60
ENDBRANCH  11  12
ENDBRANCH   4   6
ENDBRANCH   1   2
BRANCH   1  71
ATOM     71  C   UNL A   1      35.958  23.201  24.387  1.00  0.00     0.042 C 
BRANCH  71  72
ATOM     72  C   UNL A   1      34.859  24.258  24.385  1.00  0.00     0.118 C 
BRANCH  72  73
ATOM     73  N   UNL A   1      34.248  24.551  23.093  1.00  0.00    -0.351 N 
ATOM     74  C   UNL A   1      33.561  25.686  22.683  1.00  0.00     0.272 C 
ATOM     75  H   UNL A   1      34.337  23.843  22.415  1.00  0.00     0.163 HD
ATOM     76  O   UNL A   1      33.429  25.932  21.487  1.00  0.00    -0.267 OA
BRANCH  74  77
ATOM     77  C   UNL A   1      33.058  26.657  23.676  1.00  0.00     0.159 A 
ATOM     78  N   UNL A   1      33.936  27.712  23.828  1.00  0.00    -0.247 NA
ATOM     79  C   UNL A   1      31.808  26.636  24.289  1.00  0.00     0.159 A 
ATOM     80  C   UNL A   1      33.540  28.739  24.599  1.00  0.00     0.132 A 
ATOM     81  N   UNL A   1      31.474  27.689  25.120  1.00  0.00    -0.247 NA
ATOM     82  C   UNL A   1      32.331  28.725  25.242  1.00  0.00     0.132 A 
BRANCH  79  83
ATOM     83  C   UNL A   1      30.599  25.739  24.099  1.00  0.00     0.276 C 
ATOM     84  O   UNL A   1      29.556  26.273  23.687  1.00  0.00    -0.267 OA
ATOM     85  N   UNL A   1      30.518  24.373  24.174  1.00  0.00    -0.320 N 
ATOM     86  H   UNL A   1      29.783  24.006  23.633  1.00  0.00     0.170 HD
BRANCH  85  87
ATOM     87  C   UNL A   1      31.236  23.388  24.839  1.00  0.00     0.045 A 
ATOM     88  C   UNL A   1      31.583  23.484  26.194  1.00  0.00     0.030 A 
ATOM     89  C   UNL A   1      31.601  22.268  24.078  1.00  0.00     0.076 A 
ATOM     90  C   UNL A   1      32.391  22.495  26.767  1.00  0.00     0.053 A 
ATOM     91  C   UNL A   1      32.493  21.387  24.639  1.00  0.00     0.167 A 
ATOM     92  C   UNL A   1      32.892  21.509  25.946  1.00  0.00     0.165 A 
ATOM     93  O   UNL A   1      33.131  20.375  23.993  1.00  0.00    -0.454 OA
ATOM     94  O   UNL A   1      33.843  20.597  26.281  1.00  0.00    -0.454 OA
ATOM     95  C   UNL A   1      34.122  20.029  24.983  1.00  0.00     0.468 C 
ENDBRANCH  85  87
ENDBRANCH  79  83
ENDBRANCH  74  77
ENDBRANCH  72  73
ENDBRANCH  71  72
ENDBRANCH   1  71
TORSDOF 15
ENDMDL
