MODEL 1
REMARK VINA RESULT:     -11.0      0.000      0.000
REMARK SMILES CCc1ccc(O[C@H](C)C(=O)Oc2cccc(C(=O)NCCCNC(=O)c3ccc(-c4c5nc(c(-c6cccc(S(=O)(=O)[O-])c6F)c6ccc([nH]6)c(-c6cccc(S(=O)(=O)[O-])c6F)c6nc(c(-c7cccc(S(=O)(=O)[O-])c7F)c7ccc4[nH]7)C=C6)C=C5)cc3)c2)cc1
REMARK SMILES IDX 18 1 19 2 20 3 17 5 13 6 14 7 90 8 15 9 16 10 12 11 10 12
REMARK SMILES IDX 11 13 8 14 9 15 7 16 6 17 3 18 4 19 92 20 5 21 91 22 2 23
REMARK SMILES IDX 1 24 21 25 22 26 23 27 24 28 25 29 26 31 27 32 28 33 89 34
REMARK SMILES IDX 29 35 88 36 30 37 31 38 32 39 82 40 33 41 87 42 81 43 83 44
REMARK SMILES IDX 34 45 86 46 80 47 79 48 35 50 67 51 47 52 66 53 48 54 51 55
REMARK SMILES IDX 65 56 84 57 49 58 50 59 64 61 85 62 52 63 36 64 37 65 45 66
REMARK SMILES IDX 38 67 40 68 46 69 39 70 41 71 42 72 43 73 44 74 68 75 69 76
REMARK SMILES IDX 77 77 70 78 72 79 78 80 71 81 73 82 74 83 75 84 76 85 53 86
REMARK SMILES IDX 54 87 62 88 55 89 57 90 63 91 56 92 58 93 59 94 60 95 61 96
REMARK H PARENT 20 4 24 30 83 49 51 60
REMARK Flexibility Score: inf
ROOT
ATOM      1  C   UNL A   1      35.176  21.609  26.002  1.00  0.00     0.251 C 
ATOM      2  O   UNL A   1      34.856  21.922  27.152  1.00  0.00    -0.269 OA
ATOM      3  N   UNL A   1      36.511  21.403  25.766  1.00  0.00    -0.352 N 
ATOM      4  H   UNL A   1      37.079  21.589  26.549  1.00  0.00     0.163 HD
ENDROOT
BRANCH   1   5
ATOM      5  C   UNL A   1      34.102  21.433  24.982  1.00  0.00     0.043 A 
ATOM      6  C   UNL A   1      32.664  22.170  23.184  1.00  0.00     0.131 A 
ATOM      7  C   UNL A   1      32.127  20.897  23.032  1.00  0.00     0.047 A 
ATOM      8  C   UNL A   1      33.586  22.456  24.192  1.00  0.00     0.061 A 
ATOM      9  C   UNL A   1      32.567  19.880  23.876  1.00  0.00     0.005 A 
ATOM     10  C   UNL A   1      33.558  20.144  24.829  1.00  0.00     0.014 A 
BRANCH   6  11
ATOM     11  O   UNL A   1      32.186  23.207  22.375  1.00  0.00    -0.424 OA
BRANCH  11  12
ATOM     12  C   UNL A   1      31.452  24.194  23.022  1.00  0.00     0.352 C 
ATOM     13  O   UNL A   1      30.559  23.996  23.842  1.00  0.00    -0.247 OA
BRANCH  12  14
ATOM     14  C   UNL A   1      31.917  25.597  22.609  1.00  0.00     0.279 C 
ATOM     15  C   UNL A   1      32.663  25.598  21.278  1.00  0.00     0.066 C 
BRANCH  14  16
ATOM     16  O   UNL A   1      31.029  26.689  22.788  1.00  0.00    -0.479 OA
BRANCH  16  17
ATOM     17  C   UNL A   1      31.235  27.708  23.663  1.00  0.00     0.120 A 
ATOM     18  C   UNL A   1      31.869  29.614  25.658  1.00  0.00    -0.048 A 
ATOM     19  C   UNL A   1      30.967  29.912  24.628  1.00  0.00     0.007 A 
ATOM     20  C   UNL A   1      32.438  28.338  25.684  1.00  0.00     0.007 A 
ATOM     21  C   UNL A   1      30.660  28.974  23.636  1.00  0.00     0.047 A 
ATOM     22  C   UNL A   1      32.123  27.400  24.695  1.00  0.00     0.047 A 
BRANCH  18  23
ATOM     23  C   UNL A   1      32.135  30.669  26.705  1.00  0.00     0.032 C 
ATOM     24  C   UNL A   1      31.318  31.949  26.605  1.00  0.00     0.009 C 
ENDBRANCH  18  23
ENDBRANCH  16  17
ENDBRANCH  14  16
ENDBRANCH  12  14
ENDBRANCH  11  12
ENDBRANCH   6  11
ENDBRANCH   1   5
BRANCH   3  25
ATOM     25  C   UNL A   1      37.262  20.966  24.602  1.00  0.00     0.118 C 
BRANCH  25  26
ATOM     26  C   UNL A   1      38.202  19.810  24.946  1.00  0.00     0.042 C 
BRANCH  26  27
ATOM     27  C   UNL A   1      39.149  20.135  26.100  1.00  0.00     0.118 C 
BRANCH  27  28
ATOM     28  N   UNL A   1      40.334  19.284  26.081  1.00  0.00    -0.352 N 
ATOM     29  C   UNL A   1      41.666  19.614  26.081  1.00  0.00     0.251 C 
ATOM     30  H   UNL A   1      40.149  18.318  26.065  1.00  0.00     0.163 HD
ATOM     31  O   UNL A   1      42.497  18.753  25.806  1.00  0.00    -0.269 OA
BRANCH  29  32
ATOM     32  C   UNL A   1      42.106  20.985  26.414  1.00  0.00     0.039 A 
ATOM     33  C   UNL A   1      42.268  21.914  25.381  1.00  0.00     0.014 A 
ATOM     34  C   UNL A   1      42.417  21.342  27.729  1.00  0.00     0.014 A 
ATOM     35  C   UNL A   1      42.697  23.211  25.672  1.00  0.00     0.010 A 
ATOM     36  C   UNL A   1      42.767  22.655  28.026  1.00  0.00     0.010 A 
ATOM     37  C   UNL A   1      42.926  23.599  27.001  1.00  0.00    -0.014 A 
BRANCH  37  38
ATOM     38  C   UNL A   1      43.330  24.985  27.345  1.00  0.00     0.031 A 
ATOM     39  C   UNL A   1      42.334  25.937  27.949  1.00  0.00     0.074 A 
ATOM     40  C   UNL A   1      44.565  25.414  27.019  1.00  0.00     0.049 A 
ATOM     41  N   UNL A   1      42.479  27.200  28.254  1.00  0.00    -0.248 NA
ATOM     42  C   UNL A   1      40.985  25.410  28.216  1.00  0.00     0.031 C 
ATOM     43  C   UNL A   1      45.592  24.606  26.359  1.00  0.00     0.029 A 
ATOM     44  N   UNL A   1      45.156  26.642  27.175  1.00  0.00    -0.354 N 
ATOM     45  C   UNL A   1      41.235  27.631  28.698  1.00  0.00     0.074 A 
ATOM     46  C   UNL A   1      40.337  26.501  28.594  1.00  0.00     0.031 C 
ATOM     47  C   UNL A   1      46.691  25.356  26.177  1.00  0.00     0.029 A 
ATOM     48  C   UNL A   1      46.437  26.702  26.678  1.00  0.00     0.049 A 
ATOM     49  H   UNL A   1      44.707  27.408  27.602  1.00  0.00     0.167 HD
ATOM     50  C   UNL A   1      40.876  28.847  29.176  1.00  0.00     0.034 A 
ATOM     51  C   UNL A   1      47.308  27.729  26.630  1.00  0.00     0.034 A 
ATOM     52  C   UNL A   1      41.788  29.948  29.324  1.00  0.00     0.049 A 
ATOM     53  C   UNL A   1      46.904  29.056  27.213  1.00  0.00     0.074 A 
ATOM     54  C   UNL A   1      41.559  31.186  29.899  1.00  0.00     0.029 A 
ATOM     55  N   UNL A   1      43.104  29.950  28.886  1.00  0.00    -0.354 N 
ATOM     56  N   UNL A   1      45.774  29.395  27.784  1.00  0.00    -0.248 NA
ATOM     57  C   UNL A   1      47.906  30.129  27.176  1.00  0.00     0.031 C 
ATOM     58  C   UNL A   1      42.730  31.944  29.784  1.00  0.00     0.029 A 
ATOM     59  C   UNL A   1      43.697  31.169  29.162  1.00  0.00     0.049 A 
ATOM     60  H   UNL A   1      43.552  29.192  28.443  1.00  0.00     0.167 HD
ATOM     61  C   UNL A   1      45.941  30.709  28.207  1.00  0.00     0.074 A 
ATOM     62  C   UNL A   1      47.288  31.096  27.841  1.00  0.00     0.031 C 
ATOM     63  C   UNL A   1      45.055  31.524  28.832  1.00  0.00     0.034 A 
BRANCH  50  64
ATOM     64  C   UNL A   1      39.444  29.031  29.613  1.00  0.00     0.023 A 
ATOM     65  C   UNL A   1      39.056  28.655  30.915  1.00  0.00     0.012 A 
ATOM     66  C   UNL A   1      38.489  29.602  28.748  1.00  0.00     0.148 A 
ATOM     67  C   UNL A   1      37.733  28.796  31.333  1.00  0.00     0.002 A 
ATOM     68  C   UNL A   1      37.182  29.785  29.189  1.00  0.00     0.091 A 
ATOM     69  F   UNL A   1      38.866  29.935  27.505  1.00  0.00    -0.205 F 
ATOM     70  C   UNL A   1      36.800  29.368  30.474  1.00  0.00     0.022 A 
BRANCH  68  71
ATOM     71  S   UNL A   1      35.929  30.588  28.183  1.00  0.00     0.127 S 
ATOM     72  O   UNL A   1      35.746  29.617  27.107  1.00  0.00    -0.237 OA
ATOM     73  O   UNL A   1      34.802  30.687  29.113  1.00  0.00    -0.237 OA
ATOM     74  O   UNL A   1      36.498  31.869  27.788  1.00  0.00    -0.744 OA
ENDBRANCH  68  71
ENDBRANCH  50  64
BRANCH  51  75
ATOM     75  C   UNL A   1      48.681  27.507  26.091  1.00  0.00     0.023 A 
ATOM     76  C   UNL A   1      49.693  27.066  26.965  1.00  0.00     0.012 A 
ATOM     77  C   UNL A   1      48.975  27.669  24.724  1.00  0.00     0.148 A 
ATOM     78  C   UNL A   1      50.981  26.814  26.493  1.00  0.00     0.002 A 
ATOM     79  C   UNL A   1      50.247  27.365  24.250  1.00  0.00     0.091 A 
ATOM     80  F   UNL A   1      47.998  28.092  23.910  1.00  0.00    -0.205 F 
ATOM     81  C   UNL A   1      51.255  26.952  25.136  1.00  0.00     0.022 A 
BRANCH  79  82
ATOM     82  S   UNL A   1      50.662  27.387  22.502  1.00  0.00     0.127 S 
ATOM     83  O   UNL A   1      49.665  26.477  21.945  1.00  0.00    -0.237 OA
ATOM     84  O   UNL A   1      50.466  28.798  22.164  1.00  0.00    -0.237 OA
ATOM     85  O   UNL A   1      52.044  26.935  22.415  1.00  0.00    -0.744 OA
ENDBRANCH  79  82
ENDBRANCH  51  75
BRANCH  63  86
ATOM     86  C   UNL A   1      45.517  32.912  29.192  1.00  0.00     0.023 A 
ATOM     87  C   UNL A   1      46.100  33.151  30.452  1.00  0.00     0.012 A 
ATOM     88  C   UNL A   1      45.445  33.959  28.254  1.00  0.00     0.148 A 
ATOM     89  C   UNL A   1      46.576  34.419  30.783  1.00  0.00     0.002 A 
ATOM     90  C   UNL A   1      45.967  35.207  28.571  1.00  0.00     0.091 A 
ATOM     91  F   UNL A   1      44.869  33.716  27.067  1.00  0.00    -0.205 F 
ATOM     92  C   UNL A   1      46.521  35.442  29.840  1.00  0.00     0.022 A 
BRANCH  90  93
ATOM     93  S   UNL A   1      46.029  36.555  27.385  1.00  0.00     0.127 S 
ATOM     94  O   UNL A   1      44.610  36.840  27.184  1.00  0.00    -0.237 OA
ATOM     95  O   UNL A   1      46.760  37.586  28.125  1.00  0.00    -0.237 OA
ATOM     96  O   UNL A   1      46.734  36.033  26.222  1.00  0.00    -0.744 OA
ENDBRANCH  90  93
ENDBRANCH  63  86
ENDBRANCH  37  38
ENDBRANCH  29  32
ENDBRANCH  27  28
ENDBRANCH  26  27
ENDBRANCH  25  26
ENDBRANCH   3  25
TORSDOF 19
ENDMDL
MODEL 2
REMARK VINA RESULT:     -10.9      1.557      7.732
REMARK SMILES CCc1ccc(O[C@H](C)C(=O)Oc2cccc(C(=O)NCCCNC(=O)c3ccc(-c4c5nc(c(-c6cccc(S(=O)(=O)[O-])c6F)c6ccc([nH]6)c(-c6cccc(S(=O)(=O)[O-])c6F)c6nc(c(-c7cccc(S(=O)(=O)[O-])c7F)c7ccc4[nH]7)C=C6)C=C5)cc3)c2)cc1
REMARK SMILES IDX 18 1 19 2 20 3 17 5 13 6 14 7 90 8 15 9 16 10 12 11 10 12
REMARK SMILES IDX 11 13 8 14 9 15 7 16 6 17 3 18 4 19 92 20 5 21 91 22 2 23
REMARK SMILES IDX 1 24 21 25 22 26 23 27 24 28 25 29 26 31 27 32 28 33 89 34
REMARK SMILES IDX 29 35 88 36 30 37 31 38 32 39 82 40 33 41 87 42 81 43 83 44
REMARK SMILES IDX 34 45 86 46 80 47 79 48 35 50 67 51 47 52 66 53 48 54 51 55
REMARK SMILES IDX 65 56 84 57 49 58 50 59 64 61 85 62 52 63 36 64 37 65 45 66
REMARK SMILES IDX 38 67 40 68 46 69 39 70 41 71 42 72 43 73 44 74 68 75 69 76
REMARK SMILES IDX 77 77 70 78 72 79 78 80 71 81 73 82 74 83 75 84 76 85 53 86
REMARK SMILES IDX 54 87 62 88 55 89 57 90 63 91 56 92 58 93 59 94 60 95 61 96
REMARK H PARENT 20 4 24 30 83 49 51 60
REMARK Flexibility Score: inf
ROOT
ATOM      1  C   UNL A   1      34.103  21.264  26.447  1.00  0.00     0.251 C 
ATOM      2  O   UNL A   1      33.809  21.210  27.643  1.00  0.00    -0.269 OA
ATOM      3  N   UNL A   1      35.354  20.823  26.096  1.00  0.00    -0.352 N 
ATOM      4  H   UNL A   1      35.906  20.560  26.868  1.00  0.00     0.163 HD
ENDROOT
BRANCH   1   5
ATOM      5  C   UNL A   1      33.079  21.751  25.477  1.00  0.00     0.043 A 
ATOM      6  C   UNL A   1      31.193  23.100  24.798  1.00  0.00     0.131 A 
ATOM      7  C   UNL A   1      31.280  22.643  23.488  1.00  0.00     0.047 A 
ATOM      8  C   UNL A   1      32.032  22.609  25.799  1.00  0.00     0.061 A 
ATOM      9  C   UNL A   1      32.267  21.714  23.169  1.00  0.00     0.005 A 
ATOM     10  C   UNL A   1      33.168  21.287  24.152  1.00  0.00     0.014 A 
BRANCH   6  11
ATOM     11  O   UNL A   1      30.168  23.992  25.135  1.00  0.00    -0.424 OA
BRANCH  11  12
ATOM     12  C   UNL A   1      30.562  25.296  25.411  1.00  0.00     0.352 C 
ATOM     13  O   UNL A   1      30.745  25.762  26.533  1.00  0.00    -0.247 OA
BRANCH  12  14
ATOM     14  C   UNL A   1      30.780  26.098  24.122  1.00  0.00     0.279 C 
ATOM     15  C   UNL A   1      29.682  27.129  23.881  1.00  0.00     0.066 C 
BRANCH  14  16
ATOM     16  O   UNL A   1      32.090  26.550  23.815  1.00  0.00    -0.479 OA
BRANCH  16  17
ATOM     17  C   UNL A   1      33.217  25.810  23.994  1.00  0.00     0.120 A 
ATOM     18  C   UNL A   1      35.574  24.404  24.685  1.00  0.00    -0.048 A 
ATOM     19  C   UNL A   1      35.018  24.305  23.403  1.00  0.00     0.007 A 
ATOM     20  C   UNL A   1      34.940  25.232  25.614  1.00  0.00     0.007 A 
ATOM     21  C   UNL A   1      33.847  24.992  23.064  1.00  0.00     0.047 A 
ATOM     22  C   UNL A   1      33.775  25.924  25.269  1.00  0.00     0.047 A 
BRANCH  18  23
ATOM     23  C   UNL A   1      36.851  23.650  24.973  1.00  0.00     0.032 C 
ATOM     24  C   UNL A   1      37.594  24.029  26.246  1.00  0.00     0.009 C 
ENDBRANCH  18  23
ENDBRANCH  16  17
ENDBRANCH  14  16
ENDBRANCH  12  14
ENDBRANCH  11  12
ENDBRANCH   6  11
ENDBRANCH   1   5
BRANCH   3  25
ATOM     25  C   UNL A   1      36.034  20.661  24.823  1.00  0.00     0.118 C 
BRANCH  25  26
ATOM     26  C   UNL A   1      37.299  19.813  24.969  1.00  0.00     0.042 C 
BRANCH  26  27
ATOM     27  C   UNL A   1      38.482  20.600  25.531  1.00  0.00     0.118 C 
BRANCH  27  28
ATOM     28  N   UNL A   1      39.516  19.716  26.057  1.00  0.00    -0.352 N 
ATOM     29  C   UNL A   1      40.790  19.993  26.486  1.00  0.00     0.251 C 
ATOM     30  H   UNL A   1      39.259  18.767  26.114  1.00  0.00     0.163 HD
ATOM     31  O   UNL A   1      41.581  19.068  26.652  1.00  0.00    -0.269 OA
BRANCH  29  32
ATOM     32  C   UNL A   1      41.212  21.383  26.756  1.00  0.00     0.039 A 
ATOM     33  C   UNL A   1      41.308  22.281  25.687  1.00  0.00     0.014 A 
ATOM     34  C   UNL A   1      41.568  21.791  28.044  1.00  0.00     0.014 A 
ATOM     35  C   UNL A   1      41.719  23.596  25.918  1.00  0.00     0.010 A 
ATOM     36  C   UNL A   1      41.901  23.120  28.284  1.00  0.00     0.010 A 
ATOM     37  C   UNL A   1      41.994  24.032  27.223  1.00  0.00    -0.014 A 
BRANCH  37  38
ATOM     38  C   UNL A   1      42.381  25.438  27.505  1.00  0.00     0.031 A 
ATOM     39  C   UNL A   1      43.754  25.934  27.139  1.00  0.00     0.074 A 
ATOM     40  C   UNL A   1      41.531  26.235  28.181  1.00  0.00     0.049 A 
ATOM     41  N   UNL A   1      44.296  27.102  27.364  1.00  0.00    -0.248 NA
ATOM     42  C   UNL A   1      44.647  24.981  26.459  1.00  0.00     0.031 C 
ATOM     43  C   UNL A   1      40.204  25.841  28.658  1.00  0.00     0.029 A 
ATOM     44  N   UNL A   1      41.667  27.532  28.607  1.00  0.00    -0.354 N 
ATOM     45  C   UNL A   1      45.604  27.009  26.902  1.00  0.00     0.074 A 
ATOM     46  C   UNL A   1      45.783  25.660  26.413  1.00  0.00     0.031 C 
ATOM     47  C   UNL A   1      39.642  26.879  29.300  1.00  0.00     0.029 A 
ATOM     48  C   UNL A   1      40.579  27.997  29.307  1.00  0.00     0.049 A 
ATOM     49  H   UNL A   1      42.467  28.078  28.428  1.00  0.00     0.167 HD
ATOM     50  C   UNL A   1      46.561  27.968  26.864  1.00  0.00     0.034 A 
ATOM     51  C   UNL A   1      40.362  29.192  29.892  1.00  0.00     0.034 A 
ATOM     52  C   UNL A   1      46.357  29.320  27.305  1.00  0.00     0.049 A 
ATOM     53  C   UNL A   1      41.420  30.256  29.791  1.00  0.00     0.074 A 
ATOM     54  C   UNL A   1      47.220  30.398  27.208  1.00  0.00     0.029 A 
ATOM     55  N   UNL A   1      45.212  29.782  27.936  1.00  0.00    -0.354 N 
ATOM     56  N   UNL A   1      42.589  30.201  29.201  1.00  0.00    -0.248 NA
ATOM     57  C   UNL A   1      41.116  31.554  30.406  1.00  0.00     0.031 C 
ATOM     58  C   UNL A   1      46.604  31.504  27.806  1.00  0.00     0.029 A 
ATOM     59  C   UNL A   1      45.348  31.122  28.249  1.00  0.00     0.049 A 
ATOM     60  H   UNL A   1      44.416  29.234  28.132  1.00  0.00     0.167 HD
ATOM     61  C   UNL A   1      43.146  31.468  29.340  1.00  0.00     0.074 A 
ATOM     62  C   UNL A   1      42.176  32.272  30.057  1.00  0.00     0.031 C 
ATOM     63  C   UNL A   1      44.355  31.921  28.923  1.00  0.00     0.034 A 
BRANCH  50  64
ATOM     64  C   UNL A   1      47.902  27.591  26.283  1.00  0.00     0.023 A 
ATOM     65  C   UNL A   1      48.932  27.141  27.136  1.00  0.00     0.012 A 
ATOM     66  C   UNL A   1      48.137  27.654  24.896  1.00  0.00     0.148 A 
ATOM     67  C   UNL A   1      50.186  26.808  26.625  1.00  0.00     0.002 A 
ATOM     68  C   UNL A   1      49.374  27.274  24.388  1.00  0.00     0.091 A 
ATOM     69  F   UNL A   1      47.156  28.104  24.099  1.00  0.00    -0.205 F 
ATOM     70  C   UNL A   1      50.404  26.866  25.251  1.00  0.00     0.022 A 
BRANCH  68  71
ATOM     71  S   UNL A   1      49.723  27.236  22.626  1.00  0.00     0.127 S 
ATOM     72  O   UNL A   1      51.126  26.829  22.611  1.00  0.00    -0.237 OA
ATOM     73  O   UNL A   1      48.787  26.217  22.146  1.00  0.00    -0.237 OA
ATOM     74  O   UNL A   1      49.450  28.581  22.138  1.00  0.00    -0.744 OA
ENDBRANCH  68  71
ENDBRANCH  50  64
BRANCH  51  75
ATOM     75  C   UNL A   1      39.048  29.467  30.540  1.00  0.00     0.023 A 
ATOM     76  C   UNL A   1      38.776  28.901  31.800  1.00  0.00     0.012 A 
ATOM     77  C   UNL A   1      38.098  30.325  29.952  1.00  0.00     0.148 A 
ATOM     78  C   UNL A   1      37.572  29.162  32.454  1.00  0.00     0.002 A 
ATOM     79  C   UNL A   1      36.923  30.624  30.633  1.00  0.00     0.091 A 
ATOM     80  F   UNL A   1      38.375  30.851  28.751  1.00  0.00    -0.205 F 
ATOM     81  C   UNL A   1      36.651  30.032  31.877  1.00  0.00     0.022 A 
BRANCH  79  82
ATOM     82  S   UNL A   1      35.734  31.832  30.033  1.00  0.00     0.127 S 
ATOM     83  O   UNL A   1      36.587  32.990  29.777  1.00  0.00    -0.237 OA
ATOM     84  O   UNL A   1      35.214  31.172  28.835  1.00  0.00    -0.237 OA
ATOM     85  O   UNL A   1      34.758  31.994  31.101  1.00  0.00    -0.744 OA
ENDBRANCH  79  82
ENDBRANCH  51  75
BRANCH  63  86
ATOM     86  C   UNL A   1      44.693  33.363  29.201  1.00  0.00     0.023 A 
ATOM     87  C   UNL A   1      45.313  33.715  30.415  1.00  0.00     0.012 A 
ATOM     88  C   UNL A   1      44.467  34.354  28.227  1.00  0.00     0.148 A 
ATOM     89  C   UNL A   1      45.675  35.038  30.668  1.00  0.00     0.002 A 
ATOM     90  C   UNL A   1      44.876  35.660  28.465  1.00  0.00     0.091 A 
ATOM     91  F   UNL A   1      43.858  34.002  27.085  1.00  0.00    -0.205 F 
ATOM     92  C   UNL A   1      45.468  36.006  29.690  1.00  0.00     0.022 A 
BRANCH  90  93
ATOM     93  S   UNL A   1      44.740  36.953  27.224  1.00  0.00     0.127 S 
ATOM     94  O   UNL A   1      45.094  38.144  27.993  1.00  0.00    -0.237 OA
ATOM     95  O   UNL A   1      45.741  36.543  26.238  1.00  0.00    -0.237 OA
ATOM     96  O   UNL A   1      43.365  36.903  26.744  1.00  0.00    -0.744 OA
ENDBRANCH  90  93
ENDBRANCH  63  86
ENDBRANCH  37  38
ENDBRANCH  29  32
ENDBRANCH  27  28
ENDBRANCH  26  27
ENDBRANCH  25  26
ENDBRANCH   3  25
TORSDOF 19
ENDMDL
MODEL 3
REMARK VINA RESULT:     -10.8      7.248     12.525
REMARK SMILES CCc1ccc(O[C@H](C)C(=O)Oc2cccc(C(=O)NCCCNC(=O)c3ccc(-c4c5nc(c(-c6cccc(S(=O)(=O)[O-])c6F)c6ccc([nH]6)c(-c6cccc(S(=O)(=O)[O-])c6F)c6nc(c(-c7cccc(S(=O)(=O)[O-])c7F)c7ccc4[nH]7)C=C6)C=C5)cc3)c2)cc1
REMARK SMILES IDX 18 1 19 2 20 3 17 5 13 6 14 7 90 8 15 9 16 10 12 11 10 12
REMARK SMILES IDX 11 13 8 14 9 15 7 16 6 17 3 18 4 19 92 20 5 21 91 22 2 23
REMARK SMILES IDX 1 24 21 25 22 26 23 27 24 28 25 29 26 31 27 32 28 33 89 34
REMARK SMILES IDX 29 35 88 36 30 37 31 38 32 39 82 40 33 41 87 42 81 43 83 44
REMARK SMILES IDX 34 45 86 46 80 47 79 48 35 50 67 51 47 52 66 53 48 54 51 55
REMARK SMILES IDX 65 56 84 57 49 58 50 59 64 61 85 62 52 63 36 64 37 65 45 66
REMARK SMILES IDX 38 67 40 68 46 69 39 70 41 71 42 72 43 73 44 74 68 75 69 76
REMARK SMILES IDX 77 77 70 78 72 79 78 80 71 81 73 82 74 83 75 84 76 85 53 86
REMARK SMILES IDX 54 87 62 88 55 89 57 90 63 91 56 92 58 93 59 94 60 95 61 96
REMARK H PARENT 20 4 24 30 83 49 51 60
REMARK Flexibility Score: inf
ROOT
ATOM      1  C   UNL A   1      36.291  33.137  28.406  1.00  0.00     0.251 C 
ATOM      2  O   UNL A   1      37.445  33.192  28.838  1.00  0.00    -0.269 OA
ATOM      3  N   UNL A   1      35.619  34.327  28.281  1.00  0.00    -0.352 N 
ATOM      4  H   UNL A   1      36.131  35.100  28.612  1.00  0.00     0.163 HD
ENDROOT
BRANCH   1   5
ATOM      5  C   UNL A   1      35.734  31.809  28.012  1.00  0.00     0.043 A 
ATOM      6  C   UNL A   1      34.020  30.332  27.166  1.00  0.00     0.131 A 
ATOM      7  C   UNL A   1      34.876  29.239  27.212  1.00  0.00     0.047 A 
ATOM      8  C   UNL A   1      34.416  31.588  27.628  1.00  0.00     0.061 A 
ATOM      9  C   UNL A   1      36.174  29.425  27.681  1.00  0.00     0.005 A 
ATOM     10  C   UNL A   1      36.603  30.703  28.060  1.00  0.00     0.014 A 
BRANCH   6  11
ATOM     11  O   UNL A   1      32.698  30.138  26.747  1.00  0.00    -0.424 OA
BRANCH  11  12
ATOM     12  C   UNL A   1      32.226  28.832  26.806  1.00  0.00     0.352 C 
ATOM     13  O   UNL A   1      32.093  28.168  27.831  1.00  0.00    -0.247 OA
BRANCH  12  14
ATOM     14  C   UNL A   1      31.852  28.311  25.412  1.00  0.00     0.279 C 
ATOM     15  C   UNL A   1      32.734  28.893  24.312  1.00  0.00     0.066 C 
BRANCH  14  16
ATOM     16  O   UNL A   1      31.553  26.932  25.260  1.00  0.00    -0.479 OA
BRANCH  16  17
ATOM     17  C   UNL A   1      32.468  25.982  24.931  1.00  0.00     0.120 A 
ATOM     18  C   UNL A   1      34.186  23.952  23.961  1.00  0.00    -0.048 A 
ATOM     19  C   UNL A   1      34.410  24.563  25.203  1.00  0.00     0.007 A 
ATOM     20  C   UNL A   1      33.078  24.363  23.217  1.00  0.00     0.007 A 
ATOM     21  C   UNL A   1      33.566  25.572  25.678  1.00  0.00     0.047 A 
ATOM     22  C   UNL A   1      32.232  25.368  23.699  1.00  0.00     0.047 A 
BRANCH  18  23
ATOM     23  C   UNL A   1      35.127  22.856  23.522  1.00  0.00     0.032 C 
ATOM     24  C   UNL A   1      36.600  23.223  23.419  1.00  0.00     0.009 C 
ENDBRANCH  18  23
ENDBRANCH  16  17
ENDBRANCH  14  16
ENDBRANCH  12  14
ENDBRANCH  11  12
ENDBRANCH   6  11
ENDBRANCH   1   5
BRANCH   3  25
ATOM     25  C   UNL A   1      34.311  34.684  27.760  1.00  0.00     0.118 C 
BRANCH  25  26
ATOM     26  C   UNL A   1      33.278  34.803  28.882  1.00  0.00     0.042 C 
BRANCH  26  27
ATOM     27  C   UNL A   1      33.373  36.125  29.641  1.00  0.00     0.118 C 
BRANCH  27  28
ATOM     28  N   UNL A   1      32.453  36.164  30.772  1.00  0.00    -0.352 N 
ATOM     29  C   UNL A   1      32.511  35.532  31.989  1.00  0.00     0.251 C 
ATOM     30  H   UNL A   1      31.661  36.735  30.642  1.00  0.00     0.163 HD
ATOM     31  O   UNL A   1      31.508  35.500  32.697  1.00  0.00    -0.269 OA
BRANCH  29  32
ATOM     32  C   UNL A   1      33.764  34.901  32.454  1.00  0.00     0.039 A 
ATOM     33  C   UNL A   1      33.705  33.633  33.043  1.00  0.00     0.014 A 
ATOM     34  C   UNL A   1      34.985  35.574  32.367  1.00  0.00     0.014 A 
ATOM     35  C   UNL A   1      34.875  33.024  33.503  1.00  0.00     0.010 A 
ATOM     36  C   UNL A   1      36.159  34.934  32.753  1.00  0.00     0.010 A 
ATOM     37  C   UNL A   1      36.115  33.660  33.338  1.00  0.00    -0.014 A 
BRANCH  37  38
ATOM     38  C   UNL A   1      37.381  33.014  33.768  1.00  0.00     0.031 A 
ATOM     39  C   UNL A   1      37.967  31.886  32.962  1.00  0.00     0.074 A 
ATOM     40  C   UNL A   1      37.944  33.376  34.937  1.00  0.00     0.049 A 
ATOM     41  N   UNL A   1      39.023  31.156  33.212  1.00  0.00    -0.248 NA
ATOM     42  C   UNL A   1      37.256  31.507  31.730  1.00  0.00     0.031 C 
ATOM     43  C   UNL A   1      37.424  34.401  35.843  1.00  0.00     0.029 A 
ATOM     44  N   UNL A   1      39.063  32.904  35.575  1.00  0.00    -0.354 N 
ATOM     45  C   UNL A   1      39.073  30.203  32.202  1.00  0.00     0.074 A 
ATOM     46  C   UNL A   1      37.924  30.428  31.352  1.00  0.00     0.031 C 
ATOM     47  C   UNL A   1      38.228  34.490  36.914  1.00  0.00     0.029 A 
ATOM     48  C   UNL A   1      39.301  33.509  36.787  1.00  0.00     0.049 A 
ATOM     49  H   UNL A   1      39.641  32.199  35.203  1.00  0.00     0.167 HD
ATOM     50  C   UNL A   1      40.006  29.244  31.984  1.00  0.00     0.034 A 
ATOM     51  C   UNL A   1      40.274  33.296  37.695  1.00  0.00     0.034 A 
ATOM     52  C   UNL A   1      41.172  29.061  32.804  1.00  0.00     0.049 A 
ATOM     53  C   UNL A   1      41.326  32.261  37.405  1.00  0.00     0.074 A 
ATOM     54  C   UNL A   1      42.235  28.197  32.610  1.00  0.00     0.029 A 
ATOM     55  N   UNL A   1      41.426  29.749  33.981  1.00  0.00    -0.354 N 
ATOM     56  N   UNL A   1      41.450  31.482  36.357  1.00  0.00    -0.248 NA
ATOM     57  C   UNL A   1      42.390  32.098  38.405  1.00  0.00     0.031 C 
ATOM     58  C   UNL A   1      43.118  28.344  33.686  1.00  0.00     0.029 A 
ATOM     59  C   UNL A   1      42.619  29.320  34.535  1.00  0.00     0.049 A 
ATOM     60  H   UNL A   1      40.841  30.442  34.367  1.00  0.00     0.167 HD
ATOM     61  C   UNL A   1      42.625  30.764  36.553  1.00  0.00     0.074 A 
ATOM     62  C   UNL A   1      43.182  31.214  37.813  1.00  0.00     0.031 C 
ATOM     63  C   UNL A   1      43.184  29.810  35.767  1.00  0.00     0.034 A 
BRANCH  50  64
ATOM     64  C   UNL A   1      39.819  28.349  30.783  1.00  0.00     0.023 A 
ATOM     65  C   UNL A   1      38.980  27.220  30.876  1.00  0.00     0.012 A 
ATOM     66  C   UNL A   1      40.448  28.640  29.556  1.00  0.00     0.148 A 
ATOM     67  C   UNL A   1      38.809  26.367  29.786  1.00  0.00     0.002 A 
ATOM     68  C   UNL A   1      40.235  27.812  28.459  1.00  0.00     0.091 A 
ATOM     69  F   UNL A   1      41.260  29.705  29.488  1.00  0.00    -0.205 F 
ATOM     70  C   UNL A   1      39.429  26.667  28.577  1.00  0.00     0.022 A 
BRANCH  68  71
ATOM     71  S   UNL A   1      40.924  28.163  26.838  1.00  0.00     0.127 S 
ATOM     72  O   UNL A   1      40.066  29.254  26.382  1.00  0.00    -0.237 OA
ATOM     73  O   UNL A   1      42.295  28.561  27.163  1.00  0.00    -0.237 OA
ATOM     74  O   UNL A   1      40.820  26.921  26.085  1.00  0.00    -0.744 OA
ENDBRANCH  68  71
ENDBRANCH  50  64
BRANCH  51  75
ATOM     75  C   UNL A   1      40.344  34.150  38.914  1.00  0.00     0.023 A 
ATOM     76  C   UNL A   1      41.240  35.237  38.935  1.00  0.00     0.012 A 
ATOM     77  C   UNL A   1      39.499  33.934  40.020  1.00  0.00     0.148 A 
ATOM     78  C   UNL A   1      41.311  36.080  40.044  1.00  0.00     0.002 A 
ATOM     79  C   UNL A   1      39.537  34.809  41.100  1.00  0.00     0.091 A 
ATOM     80  F   UNL A   1      38.656  32.892  39.981  1.00  0.00    -0.205 F 
ATOM     81  C   UNL A   1      40.453  35.873  41.121  1.00  0.00     0.022 A 
BRANCH  79  82
ATOM     82  S   UNL A   1      38.384  34.704  42.475  1.00  0.00     0.127 S 
ATOM     83  O   UNL A   1      37.096  34.796  41.794  1.00  0.00    -0.237 OA
ATOM     84  O   UNL A   1      38.696  33.386  43.029  1.00  0.00    -0.237 OA
ATOM     85  O   UNL A   1      38.712  35.818  43.355  1.00  0.00    -0.744 OA
ENDBRANCH  79  82
ENDBRANCH  51  75
BRANCH  63  86
ATOM     86  C   UNL A   1      44.485  29.204  36.225  1.00  0.00     0.023 A 
ATOM     87  C   UNL A   1      45.697  29.876  35.976  1.00  0.00     0.012 A 
ATOM     88  C   UNL A   1      44.497  28.009  36.970  1.00  0.00     0.148 A 
ATOM     89  C   UNL A   1      46.905  29.352  36.434  1.00  0.00     0.002 A 
ATOM     90  C   UNL A   1      45.699  27.519  37.467  1.00  0.00     0.091 A 
ATOM     91  F   UNL A   1      43.335  27.374  37.181  1.00  0.00    -0.205 F 
ATOM     92  C   UNL A   1      46.905  28.182  37.189  1.00  0.00     0.022 A 
BRANCH  90  93
ATOM     93  S   UNL A   1      45.783  26.074  38.531  1.00  0.00     0.127 S 
ATOM     94  O   UNL A   1      47.161  26.136  39.012  1.00  0.00    -0.237 OA
ATOM     95  O   UNL A   1      44.769  26.375  39.544  1.00  0.00    -0.237 OA
ATOM     96  O   UNL A   1      45.466  24.933  37.682  1.00  0.00    -0.744 OA
ENDBRANCH  90  93
ENDBRANCH  63  86
ENDBRANCH  37  38
ENDBRANCH  29  32
ENDBRANCH  27  28
ENDBRANCH  26  27
ENDBRANCH  25  26
ENDBRANCH   3  25
TORSDOF 19
ENDMDL
