MODEL 1
REMARK VINA RESULT:     -11.8      0.000      0.000
REMARK SMILES CC(C)CCn1cc(C(=O)NCCCNC(=O)c2ccc(-c3c4nc(c(-c5cccc(S(=O)(=O)[O-])c5F)c5ccc([nH]5)c(-c5cccc(S(=O)(=O)[O-])c5F)c5nc(c(-c6cccc(S(=O)(=O)[O-])c6F)c6ccc3[nH]6)C=C5)C=C4)cc2)c(-c2ccoc2)n1
REMARK SMILES IDX 13 1 12 2 11 3 9 4 10 5 8 7 6 8 7 9 87 10 81 11 5 12 4 13
REMARK SMILES IDX 2 14 1 15 3 16 82 17 83 18 86 19 84 20 85 21 14 22 15 23
REMARK SMILES IDX 16 24 17 26 18 27 19 28 80 29 20 30 79 31 21 32 22 33 23 34
REMARK SMILES IDX 73 35 24 36 78 37 72 38 74 39 25 40 77 41 71 42 70 43 26 45
REMARK SMILES IDX 58 46 38 47 57 48 39 49 42 50 56 51 75 52 40 53 41 54 55 56
REMARK SMILES IDX 76 57 43 58 27 59 28 60 36 61 29 62 31 63 37 64 30 65 32 66
REMARK SMILES IDX 33 67 34 68 35 69 59 70 60 71 68 72 61 73 63 74 69 75 62 76
REMARK SMILES IDX 64 77 65 78 66 79 67 80 44 81 45 82 53 83 46 84 48 85 54 86
REMARK SMILES IDX 47 87 49 88 50 89 51 90 52 91
REMARK H PARENT 11 6 15 25 74 44 42 55
REMARK Flexibility Score: inf
ROOT
ATOM      1  C   UNL A   1      36.913  20.610  25.294  1.00  0.00     0.042 C 
ENDROOT
BRANCH   1   2
ATOM      2  C   UNL A   1      36.133  21.857  25.723  1.00  0.00     0.118 C 
BRANCH   2   3
ATOM      3  N   UNL A   1      35.603  22.593  24.592  1.00  0.00    -0.352 N 
ATOM      4  C   UNL A   1      34.402  22.517  23.922  1.00  0.00     0.255 C 
ATOM      5  O   UNL A   1      34.174  23.401  23.114  1.00  0.00    -0.269 OA
ATOM      6  H   UNL A   1      36.218  23.276  24.236  1.00  0.00     0.163 HD
BRANCH   4   7
ATOM      7  C   UNL A   1      33.435  21.474  24.242  1.00  0.00     0.085 A 
ATOM      8  N   UNL A   1      32.458  19.521  24.523  1.00  0.00    -0.271 N 
ATOM      9  C   UNL A   1      33.350  20.190  23.742  1.00  0.00     0.123 A 
ATOM     10  N   UNL A   1      31.776  20.326  25.351  1.00  0.00    -0.172 NA
ATOM     11  C   UNL A   1      32.313  21.538  25.122  1.00  0.00     0.108 A 
BRANCH   8  12
ATOM     12  C   UNL A   1      32.236  18.086  24.538  1.00  0.00     0.144 C 
BRANCH  12  13
ATOM     13  C   UNL A   1      33.260  17.286  25.365  1.00  0.00     0.027 C 
BRANCH  13  14
ATOM     14  C   UNL A   1      34.024  16.193  24.587  1.00  0.00    -0.016 C 
ATOM     15  C   UNL A   1      34.297  16.607  23.143  1.00  0.00     0.007 C 
ATOM     16  C   UNL A   1      35.342  15.867  25.295  1.00  0.00     0.007 C 
ENDBRANCH  13  14
ENDBRANCH  12  13
ENDBRANCH   8  12
BRANCH  11  17
ATOM     17  C   UNL A   1      31.774  22.747  25.733  1.00  0.00     0.041 A 
ATOM     18  C   UNL A   1      31.027  23.754  25.072  1.00  0.00     0.052 A 
ATOM     19  C   UNL A   1      31.908  23.162  27.040  1.00  0.00     0.205 A 
ATOM     20  C   UNL A   1      30.728  24.694  26.032  1.00  0.00     0.195 A 
ATOM     21  O   UNL A   1      31.277  24.351  27.226  1.00  0.00    -0.472 OA
ENDBRANCH  11  17
ENDBRANCH   4   7
ENDBRANCH   2   3
ENDBRANCH   1   2
BRANCH   1  22
ATOM     22  C   UNL A   1      38.400  20.891  25.135  1.00  0.00     0.118 C 
BRANCH  22  23
ATOM     23  N   UNL A   1      39.212  19.701  25.405  1.00  0.00    -0.352 N 
ATOM     24  C   UNL A   1      40.505  19.626  25.875  1.00  0.00     0.251 C 
ATOM     25  H   UNL A   1      38.773  18.837  25.228  1.00  0.00     0.163 HD
ATOM     26  O   UNL A   1      41.152  18.592  25.747  1.00  0.00    -0.269 OA
BRANCH  24  27
ATOM     27  C   UNL A   1      41.102  20.809  26.514  1.00  0.00     0.039 A 
ATOM     28  C   UNL A   1      41.736  21.793  25.749  1.00  0.00     0.014 A 
ATOM     29  C   UNL A   1      40.981  20.945  27.894  1.00  0.00     0.014 A 
ATOM     30  C   UNL A   1      42.163  22.961  26.374  1.00  0.00     0.010 A 
ATOM     31  C   UNL A   1      41.259  22.154  28.478  1.00  0.00     0.010 A 
ATOM     32  C   UNL A   1      41.898  23.146  27.739  1.00  0.00    -0.014 A 
BRANCH  32  33
ATOM     33  C   UNL A   1      42.154  24.435  28.381  1.00  0.00     0.031 A 
ATOM     34  C   UNL A   1      41.060  25.433  28.216  1.00  0.00     0.074 A 
ATOM     35  C   UNL A   1      43.162  24.611  29.264  1.00  0.00     0.049 A 
ATOM     36  N   UNL A   1      41.102  26.565  27.593  1.00  0.00    -0.248 NA
ATOM     37  C   UNL A   1      39.710  25.058  28.671  1.00  0.00     0.031 C 
ATOM     38  C   UNL A   1      44.098  23.591  29.763  1.00  0.00     0.029 A 
ATOM     39  N   UNL A   1      43.457  25.690  30.041  1.00  0.00    -0.354 N 
ATOM     40  C   UNL A   1      39.855  27.155  27.806  1.00  0.00     0.074 A 
ATOM     41  C   UNL A   1      38.988  26.101  28.258  1.00  0.00     0.031 C 
ATOM     42  C   UNL A   1      44.641  24.010  30.925  1.00  0.00     0.029 A 
ATOM     43  C   UNL A   1      44.245  25.385  31.149  1.00  0.00     0.049 A 
ATOM     44  H   UNL A   1      43.144  26.601  29.837  1.00  0.00     0.167 HD
ATOM     45  C   UNL A   1      39.718  28.509  27.879  1.00  0.00     0.034 A 
ATOM     46  C   UNL A   1      44.517  26.189  32.204  1.00  0.00     0.034 A 
ATOM     47  C   UNL A   1      40.892  29.175  27.372  1.00  0.00     0.049 A 
ATOM     48  C   UNL A   1      44.237  27.574  31.777  1.00  0.00     0.074 A 
ATOM     49  C   UNL A   1      41.571  29.214  26.173  1.00  0.00     0.029 A 
ATOM     50  N   UNL A   1      41.753  29.666  28.323  1.00  0.00    -0.354 N 
ATOM     51  N   UNL A   1      44.928  28.205  30.871  1.00  0.00    -0.248 NA
ATOM     52  C   UNL A   1      42.940  28.147  32.090  1.00  0.00     0.031 C 
ATOM     53  C   UNL A   1      42.947  29.334  26.530  1.00  0.00     0.029 A 
ATOM     54  C   UNL A   1      43.034  29.421  27.921  1.00  0.00     0.049 A 
ATOM     55  H   UNL A   1      41.489  30.120  29.155  1.00  0.00     0.167 HD
ATOM     56  C   UNL A   1      43.982  28.948  30.180  1.00  0.00     0.074 A 
ATOM     57  C   UNL A   1      42.824  28.998  31.067  1.00  0.00     0.031 C 
ATOM     58  C   UNL A   1      44.125  29.182  28.842  1.00  0.00     0.034 A 
BRANCH  45  59
ATOM     59  C   UNL A   1      38.748  29.251  28.790  1.00  0.00     0.023 A 
ATOM     60  C   UNL A   1      38.082  30.371  28.234  1.00  0.00     0.012 A 
ATOM     61  C   UNL A   1      38.682  29.113  30.196  1.00  0.00     0.148 A 
ATOM     62  C   UNL A   1      37.464  31.339  29.035  1.00  0.00     0.002 A 
ATOM     63  C   UNL A   1      37.998  30.036  30.982  1.00  0.00     0.091 A 
ATOM     64  F   UNL A   1      39.384  28.165  30.816  1.00  0.00    -0.205 F 
ATOM     65  C   UNL A   1      37.421  31.171  30.412  1.00  0.00     0.022 A 
BRANCH  63  66
ATOM     66  S   UNL A   1      37.866  29.837  32.764  1.00  0.00     0.127 S 
ATOM     67  O   UNL A   1      37.278  28.505  32.865  1.00  0.00    -0.237 OA
ATOM     68  O   UNL A   1      39.266  29.932  33.179  1.00  0.00    -0.237 OA
ATOM     69  O   UNL A   1      37.035  30.944  33.221  1.00  0.00    -0.744 OA
ENDBRANCH  63  66
ENDBRANCH  45  59
BRANCH  46  70
ATOM     70  C   UNL A   1      44.817  25.862  33.615  1.00  0.00     0.023 A 
ATOM     71  C   UNL A   1      46.159  25.736  34.026  1.00  0.00     0.012 A 
ATOM     72  C   UNL A   1      43.819  25.963  34.609  1.00  0.00     0.148 A 
ATOM     73  C   UNL A   1      46.504  25.758  35.382  1.00  0.00     0.002 A 
ATOM     74  C   UNL A   1      44.167  25.985  35.957  1.00  0.00     0.091 A 
ATOM     75  F   UNL A   1      42.546  26.133  34.226  1.00  0.00    -0.205 F 
ATOM     76  C   UNL A   1      45.510  25.896  36.346  1.00  0.00     0.022 A 
BRANCH  74  77
ATOM     77  S   UNL A   1      42.949  26.196  37.262  1.00  0.00     0.127 S 
ATOM     78  O   UNL A   1      42.370  27.496  36.925  1.00  0.00    -0.237 OA
ATOM     79  O   UNL A   1      42.067  25.055  37.036  1.00  0.00    -0.237 OA
ATOM     80  O   UNL A   1      43.703  26.178  38.509  1.00  0.00    -0.744 OA
ENDBRANCH  74  77
ENDBRANCH  46  70
BRANCH  58  81
ATOM     81  C   UNL A   1      45.478  28.939  28.225  1.00  0.00     0.023 A 
ATOM     82  C   UNL A   1      46.532  29.874  28.296  1.00  0.00     0.012 A 
ATOM     83  C   UNL A   1      45.735  27.664  27.696  1.00  0.00     0.148 A 
ATOM     84  C   UNL A   1      47.807  29.549  27.826  1.00  0.00     0.002 A 
ATOM     85  C   UNL A   1      47.015  27.328  27.278  1.00  0.00     0.091 A 
ATOM     86  F   UNL A   1      44.721  26.787  27.634  1.00  0.00    -0.205 F 
ATOM     87  C   UNL A   1      48.053  28.271  27.330  1.00  0.00     0.022 A 
BRANCH  85  88
ATOM     88  S   UNL A   1      47.413  25.657  26.758  1.00  0.00     0.127 S 
ATOM     89  O   UNL A   1      46.993  24.868  27.913  1.00  0.00    -0.237 OA
ATOM     90  O   UNL A   1      46.578  25.490  25.567  1.00  0.00    -0.237 OA
ATOM     91  O   UNL A   1      48.843  25.659  26.480  1.00  0.00    -0.744 OA
ENDBRANCH  85  88
ENDBRANCH  58  81
ENDBRANCH  32  33
ENDBRANCH  24  27
ENDBRANCH  22  23
ENDBRANCH   1  22
TORSDOF 17
ENDMDL
MODEL 2
REMARK VINA RESULT:     -11.7      1.187      2.949
REMARK SMILES CC(C)CCn1cc(C(=O)NCCCNC(=O)c2ccc(-c3c4nc(c(-c5cccc(S(=O)(=O)[O-])c5F)c5ccc([nH]5)c(-c5cccc(S(=O)(=O)[O-])c5F)c5nc(c(-c6cccc(S(=O)(=O)[O-])c6F)c6ccc3[nH]6)C=C5)C=C4)cc2)c(-c2ccoc2)n1
REMARK SMILES IDX 13 1 12 2 11 3 9 4 10 5 8 7 6 8 7 9 87 10 81 11 5 12 4 13
REMARK SMILES IDX 2 14 1 15 3 16 82 17 83 18 86 19 84 20 85 21 14 22 15 23
REMARK SMILES IDX 16 24 17 26 18 27 19 28 80 29 20 30 79 31 21 32 22 33 23 34
REMARK SMILES IDX 73 35 24 36 78 37 72 38 74 39 25 40 77 41 71 42 70 43 26 45
REMARK SMILES IDX 58 46 38 47 57 48 39 49 42 50 56 51 75 52 40 53 41 54 55 56
REMARK SMILES IDX 76 57 43 58 27 59 28 60 36 61 29 62 31 63 37 64 30 65 32 66
REMARK SMILES IDX 33 67 34 68 35 69 59 70 60 71 68 72 61 73 63 74 69 75 62 76
REMARK SMILES IDX 64 77 65 78 66 79 67 80 44 81 45 82 53 83 46 84 48 85 54 86
REMARK SMILES IDX 47 87 49 88 50 89 51 90 52 91
REMARK H PARENT 11 6 15 25 74 44 42 55
REMARK Flexibility Score: inf
ROOT
ATOM      1  C   UNL A   1      37.545  19.802  24.792  1.00  0.00     0.042 C 
ENDROOT
BRANCH   1   2
ATOM      2  C   UNL A   1      36.449  20.872  24.729  1.00  0.00     0.118 C 
BRANCH   2   3
ATOM      3  N   UNL A   1      35.883  21.160  26.033  1.00  0.00    -0.352 N 
ATOM      4  C   UNL A   1      34.600  21.455  26.437  1.00  0.00     0.255 C 
ATOM      5  O   UNL A   1      34.400  21.472  27.640  1.00  0.00    -0.269 OA
ATOM      6  H   UNL A   1      36.540  21.140  26.767  1.00  0.00     0.163 HD
BRANCH   4   7
ATOM      7  C   UNL A   1      33.536  21.648  25.460  1.00  0.00     0.085 A 
ATOM      8  N   UNL A   1      32.151  22.547  24.003  1.00  0.00    -0.271 N 
ATOM      9  C   UNL A   1      32.855  22.805  25.139  1.00  0.00     0.123 A 
ATOM     10  N   UNL A   1      32.130  21.245  23.682  1.00  0.00    -0.172 NA
ATOM     11  C   UNL A   1      32.909  20.679  24.621  1.00  0.00     0.108 A 
BRANCH   8  12
ATOM     12  C   UNL A   1      31.492  23.528  23.159  1.00  0.00     0.144 C 
BRANCH  12  13
ATOM     13  C   UNL A   1      31.577  24.978  23.673  1.00  0.00     0.027 C 
BRANCH  13  14
ATOM     14  C   UNL A   1      30.451  25.398  24.641  1.00  0.00    -0.016 C 
ATOM     15  C   UNL A   1      30.990  26.180  25.838  1.00  0.00     0.007 C 
ATOM     16  C   UNL A   1      29.403  26.234  23.900  1.00  0.00     0.007 C 
ENDBRANCH  13  14
ENDBRANCH  12  13
ENDBRANCH   8  12
BRANCH  11  17
ATOM     17  C   UNL A   1      33.065  19.232  24.722  1.00  0.00     0.041 A 
ATOM     18  C   UNL A   1      32.533  18.405  25.742  1.00  0.00     0.052 A 
ATOM     19  C   UNL A   1      33.775  18.401  23.883  1.00  0.00     0.205 A 
ATOM     20  C   UNL A   1      32.925  17.123  25.433  1.00  0.00     0.195 A 
ATOM     21  O   UNL A   1      33.696  17.114  24.315  1.00  0.00    -0.472 OA
ENDBRANCH  11  17
ENDBRANCH   4   7
ENDBRANCH   2   3
ENDBRANCH   1   2
BRANCH   1  22
ATOM     22  C   UNL A   1      38.722  20.238  25.651  1.00  0.00     0.118 C 
BRANCH  22  23
ATOM     23  N   UNL A   1      39.743  19.192  25.748  1.00  0.00    -0.352 N 
ATOM     24  C   UNL A   1      41.089  19.320  26.016  1.00  0.00     0.251 C 
ATOM     25  H   UNL A   1      39.425  18.271  25.604  1.00  0.00     0.163 HD
ATOM     26  O   UNL A   1      41.863  18.407  25.752  1.00  0.00    -0.269 OA
BRANCH  24  27
ATOM     27  C   UNL A   1      41.583  20.574  26.607  1.00  0.00     0.039 A 
ATOM     28  C   UNL A   1      42.102  21.590  25.798  1.00  0.00     0.014 A 
ATOM     29  C   UNL A   1      41.478  20.741  27.984  1.00  0.00     0.014 A 
ATOM     30  C   UNL A   1      42.429  22.812  26.379  1.00  0.00     0.010 A 
ATOM     31  C   UNL A   1      41.652  21.989  28.526  1.00  0.00     0.010 A 
ATOM     32  C   UNL A   1      42.176  23.014  27.743  1.00  0.00    -0.014 A 
BRANCH  32  33
ATOM     33  C   UNL A   1      42.321  24.340  28.341  1.00  0.00     0.031 A 
ATOM     34  C   UNL A   1      41.161  25.248  28.113  1.00  0.00     0.074 A 
ATOM     35  C   UNL A   1      43.291  24.623  29.240  1.00  0.00     0.049 A 
ATOM     36  N   UNL A   1      41.136  26.357  27.448  1.00  0.00    -0.248 NA
ATOM     37  C   UNL A   1      39.831  24.791  28.552  1.00  0.00     0.031 C 
ATOM     38  C   UNL A   1      44.286  23.694  29.798  1.00  0.00     0.029 A 
ATOM     39  N   UNL A   1      43.486  25.749  29.981  1.00  0.00    -0.354 N 
ATOM     40  C   UNL A   1      39.844  26.860  27.611  1.00  0.00     0.074 A 
ATOM     41  C   UNL A   1      39.045  25.762  28.083  1.00  0.00     0.031 C 
ATOM     42  C   UNL A   1      44.767  24.195  30.955  1.00  0.00     0.029 A 
ATOM     43  C   UNL A   1      44.266  25.544  31.118  1.00  0.00     0.049 A 
ATOM     44  H   UNL A   1      43.113  26.626  29.735  1.00  0.00     0.167 HD
ATOM     45  C   UNL A   1      39.606  28.201  27.629  1.00  0.00     0.034 A 
ATOM     46  C   UNL A   1      44.452  26.404  32.146  1.00  0.00     0.034 A 
ATOM     47  C   UNL A   1      40.741  28.934  27.124  1.00  0.00     0.049 A 
ATOM     48  C   UNL A   1      44.082  27.747  31.660  1.00  0.00     0.074 A 
ATOM     49  C   UNL A   1      41.445  28.980  25.939  1.00  0.00     0.029 A 
ATOM     50  N   UNL A   1      41.539  29.522  28.074  1.00  0.00    -0.354 N 
ATOM     51  N   UNL A   1      44.748  28.394  30.747  1.00  0.00    -0.248 NA
ATOM     52  C   UNL A   1      42.738  28.234  31.922  1.00  0.00     0.031 C 
ATOM     53  C   UNL A   1      42.799  29.214  26.322  1.00  0.00     0.029 A 
ATOM     54  C   UNL A   1      42.844  29.358  27.711  1.00  0.00     0.049 A 
ATOM     55  H   UNL A   1      41.221  29.985  28.882  1.00  0.00     0.167 HD
ATOM     56  C   UNL A   1      43.767  29.039  30.007  1.00  0.00     0.074 A 
ATOM     57  C   UNL A   1      42.587  29.035  30.865  1.00  0.00     0.031 C 
ATOM     58  C   UNL A   1      43.926  29.235  28.665  1.00  0.00     0.034 A 
BRANCH  45  59
ATOM     59  C   UNL A   1      38.562  28.903  28.489  1.00  0.00     0.023 A 
ATOM     60  C   UNL A   1      37.733  29.849  27.839  1.00  0.00     0.012 A 
ATOM     61  C   UNL A   1      38.547  28.918  29.903  1.00  0.00     0.148 A 
ATOM     62  C   UNL A   1      37.002  30.808  28.551  1.00  0.00     0.002 A 
ATOM     63  C   UNL A   1      37.757  29.822  30.608  1.00  0.00     0.091 A 
ATOM     64  F   UNL A   1      39.390  28.153  30.597  1.00  0.00    -0.205 F 
ATOM     65  C   UNL A   1      37.014  30.794  29.939  1.00  0.00     0.022 A 
BRANCH  63  66
ATOM     66  S   UNL A   1      37.694  29.812  32.405  1.00  0.00     0.127 S 
ATOM     67  O   UNL A   1      39.026  30.302  32.745  1.00  0.00    -0.237 OA
ATOM     68  O   UNL A   1      36.600  30.747  32.670  1.00  0.00    -0.237 OA
ATOM     69  O   UNL A   1      37.401  28.433  32.778  1.00  0.00    -0.744 OA
ENDBRANCH  63  66
ENDBRANCH  45  59
BRANCH  46  70
ATOM     70  C   UNL A   1      44.739  26.152  33.575  1.00  0.00     0.023 A 
ATOM     71  C   UNL A   1      46.067  26.234  34.039  1.00  0.00     0.012 A 
ATOM     72  C   UNL A   1      43.698  26.123  34.528  1.00  0.00     0.148 A 
ATOM     73  C   UNL A   1      46.350  26.332  35.406  1.00  0.00     0.002 A 
ATOM     74  C   UNL A   1      43.983  26.220  35.888  1.00  0.00     0.091 A 
ATOM     75  F   UNL A   1      42.430  26.094  34.095  1.00  0.00    -0.205 F 
ATOM     76  C   UNL A   1      45.308  26.339  36.329  1.00  0.00     0.022 A 
BRANCH  74  77
ATOM     77  S   UNL A   1      42.696  26.274  37.141  1.00  0.00     0.127 S 
ATOM     78  O   UNL A   1      41.990  27.507  36.794  1.00  0.00    -0.237 OA
ATOM     79  O   UNL A   1      41.956  25.045  36.863  1.00  0.00    -0.237 OA
ATOM     80  O   UNL A   1      43.394  26.318  38.419  1.00  0.00    -0.744 OA
ENDBRANCH  74  77
ENDBRANCH  46  70
BRANCH  58  81
ATOM     81  C   UNL A   1      45.308  29.070  28.088  1.00  0.00     0.023 A 
ATOM     82  C   UNL A   1      46.298  30.072  28.170  1.00  0.00     0.012 A 
ATOM     83  C   UNL A   1      45.662  27.806  27.589  1.00  0.00     0.148 A 
ATOM     84  C   UNL A   1      47.603  29.824  27.739  1.00  0.00     0.002 A 
ATOM     85  C   UNL A   1      46.972  27.547  27.211  1.00  0.00     0.091 A 
ATOM     86  F   UNL A   1      44.709  26.864  27.516  1.00  0.00    -0.205 F 
ATOM     87  C   UNL A   1      47.946  28.556  27.274  1.00  0.00     0.022 A 
BRANCH  85  88
ATOM     88  S   UNL A   1      47.491  25.898  26.731  1.00  0.00     0.127 S 
ATOM     89  O   UNL A   1      47.087  25.101  27.887  1.00  0.00    -0.237 OA
ATOM     90  O   UNL A   1      46.707  25.660  25.518  1.00  0.00    -0.237 OA
ATOM     91  O   UNL A   1      48.927  25.987  26.497  1.00  0.00    -0.744 OA
ENDBRANCH  85  88
ENDBRANCH  58  81
ENDBRANCH  32  33
ENDBRANCH  24  27
ENDBRANCH  22  23
ENDBRANCH   1  22
TORSDOF 17
ENDMDL
MODEL 3
REMARK VINA RESULT:     -11.3      3.859      8.636
REMARK SMILES CC(C)CCn1cc(C(=O)NCCCNC(=O)c2ccc(-c3c4nc(c(-c5cccc(S(=O)(=O)[O-])c5F)c5ccc([nH]5)c(-c5cccc(S(=O)(=O)[O-])c5F)c5nc(c(-c6cccc(S(=O)(=O)[O-])c6F)c6ccc3[nH]6)C=C5)C=C4)cc2)c(-c2ccoc2)n1
REMARK SMILES IDX 13 1 12 2 11 3 9 4 10 5 8 7 6 8 7 9 87 10 81 11 5 12 4 13
REMARK SMILES IDX 2 14 1 15 3 16 82 17 83 18 86 19 84 20 85 21 14 22 15 23
REMARK SMILES IDX 16 24 17 26 18 27 19 28 80 29 20 30 79 31 21 32 22 33 23 34
REMARK SMILES IDX 73 35 24 36 78 37 72 38 74 39 25 40 77 41 71 42 70 43 26 45
REMARK SMILES IDX 58 46 38 47 57 48 39 49 42 50 56 51 75 52 40 53 41 54 55 56
REMARK SMILES IDX 76 57 43 58 27 59 28 60 36 61 29 62 31 63 37 64 30 65 32 66
REMARK SMILES IDX 33 67 34 68 35 69 59 70 60 71 68 72 61 73 63 74 69 75 62 76
REMARK SMILES IDX 64 77 65 78 66 79 67 80 44 81 45 82 53 83 46 84 48 85 54 86
REMARK SMILES IDX 47 87 49 88 50 89 51 90 52 91
REMARK H PARENT 11 6 15 25 74 44 42 55
REMARK Flexibility Score: inf
ROOT
ATOM      1  C   UNL A   1      33.623  30.357  26.840  1.00  0.00     0.042 C 
ENDROOT
BRANCH   1   2
ATOM      2  C   UNL A   1      33.301  29.028  26.149  1.00  0.00     0.118 C 
BRANCH   2   3
ATOM      3  N   UNL A   1      34.030  28.862  24.906  1.00  0.00    -0.352 N 
ATOM      4  C   UNL A   1      33.609  28.697  23.604  1.00  0.00     0.255 C 
ATOM      5  O   UNL A   1      34.469  28.765  22.743  1.00  0.00    -0.269 OA
ATOM      6  H   UNL A   1      35.009  28.869  25.012  1.00  0.00     0.163 HD
BRANCH   4   7
ATOM      7  C   UNL A   1      32.194  28.536  23.293  1.00  0.00     0.085 A 
ATOM      8  N   UNL A   1      30.070  28.937  22.874  1.00  0.00    -0.271 N 
ATOM      9  C   UNL A   1      31.141  29.380  23.587  1.00  0.00     0.123 A 
ATOM     10  N   UNL A   1      30.269  27.733  22.317  1.00  0.00    -0.172 NA
ATOM     11  C   UNL A   1      31.543  27.446  22.642  1.00  0.00     0.108 A 
BRANCH   8  12
ATOM     12  C   UNL A   1      28.821  29.650  22.668  1.00  0.00     0.144 C 
BRANCH  12  13
ATOM     13  C   UNL A   1      28.659  30.920  23.524  1.00  0.00     0.027 C 
BRANCH  13  14
ATOM     14  C   UNL A   1      28.164  32.167  22.761  1.00  0.00    -0.016 C 
ATOM     15  C   UNL A   1      29.021  33.396  23.060  1.00  0.00     0.007 C 
ATOM     16  C   UNL A   1      28.153  31.893  21.254  1.00  0.00     0.007 C 
ENDBRANCH  13  14
ENDBRANCH  12  13
ENDBRANCH   8  12
BRANCH  11  17
ATOM     17  C   UNL A   1      32.142  26.152  22.336  1.00  0.00     0.041 A 
ATOM     18  C   UNL A   1      32.179  25.026  23.194  1.00  0.00     0.052 A 
ATOM     19  C   UNL A   1      32.809  25.783  21.188  1.00  0.00     0.205 A 
ATOM     20  C   UNL A   1      32.834  24.038  22.494  1.00  0.00     0.195 A 
ATOM     21  O   UNL A   1      33.237  24.497  21.282  1.00  0.00    -0.472 OA
ENDBRANCH  11  17
ENDBRANCH   4   7
ENDBRANCH   2   3
ENDBRANCH   1   2
BRANCH   1  22
ATOM     22  C   UNL A   1      34.896  30.279  27.668  1.00  0.00     0.118 C 
BRANCH  22  23
ATOM     23  N   UNL A   1      34.862  31.197  28.810  1.00  0.00    -0.352 N 
ATOM     24  C   UNL A   1      35.733  31.284  29.874  1.00  0.00     0.251 C 
ATOM     25  H   UNL A   1      34.116  31.839  28.817  1.00  0.00     0.163 HD
ATOM     26  O   UNL A   1      35.403  31.873  30.898  1.00  0.00    -0.269 OA
BRANCH  24  27
ATOM     27  C   UNL A   1      37.055  30.647  29.770  1.00  0.00     0.039 A 
ATOM     28  C   UNL A   1      38.207  31.416  29.582  1.00  0.00     0.014 A 
ATOM     29  C   UNL A   1      37.133  29.265  29.908  1.00  0.00     0.014 A 
ATOM     30  C   UNL A   1      39.450  30.790  29.628  1.00  0.00     0.010 A 
ATOM     31  C   UNL A   1      38.356  28.676  30.109  1.00  0.00     0.010 A 
ATOM     32  C   UNL A   1      39.518  29.419  29.918  1.00  0.00    -0.014 A 
BRANCH  32  33
ATOM     33  C   UNL A   1      40.805  28.773  30.169  1.00  0.00     0.031 A 
ATOM     34  C   UNL A   1      41.198  28.720  31.606  1.00  0.00     0.074 A 
ATOM     35  C   UNL A   1      41.446  28.054  29.220  1.00  0.00     0.049 A 
ATOM     36  N   UNL A   1      42.206  29.294  32.177  1.00  0.00    -0.248 NA
ATOM     37  C   UNL A   1      40.272  28.072  32.551  1.00  0.00     0.031 C 
ATOM     38  C   UNL A   1      40.975  27.753  27.860  1.00  0.00     0.029 A 
ATOM     39  N   UNL A   1      42.569  27.290  29.321  1.00  0.00    -0.354 N 
ATOM     40  C   UNL A   1      42.179  28.860  33.504  1.00  0.00     0.074 A 
ATOM     41  C   UNL A   1      40.864  28.321  33.720  1.00  0.00     0.031 C 
ATOM     42  C   UNL A   1      41.633  26.676  27.384  1.00  0.00     0.029 A 
ATOM     43  C   UNL A   1      42.690  26.334  28.314  1.00  0.00     0.049 A 
ATOM     44  H   UNL A   1      43.234  27.403  30.038  1.00  0.00     0.167 HD
ATOM     45  C   UNL A   1      43.328  28.710  34.221  1.00  0.00     0.034 A 
ATOM     46  C   UNL A   1      43.566  25.304  28.267  1.00  0.00     0.034 A 
ATOM     47  C   UNL A   1      44.433  29.368  33.570  1.00  0.00     0.049 A 
ATOM     48  C   UNL A   1      44.661  25.623  29.203  1.00  0.00     0.074 A 
ATOM     49  C   UNL A   1      44.732  30.658  33.184  1.00  0.00     0.029 A 
ATOM     50  N   UNL A   1      45.291  28.547  32.881  1.00  0.00    -0.354 N 
ATOM     51  N   UNL A   1      45.504  26.599  29.025  1.00  0.00    -0.248 NA
ATOM     52  C   UNL A   1      44.600  25.083  30.551  1.00  0.00     0.031 C 
ATOM     53  C   UNL A   1      45.470  30.520  31.971  1.00  0.00     0.029 A 
ATOM     54  C   UNL A   1      45.635  29.157  31.710  1.00  0.00     0.049 A 
ATOM     55  H   UNL A   1      45.607  27.665  33.184  1.00  0.00     0.167 HD
ATOM     56  C   UNL A   1      45.717  27.099  30.301  1.00  0.00     0.074 A 
ATOM     57  C   UNL A   1      45.272  26.038  31.199  1.00  0.00     0.031 C 
ATOM     58  C   UNL A   1      45.945  28.432  30.496  1.00  0.00     0.034 A 
BRANCH  45  59
ATOM     59  C   UNL A   1      43.586  27.626  35.260  1.00  0.00     0.023 A 
ATOM     60  C   UNL A   1      43.970  28.061  36.552  1.00  0.00     0.012 A 
ATOM     61  C   UNL A   1      43.767  26.253  34.978  1.00  0.00     0.148 A 
ATOM     62  C   UNL A   1      44.578  27.200  37.474  1.00  0.00     0.002 A 
ATOM     63  C   UNL A   1      44.299  25.384  35.926  1.00  0.00     0.091 A 
ATOM     64  F   UNL A   1      43.555  25.780  33.750  1.00  0.00    -0.205 F 
ATOM     65  C   UNL A   1      44.743  25.858  37.161  1.00  0.00     0.022 A 
BRANCH  63  66
ATOM     66  S   UNL A   1      44.485  23.626  35.591  1.00  0.00     0.127 S 
ATOM     67  O   UNL A   1      45.459  23.639  34.505  1.00  0.00    -0.237 OA
ATOM     68  O   UNL A   1      44.988  23.130  36.873  1.00  0.00    -0.237 OA
ATOM     69  O   UNL A   1      43.149  23.150  35.254  1.00  0.00    -0.744 OA
ENDBRANCH  63  66
ENDBRANCH  45  59
BRANCH  46  70
ATOM     70  C   UNL A   1      43.458  23.973  27.629  1.00  0.00     0.023 A 
ATOM     71  C   UNL A   1      42.278  23.221  27.795  1.00  0.00     0.012 A 
ATOM     72  C   UNL A   1      44.373  23.571  26.633  1.00  0.00     0.148 A 
ATOM     73  C   UNL A   1      41.994  22.131  26.964  1.00  0.00     0.002 A 
ATOM     74  C   UNL A   1      44.087  22.487  25.808  1.00  0.00     0.091 A 
ATOM     75  F   UNL A   1      45.474  24.310  26.436  1.00  0.00    -0.205 F 
ATOM     76  C   UNL A   1      42.891  21.773  25.962  1.00  0.00     0.022 A 
BRANCH  74  77
ATOM     77  S   UNL A   1      45.174  21.982  24.468  1.00  0.00     0.127 S 
ATOM     78  O   UNL A   1      46.410  21.670  25.185  1.00  0.00    -0.237 OA
ATOM     79  O   UNL A   1      44.468  20.822  23.931  1.00  0.00    -0.237 OA
ATOM     80  O   UNL A   1      45.265  23.134  23.581  1.00  0.00    -0.744 OA
ENDBRANCH  74  77
ENDBRANCH  46  70
BRANCH  58  81
ATOM     81  C   UNL A   1      46.315  29.265  29.297  1.00  0.00     0.023 A 
ATOM     82  C   UNL A   1      47.582  29.202  28.680  1.00  0.00     0.012 A 
ATOM     83  C   UNL A   1      45.299  30.017  28.684  1.00  0.00     0.148 A 
ATOM     84  C   UNL A   1      47.834  29.893  27.493  1.00  0.00     0.002 A 
ATOM     85  C   UNL A   1      45.538  30.660  27.478  1.00  0.00     0.091 A 
ATOM     86  F   UNL A   1      44.100  30.069  29.284  1.00  0.00    -0.205 F 
ATOM     87  C   UNL A   1      46.808  30.611  26.882  1.00  0.00     0.022 A 
BRANCH  85  88
ATOM     88  S   UNL A   1      44.216  31.484  26.587  1.00  0.00     0.127 S 
ATOM     89  O   UNL A   1      43.281  30.389  26.344  1.00  0.00    -0.237 OA
ATOM     90  O   UNL A   1      43.755  32.480  27.557  1.00  0.00    -0.237 OA
ATOM     91  O   UNL A   1      44.837  32.060  25.401  1.00  0.00    -0.744 OA
ENDBRANCH  85  88
ENDBRANCH  58  81
ENDBRANCH  32  33
ENDBRANCH  24  27
ENDBRANCH  22  23
ENDBRANCH   1  22
TORSDOF 17
ENDMDL
