MODEL 1
REMARK VINA RESULT:     -11.0      0.000      0.000
REMARK SMILES [NH3+]CCOCC(=O)Nc1ccc(C(=O)NCCCNC(=O)c2ccc(-c3c4nc(c(-c5cccc(S(=O)(=O)[O-])c5F)c5ccc([nH]5)c(-c5cccc(S(=O)(=O)[O-])c5F)c5nc(c(-c6cccc(S(=O)(=O)[O-])c6F)c6ccc3[nH]6)C=C5)C=C4)cc2)c(Cl)c1
REMARK SMILES IDX 13 1 14 2 15 3 12 5 9 6 10 7 87 8 11 9 85 10 86 11 8 12 6 13
REMARK SMILES IDX 7 14 5 16 4 17 3 18 2 19 1 20 16 24 17 25 18 26 19 27 20 28
REMARK SMILES IDX 21 30 22 31 23 32 84 33 24 34 83 35 25 36 26 37 27 38 77 39
REMARK SMILES IDX 28 40 82 41 76 42 78 43 29 44 81 45 75 46 74 47 30 49 62 50
REMARK SMILES IDX 42 51 61 52 43 53 46 54 60 55 79 56 44 57 45 58 59 60 80 61
REMARK SMILES IDX 47 62 31 63 32 64 40 65 33 66 35 67 41 68 34 69 36 70 37 71
REMARK SMILES IDX 38 72 39 73 63 74 64 75 72 76 65 77 67 78 73 79 66 80 68 81
REMARK SMILES IDX 69 82 70 83 71 84 48 85 49 86 57 87 50 88 52 89 58 90 51 91
REMARK SMILES IDX 53 92 54 93 55 94 56 95
REMARK H PARENT 15 4 8 15 1 21 1 22 1 23 19 29 78 48 46 59
REMARK Flexibility Score: inf
ROOT
ATOM      1  C   UNL A   1      32.474  29.096  24.595  1.00  0.00     0.252 C 
ATOM      2  O   UNL A   1      33.282  29.137  23.661  1.00  0.00    -0.269 OA
ATOM      3  N   UNL A   1      32.199  30.291  25.193  1.00  0.00    -0.352 N 
ATOM      4  H   UNL A   1      32.615  31.058  24.739  1.00  0.00     0.163 HD
ENDROOT
BRANCH   1   5
ATOM      5  C   UNL A   1      31.803  27.795  24.879  1.00  0.00     0.058 A 
ATOM      6  C   UNL A   1      30.675  25.430  25.939  1.00  0.00     0.042 A 
ATOM      7  C   UNL A   1      31.841  25.942  26.485  1.00  0.00     0.027 A 
ATOM      8  C   UNL A   1      30.123  26.028  24.818  1.00  0.00     0.047 A 
ATOM      9  C   UNL A   1      32.410  27.095  25.945  1.00  0.00     0.017 A 
ATOM     10  C   UNL A   1      30.628  27.249  24.342  1.00  0.00     0.055 A 
ATOM     11  Cl  UNL A   1      29.545  28.024  23.257  1.00  0.00    -0.083 Cl
BRANCH   6  12
ATOM     12  N   UNL A   1      29.974  24.373  26.524  1.00  0.00    -0.324 N 
ATOM     13  C   UNL A   1      30.184  23.035  26.302  1.00  0.00     0.250 C 
ATOM     14  O   UNL A   1      29.447  22.210  26.851  1.00  0.00    -0.272 OA
ATOM     15  H   UNL A   1      29.259  24.611  27.157  1.00  0.00     0.170 HD
BRANCH  13  16
ATOM     16  C   UNL A   1      31.368  22.581  25.420  1.00  0.00     0.260 C 
BRANCH  16  17
ATOM     17  O   UNL A   1      32.643  22.399  26.006  1.00  0.00    -0.366 OA
BRANCH  17  18
ATOM     18  C   UNL A   1      33.746  22.886  25.248  1.00  0.00     0.222 C 
BRANCH  18  19
ATOM     19  C   UNL A   1      34.952  21.937  25.210  1.00  0.00     0.287 C 
BRANCH  19  20
ATOM     20  N   UNL A   1      35.598  21.687  26.497  1.00  0.00    -0.356 N 
ATOM     21  H   UNL A   1      36.124  22.514  26.779  1.00  0.00     0.344 HD
ATOM     22  H   UNL A   1      36.232  20.893  26.411  1.00  0.00     0.344 HD
ATOM     23  H   UNL A   1      34.888  21.481  27.199  1.00  0.00     0.344 HD
ENDBRANCH  19  20
ENDBRANCH  18  19
ENDBRANCH  17  18
ENDBRANCH  16  17
ENDBRANCH  13  16
ENDBRANCH   6  12
ENDBRANCH   1   5
BRANCH   3  24
ATOM     24  C   UNL A   1      31.422  30.664  26.353  1.00  0.00     0.118 C 
BRANCH  24  25
ATOM     25  C   UNL A   1      31.454  32.183  26.524  1.00  0.00     0.042 C 
BRANCH  25  26
ATOM     26  C   UNL A   1      32.704  32.693  27.224  1.00  0.00     0.118 C 
BRANCH  26  27
ATOM     27  N   UNL A   1      32.550  34.079  27.634  1.00  0.00    -0.352 N 
ATOM     28  C   UNL A   1      33.103  34.729  28.708  1.00  0.00     0.251 C 
ATOM     29  H   UNL A   1      31.968  34.628  27.061  1.00  0.00     0.163 HD
ATOM     30  O   UNL A   1      32.628  35.803  29.073  1.00  0.00    -0.269 OA
BRANCH  28  31
ATOM     31  C   UNL A   1      34.263  34.148  29.423  1.00  0.00     0.039 A 
ATOM     32  C   UNL A   1      34.041  33.344  30.544  1.00  0.00     0.014 A 
ATOM     33  C   UNL A   1      35.571  34.431  29.017  1.00  0.00     0.014 A 
ATOM     34  C   UNL A   1      35.126  32.794  31.232  1.00  0.00     0.010 A 
ATOM     35  C   UNL A   1      36.644  33.811  29.646  1.00  0.00     0.010 A 
ATOM     36  C   UNL A   1      36.436  33.005  30.775  1.00  0.00    -0.014 A 
BRANCH  36  37
ATOM     37  C   UNL A   1      37.611  32.418  31.467  1.00  0.00     0.031 A 
ATOM     38  C   UNL A   1      38.358  31.272  30.836  1.00  0.00     0.074 A 
ATOM     39  C   UNL A   1      37.941  32.845  32.702  1.00  0.00     0.049 A 
ATOM     40  N   UNL A   1      39.339  30.558  31.322  1.00  0.00    -0.248 NA
ATOM     41  C   UNL A   1      37.920  30.849  29.493  1.00  0.00     0.031 C 
ATOM     42  C   UNL A   1      37.243  33.894  33.448  1.00  0.00     0.029 A 
ATOM     43  N   UNL A   1      38.925  32.425  33.561  1.00  0.00    -0.354 N 
ATOM     44  C   UNL A   1      39.603  29.578  30.372  1.00  0.00     0.074 A 
ATOM     45  C   UNL A   1      38.658  29.767  29.294  1.00  0.00     0.031 C 
ATOM     46  C   UNL A   1      37.818  34.034  34.653  1.00  0.00     0.029 A 
ATOM     47  C   UNL A   1      38.903  33.065  34.779  1.00  0.00     0.049 A 
ATOM     48  H   UNL A   1      39.584  31.732  33.329  1.00  0.00     0.167 HD
ATOM     49  C   UNL A   1      40.564  28.625  30.381  1.00  0.00     0.034 A 
ATOM     50  C   UNL A   1      39.663  32.885  35.876  1.00  0.00     0.034 A 
ATOM     51  C   UNL A   1      41.537  28.480  31.429  1.00  0.00     0.049 A 
ATOM     52  C   UNL A   1      40.760  31.855  35.839  1.00  0.00     0.074 A 
ATOM     53  C   UNL A   1      42.613  27.614  31.490  1.00  0.00     0.029 A 
ATOM     54  N   UNL A   1      41.548  29.218  32.603  1.00  0.00    -0.354 N 
ATOM     55  N   UNL A   1      41.096  31.043  34.865  1.00  0.00    -0.248 NA
ATOM     56  C   UNL A   1      41.606  31.739  37.035  1.00  0.00     0.031 C 
ATOM     57  C   UNL A   1      43.265  27.815  32.711  1.00  0.00     0.029 A 
ATOM     58  C   UNL A   1      42.608  28.824  33.399  1.00  0.00     0.049 A 
ATOM     59  H   UNL A   1      40.897  29.920  32.835  1.00  0.00     0.167 HD
ATOM     60  C   UNL A   1      42.211  30.347  35.315  1.00  0.00     0.074 A 
ATOM     61  C   UNL A   1      42.506  30.847  36.643  1.00  0.00     0.031 C 
ATOM     62  C   UNL A   1      42.920  29.373  34.693  1.00  0.00     0.034 A 
BRANCH  49  63
ATOM     63  C   UNL A   1      40.647  27.698  29.194  1.00  0.00     0.023 A 
ATOM     64  C   UNL A   1      39.779  26.589  29.116  1.00  0.00     0.012 A 
ATOM     65  C   UNL A   1      41.538  27.952  28.134  1.00  0.00     0.148 A 
ATOM     66  C   UNL A   1      39.821  25.728  28.020  1.00  0.00     0.002 A 
ATOM     67  C   UNL A   1      41.544  27.116  27.023  1.00  0.00     0.091 A 
ATOM     68  F   UNL A   1      42.371  28.998  28.234  1.00  0.00    -0.205 F 
ATOM     69  C   UNL A   1      40.695  25.997  26.971  1.00  0.00     0.022 A 
BRANCH  67  70
ATOM     70  S   UNL A   1      42.574  27.421  25.584  1.00  0.00     0.127 S 
ATOM     71  O   UNL A   1      43.915  27.246  26.140  1.00  0.00    -0.237 OA
ATOM     72  O   UNL A   1      42.151  26.358  24.671  1.00  0.00    -0.237 OA
ATOM     73  O   UNL A   1      42.252  28.768  25.138  1.00  0.00    -0.744 OA
ENDBRANCH  67  70
ENDBRANCH  49  63
BRANCH  50  74
ATOM     74  C   UNL A   1      39.457  33.746  37.075  1.00  0.00     0.023 A 
ATOM     75  C   UNL A   1      39.861  35.095  37.033  1.00  0.00     0.012 A 
ATOM     76  C   UNL A   1      38.830  33.253  38.236  1.00  0.00     0.148 A 
ATOM     77  C   UNL A   1      39.675  35.928  38.136  1.00  0.00     0.002 A 
ATOM     78  C   UNL A   1      38.598  34.103  39.311  1.00  0.00     0.091 A 
ATOM     79  F   UNL A   1      38.462  31.965  38.261  1.00  0.00    -0.205 F 
ATOM     80  C   UNL A   1      39.034  35.436  39.269  1.00  0.00     0.022 A 
BRANCH  78  81
ATOM     81  S   UNL A   1      37.661  33.592  40.756  1.00  0.00     0.127 S 
ATOM     82  O   UNL A   1      37.512  34.855  41.479  1.00  0.00    -0.237 OA
ATOM     83  O   UNL A   1      36.428  33.080  40.153  1.00  0.00    -0.237 OA
ATOM     84  O   UNL A   1      38.472  32.579  41.412  1.00  0.00    -0.744 OA
ENDBRANCH  78  81
ENDBRANCH  50  74
BRANCH  62  85
ATOM     85  C   UNL A   1      44.111  28.803  35.416  1.00  0.00     0.023 A 
ATOM     86  C   UNL A   1      45.368  29.425  35.296  1.00  0.00     0.012 A 
ATOM     87  C   UNL A   1      43.960  27.705  36.287  1.00  0.00     0.148 A 
ATOM     88  C   UNL A   1      46.465  28.946  36.011  1.00  0.00     0.002 A 
ATOM     89  C   UNL A   1      45.046  27.265  37.033  1.00  0.00     0.091 A 
ATOM     90  F   UNL A   1      42.757  27.117  36.373  1.00  0.00    -0.205 F 
ATOM     91  C   UNL A   1      46.302  27.877  36.888  1.00  0.00     0.022 A 
BRANCH  89  92
ATOM     92  S   UNL A   1      44.905  25.961  38.260  1.00  0.00     0.127 S 
ATOM     93  O   UNL A   1      44.021  26.576  39.249  1.00  0.00    -0.237 OA
ATOM     94  O   UNL A   1      44.299  24.875  37.491  1.00  0.00    -0.237 OA
ATOM     95  O   UNL A   1      46.262  25.691  38.719  1.00  0.00    -0.744 OA
ENDBRANCH  89  92
ENDBRANCH  62  85
ENDBRANCH  36  37
ENDBRANCH  28  31
ENDBRANCH  26  27
ENDBRANCH  25  26
ENDBRANCH  24  25
ENDBRANCH   3  24
TORSDOF 19
ENDMDL
MODEL 2
REMARK VINA RESULT:     -10.7      1.994      2.409
REMARK SMILES [NH3+]CCOCC(=O)Nc1ccc(C(=O)NCCCNC(=O)c2ccc(-c3c4nc(c(-c5cccc(S(=O)(=O)[O-])c5F)c5ccc([nH]5)c(-c5cccc(S(=O)(=O)[O-])c5F)c5nc(c(-c6cccc(S(=O)(=O)[O-])c6F)c6ccc3[nH]6)C=C5)C=C4)cc2)c(Cl)c1
REMARK SMILES IDX 13 1 14 2 15 3 12 5 9 6 10 7 87 8 11 9 85 10 86 11 8 12 6 13
REMARK SMILES IDX 7 14 5 16 4 17 3 18 2 19 1 20 16 24 17 25 18 26 19 27 20 28
REMARK SMILES IDX 21 30 22 31 23 32 84 33 24 34 83 35 25 36 26 37 27 38 77 39
REMARK SMILES IDX 28 40 82 41 76 42 78 43 29 44 81 45 75 46 74 47 30 49 62 50
REMARK SMILES IDX 42 51 61 52 43 53 46 54 60 55 79 56 44 57 45 58 59 60 80 61
REMARK SMILES IDX 47 62 31 63 32 64 40 65 33 66 35 67 41 68 34 69 36 70 37 71
REMARK SMILES IDX 38 72 39 73 63 74 64 75 72 76 65 77 67 78 73 79 66 80 68 81
REMARK SMILES IDX 69 82 70 83 71 84 48 85 49 86 57 87 50 88 52 89 58 90 51 91
REMARK SMILES IDX 53 92 54 93 55 94 56 95
REMARK H PARENT 15 4 8 15 1 21 1 22 1 23 19 29 78 48 46 59
REMARK Flexibility Score: inf
ROOT
ATOM      1  C   UNL A   1      31.601  28.320  27.139  1.00  0.00     0.252 C 
ATOM      2  O   UNL A   1      31.409  27.814  28.249  1.00  0.00    -0.269 OA
ATOM      3  N   UNL A   1      31.492  29.678  27.080  1.00  0.00    -0.352 N 
ATOM      4  H   UNL A   1      31.363  30.097  27.961  1.00  0.00     0.163 HD
ENDROOT
BRANCH   1   5
ATOM      5  C   UNL A   1      32.047  27.424  26.034  1.00  0.00     0.058 A 
ATOM      6  C   UNL A   1      32.368  25.750  23.778  1.00  0.00     0.042 A 
ATOM      7  C   UNL A   1      31.188  25.710  24.505  1.00  0.00     0.027 A 
ATOM      8  C   UNL A   1      33.417  26.541  24.218  1.00  0.00     0.047 A 
ATOM      9  C   UNL A   1      31.042  26.518  25.632  1.00  0.00     0.017 A 
ATOM     10  C   UNL A   1      33.233  27.437  25.283  1.00  0.00     0.055 A 
ATOM     11  Cl  UNL A   1      34.481  28.615  25.368  1.00  0.00    -0.083 Cl
BRANCH   6  12
ATOM     12  N   UNL A   1      32.522  25.084  22.560  1.00  0.00    -0.324 N 
ATOM     13  C   UNL A   1      33.324  23.997  22.323  1.00  0.00     0.250 C 
ATOM     14  O   UNL A   1      33.402  23.544  21.177  1.00  0.00    -0.272 OA
ATOM     15  H   UNL A   1      32.003  25.429  21.798  1.00  0.00     0.170 HD
BRANCH  13  16
ATOM     16  C   UNL A   1      34.068  23.323  23.497  1.00  0.00     0.260 C 
BRANCH  16  17
ATOM     17  O   UNL A   1      33.434  22.287  24.221  1.00  0.00    -0.366 OA
BRANCH  17  18
ATOM     18  C   UNL A   1      32.142  21.909  23.755  1.00  0.00     0.222 C 
BRANCH  18  19
ATOM     19  C   UNL A   1      32.135  20.662  22.860  1.00  0.00     0.287 C 
BRANCH  19  20
ATOM     20  N   UNL A   1      31.723  20.882  21.474  1.00  0.00    -0.356 N 
ATOM     21  H   UNL A   1      31.245  21.780  21.401  1.00  0.00     0.344 HD
ATOM     22  H   UNL A   1      31.092  20.135  21.184  1.00  0.00     0.344 HD
ATOM     23  H   UNL A   1      32.546  20.886  20.872  1.00  0.00     0.344 HD
ENDBRANCH  19  20
ENDBRANCH  18  19
ENDBRANCH  17  18
ENDBRANCH  16  17
ENDBRANCH  13  16
ENDBRANCH   6  12
ENDBRANCH   1   5
BRANCH   3  24
ATOM     24  C   UNL A   1      31.528  30.631  25.993  1.00  0.00     0.118 C 
BRANCH  24  25
ATOM     25  C   UNL A   1      31.449  32.051  26.553  1.00  0.00     0.042 C 
BRANCH  25  26
ATOM     26  C   UNL A   1      32.698  32.482  27.303  1.00  0.00     0.118 C 
BRANCH  26  27
ATOM     27  N   UNL A   1      32.630  33.884  27.680  1.00  0.00    -0.352 N 
ATOM     28  C   UNL A   1      33.274  34.539  28.699  1.00  0.00     0.251 C 
ATOM     29  H   UNL A   1      32.037  34.443  27.127  1.00  0.00     0.163 HD
ATOM     30  O   UNL A   1      32.869  35.642  29.059  1.00  0.00    -0.269 OA
BRANCH  28  31
ATOM     31  C   UNL A   1      34.451  33.927  29.359  1.00  0.00     0.039 A 
ATOM     32  C   UNL A   1      35.728  34.408  29.058  1.00  0.00     0.014 A 
ATOM     33  C   UNL A   1      34.302  32.852  30.240  1.00  0.00     0.014 A 
ATOM     34  C   UNL A   1      36.848  33.837  29.669  1.00  0.00     0.010 A 
ATOM     35  C   UNL A   1      35.406  32.346  30.915  1.00  0.00     0.010 A 
ATOM     36  C   UNL A   1      36.694  32.816  30.619  1.00  0.00    -0.014 A 
BRANCH  36  37
ATOM     37  C   UNL A   1      37.859  32.202  31.305  1.00  0.00     0.031 A 
ATOM     38  C   UNL A   1      38.590  31.053  30.660  1.00  0.00     0.074 A 
ATOM     39  C   UNL A   1      38.193  32.608  32.546  1.00  0.00     0.049 A 
ATOM     40  N   UNL A   1      39.560  30.319  31.138  1.00  0.00    -0.248 NA
ATOM     41  C   UNL A   1      38.148  30.656  29.311  1.00  0.00     0.031 C 
ATOM     42  C   UNL A   1      37.509  33.656  33.305  1.00  0.00     0.029 A 
ATOM     43  N   UNL A   1      39.169  32.161  33.402  1.00  0.00    -0.354 N 
ATOM     44  C   UNL A   1      39.811  29.348  30.175  1.00  0.00     0.074 A 
ATOM     45  C   UNL A   1      38.870  29.566  29.098  1.00  0.00     0.031 C 
ATOM     46  C   UNL A   1      38.084  33.772  34.513  1.00  0.00     0.029 A 
ATOM     47  C   UNL A   1      39.154  32.786  34.628  1.00  0.00     0.049 A 
ATOM     48  H   UNL A   1      39.818  31.462  33.161  1.00  0.00     0.167 HD
ATOM     49  C   UNL A   1      40.758  28.380  30.173  1.00  0.00     0.034 A 
ATOM     50  C   UNL A   1      39.909  32.579  35.724  1.00  0.00     0.034 A 
ATOM     51  C   UNL A   1      41.726  28.207  31.221  1.00  0.00     0.049 A 
ATOM     52  C   UNL A   1      40.991  31.533  35.675  1.00  0.00     0.074 A 
ATOM     53  C   UNL A   1      42.790  27.325  31.272  1.00  0.00     0.029 A 
ATOM     54  N   UNL A   1      41.746  28.929  32.404  1.00  0.00    -0.354 N 
ATOM     55  N   UNL A   1      41.317  30.730  34.690  1.00  0.00    -0.248 NA
ATOM     56  C   UNL A   1      41.833  31.389  36.870  1.00  0.00     0.031 C 
ATOM     57  C   UNL A   1      43.442  27.500  32.497  1.00  0.00     0.029 A 
ATOM     58  C   UNL A   1      42.799  28.508  33.197  1.00  0.00     0.049 A 
ATOM     59  H   UNL A   1      41.105  29.637  32.645  1.00  0.00     0.167 HD
ATOM     60  C   UNL A   1      42.421  30.012  35.133  1.00  0.00     0.074 A 
ATOM     61  C   UNL A   1      42.720  30.489  36.468  1.00  0.00     0.031 C 
ATOM     62  C   UNL A   1      43.116  29.036  34.499  1.00  0.00     0.034 A 
BRANCH  49  63
ATOM     63  C   UNL A   1      40.830  27.469  28.974  1.00  0.00     0.023 A 
ATOM     64  C   UNL A   1      39.919  26.398  28.860  1.00  0.00     0.012 A 
ATOM     65  C   UNL A   1      41.753  27.702  27.937  1.00  0.00     0.148 A 
ATOM     66  C   UNL A   1      39.950  25.552  27.752  1.00  0.00     0.002 A 
ATOM     67  C   UNL A   1      41.750  26.882  26.814  1.00  0.00     0.091 A 
ATOM     68  F   UNL A   1      42.625  28.711  28.072  1.00  0.00    -0.205 F 
ATOM     69  C   UNL A   1      40.857  25.800  26.726  1.00  0.00     0.022 A 
BRANCH  67  70
ATOM     70  S   UNL A   1      42.823  27.166  25.402  1.00  0.00     0.127 S 
ATOM     71  O   UNL A   1      44.119  27.357  26.051  1.00  0.00    -0.237 OA
ATOM     72  O   UNL A   1      42.692  25.912  24.659  1.00  0.00    -0.237 OA
ATOM     73  O   UNL A   1      42.287  28.335  24.719  1.00  0.00    -0.744 OA
ENDBRANCH  67  70
ENDBRANCH  49  63
BRANCH  50  74
ATOM     74  C   UNL A   1      39.713  33.426  36.933  1.00  0.00     0.023 A 
ATOM     75  C   UNL A   1      38.626  33.165  37.791  1.00  0.00     0.012 A 
ATOM     76  C   UNL A   1      40.612  34.460  37.262  1.00  0.00     0.148 A 
ATOM     77  C   UNL A   1      38.419  33.936  38.935  1.00  0.00     0.002 A 
ATOM     78  C   UNL A   1      40.433  35.188  38.432  1.00  0.00     0.091 A 
ATOM     79  F   UNL A   1      41.635  34.700  36.430  1.00  0.00    -0.205 F 
ATOM     80  C   UNL A   1      39.328  34.939  39.261  1.00  0.00     0.022 A 
BRANCH  78  81
ATOM     81  S   UNL A   1      41.625  36.406  39.000  1.00  0.00     0.127 S 
ATOM     82  O   UNL A   1      41.811  37.224  37.802  1.00  0.00    -0.237 OA
ATOM     83  O   UNL A   1      40.893  37.063  40.085  1.00  0.00    -0.237 OA
ATOM     84  O   UNL A   1      42.786  35.647  39.435  1.00  0.00    -0.744 OA
ENDBRANCH  78  81
ENDBRANCH  50  74
BRANCH  62  85
ATOM     85  C   UNL A   1      44.297  28.438  35.216  1.00  0.00     0.023 A 
ATOM     86  C   UNL A   1      45.591  28.938  34.975  1.00  0.00     0.012 A 
ATOM     87  C   UNL A   1      44.109  27.443  36.197  1.00  0.00     0.148 A 
ATOM     88  C   UNL A   1      46.685  28.439  35.680  1.00  0.00     0.002 A 
ATOM     89  C   UNL A   1      45.197  26.986  36.930  1.00  0.00     0.091 A 
ATOM     90  F   UNL A   1      42.871  26.969  36.398  1.00  0.00    -0.205 F 
ATOM     91  C   UNL A   1      46.487  27.474  36.665  1.00  0.00     0.022 A 
BRANCH  89  92
ATOM     92  S   UNL A   1      45.023  25.819  38.285  1.00  0.00     0.127 S 
ATOM     93  O   UNL A   1      46.407  25.677  38.735  1.00  0.00    -0.237 OA
ATOM     94  O   UNL A   1      44.152  26.545  39.209  1.00  0.00    -0.237 OA
ATOM     95  O   UNL A   1      44.429  24.620  37.709  1.00  0.00    -0.744 OA
ENDBRANCH  89  92
ENDBRANCH  62  85
ENDBRANCH  36  37
ENDBRANCH  28  31
ENDBRANCH  26  27
ENDBRANCH  25  26
ENDBRANCH  24  25
ENDBRANCH   3  24
TORSDOF 19
ENDMDL
MODEL 3
REMARK VINA RESULT:     -10.5      2.199      3.589
REMARK SMILES [NH3+]CCOCC(=O)Nc1ccc(C(=O)NCCCNC(=O)c2ccc(-c3c4nc(c(-c5cccc(S(=O)(=O)[O-])c5F)c5ccc([nH]5)c(-c5cccc(S(=O)(=O)[O-])c5F)c5nc(c(-c6cccc(S(=O)(=O)[O-])c6F)c6ccc3[nH]6)C=C5)C=C4)cc2)c(Cl)c1
REMARK SMILES IDX 13 1 14 2 15 3 12 5 9 6 10 7 87 8 11 9 85 10 86 11 8 12 6 13
REMARK SMILES IDX 7 14 5 16 4 17 3 18 2 19 1 20 16 24 17 25 18 26 19 27 20 28
REMARK SMILES IDX 21 30 22 31 23 32 84 33 24 34 83 35 25 36 26 37 27 38 77 39
REMARK SMILES IDX 28 40 82 41 76 42 78 43 29 44 81 45 75 46 74 47 30 49 62 50
REMARK SMILES IDX 42 51 61 52 43 53 46 54 60 55 79 56 44 57 45 58 59 60 80 61
REMARK SMILES IDX 47 62 31 63 32 64 40 65 33 66 35 67 41 68 34 69 36 70 37 71
REMARK SMILES IDX 38 72 39 73 63 74 64 75 72 76 65 77 67 78 73 79 66 80 68 81
REMARK SMILES IDX 69 82 70 83 71 84 48 85 49 86 57 87 50 88 52 89 58 90 51 91
REMARK SMILES IDX 53 92 54 93 55 94 56 95
REMARK H PARENT 15 4 8 15 1 21 1 22 1 23 19 29 78 48 46 59
REMARK Flexibility Score: inf
ROOT
ATOM      1  C   UNL A   1      31.776  24.501  26.604  1.00  0.00     0.252 C 
ATOM      2  O   UNL A   1      30.920  23.917  27.277  1.00  0.00    -0.269 OA
ATOM      3  N   UNL A   1      31.635  25.854  26.512  1.00  0.00    -0.352 N 
ATOM      4  H   UNL A   1      30.911  26.210  27.076  1.00  0.00     0.163 HD
ENDROOT
BRANCH   1   5
ATOM      5  C   UNL A   1      32.919  23.698  26.084  1.00  0.00     0.058 A 
ATOM      6  C   UNL A   1      34.933  21.808  25.478  1.00  0.00     0.042 A 
ATOM      7  C   UNL A   1      34.508  21.967  26.788  1.00  0.00     0.027 A 
ATOM      8  C   UNL A   1      34.435  22.642  24.490  1.00  0.00     0.047 A 
ATOM      9  C   UNL A   1      33.533  22.918  27.088  1.00  0.00     0.017 A 
ATOM     10  C   UNL A   1      33.375  23.520  24.769  1.00  0.00     0.055 A 
ATOM     11  Cl  UNL A   1      32.626  24.114  23.341  1.00  0.00    -0.083 Cl
BRANCH   6  12
ATOM     12  N   UNL A   1      35.790  20.777  25.087  1.00  0.00    -0.324 N 
ATOM     13  C   UNL A   1      37.161  20.796  25.137  1.00  0.00     0.250 C 
ATOM     14  O   UNL A   1      37.793  19.827  24.704  1.00  0.00    -0.272 OA
ATOM     15  H   UNL A   1      35.369  19.957  24.742  1.00  0.00     0.170 HD
BRANCH  13  16
ATOM     16  C   UNL A   1      37.888  21.995  25.783  1.00  0.00     0.260 C 
BRANCH  16  17
ATOM     17  O   UNL A   1      39.296  22.091  25.684  1.00  0.00    -0.366 OA
BRANCH  17  18
ATOM     18  C   UNL A   1      40.028  21.614  26.810  1.00  0.00     0.222 C 
BRANCH  18  19
ATOM     19  C   UNL A   1      41.006  20.476  26.489  1.00  0.00     0.287 C 
BRANCH  19  20
ATOM     20  N   UNL A   1      40.392  19.194  26.149  1.00  0.00    -0.356 N 
ATOM     21  H   UNL A   1      41.097  18.576  25.745  1.00  0.00     0.344 HD
ATOM     22  H   UNL A   1      39.643  19.343  25.472  1.00  0.00     0.344 HD
ATOM     23  H   UNL A   1      40.010  18.766  26.992  1.00  0.00     0.344 HD
ENDBRANCH  19  20
ENDBRANCH  18  19
ENDBRANCH  17  18
ENDBRANCH  16  17
ENDBRANCH  13  16
ENDBRANCH   6  12
ENDBRANCH   1   5
BRANCH   3  24
ATOM     24  C   UNL A   1      32.329  26.875  25.759  1.00  0.00     0.118 C 
BRANCH  24  25
ATOM     25  C   UNL A   1      32.973  27.873  26.721  1.00  0.00     0.042 C 
BRANCH  25  26
ATOM     26  C   UNL A   1      33.914  28.856  26.042  1.00  0.00     0.118 C 
BRANCH  26  27
ATOM     27  N   UNL A   1      33.466  30.226  26.225  1.00  0.00    -0.352 N 
ATOM     28  C   UNL A   1      33.822  31.131  27.193  1.00  0.00     0.251 C 
ATOM     29  H   UNL A   1      32.815  30.551  25.561  1.00  0.00     0.163 HD
ATOM     30  O   UNL A   1      33.123  32.127  27.373  1.00  0.00    -0.269 OA
BRANCH  28  31
ATOM     31  C   UNL A   1      35.036  30.916  28.013  1.00  0.00     0.039 A 
ATOM     32  C   UNL A   1      36.063  31.864  27.972  1.00  0.00     0.014 A 
ATOM     33  C   UNL A   1      35.185  29.761  28.786  1.00  0.00     0.014 A 
ATOM     34  C   UNL A   1      37.217  31.672  28.736  1.00  0.00     0.010 A 
ATOM     35  C   UNL A   1      36.292  29.616  29.614  1.00  0.00     0.010 A 
ATOM     36  C   UNL A   1      37.332  30.557  29.580  1.00  0.00    -0.014 A 
BRANCH  36  37
ATOM     37  C   UNL A   1      38.533  30.333  30.423  1.00  0.00     0.031 A 
ATOM     38  C   UNL A   1      39.600  29.371  29.967  1.00  0.00     0.074 A 
ATOM     39  C   UNL A   1      38.615  30.911  31.637  1.00  0.00     0.049 A 
ATOM     40  N   UNL A   1      40.668  28.962  30.600  1.00  0.00    -0.248 NA
ATOM     41  C   UNL A   1      39.426  28.763  28.636  1.00  0.00     0.031 C 
ATOM     42  C   UNL A   1      37.605  31.797  32.220  1.00  0.00     0.029 A 
ATOM     43  N   UNL A   1      39.573  30.811  32.614  1.00  0.00    -0.354 N 
ATOM     44  C   UNL A   1      41.264  28.019  29.771  1.00  0.00     0.074 A 
ATOM     45  C   UNL A   1      40.422  27.891  28.602  1.00  0.00     0.031 C 
ATOM     46  C   UNL A   1      37.996  32.159  33.453  1.00  0.00     0.029 A 
ATOM     47  C   UNL A   1      39.265  31.505  33.761  1.00  0.00     0.049 A 
ATOM     48  H   UNL A   1      40.402  30.292  32.505  1.00  0.00     0.167 HD
ATOM     49  C   UNL A   1      42.422  27.341  29.952  1.00  0.00     0.034 A 
ATOM     50  C   UNL A   1      39.924  31.596  34.933  1.00  0.00     0.034 A 
ATOM     51  C   UNL A   1      43.282  27.516  31.089  1.00  0.00     0.049 A 
ATOM     52  C   UNL A   1      41.236  30.876  35.086  1.00  0.00     0.074 A 
ATOM     53  C   UNL A   1      44.524  26.956  31.323  1.00  0.00     0.029 A 
ATOM     54  N   UNL A   1      42.986  28.311  32.187  1.00  0.00    -0.354 N 
ATOM     55  N   UNL A   1      41.863  30.112  34.224  1.00  0.00    -0.248 NA
ATOM     56  C   UNL A   1      41.952  31.057  36.357  1.00  0.00     0.031 C 
ATOM     57  C   UNL A   1      44.972  27.397  32.573  1.00  0.00     0.029 A 
ATOM     58  C   UNL A   1      44.019  28.251  33.105  1.00  0.00     0.049 A 
ATOM     59  H   UNL A   1      42.163  28.840  32.296  1.00  0.00     0.167 HD
ATOM     60  C   UNL A   1      43.059  29.751  34.832  1.00  0.00     0.074 A 
ATOM     61  C   UNL A   1      43.079  30.397  36.128  1.00  0.00     0.031 C 
ATOM     62  C   UNL A   1      44.047  28.947  34.366  1.00  0.00     0.034 A 
BRANCH  49  63
ATOM     63  C   UNL A   1      42.856  26.388  28.867  1.00  0.00     0.023 A 
ATOM     64  C   UNL A   1      42.285  25.100  28.805  1.00  0.00     0.012 A 
ATOM     65  C   UNL A   1      43.779  26.781  27.879  1.00  0.00     0.148 A 
ATOM     66  C   UNL A   1      42.653  24.205  27.800  1.00  0.00     0.002 A 
ATOM     67  C   UNL A   1      44.108  25.901  26.854  1.00  0.00     0.091 A 
ATOM     68  F   UNL A   1      44.327  28.001  27.965  1.00  0.00    -0.205 F 
ATOM     69  C   UNL A   1      43.555  24.609  26.821  1.00  0.00     0.022 A 
BRANCH  67  70
ATOM     70  S   UNL A   1      45.198  26.353  25.500  1.00  0.00     0.127 S 
ATOM     71  O   UNL A   1      44.498  27.504  24.931  1.00  0.00    -0.237 OA
ATOM     72  O   UNL A   1      46.440  26.681  26.201  1.00  0.00    -0.237 OA
ATOM     73  O   UNL A   1      45.277  25.181  24.640  1.00  0.00    -0.744 OA
ENDBRANCH  67  70
ENDBRANCH  49  63
BRANCH  50  74
ATOM     74  C   UNL A   1      39.386  32.456  36.025  1.00  0.00     0.023 A 
ATOM     75  C   UNL A   1      39.652  33.839  36.008  1.00  0.00     0.012 A 
ATOM     76  C   UNL A   1      38.583  31.924  37.053  1.00  0.00     0.148 A 
ATOM     77  C   UNL A   1      39.157  34.671  37.012  1.00  0.00     0.002 A 
ATOM     78  C   UNL A   1      38.047  32.767  38.018  1.00  0.00     0.091 A 
ATOM     79  F   UNL A   1      38.348  30.604  37.057  1.00  0.00    -0.205 F 
ATOM     80  C   UNL A   1      38.346  34.139  38.010  1.00  0.00     0.022 A 
BRANCH  78  81
ATOM     81  S   UNL A   1      36.885  32.190  39.261  1.00  0.00     0.127 S 
ATOM     82  O   UNL A   1      37.291  32.965  40.434  1.00  0.00    -0.237 OA
ATOM     83  O   UNL A   1      35.599  32.585  38.680  1.00  0.00    -0.237 OA
ATOM     84  O   UNL A   1      37.085  30.754  39.351  1.00  0.00    -0.744 OA
ENDBRANCH  78  81
ENDBRANCH  50  74
BRANCH  62  85
ATOM     85  C   UNL A   1      45.256  28.745  35.239  1.00  0.00     0.023 A 
ATOM     86  C   UNL A   1      46.327  29.656  35.176  1.00  0.00     0.012 A 
ATOM     87  C   UNL A   1      45.286  27.703  36.188  1.00  0.00     0.148 A 
ATOM     88  C   UNL A   1      47.425  29.518  36.025  1.00  0.00     0.002 A 
ATOM     89  C   UNL A   1      46.360  27.602  37.064  1.00  0.00     0.091 A 
ATOM     90  F   UNL A   1      44.263  26.836  36.219  1.00  0.00    -0.205 F 
ATOM     91  C   UNL A   1      47.435  28.502  36.976  1.00  0.00     0.022 A 
BRANCH  89  92
ATOM     92  S   UNL A   1      46.413  26.386  38.385  1.00  0.00     0.127 S 
ATOM     93  O   UNL A   1      47.690  26.697  39.025  1.00  0.00    -0.237 OA
ATOM     94  O   UNL A   1      45.233  26.736  39.176  1.00  0.00    -0.237 OA
ATOM     95  O   UNL A   1      46.341  25.083  37.737  1.00  0.00    -0.744 OA
ENDBRANCH  89  92
ENDBRANCH  62  85
ENDBRANCH  36  37
ENDBRANCH  28  31
ENDBRANCH  26  27
ENDBRANCH  25  26
ENDBRANCH  24  25
ENDBRANCH   3  24
TORSDOF 19
ENDMDL
