MODEL 1
REMARK VINA RESULT:     -12.9      0.000      0.000
REMARK SMILES Nc1ncccc1C[N@@H+]1CC2(CC[NH2+]CC2)C[C@H]1C(=O)NCCCNC(=O)c1ccc(-c2c3nc(c(-c4cccc(S(=O)(=O)[O-])c4F)c4ccc([nH]4)c(-c4cccc(S(=O)(=O)[O-])c4F)c4nc(c(-c5cccc(S(=O)(=O)[O-])c5F)c5ccc2[nH]5)C=C4)C=C3)cc1
REMARK SMILES IDX 23 1 22 2 21 3 19 4 20 5 18 7 9 8 10 9 11 11 17 12 12 13
REMARK SMILES IDX 16 14 13 15 15 16 14 17 8 20 7 21 2 22 3 23 4 24 6 25 5 26
REMARK SMILES IDX 1 27 24 30 25 31 26 32 27 34 28 35 29 36 90 37 30 38 89 39
REMARK SMILES IDX 31 40 32 41 33 42 83 43 34 44 88 45 82 46 84 47 35 48 87 49
REMARK SMILES IDX 81 50 80 51 36 53 68 54 48 55 67 56 49 57 52 58 66 59 85 60
REMARK SMILES IDX 50 61 51 62 65 64 86 65 53 66 37 67 38 68 46 69 39 70 41 71
REMARK SMILES IDX 47 72 40 73 42 74 43 75 44 76 45 77 69 78 70 79 78 80 71 81
REMARK SMILES IDX 73 82 79 83 72 84 74 85 75 86 76 87 77 88 54 89 55 90 63 91
REMARK SMILES IDX 56 92 58 93 64 94 57 95 59 96 60 97 61 98 62 99
REMARK H PARENT 21 6 9 10 14 18 14 19 1 28 1 29 25 33 84 52 52 63
REMARK Flexibility Score: inf
ROOT
ATOM      1  C   UNL A   1      35.226  22.250  26.412  1.00  0.00     0.042 C 
ENDROOT
BRANCH   1   2
ATOM      2  C   UNL A   1      33.796  22.185  25.922  1.00  0.00     0.118 C 
BRANCH   2   3
ATOM      3  N   UNL A   1      32.788  22.756  26.758  1.00  0.00    -0.351 N 
ATOM      4  C   UNL A   1      31.977  23.818  26.480  1.00  0.00     0.278 C 
ATOM      5  O   UNL A   1      31.020  23.968  27.254  1.00  0.00    -0.268 OA
ATOM      6  H   UNL A   1      32.664  22.333  27.638  1.00  0.00     0.163 HD
BRANCH   4   7
ATOM      7  C   UNL A   1      32.198  24.842  25.308  1.00  0.00     0.275 C 
ATOM      8  N   UNL A   1      31.041  25.739  25.169  1.00  0.00    -0.320 N 
ATOM      9  C   UNL A   1      31.457  27.102  25.545  1.00  0.00     0.270 C 
ATOM     10  H   UNL A   1      30.302  25.484  25.824  1.00  0.00     0.349 HD
ATOM     11  C   UNL A   1      33.018  27.199  25.518  1.00  0.00     0.036 C 
ATOM     12  C   UNL A   1      33.441  25.743  25.201  1.00  0.00     0.089 C 
ATOM     13  C   UNL A   1      33.831  27.670  26.767  1.00  0.00     0.074 C 
ATOM     14  C   UNL A   1      33.404  28.299  24.493  1.00  0.00     0.074 C 
ATOM     15  C   UNL A   1      33.410  29.037  27.283  1.00  0.00     0.261 C 
ATOM     16  C   UNL A   1      32.998  29.703  25.001  1.00  0.00     0.261 C 
ATOM     17  N   UNL A   1      33.649  30.053  26.261  1.00  0.00    -0.346 N 
ATOM     18  H   UNL A   1      34.654  30.136  26.105  1.00  0.00     0.346 HD
ATOM     19  H   UNL A   1      33.261  30.937  26.590  1.00  0.00     0.346 HD
BRANCH   8  20
ATOM     20  C   UNL A   1      30.318  25.571  23.878  1.00  0.00     0.303 C 
BRANCH  20  21
ATOM     21  C   UNL A   1      29.839  26.835  23.181  1.00  0.00     0.048 A 
ATOM     22  C   UNL A   1      30.625  27.575  22.291  1.00  0.00     0.132 A 
ATOM     23  N   UNL A   1      30.351  28.854  21.958  1.00  0.00    -0.239 NA
ATOM     24  C   UNL A   1      29.214  29.395  22.436  1.00  0.00     0.113 A 
ATOM     25  C   UNL A   1      28.589  27.370  23.501  1.00  0.00     0.015 A 
ATOM     26  C   UNL A   1      28.279  28.681  23.154  1.00  0.00     0.021 A 
BRANCH  22  27
ATOM     27  N   UNL A   1      31.773  27.076  21.712  1.00  0.00    -0.383 N 
ATOM     28  H   UNL A   1      32.290  27.631  21.086  1.00  0.00     0.158 HD
ATOM     29  H   UNL A   1      32.075  26.163  21.925  1.00  0.00     0.158 HD
ENDBRANCH  22  27
ENDBRANCH  20  21
ENDBRANCH   8  20
ENDBRANCH   4   7
ENDBRANCH   2   3
ENDBRANCH   1   2
BRANCH   1  30
ATOM     30  C   UNL A   1      36.244  22.259  25.287  1.00  0.00     0.118 C 
BRANCH  30  31
ATOM     31  N   UNL A   1      37.204  21.155  25.368  1.00  0.00    -0.352 N 
ATOM     32  C   UNL A   1      38.527  21.134  25.751  1.00  0.00     0.251 C 
ATOM     33  H   UNL A   1      36.840  20.279  25.103  1.00  0.00     0.163 HD
ATOM     34  O   UNL A   1      39.177  20.110  25.610  1.00  0.00    -0.269 OA
BRANCH  32  35
ATOM     35  C   UNL A   1      39.162  22.351  26.306  1.00  0.00     0.039 A 
ATOM     36  C   UNL A   1      40.216  22.219  27.215  1.00  0.00     0.014 A 
ATOM     37  C   UNL A   1      38.727  23.620  25.923  1.00  0.00     0.014 A 
ATOM     38  C   UNL A   1      40.887  23.359  27.665  1.00  0.00     0.010 A 
ATOM     39  C   UNL A   1      39.472  24.736  26.270  1.00  0.00     0.010 A 
ATOM     40  C   UNL A   1      40.551  24.623  27.156  1.00  0.00    -0.014 A 
BRANCH  40  41
ATOM     41  C   UNL A   1      41.303  25.848  27.526  1.00  0.00     0.031 A 
ATOM     42  C   UNL A   1      40.629  26.928  28.329  1.00  0.00     0.074 A 
ATOM     43  C   UNL A   1      42.544  26.039  27.037  1.00  0.00     0.049 A 
ATOM     44  N   UNL A   1      41.080  28.108  28.666  1.00  0.00    -0.248 NA
ATOM     45  C   UNL A   1      39.250  26.665  28.777  1.00  0.00     0.031 C 
ATOM     46  C   UNL A   1      43.268  25.104  26.173  1.00  0.00     0.029 A 
ATOM     47  N   UNL A   1      43.405  27.099  27.172  1.00  0.00    -0.354 N 
ATOM     48  C   UNL A   1      40.028  28.742  29.318  1.00  0.00     0.074 A 
ATOM     49  C   UNL A   1      38.904  27.835  29.288  1.00  0.00     0.031 C 
ATOM     50  C   UNL A   1      44.468  25.623  25.871  1.00  0.00     0.029 A 
ATOM     51  C   UNL A   1      44.585  26.941  26.483  1.00  0.00     0.049 A 
ATOM     52  H   UNL A   1      43.197  27.896  27.710  1.00  0.00     0.167 HD
ATOM     53  C   UNL A   1      40.008  29.958  29.914  1.00  0.00     0.034 A 
ATOM     54  C   UNL A   1      45.639  27.770  26.354  1.00  0.00     0.034 A 
ATOM     55  C   UNL A   1      41.146  30.832  29.981  1.00  0.00     0.049 A 
ATOM     56  C   UNL A   1      45.610  29.097  27.061  1.00  0.00     0.074 A 
ATOM     57  C   UNL A   1      41.272  32.033  30.656  1.00  0.00     0.029 A 
ATOM     58  N   UNL A   1      42.354  30.606  29.338  1.00  0.00    -0.354 N 
ATOM     59  N   UNL A   1      44.670  29.609  27.817  1.00  0.00    -0.248 NA
ATOM     60  C   UNL A   1      46.800  29.948  26.921  1.00  0.00     0.031 C 
ATOM     61  C   UNL A   1      42.545  32.548  30.392  1.00  0.00     0.029 A 
ATOM     62  C   UNL A   1      43.224  31.653  29.579  1.00  0.00     0.049 A 
ATOM     63  H   UNL A   1      42.561  29.814  28.790  1.00  0.00     0.167 HD
ATOM     64  C   UNL A   1      45.163  30.828  28.267  1.00  0.00     0.074 A 
ATOM     65  C   UNL A   1      46.496  30.965  27.717  1.00  0.00     0.031 C 
ATOM     66  C   UNL A   1      44.562  31.757  29.052  1.00  0.00     0.034 A 
BRANCH  53  67
ATOM     67  C   UNL A   1      38.723  30.386  30.577  1.00  0.00     0.023 A 
ATOM     68  C   UNL A   1      38.469  30.026  31.917  1.00  0.00     0.012 A 
ATOM     69  C   UNL A   1      37.773  31.161  29.883  1.00  0.00     0.148 A 
ATOM     70  C   UNL A   1      37.273  30.382  32.537  1.00  0.00     0.002 A 
ATOM     71  C   UNL A   1      36.605  31.557  30.525  1.00  0.00     0.091 A 
ATOM     72  F   UNL A   1      38.016  31.476  28.602  1.00  0.00    -0.205 F 
ATOM     73  C   UNL A   1      36.347  31.156  31.845  1.00  0.00     0.022 A 
BRANCH  71  74
ATOM     74  S   UNL A   1      35.388  32.622  29.745  1.00  0.00     0.127 S 
ATOM     75  O   UNL A   1      34.391  32.758  30.806  1.00  0.00    -0.237 OA
ATOM     76  O   UNL A   1      36.165  33.834  29.479  1.00  0.00    -0.237 OA
ATOM     77  O   UNL A   1      34.943  31.915  28.552  1.00  0.00    -0.744 OA
ENDBRANCH  71  74
ENDBRANCH  53  67
BRANCH  54  78
ATOM     78  C   UNL A   1      46.839  27.327  25.587  1.00  0.00     0.023 A 
ATOM     79  C   UNL A   1      47.731  26.411  26.179  1.00  0.00     0.012 A 
ATOM     80  C   UNL A   1      47.072  27.760  24.268  1.00  0.00     0.148 A 
ATOM     81  C   UNL A   1      48.847  25.953  25.481  1.00  0.00     0.002 A 
ATOM     82  C   UNL A   1      48.157  27.258  23.558  1.00  0.00     0.091 A 
ATOM     83  F   UNL A   1      46.213  28.635  23.726  1.00  0.00    -0.205 F 
ATOM     84  C   UNL A   1      49.054  26.368  24.167  1.00  0.00     0.022 A 
BRANCH  82  85
ATOM     85  S   UNL A   1      48.436  27.632  21.822  1.00  0.00     0.127 S 
ATOM     86  O   UNL A   1      48.716  26.308  21.272  1.00  0.00    -0.237 OA
ATOM     87  O   UNL A   1      47.149  28.203  21.428  1.00  0.00    -0.237 OA
ATOM     88  O   UNL A   1      49.548  28.572  21.794  1.00  0.00    -0.744 OA
ENDBRANCH  82  85
ENDBRANCH  54  78
BRANCH  66  89
ATOM     89  C   UNL A   1      45.346  33.000  29.383  1.00  0.00     0.023 A 
ATOM     90  C   UNL A   1      46.194  33.013  30.509  1.00  0.00     0.012 A 
ATOM     91  C   UNL A   1      45.301  34.126  28.537  1.00  0.00     0.148 A 
ATOM     92  C   UNL A   1      46.957  34.141  30.808  1.00  0.00     0.002 A 
ATOM     93  C   UNL A   1      46.104  35.226  28.812  1.00  0.00     0.091 A 
ATOM     94  F   UNL A   1      44.476  34.099  27.480  1.00  0.00    -0.205 F 
ATOM     95  C   UNL A   1      46.922  35.240  29.954  1.00  0.00     0.022 A 
BRANCH  93  96
ATOM     96  S   UNL A   1      46.201  36.647  27.717  1.00  0.00     0.127 S 
ATOM     97  O   UNL A   1      44.837  37.168  27.785  1.00  0.00    -0.237 OA
ATOM     98  O   UNL A   1      47.207  37.478  28.379  1.00  0.00    -0.237 OA
ATOM     99  O   UNL A   1      46.606  36.127  26.418  1.00  0.00    -0.744 OA
ENDBRANCH  93  96
ENDBRANCH  66  89
ENDBRANCH  40  41
ENDBRANCH  32  35
ENDBRANCH  30  31
ENDBRANCH   1  30
TORSDOF 16
ENDMDL
MODEL 2
REMARK VINA RESULT:     -12.9      1.492      7.603
REMARK SMILES Nc1ncccc1C[N@@H+]1CC2(CC[NH2+]CC2)C[C@H]1C(=O)NCCCNC(=O)c1ccc(-c2c3nc(c(-c4cccc(S(=O)(=O)[O-])c4F)c4ccc([nH]4)c(-c4cccc(S(=O)(=O)[O-])c4F)c4nc(c(-c5cccc(S(=O)(=O)[O-])c5F)c5ccc2[nH]5)C=C4)C=C3)cc1
REMARK SMILES IDX 23 1 22 2 21 3 19 4 20 5 18 7 9 8 10 9 11 11 17 12 12 13
REMARK SMILES IDX 16 14 13 15 15 16 14 17 8 20 7 21 2 22 3 23 4 24 6 25 5 26
REMARK SMILES IDX 1 27 24 30 25 31 26 32 27 34 28 35 29 36 90 37 30 38 89 39
REMARK SMILES IDX 31 40 32 41 33 42 83 43 34 44 88 45 82 46 84 47 35 48 87 49
REMARK SMILES IDX 81 50 80 51 36 53 68 54 48 55 67 56 49 57 52 58 66 59 85 60
REMARK SMILES IDX 50 61 51 62 65 64 86 65 53 66 37 67 38 68 46 69 39 70 41 71
REMARK SMILES IDX 47 72 40 73 42 74 43 75 44 76 45 77 69 78 70 79 78 80 71 81
REMARK SMILES IDX 73 82 79 83 72 84 74 85 75 86 76 87 77 88 54 89 55 90 63 91
REMARK SMILES IDX 56 92 58 93 64 94 57 95 59 96 60 97 61 98 62 99
REMARK H PARENT 21 6 9 10 14 18 14 19 1 28 1 29 25 33 84 52 52 63
REMARK Flexibility Score: inf
ROOT
ATOM      1  C   UNL A   1      35.415  21.780  26.281  1.00  0.00     0.042 C 
ENDROOT
BRANCH   1   2
ATOM      2  C   UNL A   1      34.073  22.223  25.740  1.00  0.00     0.118 C 
BRANCH   2   3
ATOM      3  N   UNL A   1      33.133  22.758  26.672  1.00  0.00    -0.351 N 
ATOM      4  C   UNL A   1      32.281  23.809  26.488  1.00  0.00     0.278 C 
ATOM      5  O   UNL A   1      31.393  23.925  27.346  1.00  0.00    -0.268 OA
ATOM      6  H   UNL A   1      33.094  22.316  27.551  1.00  0.00     0.163 HD
BRANCH   4   7
ATOM      7  C   UNL A   1      32.380  24.858  25.322  1.00  0.00     0.275 C 
ATOM      8  N   UNL A   1      31.160  25.677  25.247  1.00  0.00    -0.320 N 
ATOM      9  C   UNL A   1      31.500  27.060  25.624  1.00  0.00     0.270 C 
ATOM     10  H   UNL A   1      30.470  25.365  25.931  1.00  0.00     0.349 HD
ATOM     11  C   UNL A   1      33.048  27.264  25.529  1.00  0.00     0.036 C 
ATOM     12  C   UNL A   1      33.553  25.843  25.173  1.00  0.00     0.089 C 
ATOM     13  C   UNL A   1      33.883  27.774  26.748  1.00  0.00     0.074 C 
ATOM     14  C   UNL A   1      33.312  28.399  24.505  1.00  0.00     0.074 C 
ATOM     15  C   UNL A   1      33.395  29.103  27.302  1.00  0.00     0.261 C 
ATOM     16  C   UNL A   1      32.837  29.766  25.050  1.00  0.00     0.261 C 
ATOM     17  N   UNL A   1      33.519  30.145  26.286  1.00  0.00    -0.346 N 
ATOM     18  H   UNL A   1      34.508  30.297  26.086  1.00  0.00     0.346 HD
ATOM     19  H   UNL A   1      33.088  30.997  26.644  1.00  0.00     0.346 HD
BRANCH   8  20
ATOM     20  C   UNL A   1      30.392  25.476  23.988  1.00  0.00     0.303 C 
BRANCH  20  21
ATOM     21  C   UNL A   1      29.894  26.721  23.271  1.00  0.00     0.048 A 
ATOM     22  C   UNL A   1      30.653  27.431  22.334  1.00  0.00     0.132 A 
ATOM     23  N   UNL A   1      30.373  28.701  21.973  1.00  0.00    -0.239 NA
ATOM     24  C   UNL A   1      29.255  29.261  22.473  1.00  0.00     0.113 A 
ATOM     25  C   UNL A   1      28.658  27.271  23.617  1.00  0.00     0.015 A 
ATOM     26  C   UNL A   1      28.342  28.573  23.242  1.00  0.00     0.021 A 
BRANCH  22  27
ATOM     27  N   UNL A   1      31.780  26.909  21.731  1.00  0.00    -0.383 N 
ATOM     28  H   UNL A   1      32.123  27.308  20.900  1.00  0.00     0.158 HD
ATOM     29  H   UNL A   1      32.240  26.136  22.133  1.00  0.00     0.158 HD
ENDBRANCH  22  27
ENDBRANCH  20  21
ENDBRANCH   8  20
ENDBRANCH   4   7
ENDBRANCH   2   3
ENDBRANCH   1   2
BRANCH   1  30
ATOM     30  C   UNL A   1      36.523  21.826  25.246  1.00  0.00     0.118 C 
BRANCH  30  31
ATOM     31  N   UNL A   1      37.567  20.825  25.471  1.00  0.00    -0.352 N 
ATOM     32  C   UNL A   1      38.862  20.955  25.927  1.00  0.00     0.251 C 
ATOM     33  H   UNL A   1      37.298  19.901  25.262  1.00  0.00     0.163 HD
ATOM     34  O   UNL A   1      39.605  19.986  25.909  1.00  0.00    -0.269 OA
BRANCH  32  35
ATOM     35  C   UNL A   1      39.353  22.265  26.412  1.00  0.00     0.039 A 
ATOM     36  C   UNL A   1      40.397  22.302  27.341  1.00  0.00     0.014 A 
ATOM     37  C   UNL A   1      38.793  23.453  25.944  1.00  0.00     0.014 A 
ATOM     38  C   UNL A   1      40.935  23.533  27.726  1.00  0.00     0.010 A 
ATOM     39  C   UNL A   1      39.409  24.663  26.229  1.00  0.00     0.010 A 
ATOM     40  C   UNL A   1      40.477  24.720  27.134  1.00  0.00    -0.014 A 
BRANCH  40  41
ATOM     41  C   UNL A   1      41.087  26.039  27.434  1.00  0.00     0.031 A 
ATOM     42  C   UNL A   1      42.507  26.321  27.021  1.00  0.00     0.074 A 
ATOM     43  C   UNL A   1      40.407  26.931  28.181  1.00  0.00     0.049 A 
ATOM     44  N   UNL A   1      43.248  27.367  27.276  1.00  0.00    -0.248 NA
ATOM     45  C   UNL A   1      43.200  25.270  26.255  1.00  0.00     0.031 C 
ATOM     46  C   UNL A   1      39.059  26.735  28.717  1.00  0.00     0.029 A 
ATOM     47  N   UNL A   1      40.771  28.169  28.647  1.00  0.00    -0.354 N 
ATOM     48  C   UNL A   1      44.502  27.079  26.750  1.00  0.00     0.074 A 
ATOM     49  C   UNL A   1      44.435  25.744  26.202  1.00  0.00     0.031 C 
ATOM     50  C   UNL A   1      38.702  27.820  29.420  1.00  0.00     0.029 A 
ATOM     51  C   UNL A   1      39.808  28.771  29.422  1.00  0.00     0.049 A 
ATOM     52  H   UNL A   1      41.639  28.587  28.445  1.00  0.00     0.167 HD
ATOM     53  C   UNL A   1      45.603  27.867  26.699  1.00  0.00     0.034 A 
ATOM     54  C   UNL A   1      39.818  29.954  30.068  1.00  0.00     0.034 A 
ATOM     55  C   UNL A   1      45.645  29.212  27.202  1.00  0.00     0.049 A 
ATOM     56  C   UNL A   1      41.036  30.828  29.961  1.00  0.00     0.074 A 
ATOM     57  C   UNL A   1      46.668  30.137  27.103  1.00  0.00     0.029 A 
ATOM     58  N   UNL A   1      44.622  29.820  27.915  1.00  0.00    -0.354 N 
ATOM     59  N   UNL A   1      42.154  30.610  29.312  1.00  0.00    -0.248 NA
ATOM     60  C   UNL A   1      40.983  32.124  30.650  1.00  0.00     0.031 C 
ATOM     61  C   UNL A   1      46.275  31.294  27.784  1.00  0.00     0.029 A 
ATOM     62  C   UNL A   1      44.995  31.100  28.281  1.00  0.00     0.049 A 
ATOM     63  H   UNL A   1      43.757  29.401  28.127  1.00  0.00     0.167 HD
ATOM     64  C   UNL A   1      42.928  31.752  29.490  1.00  0.00     0.074 A 
ATOM     65  C   UNL A   1      42.139  32.668  30.288  1.00  0.00     0.031 C 
ATOM     66  C   UNL A   1      44.183  32.013  29.046  1.00  0.00     0.034 A 
BRANCH  53  67
ATOM     67  C   UNL A   1      46.833  27.300  26.035  1.00  0.00     0.023 A 
ATOM     68  C   UNL A   1      46.988  27.402  24.637  1.00  0.00     0.012 A 
ATOM     69  C   UNL A   1      47.846  26.683  26.795  1.00  0.00     0.148 A 
ATOM     70  C   UNL A   1      48.100  26.855  24.001  1.00  0.00     0.002 A 
ATOM     71  C   UNL A   1      48.978  26.185  26.159  1.00  0.00     0.091 A 
ATOM     72  F   UNL A   1      47.675  26.571  28.121  1.00  0.00    -0.205 F 
ATOM     73  C   UNL A   1      49.099  26.256  24.762  1.00  0.00     0.022 A 
BRANCH  71  74
ATOM     74  S   UNL A   1      50.357  25.469  27.060  1.00  0.00     0.127 S 
ATOM     75  O   UNL A   1      51.311  25.211  25.983  1.00  0.00    -0.237 OA
ATOM     76  O   UNL A   1      50.735  26.560  27.961  1.00  0.00    -0.237 OA
ATOM     77  O   UNL A   1      49.828  24.288  27.728  1.00  0.00    -0.744 OA
ENDBRANCH  71  74
ENDBRANCH  53  67
BRANCH  54  78
ATOM     78  C   UNL A   1      38.602  30.406  30.802  1.00  0.00     0.023 A 
ATOM     79  C   UNL A   1      38.516  30.178  32.190  1.00  0.00     0.012 A 
ATOM     80  C   UNL A   1      37.565  31.104  30.154  1.00  0.00     0.148 A 
ATOM     81  C   UNL A   1      37.407  30.613  32.915  1.00  0.00     0.002 A 
ATOM     82  C   UNL A   1      36.488  31.582  30.892  1.00  0.00     0.091 A 
ATOM     83  F   UNL A   1      37.665  31.306  28.833  1.00  0.00    -0.205 F 
ATOM     84  C   UNL A   1      36.399  31.324  32.269  1.00  0.00     0.022 A 
BRANCH  82  85
ATOM     85  S   UNL A   1      35.205  32.617  30.175  1.00  0.00     0.127 S 
ATOM     86  O   UNL A   1      35.967  33.787  29.748  1.00  0.00    -0.237 OA
ATOM     87  O   UNL A   1      34.712  31.772  29.088  1.00  0.00    -0.237 OA
ATOM     88  O   UNL A   1      34.242  32.849  31.243  1.00  0.00    -0.744 OA
ENDBRANCH  82  85
ENDBRANCH  54  78
BRANCH  66  89
ATOM     89  C   UNL A   1      44.779  33.352  29.395  1.00  0.00     0.023 A 
ATOM     90  C   UNL A   1      45.548  33.491  30.568  1.00  0.00     0.012 A 
ATOM     91  C   UNL A   1      44.641  34.450  28.524  1.00  0.00     0.148 A 
ATOM     92  C   UNL A   1      46.141  34.712  30.886  1.00  0.00     0.002 A 
ATOM     93  C   UNL A   1      45.278  35.649  28.821  1.00  0.00     0.091 A 
ATOM     94  F   UNL A   1      43.892  34.301  27.421  1.00  0.00    -0.205 F 
ATOM     95  C   UNL A   1      46.016  35.785  30.007  1.00  0.00     0.022 A 
BRANCH  93  96
ATOM     96  S   UNL A   1      45.257  37.054  27.702  1.00  0.00     0.127 S 
ATOM     97  O   UNL A   1      45.858  36.485  26.498  1.00  0.00    -0.237 OA
ATOM     98  O   UNL A   1      43.826  37.342  27.594  1.00  0.00    -0.237 OA
ATOM     99  O   UNL A   1      46.036  38.099  28.354  1.00  0.00    -0.744 OA
ENDBRANCH  93  96
ENDBRANCH  66  89
ENDBRANCH  40  41
ENDBRANCH  32  35
ENDBRANCH  30  31
ENDBRANCH   1  30
TORSDOF 16
ENDMDL
MODEL 3
REMARK VINA RESULT:     -12.8      5.158      7.926
REMARK SMILES Nc1ncccc1C[N@@H+]1CC2(CC[NH2+]CC2)C[C@H]1C(=O)NCCCNC(=O)c1ccc(-c2c3nc(c(-c4cccc(S(=O)(=O)[O-])c4F)c4ccc([nH]4)c(-c4cccc(S(=O)(=O)[O-])c4F)c4nc(c(-c5cccc(S(=O)(=O)[O-])c5F)c5ccc2[nH]5)C=C4)C=C3)cc1
REMARK SMILES IDX 23 1 22 2 21 3 19 4 20 5 18 7 9 8 10 9 11 11 17 12 12 13
REMARK SMILES IDX 16 14 13 15 15 16 14 17 8 20 7 21 2 22 3 23 4 24 6 25 5 26
REMARK SMILES IDX 1 27 24 30 25 31 26 32 27 34 28 35 29 36 90 37 30 38 89 39
REMARK SMILES IDX 31 40 32 41 33 42 83 43 34 44 88 45 82 46 84 47 35 48 87 49
REMARK SMILES IDX 81 50 80 51 36 53 68 54 48 55 67 56 49 57 52 58 66 59 85 60
REMARK SMILES IDX 50 61 51 62 65 64 86 65 53 66 37 67 38 68 46 69 39 70 41 71
REMARK SMILES IDX 47 72 40 73 42 74 43 75 44 76 45 77 69 78 70 79 78 80 71 81
REMARK SMILES IDX 73 82 79 83 72 84 74 85 75 86 76 87 77 88 54 89 55 90 63 91
REMARK SMILES IDX 56 92 58 93 64 94 57 95 59 96 60 97 61 98 62 99
REMARK H PARENT 21 6 9 10 14 18 14 19 1 28 1 29 25 33 84 52 52 63
REMARK Flexibility Score: inf
ROOT
ATOM      1  C   UNL A   1      33.049  29.411  24.989  1.00  0.00     0.042 C 
ENDROOT
BRANCH   1   2
ATOM      2  C   UNL A   1      32.492  28.165  24.335  1.00  0.00     0.118 C 
BRANCH   2   3
ATOM      3  N   UNL A   1      33.246  27.592  23.266  1.00  0.00    -0.351 N 
ATOM      4  C   UNL A   1      33.466  26.268  23.016  1.00  0.00     0.278 C 
ATOM      5  O   UNL A   1      33.937  26.014  21.897  1.00  0.00    -0.268 OA
ATOM      6  H   UNL A   1      33.654  28.228  22.634  1.00  0.00     0.163 HD
BRANCH   4   7
ATOM      7  C   UNL A   1      33.204  25.100  24.035  1.00  0.00     0.275 C 
ATOM      8  N   UNL A   1      33.236  23.795  23.358  1.00  0.00    -0.320 N 
ATOM      9  C   UNL A   1      34.415  23.050  23.833  1.00  0.00     0.270 C 
ATOM     10  H   UNL A   1      33.367  23.910  22.353  1.00  0.00     0.349 HD
ATOM     11  C   UNL A   1      34.937  23.686  25.163  1.00  0.00     0.036 C 
ATOM     12  C   UNL A   1      34.013  24.919  25.331  1.00  0.00     0.089 C 
ATOM     13  C   UNL A   1      36.414  24.174  25.314  1.00  0.00     0.074 C 
ATOM     14  C   UNL A   1      34.883  22.591  26.262  1.00  0.00     0.074 C 
ATOM     15  C   UNL A   1      37.441  23.091  25.025  1.00  0.00     0.261 C 
ATOM     16  C   UNL A   1      35.929  21.483  25.999  1.00  0.00     0.261 C 
ATOM     17  N   UNL A   1      37.297  21.996  25.980  1.00  0.00    -0.346 N 
ATOM     18  H   UNL A   1      37.537  22.336  26.913  1.00  0.00     0.346 HD
ATOM     19  H   UNL A   1      37.921  21.240  25.700  1.00  0.00     0.346 HD
BRANCH   8  20
ATOM     20  C   UNL A   1      31.924  23.092  23.375  1.00  0.00     0.303 C 
BRANCH  20  21
ATOM     21  C   UNL A   1      31.935  21.608  23.708  1.00  0.00     0.048 A 
ATOM     22  C   UNL A   1      31.873  21.106  25.013  1.00  0.00     0.132 A 
ATOM     23  N   UNL A   1      32.237  19.847  25.333  1.00  0.00    -0.239 NA
ATOM     24  C   UNL A   1      32.581  19.020  24.328  1.00  0.00     0.113 A 
ATOM     25  C   UNL A   1      32.120  20.671  22.689  1.00  0.00     0.015 A 
ATOM     26  C   UNL A   1      32.480  19.364  22.997  1.00  0.00     0.021 A 
BRANCH  22  27
ATOM     27  N   UNL A   1      31.476  21.870  26.091  1.00  0.00    -0.383 N 
ATOM     28  H   UNL A   1      31.027  22.733  25.944  1.00  0.00     0.158 HD
ATOM     29  H   UNL A   1      31.642  21.551  27.008  1.00  0.00     0.158 HD
ENDBRANCH  22  27
ENDBRANCH  20  21
ENDBRANCH   8  20
ENDBRANCH   4   7
ENDBRANCH   2   3
ENDBRANCH   1   2
BRANCH   1  30
ATOM     30  C   UNL A   1      32.363  29.757  26.297  1.00  0.00     0.118 C 
BRANCH  30  31
ATOM     31  N   UNL A   1      32.321  31.197  26.565  1.00  0.00    -0.352 N 
ATOM     32  C   UNL A   1      33.169  32.006  27.290  1.00  0.00     0.251 C 
ATOM     33  H   UNL A   1      31.558  31.665  26.157  1.00  0.00     0.163 HD
ATOM     34  O   UNL A   1      32.861  33.171  27.492  1.00  0.00    -0.269 OA
BRANCH  32  35
ATOM     35  C   UNL A   1      34.431  31.461  27.839  1.00  0.00     0.039 A 
ATOM     36  C   UNL A   1      35.521  32.316  28.026  1.00  0.00     0.014 A 
ATOM     37  C   UNL A   1      34.537  30.113  28.181  1.00  0.00     0.014 A 
ATOM     38  C   UNL A   1      36.681  31.834  28.639  1.00  0.00     0.010 A 
ATOM     39  C   UNL A   1      35.636  29.669  28.900  1.00  0.00     0.010 A 
ATOM     40  C   UNL A   1      36.727  30.518  29.125  1.00  0.00    -0.014 A 
BRANCH  40  41
ATOM     41  C   UNL A   1      37.896  29.993  29.873  1.00  0.00     0.031 A 
ATOM     42  C   UNL A   1      38.170  30.474  31.273  1.00  0.00     0.074 A 
ATOM     43  C   UNL A   1      38.774  29.182  29.250  1.00  0.00     0.049 A 
ATOM     44  N   UNL A   1      39.188  30.213  32.051  1.00  0.00    -0.248 NA
ATOM     45  C   UNL A   1      37.191  31.405  31.862  1.00  0.00     0.031 C 
ATOM     46  C   UNL A   1      38.664  28.719  27.865  1.00  0.00     0.029 A 
ATOM     47  N   UNL A   1      39.949  28.628  29.692  1.00  0.00    -0.354 N 
ATOM     48  C   UNL A   1      38.997  30.983  33.193  1.00  0.00     0.074 A 
ATOM     49  C   UNL A   1      37.793  31.754  32.987  1.00  0.00     0.031 C 
ATOM     50  C   UNL A   1      39.717  27.937  27.577  1.00  0.00     0.029 A 
ATOM     51  C   UNL A   1      40.596  27.876  28.739  1.00  0.00     0.049 A 
ATOM     52  H   UNL A   1      40.296  28.756  30.604  1.00  0.00     0.167 HD
ATOM     53  C   UNL A   1      39.741  31.022  34.324  1.00  0.00     0.034 A 
ATOM     54  C   UNL A   1      41.770  27.217  28.794  1.00  0.00     0.034 A 
ATOM     55  C   UNL A   1      40.910  30.215  34.538  1.00  0.00     0.049 A 
ATOM     56  C   UNL A   1      42.557  27.242  30.075  1.00  0.00     0.074 A 
ATOM     57  C   UNL A   1      41.673  30.090  35.685  1.00  0.00     0.029 A 
ATOM     58  N   UNL A   1      41.495  29.402  33.578  1.00  0.00    -0.354 N 
ATOM     59  N   UNL A   1      42.273  27.840  31.207  1.00  0.00    -0.248 NA
ATOM     60  C   UNL A   1      43.810  26.476  30.097  1.00  0.00     0.031 C 
ATOM     61  C   UNL A   1      42.738  29.228  35.407  1.00  0.00     0.029 A 
ATOM     62  C   UNL A   1      42.622  28.790  34.096  1.00  0.00     0.049 A 
ATOM     63  H   UNL A   1      41.157  29.280  32.661  1.00  0.00     0.167 HD
ATOM     64  C   UNL A   1      43.296  27.502  32.085  1.00  0.00     0.074 A 
ATOM     65  C   UNL A   1      44.193  26.626  31.359  1.00  0.00     0.031 C 
ATOM     66  C   UNL A   1      43.485  27.892  33.370  1.00  0.00     0.034 A 
BRANCH  53  67
ATOM     67  C   UNL A   1      39.280  31.941  35.428  1.00  0.00     0.023 A 
ATOM     68  C   UNL A   1      38.335  31.486  36.370  1.00  0.00     0.012 A 
ATOM     69  C   UNL A   1      39.794  33.246  35.546  1.00  0.00     0.148 A 
ATOM     70  C   UNL A   1      37.869  32.329  37.378  1.00  0.00     0.002 A 
ATOM     71  C   UNL A   1      39.364  34.065  36.585  1.00  0.00     0.091 A 
ATOM     72  F   UNL A   1      40.674  33.674  34.629  1.00  0.00    -0.205 F 
ATOM     73  C   UNL A   1      38.391  33.614  37.491  1.00  0.00     0.022 A 
BRANCH  71  74
ATOM     74  S   UNL A   1      40.036  35.707  36.862  1.00  0.00     0.127 S 
ATOM     75  O   UNL A   1      41.468  35.427  36.956  1.00  0.00    -0.237 OA
ATOM     76  O   UNL A   1      39.632  36.415  35.646  1.00  0.00    -0.237 OA
ATOM     77  O   UNL A   1      39.410  36.194  38.083  1.00  0.00    -0.744 OA
ENDBRANCH  71  74
ENDBRANCH  53  67
BRANCH  54  78
ATOM     78  C   UNL A   1      42.224  26.416  27.622  1.00  0.00     0.023 A 
ATOM     79  C   UNL A   1      43.070  27.016  26.668  1.00  0.00     0.012 A 
ATOM     80  C   UNL A   1      41.875  25.060  27.474  1.00  0.00     0.148 A 
ATOM     81  C   UNL A   1      43.538  26.289  25.575  1.00  0.00     0.002 A 
ATOM     82  C   UNL A   1      42.388  24.326  26.411  1.00  0.00     0.091 A 
ATOM     83  F   UNL A   1      41.066  24.510  28.391  1.00  0.00    -0.205 F 
ATOM     84  C   UNL A   1      43.207  24.942  25.452  1.00  0.00     0.022 A 
BRANCH  82  85
ATOM     85  S   UNL A   1      42.125  22.557  26.237  1.00  0.00     0.127 S 
ATOM     86  O   UNL A   1      40.667  22.474  26.194  1.00  0.00    -0.237 OA
ATOM     87  O   UNL A   1      42.796  22.278  24.967  1.00  0.00    -0.237 OA
ATOM     88  O   UNL A   1      42.755  21.946  27.399  1.00  0.00    -0.744 OA
ENDBRANCH  82  85
ENDBRANCH  54  78
BRANCH  66  89
ATOM     89  C   UNL A   1      44.698  27.360  34.087  1.00  0.00     0.023 A 
ATOM     90  C   UNL A   1      45.897  28.101  34.077  1.00  0.00     0.012 A 
ATOM     91  C   UNL A   1      44.628  26.167  34.832  1.00  0.00     0.148 A 
ATOM     92  C   UNL A   1      47.018  27.644  34.769  1.00  0.00     0.002 A 
ATOM     93  C   UNL A   1      45.733  25.745  35.562  1.00  0.00     0.091 A 
ATOM     94  F   UNL A   1      43.483  25.469  34.816  1.00  0.00    -0.205 F 
ATOM     95  C   UNL A   1      46.932  26.474  35.520  1.00  0.00     0.022 A 
BRANCH  93  96
ATOM     96  S   UNL A   1      45.687  24.306  36.636  1.00  0.00     0.127 S 
ATOM     97  O   UNL A   1      44.625  24.669  37.574  1.00  0.00    -0.237 OA
ATOM     98  O   UNL A   1      45.338  23.234  35.703  1.00  0.00    -0.237 OA
ATOM     99  O   UNL A   1      47.019  24.193  37.215  1.00  0.00    -0.744 OA
ENDBRANCH  93  96
ENDBRANCH  66  89
ENDBRANCH  40  41
ENDBRANCH  32  35
ENDBRANCH  30  31
ENDBRANCH   1  30
TORSDOF 16
ENDMDL
