MODEL 1
REMARK VINA RESULT:     -12.6      0.000      0.000
REMARK SMILES C[C@@H]1CN(C(=O)Nc2ccc(O)c(C(=O)NCCCNC(=O)c3ccc(-c4c5nc(c(-c6cccc(S(=O)(=O)[O-])c6F)c6ccc([nH]6)c(-c6cccc(S(=O)(=O)[O-])c6F)c6nc(c(-c7cccc(S(=O)(=O)[O-])c7F)c7ccc4[nH]7)C=C6)C=C5)cc3)c2)C[C@@H]1C
REMARK SMILES IDX 18 1 17 2 16 3 14 4 15 5 13 7 8 8 9 9 86 10 10 11 11 12 7 13
REMARK SMILES IDX 5 14 6 15 4 17 1 18 2 19 3 20 88 21 87 22 89 23 12 24 19 26
REMARK SMILES IDX 20 27 21 28 22 30 23 31 24 32 85 33 25 34 84 35 26 36 27 37
REMARK SMILES IDX 28 38 78 39 29 40 83 41 77 42 79 43 30 44 82 45 76 46 75 47
REMARK SMILES IDX 31 49 63 50 43 51 62 52 44 53 47 54 61 55 80 56 45 57 46 58
REMARK SMILES IDX 60 60 81 61 48 62 32 63 33 64 41 65 34 66 36 67 42 68 35 69
REMARK SMILES IDX 37 70 38 71 39 72 40 73 64 74 65 75 73 76 66 77 68 78 74 79
REMARK SMILES IDX 67 80 69 81 70 82 71 83 72 84 49 85 50 86 58 87 51 88 53 89
REMARK SMILES IDX 59 90 52 91 54 92 55 93 56 94 57 95
REMARK H PARENT 16 6 7 16 12 25 20 29 79 48 47 59
REMARK Flexibility Score: inf
ROOT
ATOM      1  C   UNL A   1      31.468  32.185  26.555  1.00  0.00     0.042 C 
ENDROOT
BRANCH   1   2
ATOM      2  C   UNL A   1      31.468  30.672  26.340  1.00  0.00     0.118 C 
BRANCH   2   3
ATOM      3  N   UNL A   1      32.463  30.275  25.367  1.00  0.00    -0.352 N 
ATOM      4  C   UNL A   1      32.530  29.225  24.492  1.00  0.00     0.255 C 
ATOM      5  O   UNL A   1      33.513  29.202  23.743  1.00  0.00    -0.269 OA
ATOM      6  H   UNL A   1      33.242  30.875  25.327  1.00  0.00     0.163 HD
BRANCH   4   7
ATOM      7  C   UNL A   1      31.489  28.169  24.305  1.00  0.00     0.083 A 
ATOM      8  C   UNL A   1      30.412  26.272  25.403  1.00  0.00     0.043 A 
ATOM      9  C   UNL A   1      29.503  26.166  24.359  1.00  0.00     0.030 A 
ATOM     10  C   UNL A   1      31.335  27.317  25.417  1.00  0.00     0.044 A 
ATOM     11  C   UNL A   1      29.626  27.000  23.254  1.00  0.00     0.049 A 
ATOM     12  C   UNL A   1      30.635  27.970  23.212  1.00  0.00     0.128 A 
BRANCH   8  13
ATOM     13  N   UNL A   1      30.441  25.348  26.448  1.00  0.00    -0.308 N 
ATOM     14  C   UNL A   1      30.855  24.049  26.479  1.00  0.00     0.321 C 
ATOM     15  O   UNL A   1      30.446  23.345  27.408  1.00  0.00    -0.248 OA
ATOM     16  H   UNL A   1      30.106  25.692  27.308  1.00  0.00     0.171 HD
BRANCH  14  17
ATOM     17  N   UNL A   1      31.818  23.599  25.606  1.00  0.00    -0.324 N 
ATOM     18  C   UNL A   1      33.222  23.341  22.184  1.00  0.00     0.010 C 
ATOM     19  C   UNL A   1      33.119  23.076  23.676  1.00  0.00     0.010 C 
ATOM     20  C   UNL A   1      31.692  23.245  24.195  1.00  0.00     0.125 C 
ATOM     21  C   UNL A   1      33.936  23.976  24.610  1.00  0.00     0.010 C 
ATOM     22  C   UNL A   1      33.224  23.746  25.953  1.00  0.00     0.125 C 
ATOM     23  C   UNL A   1      33.925  25.455  24.220  1.00  0.00     0.010 C 
ENDBRANCH  14  17
ENDBRANCH   8  13
BRANCH  12  24
ATOM     24  O   UNL A   1      30.716  28.706  22.073  1.00  0.00    -0.507 OA
ATOM     25  H   UNL A   1      31.222  28.394  21.349  1.00  0.00     0.293 HD
ENDBRANCH  12  24
ENDBRANCH   4   7
ENDBRANCH   2   3
ENDBRANCH   1   2
BRANCH   1  26
ATOM     26  C   UNL A   1      32.703  32.723  27.258  1.00  0.00     0.118 C 
BRANCH  26  27
ATOM     27  N   UNL A   1      32.537  34.104  27.682  1.00  0.00    -0.352 N 
ATOM     28  C   UNL A   1      33.145  34.784  28.710  1.00  0.00     0.251 C 
ATOM     29  H   UNL A   1      31.894  34.630  27.155  1.00  0.00     0.163 HD
ATOM     30  O   UNL A   1      32.706  35.881  29.045  1.00  0.00    -0.269 OA
BRANCH  28  31
ATOM     31  C   UNL A   1      34.312  34.207  29.420  1.00  0.00     0.039 A 
ATOM     32  C   UNL A   1      34.090  33.416  30.553  1.00  0.00     0.014 A 
ATOM     33  C   UNL A   1      35.619  34.473  29.007  1.00  0.00     0.014 A 
ATOM     34  C   UNL A   1      35.173  32.861  31.241  1.00  0.00     0.010 A 
ATOM     35  C   UNL A   1      36.692  33.852  29.642  1.00  0.00     0.010 A 
ATOM     36  C   UNL A   1      36.483  33.057  30.777  1.00  0.00    -0.014 A 
BRANCH  36  37
ATOM     37  C   UNL A   1      37.655  32.466  31.473  1.00  0.00     0.031 A 
ATOM     38  C   UNL A   1      38.416  31.334  30.834  1.00  0.00     0.074 A 
ATOM     39  C   UNL A   1      37.973  32.876  32.717  1.00  0.00     0.049 A 
ATOM     40  N   UNL A   1      39.410  30.632  31.313  1.00  0.00    -0.248 NA
ATOM     41  C   UNL A   1      37.979  30.913  29.492  1.00  0.00     0.031 C 
ATOM     42  C   UNL A   1      37.270  33.916  33.469  1.00  0.00     0.029 A 
ATOM     43  N   UNL A   1      38.953  32.448  33.577  1.00  0.00    -0.354 N 
ATOM     44  C   UNL A   1      39.680  29.657  30.360  1.00  0.00     0.074 A 
ATOM     45  C   UNL A   1      38.729  29.841  29.287  1.00  0.00     0.031 C 
ATOM     46  C   UNL A   1      37.846  34.052  34.674  1.00  0.00     0.029 A 
ATOM     47  C   UNL A   1      38.937  33.090  34.793  1.00  0.00     0.049 A 
ATOM     48  H   UNL A   1      39.604  31.747  33.346  1.00  0.00     0.167 HD
ATOM     49  C   UNL A   1      40.650  28.712  30.362  1.00  0.00     0.034 A 
ATOM     50  C   UNL A   1      39.713  32.921  35.881  1.00  0.00     0.034 A 
ATOM     51  C   UNL A   1      41.632  28.574  31.404  1.00  0.00     0.049 A 
ATOM     52  C   UNL A   1      40.816  31.897  35.841  1.00  0.00     0.074 A 
ATOM     53  C   UNL A   1      42.723  27.725  31.452  1.00  0.00     0.029 A 
ATOM     54  N   UNL A   1      41.636  29.301  32.585  1.00  0.00    -0.354 N 
ATOM     55  N   UNL A   1      41.160  31.095  34.863  1.00  0.00    -0.248 NA
ATOM     56  C   UNL A   1      41.657  31.778  37.040  1.00  0.00     0.031 C 
ATOM     57  C   UNL A   1      43.375  27.923  32.674  1.00  0.00     0.029 A 
ATOM     58  C   UNL A   1      42.703  28.912  33.375  1.00  0.00     0.049 A 
ATOM     59  H   UNL A   1      40.976  29.991  32.826  1.00  0.00     0.167 HD
ATOM     60  C   UNL A   1      42.282  30.405  35.311  1.00  0.00     0.074 A 
ATOM     61  C   UNL A   1      42.565  30.894  36.646  1.00  0.00     0.031 C 
ATOM     62  C   UNL A   1      43.007  29.449  34.679  1.00  0.00     0.034 A 
BRANCH  49  63
ATOM     63  C   UNL A   1      40.724  27.783  29.177  1.00  0.00     0.023 A 
ATOM     64  C   UNL A   1      39.889  26.647  29.127  1.00  0.00     0.012 A 
ATOM     65  C   UNL A   1      41.592  28.047  28.101  1.00  0.00     0.148 A 
ATOM     66  C   UNL A   1      39.951  25.765  28.048  1.00  0.00     0.002 A 
ATOM     67  C   UNL A   1      41.617  27.188  27.007  1.00  0.00     0.091 A 
ATOM     68  F   UNL A   1      42.397  29.117  28.173  1.00  0.00    -0.205 F 
ATOM     69  C   UNL A   1      40.808  26.040  26.986  1.00  0.00     0.022 A 
BRANCH  67  70
ATOM     70  S   UNL A   1      42.627  27.505  25.557  1.00  0.00     0.127 S 
ATOM     71  O   UNL A   1      42.029  28.737  25.044  1.00  0.00    -0.237 OA
ATOM     72  O   UNL A   1      43.961  27.672  26.135  1.00  0.00    -0.237 OA
ATOM     73  O   UNL A   1      42.480  26.332  24.708  1.00  0.00    -0.744 OA
ENDBRANCH  67  70
ENDBRANCH  49  63
BRANCH  50  74
ATOM     74  C   UNL A   1      39.535  33.813  37.062  1.00  0.00     0.023 A 
ATOM     75  C   UNL A   1      39.966  35.151  36.977  1.00  0.00     0.012 A 
ATOM     76  C   UNL A   1      38.902  33.368  38.239  1.00  0.00     0.148 A 
ATOM     77  C   UNL A   1      39.790  36.026  38.049  1.00  0.00     0.002 A 
ATOM     78  C   UNL A   1      38.684  34.259  39.285  1.00  0.00     0.091 A 
ATOM     79  F   UNL A   1      38.506  32.089  38.303  1.00  0.00    -0.205 F 
ATOM     80  C   UNL A   1      39.141  35.583  39.198  1.00  0.00     0.022 A 
BRANCH  78  81
ATOM     81  S   UNL A   1      37.744  33.820  40.752  1.00  0.00     0.127 S 
ATOM     82  O   UNL A   1      36.555  33.199  40.173  1.00  0.00    -0.237 OA
ATOM     83  O   UNL A   1      38.656  32.898  41.428  1.00  0.00    -0.237 OA
ATOM     84  O   UNL A   1      37.517  35.071  41.466  1.00  0.00    -0.744 OA
ENDBRANCH  78  81
ENDBRANCH  50  74
BRANCH  62  85
ATOM     85  C   UNL A   1      44.205  28.888  35.397  1.00  0.00     0.023 A 
ATOM     86  C   UNL A   1      45.459  29.514  35.264  1.00  0.00     0.012 A 
ATOM     87  C   UNL A   1      44.065  27.796  36.277  1.00  0.00     0.148 A 
ATOM     88  C   UNL A   1      46.564  29.044  35.973  1.00  0.00     0.002 A 
ATOM     89  C   UNL A   1      45.159  27.364  37.017  1.00  0.00     0.091 A 
ATOM     90  F   UNL A   1      42.867  27.202  36.375  1.00  0.00    -0.205 F 
ATOM     91  C   UNL A   1      46.411  27.979  36.859  1.00  0.00     0.022 A 
BRANCH  89  92
ATOM     92  S   UNL A   1      45.030  26.066  38.253  1.00  0.00     0.127 S 
ATOM     93  O   UNL A   1      43.939  26.561  39.091  1.00  0.00    -0.237 OA
ATOM     94  O   UNL A   1      44.693  24.895  37.443  1.00  0.00    -0.237 OA
ATOM     95  O   UNL A   1      46.334  25.997  38.898  1.00  0.00    -0.744 OA
ENDBRANCH  89  92
ENDBRANCH  62  85
ENDBRANCH  36  37
ENDBRANCH  28  31
ENDBRANCH  26  27
ENDBRANCH   1  26
TORSDOF 16
ENDMDL
MODEL 2
REMARK VINA RESULT:     -12.3      0.636      7.826
REMARK SMILES C[C@@H]1CN(C(=O)Nc2ccc(O)c(C(=O)NCCCNC(=O)c3ccc(-c4c5nc(c(-c6cccc(S(=O)(=O)[O-])c6F)c6ccc([nH]6)c(-c6cccc(S(=O)(=O)[O-])c6F)c6nc(c(-c7cccc(S(=O)(=O)[O-])c7F)c7ccc4[nH]7)C=C6)C=C5)cc3)c2)C[C@@H]1C
REMARK SMILES IDX 18 1 17 2 16 3 14 4 15 5 13 7 8 8 9 9 86 10 10 11 11 12 7 13
REMARK SMILES IDX 5 14 6 15 4 17 1 18 2 19 3 20 88 21 87 22 89 23 12 24 19 26
REMARK SMILES IDX 20 27 21 28 22 30 23 31 24 32 85 33 25 34 84 35 26 36 27 37
REMARK SMILES IDX 28 38 78 39 29 40 83 41 77 42 79 43 30 44 82 45 76 46 75 47
REMARK SMILES IDX 31 49 63 50 43 51 62 52 44 53 47 54 61 55 80 56 45 57 46 58
REMARK SMILES IDX 60 60 81 61 48 62 32 63 33 64 41 65 34 66 36 67 42 68 35 69
REMARK SMILES IDX 37 70 38 71 39 72 40 73 64 74 65 75 73 76 66 77 68 78 74 79
REMARK SMILES IDX 67 80 69 81 70 82 71 83 72 84 49 85 50 86 58 87 51 88 53 89
REMARK SMILES IDX 59 90 52 91 54 92 55 93 56 94 57 95
REMARK H PARENT 16 6 7 16 12 25 20 29 79 48 47 59
REMARK Flexibility Score: inf
ROOT
ATOM      1  C   UNL A   1      31.446  32.208  26.513  1.00  0.00     0.042 C 
ENDROOT
BRANCH   1   2
ATOM      2  C   UNL A   1      31.380  30.704  26.250  1.00  0.00     0.118 C 
BRANCH   2   3
ATOM      3  N   UNL A   1      32.358  30.294  25.264  1.00  0.00    -0.352 N 
ATOM      4  C   UNL A   1      32.415  29.225  24.412  1.00  0.00     0.255 C 
ATOM      5  O   UNL A   1      33.382  29.196  23.642  1.00  0.00    -0.269 OA
ATOM      6  H   UNL A   1      33.129  30.900  25.195  1.00  0.00     0.163 HD
BRANCH   4   7
ATOM      7  C   UNL A   1      31.382  28.156  24.272  1.00  0.00     0.083 A 
ATOM      8  C   UNL A   1      30.389  26.237  25.411  1.00  0.00     0.043 A 
ATOM      9  C   UNL A   1      29.429  26.124  24.414  1.00  0.00     0.030 A 
ATOM     10  C   UNL A   1      31.297  27.295  25.385  1.00  0.00     0.044 A 
ATOM     11  C   UNL A   1      29.485  26.966  23.309  1.00  0.00     0.049 A 
ATOM     12  C   UNL A   1      30.476  27.950  23.222  1.00  0.00     0.128 A 
BRANCH   8  13
ATOM     13  N   UNL A   1      30.484  25.307  26.447  1.00  0.00    -0.308 N 
ATOM     14  C   UNL A   1      30.918  24.015  26.448  1.00  0.00     0.321 C 
ATOM     15  O   UNL A   1      30.568  23.299  27.391  1.00  0.00    -0.248 OA
ATOM     16  H   UNL A   1      30.188  25.641  27.325  1.00  0.00     0.171 HD
BRANCH  14  17
ATOM     17  N   UNL A   1      31.842  23.585  25.525  1.00  0.00    -0.324 N 
ATOM     18  C   UNL A   1      35.010  21.854  24.673  1.00  0.00     0.010 C 
ATOM     19  C   UNL A   1      33.747  22.661  24.424  1.00  0.00     0.010 C 
ATOM     20  C   UNL A   1      33.285  23.410  25.673  1.00  0.00     0.125 C 
ATOM     21  C   UNL A   1      32.491  21.893  23.996  1.00  0.00     0.010 C 
ATOM     22  C   UNL A   1      31.387  22.913  24.315  1.00  0.00     0.125 C 
ATOM     23  C   UNL A   1      32.274  20.581  24.752  1.00  0.00     0.010 C 
ENDBRANCH  14  17
ENDBRANCH   8  13
BRANCH  12  24
ATOM     24  O   UNL A   1      30.489  28.694  22.086  1.00  0.00    -0.507 OA
ATOM     25  H   UNL A   1      30.822  28.329  21.290  1.00  0.00     0.293 HD
ENDBRANCH  12  24
ENDBRANCH   4   7
ENDBRANCH   2   3
ENDBRANCH   1   2
BRANCH   1  26
ATOM     26  C   UNL A   1      32.706  32.668  27.229  1.00  0.00     0.118 C 
BRANCH  26  27
ATOM     27  N   UNL A   1      32.596  34.035  27.711  1.00  0.00    -0.352 N 
ATOM     28  C   UNL A   1      33.236  34.648  28.761  1.00  0.00     0.251 C 
ATOM     29  H   UNL A   1      31.971  34.608  27.210  1.00  0.00     0.163 HD
ATOM     30  O   UNL A   1      32.842  35.746  29.145  1.00  0.00    -0.269 OA
BRANCH  28  31
ATOM     31  C   UNL A   1      34.384  33.997  29.438  1.00  0.00     0.039 A 
ATOM     32  C   UNL A   1      34.131  33.085  30.470  1.00  0.00     0.014 A 
ATOM     33  C   UNL A   1      35.702  34.309  29.098  1.00  0.00     0.014 A 
ATOM     34  C   UNL A   1      35.196  32.458  31.125  1.00  0.00     0.010 A 
ATOM     35  C   UNL A   1      36.758  33.623  29.692  1.00  0.00     0.010 A 
ATOM     36  C   UNL A   1      36.518  32.706  30.726  1.00  0.00    -0.014 A 
BRANCH  36  37
ATOM     37  C   UNL A   1      37.671  32.043  31.386  1.00  0.00     0.031 A 
ATOM     38  C   UNL A   1      38.179  32.558  32.708  1.00  0.00     0.074 A 
ATOM     39  C   UNL A   1      38.323  31.046  30.755  1.00  0.00     0.049 A 
ATOM     40  N   UNL A   1      39.218  32.172  33.401  1.00  0.00    -0.248 NA
ATOM     41  C   UNL A   1      37.440  33.680  33.312  1.00  0.00     0.031 C 
ATOM     42  C   UNL A   1      37.970  30.505  29.443  1.00  0.00     0.029 A 
ATOM     43  N   UNL A   1      39.434  30.330  31.123  1.00  0.00    -0.354 N 
ATOM     44  C   UNL A   1      39.288  33.032  34.491  1.00  0.00     0.074 A 
ATOM     45  C   UNL A   1      38.204  33.978  34.352  1.00  0.00     0.031 C 
ATOM     46  C   UNL A   1      38.841  29.536  29.118  1.00  0.00     0.029 A 
ATOM     47  C   UNL A   1      39.831  29.408  30.182  1.00  0.00     0.049 A 
ATOM     48  H   UNL A   1      39.904  30.464  31.978  1.00  0.00     0.167 HD
ATOM     49  C   UNL A   1      40.159  33.021  35.528  1.00  0.00     0.034 A 
ATOM     50  C   UNL A   1      40.876  28.558  30.178  1.00  0.00     0.034 A 
ATOM     51  C   UNL A   1      41.197  32.039  35.692  1.00  0.00     0.049 A 
ATOM     52  C   UNL A   1      41.801  28.531  31.365  1.00  0.00     0.074 A 
ATOM     53  C   UNL A   1      42.061  31.869  36.759  1.00  0.00     0.029 A 
ATOM     54  N   UNL A   1      41.517  31.066  34.757  1.00  0.00    -0.354 N 
ATOM     55  N   UNL A   1      41.754  29.244  32.464  1.00  0.00    -0.248 NA
ATOM     56  C   UNL A   1      42.904  27.559  31.327  1.00  0.00     0.031 C 
ATOM     57  C   UNL A   1      42.918  30.805  36.459  1.00  0.00     0.029 A 
ATOM     58  C   UNL A   1      42.572  30.298  35.216  1.00  0.00     0.049 A 
ATOM     59  H   UNL A   1      41.060  30.940  33.894  1.00  0.00     0.167 HD
ATOM     60  C   UNL A   1      42.792  28.781  33.265  1.00  0.00     0.074 A 
ATOM     61  C   UNL A   1      43.444  27.717  32.529  1.00  0.00     0.031 C 
ATOM     62  C   UNL A   1      43.175  29.204  34.496  1.00  0.00     0.034 A 
BRANCH  49  63
ATOM     63  C   UNL A   1      39.993  34.076  36.591  1.00  0.00     0.023 A 
ATOM     64  C   UNL A   1      40.314  35.418  36.300  1.00  0.00     0.012 A 
ATOM     65  C   UNL A   1      39.493  33.750  37.867  1.00  0.00     0.148 A 
ATOM     66  C   UNL A   1      40.184  36.409  37.273  1.00  0.00     0.002 A 
ATOM     67  C   UNL A   1      39.322  34.750  38.818  1.00  0.00     0.091 A 
ATOM     68  F   UNL A   1      39.215  32.466  38.138  1.00  0.00    -0.205 F 
ATOM     69  C   UNL A   1      39.680  36.076  38.528  1.00  0.00     0.022 A 
BRANCH  67  70
ATOM     70  S   UNL A   1      38.604  34.430  40.432  1.00  0.00     0.127 S 
ATOM     71  O   UNL A   1      38.329  35.786  40.907  1.00  0.00    -0.237 OA
ATOM     72  O   UNL A   1      37.412  33.651  40.095  1.00  0.00    -0.237 OA
ATOM     73  O   UNL A   1      39.615  33.693  41.177  1.00  0.00    -0.744 OA
ENDBRANCH  67  70
ENDBRANCH  49  63
BRANCH  50  74
ATOM     74  C   UNL A   1      41.041  27.595  29.053  1.00  0.00     0.023 A 
ATOM     75  C   UNL A   1      40.282  26.408  29.054  1.00  0.00     0.012 A 
ATOM     76  C   UNL A   1      41.895  27.863  27.965  1.00  0.00     0.148 A 
ATOM     77  C   UNL A   1      40.384  25.495  28.005  1.00  0.00     0.002 A 
ATOM     78  C   UNL A   1      41.954  26.973  26.897  1.00  0.00     0.091 A 
ATOM     79  F   UNL A   1      42.614  28.994  27.986  1.00  0.00    -0.205 F 
ATOM     80  C   UNL A   1      41.212  25.782  26.923  1.00  0.00     0.022 A 
BRANCH  78  81
ATOM     81  S   UNL A   1      42.889  27.314  25.401  1.00  0.00     0.127 S 
ATOM     82  O   UNL A   1      44.220  27.592  25.936  1.00  0.00    -0.237 OA
ATOM     83  O   UNL A   1      42.766  26.049  24.676  1.00  0.00    -0.237 OA
ATOM     84  O   UNL A   1      42.219  28.439  24.763  1.00  0.00    -0.744 OA
ENDBRANCH  78  81
ENDBRANCH  50  74
BRANCH  62  85
ATOM     85  C   UNL A   1      44.329  28.494  35.152  1.00  0.00     0.023 A 
ATOM     86  C   UNL A   1      45.650  28.887  34.863  1.00  0.00     0.012 A 
ATOM     87  C   UNL A   1      44.099  27.501  36.124  1.00  0.00     0.148 A 
ATOM     88  C   UNL A   1      46.727  28.282  35.511  1.00  0.00     0.002 A 
ATOM     89  C   UNL A   1      45.174  26.936  36.800  1.00  0.00     0.091 A 
ATOM     90  F   UNL A   1      42.835  27.127  36.372  1.00  0.00    -0.205 F 
ATOM     91  C   UNL A   1      46.488  27.318  36.488  1.00  0.00     0.022 A 
BRANCH  89  92
ATOM     92  S   UNL A   1      44.955  25.762  38.143  1.00  0.00     0.127 S 
ATOM     93  O   UNL A   1      44.092  26.510  39.056  1.00  0.00    -0.237 OA
ATOM     94  O   UNL A   1      44.302  24.638  37.471  1.00  0.00    -0.237 OA
ATOM     95  O   UNL A   1      46.292  25.471  38.642  1.00  0.00    -0.744 OA
ENDBRANCH  89  92
ENDBRANCH  62  85
ENDBRANCH  36  37
ENDBRANCH  28  31
ENDBRANCH  26  27
ENDBRANCH   1  26
TORSDOF 16
ENDMDL
MODEL 3
REMARK VINA RESULT:     -12.3      5.817     11.844
REMARK SMILES C[C@@H]1CN(C(=O)Nc2ccc(O)c(C(=O)NCCCNC(=O)c3ccc(-c4c5nc(c(-c6cccc(S(=O)(=O)[O-])c6F)c6ccc([nH]6)c(-c6cccc(S(=O)(=O)[O-])c6F)c6nc(c(-c7cccc(S(=O)(=O)[O-])c7F)c7ccc4[nH]7)C=C6)C=C5)cc3)c2)C[C@@H]1C
REMARK SMILES IDX 18 1 17 2 16 3 14 4 15 5 13 7 8 8 9 9 86 10 10 11 11 12 7 13
REMARK SMILES IDX 5 14 6 15 4 17 1 18 2 19 3 20 88 21 87 22 89 23 12 24 19 26
REMARK SMILES IDX 20 27 21 28 22 30 23 31 24 32 85 33 25 34 84 35 26 36 27 37
REMARK SMILES IDX 28 38 78 39 29 40 83 41 77 42 79 43 30 44 82 45 76 46 75 47
REMARK SMILES IDX 31 49 63 50 43 51 62 52 44 53 47 54 61 55 80 56 45 57 46 58
REMARK SMILES IDX 60 60 81 61 48 62 32 63 33 64 41 65 34 66 36 67 42 68 35 69
REMARK SMILES IDX 37 70 38 71 39 72 40 73 64 74 65 75 73 76 66 77 68 78 74 79
REMARK SMILES IDX 67 80 69 81 70 82 71 83 72 84 49 85 50 86 58 87 51 88 53 89
REMARK SMILES IDX 59 90 52 91 54 92 55 93 56 94 57 95
REMARK H PARENT 16 6 7 16 12 25 20 29 79 48 47 59
REMARK Flexibility Score: inf
ROOT
ATOM      1  C   UNL A   1      38.028  19.621  25.000  1.00  0.00     0.042 C 
ENDROOT
BRANCH   1   2
ATOM      2  C   UNL A   1      36.925  20.636  24.710  1.00  0.00     0.118 C 
BRANCH   2   3
ATOM      3  N   UNL A   1      36.155  20.938  25.899  1.00  0.00    -0.352 N 
ATOM      4  C   UNL A   1      34.890  21.429  26.079  1.00  0.00     0.255 C 
ATOM      5  O   UNL A   1      34.505  21.521  27.249  1.00  0.00    -0.269 OA
ATOM      6  H   UNL A   1      36.634  20.755  26.738  1.00  0.00     0.163 HD
BRANCH   4   7
ATOM      7  C   UNL A   1      33.919  21.774  24.997  1.00  0.00     0.083 A 
ATOM      8  C   UNL A   1      33.561  23.262  23.095  1.00  0.00     0.043 A 
ATOM      9  C   UNL A   1      32.406  22.570  22.753  1.00  0.00     0.030 A 
ATOM     10  C   UNL A   1      34.354  22.812  24.149  1.00  0.00     0.044 A 
ATOM     11  C   UNL A   1      31.959  21.536  23.567  1.00  0.00     0.049 A 
ATOM     12  C   UNL A   1      32.692  21.165  24.701  1.00  0.00     0.128 A 
BRANCH   8  13
ATOM     13  N   UNL A   1      33.954  24.415  22.415  1.00  0.00    -0.308 N 
ATOM     14  C   UNL A   1      33.396  25.659  22.371  1.00  0.00     0.321 C 
ATOM     15  O   UNL A   1      33.712  26.390  21.428  1.00  0.00    -0.248 OA
ATOM     16  H   UNL A   1      34.772  24.315  21.877  1.00  0.00     0.171 HD
BRANCH  14  17
ATOM     17  N   UNL A   1      32.646  26.128  23.424  1.00  0.00    -0.324 N 
ATOM     18  C   UNL A   1      29.880  25.733  25.863  1.00  0.00     0.010 C 
ATOM     19  C   UNL A   1      31.025  26.431  25.148  1.00  0.00     0.010 C 
ATOM     20  C   UNL A   1      31.239  25.889  23.736  1.00  0.00     0.125 C 
ATOM     21  C   UNL A   1      32.419  26.325  25.776  1.00  0.00     0.010 C 
ATOM     22  C   UNL A   1      33.317  26.695  24.586  1.00  0.00     0.125 C 
ATOM     23  C   UNL A   1      32.755  24.935  26.317  1.00  0.00     0.010 C 
ENDBRANCH  14  17
ENDBRANCH   8  13
BRANCH  12  24
ATOM     24  O   UNL A   1      32.157  20.180  25.468  1.00  0.00    -0.507 OA
ATOM     25  H   UNL A   1      31.665  20.398  26.235  1.00  0.00     0.293 HD
ENDBRANCH  12  24
ENDBRANCH   4   7
ENDBRANCH   2   3
ENDBRANCH   1   2
BRANCH   1  26
ATOM     26  C   UNL A   1      39.153  20.144  25.877  1.00  0.00     0.118 C 
BRANCH  26  27
ATOM     27  N   UNL A   1      40.262  19.207  25.968  1.00  0.00    -0.352 N 
ATOM     28  C   UNL A   1      41.609  19.452  26.082  1.00  0.00     0.251 C 
ATOM     29  H   UNL A   1      40.010  18.256  25.945  1.00  0.00     0.163 HD
ATOM     30  O   UNL A   1      42.402  18.528  25.922  1.00  0.00    -0.269 OA
BRANCH  28  31
ATOM     31  C   UNL A   1      42.112  20.814  26.386  1.00  0.00     0.039 A 
ATOM     32  C   UNL A   1      42.345  21.166  27.720  1.00  0.00     0.014 A 
ATOM     33  C   UNL A   1      42.313  21.757  25.375  1.00  0.00     0.014 A 
ATOM     34  C   UNL A   1      42.819  22.444  28.033  1.00  0.00     0.010 A 
ATOM     35  C   UNL A   1      42.864  22.999  25.679  1.00  0.00     0.010 A 
ATOM     36  C   UNL A   1      43.103  23.364  27.011  1.00  0.00    -0.014 A 
BRANCH  36  37
ATOM     37  C   UNL A   1      43.626  24.722  27.307  1.00  0.00     0.031 A 
ATOM     38  C   UNL A   1      42.697  25.790  27.825  1.00  0.00     0.074 A 
ATOM     39  C   UNL A   1      44.907  25.026  27.016  1.00  0.00     0.049 A 
ATOM     40  N   UNL A   1      42.941  27.052  28.065  1.00  0.00    -0.248 NA
ATOM     41  C   UNL A   1      41.302  25.391  28.076  1.00  0.00     0.031 C 
ATOM     42  C   UNL A   1      45.885  24.099  26.447  1.00  0.00     0.029 A 
ATOM     43  N   UNL A   1      45.596  26.206  27.134  1.00  0.00    -0.354 N 
ATOM     44  C   UNL A   1      41.723  27.608  28.440  1.00  0.00     0.074 A 
ATOM     45  C   UNL A   1      40.738  26.552  28.372  1.00  0.00     0.031 C 
ATOM     46  C   UNL A   1      47.051  24.743  26.274  1.00  0.00     0.029 A 
ATOM     47  C   UNL A   1      46.896  26.133  26.690  1.00  0.00     0.049 A 
ATOM     48  H   UNL A   1      45.198  27.028  27.502  1.00  0.00     0.167 HD
ATOM     49  C   UNL A   1      41.453  28.876  28.834  1.00  0.00     0.034 A 
ATOM     50  C   UNL A   1      47.852  27.079  26.623  1.00  0.00     0.034 A 
ATOM     51  C   UNL A   1      42.450  29.905  28.959  1.00  0.00     0.049 A 
ATOM     52  C   UNL A   1      47.541  28.468  27.112  1.00  0.00     0.074 A 
ATOM     53  C   UNL A   1      42.305  31.188  29.455  1.00  0.00     0.029 A 
ATOM     54  N   UNL A   1      43.776  29.769  28.579  1.00  0.00    -0.354 N 
ATOM     55  N   UNL A   1      46.425  28.933  27.619  1.00  0.00    -0.248 NA
ATOM     56  C   UNL A   1      48.630  29.454  27.052  1.00  0.00     0.031 C 
ATOM     57  C   UNL A   1      43.540  31.836  29.353  1.00  0.00     0.029 A 
ATOM     58  C   UNL A   1      44.460  30.948  28.816  1.00  0.00     0.049 A 
ATOM     59  H   UNL A   1      44.173  28.954  28.195  1.00  0.00     0.167 HD
ATOM     60  C   UNL A   1      46.687  30.252  27.976  1.00  0.00     0.074 A 
ATOM     61  C   UNL A   1      48.073  30.506  27.638  1.00  0.00     0.031 C 
ATOM     62  C   UNL A   1      45.854  31.170  28.527  1.00  0.00     0.034 A 
BRANCH  49  63
ATOM     63  C   UNL A   1      40.030  29.204  29.203  1.00  0.00     0.023 A 
ATOM     64  C   UNL A   1      39.092  29.489  28.189  1.00  0.00     0.012 A 
ATOM     65  C   UNL A   1      39.609  29.203  30.547  1.00  0.00     0.148 A 
ATOM     66  C   UNL A   1      37.773  29.811  28.507  1.00  0.00     0.002 A 
ATOM     67  C   UNL A   1      38.282  29.481  30.855  1.00  0.00     0.091 A 
ATOM     68  F   UNL A   1      40.516  28.955  31.503  1.00  0.00    -0.205 F 
ATOM     69  C   UNL A   1      37.367  29.798  29.839  1.00  0.00     0.022 A 
BRANCH  67  70
ATOM     70  S   UNL A   1      37.647  29.407  32.534  1.00  0.00     0.127 S 
ATOM     71  O   UNL A   1      38.585  30.277  33.243  1.00  0.00    -0.237 OA
ATOM     72  O   UNL A   1      36.301  29.959  32.384  1.00  0.00    -0.237 OA
ATOM     73  O   UNL A   1      37.684  28.000  32.910  1.00  0.00    -0.744 OA
ENDBRANCH  67  70
ENDBRANCH  49  63
BRANCH  50  74
ATOM     74  C   UNL A   1      49.222  26.715  26.163  1.00  0.00     0.023 A 
ATOM     75  C   UNL A   1      50.010  25.870  26.970  1.00  0.00     0.012 A 
ATOM     76  C   UNL A   1      49.729  27.149  24.923  1.00  0.00     0.148 A 
ATOM     77  C   UNL A   1      51.285  25.481  26.562  1.00  0.00     0.002 A 
ATOM     78  C   UNL A   1      50.981  26.716  24.498  1.00  0.00     0.091 A 
ATOM     79  F   UNL A   1      48.966  27.958  24.174  1.00  0.00    -0.205 F 
ATOM     80  C   UNL A   1      51.766  25.895  25.323  1.00  0.00     0.022 A 
BRANCH  78  81
ATOM     81  S   UNL A   1      51.634  27.088  22.867  1.00  0.00     0.127 S 
ATOM     82  O   UNL A   1      50.526  26.692  22.002  1.00  0.00    -0.237 OA
ATOM     83  O   UNL A   1      51.863  28.530  22.957  1.00  0.00    -0.237 OA
ATOM     84  O   UNL A   1      52.849  26.295  22.736  1.00  0.00    -0.744 OA
ENDBRANCH  78  81
ENDBRANCH  50  74
BRANCH  62  85
ATOM     85  C   UNL A   1      46.420  32.529  28.841  1.00  0.00     0.023 A 
ATOM     86  C   UNL A   1      47.004  32.773  30.099  1.00  0.00     0.012 A 
ATOM     87  C   UNL A   1      46.455  33.535  27.855  1.00  0.00     0.148 A 
ATOM     88  C   UNL A   1      47.588  34.007  30.382  1.00  0.00     0.002 A 
ATOM     89  C   UNL A   1      47.082  34.745  28.127  1.00  0.00     0.091 A 
ATOM     90  F   UNL A   1      45.877  33.290  26.670  1.00  0.00    -0.205 F 
ATOM     91  C   UNL A   1      47.639  34.986  29.392  1.00  0.00     0.022 A 
BRANCH  89  92
ATOM     92  S   UNL A   1      47.283  36.024  26.881  1.00  0.00     0.127 S 
ATOM     93  O   UNL A   1      47.768  35.252  25.737  1.00  0.00    -0.237 OA
ATOM     94  O   UNL A   1      45.920  36.536  26.736  1.00  0.00    -0.237 OA
ATOM     95  O   UNL A   1      48.230  36.980  27.438  1.00  0.00    -0.744 OA
ENDBRANCH  89  92
ENDBRANCH  62  85
ENDBRANCH  36  37
ENDBRANCH  28  31
ENDBRANCH  26  27
ENDBRANCH   1  26
TORSDOF 16
ENDMDL
