MODEL 1
REMARK VINA RESULT:     -13.2      0.000      0.000
REMARK SMILES CO[C@@H]1C[NH2+][C@@H](O[C@@H]2C[C@@H](C(=O)NCCCNC(=O)c3ccc(-c4c5nc(c(-c6cccc(S(=O)(=O)[O-])c6F)c6ccc([nH]6)c(-c6cccc(S(=O)(=O)[O-])c6F)c6nc(c(-c7cccc(S(=O)(=O)[O-])c7F)c7ccc4[nH]7)C=C6)C=C5)cc3)N(C(=O)OC(C)(C)C)C2)c2cc(Cl)ccc21
REMARK SMILES IDX 15 1 14 2 13 3 11 4 12 5 10 7 8 8 9 9 91 10 83 11 7 12 6 13
REMARK SMILES IDX 3 14 4 15 98 16 5 17 92 18 97 19 93 22 96 23 94 24 95 25
REMARK SMILES IDX 2 26 1 27 84 28 85 29 86 30 87 31 88 32 89 33 90 34 16 35
REMARK SMILES IDX 17 36 18 37 19 39 20 40 21 41 82 42 22 43 81 44 23 45 24 46
REMARK SMILES IDX 25 47 75 48 26 49 80 50 74 51 76 52 27 53 79 54 73 55 72 56
REMARK SMILES IDX 28 58 60 59 40 60 59 61 41 62 44 63 58 64 77 65 42 66 43 67
REMARK SMILES IDX 57 69 78 70 45 71 29 72 30 73 38 74 31 75 33 76 39 77 32 78
REMARK SMILES IDX 34 79 35 80 36 81 37 82 61 83 62 84 70 85 63 86 65 87 71 88
REMARK SMILES IDX 64 89 66 90 67 91 68 92 69 93 46 94 47 95 55 96 48 97 50 98
REMARK SMILES IDX 56 99 49 100 51 101 52 102 53 103 54 104
REMARK H PARENT 13 6 5 20 5 21 17 38 76 57 44 68
REMARK Flexibility Score: inf
ROOT
ATOM      1  C   UNL A   1      36.560  21.531  25.583  1.00  0.00     0.042 C 
ENDROOT
BRANCH   1   2
ATOM      2  C   UNL A   1      36.023  22.903  25.968  1.00  0.00     0.117 C 
BRANCH   2   3
ATOM      3  N   UNL A   1      35.628  23.639  24.781  1.00  0.00    -0.354 N 
ATOM      4  C   UNL A   1      34.489  23.458  24.036  1.00  0.00     0.243 C 
ATOM      5  O   UNL A   1      34.631  23.473  22.814  1.00  0.00    -0.273 OA
ATOM      6  H   UNL A   1      36.245  24.345  24.477  1.00  0.00     0.163 HD
BRANCH   4   7
ATOM      7  C   UNL A   1      33.111  23.491  24.742  1.00  0.00     0.180 C 
ATOM      8  C   UNL A   1      31.778  23.856  26.725  1.00  0.00     0.147 C 
ATOM      9  C   UNL A   1      33.039  24.318  26.027  1.00  0.00     0.069 C 
ATOM     10  C   UNL A   1      31.735  22.365  26.386  1.00  0.00     0.156 C 
ATOM     11  N   UNL A   1      32.471  22.226  25.131  1.00  0.00    -0.293 N 
BRANCH   8  12
ATOM     12  O   UNL A   1      30.627  24.679  26.565  1.00  0.00    -0.320 OA
BRANCH  12  13
ATOM     13  C   UNL A   1      30.423  25.846  25.774  1.00  0.00     0.354 C 
ATOM     14  C   UNL A   1      31.239  26.339  22.957  1.00  0.00     0.203 C 
ATOM     15  C   UNL A   1      30.233  25.263  23.435  1.00  0.00     0.300 C 
ATOM     16  C   UNL A   1      31.970  27.016  24.108  1.00  0.00    -0.002 A 
ATOM     17  N   UNL A   1      29.514  25.587  24.664  1.00  0.00    -0.315 N 
ATOM     18  C   UNL A   1      31.579  26.782  25.447  1.00  0.00     0.046 A 
ATOM     19  C   UNL A   1      33.119  27.787  23.843  1.00  0.00     0.009 A 
ATOM     20  H   UNL A   1      28.909  24.803  24.908  1.00  0.00     0.349 HD
ATOM     21  H   UNL A   1      28.971  26.434  24.498  1.00  0.00     0.349 HD
ATOM     22  C   UNL A   1      32.279  27.436  26.480  1.00  0.00     0.033 A 
ATOM     23  C   UNL A   1      33.842  28.368  24.884  1.00  0.00     0.021 A 
ATOM     24  C   UNL A   1      33.402  28.215  26.194  1.00  0.00     0.041 A 
ATOM     25  Cl  UNL A   1      34.281  28.955  27.476  1.00  0.00    -0.084 Cl
BRANCH  14  26
ATOM     26  O   UNL A   1      30.751  27.311  22.027  1.00  0.00    -0.371 OA
ATOM     27  C   UNL A   1      29.965  28.357  22.571  1.00  0.00     0.196 C 
ENDBRANCH  14  26
ENDBRANCH  12  13
ENDBRANCH   8  12
BRANCH  11  28
ATOM     28  C   UNL A   1      32.174  21.172  24.290  1.00  0.00     0.411 C 
ATOM     29  O   UNL A   1      32.104  21.301  23.070  1.00  0.00    -0.224 OA
BRANCH  28  30
ATOM     30  O   UNL A   1      32.074  19.989  24.939  1.00  0.00    -0.444 OA
BRANCH  30  31
ATOM     31  C   UNL A   1      32.821  18.822  24.507  1.00  0.00     0.106 C 
ATOM     32  C   UNL A   1      32.374  18.329  23.125  1.00  0.00     0.056 C 
ATOM     33  C   UNL A   1      34.330  19.088  24.552  1.00  0.00     0.056 C 
ATOM     34  C   UNL A   1      32.487  17.731  25.536  1.00  0.00     0.056 C 
ENDBRANCH  30  31
ENDBRANCH  28  30
ENDBRANCH  11  28
ENDBRANCH   4   7
ENDBRANCH   2   3
ENDBRANCH   1   2
BRANCH   1  35
ATOM     35  C   UNL A   1      37.995  21.612  25.092  1.00  0.00     0.118 C 
BRANCH  35  36
ATOM     36  N   UNL A   1      38.815  20.556  25.669  1.00  0.00    -0.352 N 
ATOM     37  C   UNL A   1      39.988  20.671  26.375  1.00  0.00     0.251 C 
ATOM     38  H   UNL A   1      38.486  19.637  25.535  1.00  0.00     0.163 HD
ATOM     39  O   UNL A   1      40.699  19.688  26.551  1.00  0.00    -0.269 OA
BRANCH  37  40
ATOM     40  C   UNL A   1      40.374  21.999  26.889  1.00  0.00     0.039 A 
ATOM     41  C   UNL A   1      39.963  23.146  26.209  1.00  0.00     0.014 A 
ATOM     42  C   UNL A   1      41.191  22.098  28.017  1.00  0.00     0.014 A 
ATOM     43  C   UNL A   1      40.533  24.367  26.526  1.00  0.00     0.010 A 
ATOM     44  C   UNL A   1      41.654  23.354  28.416  1.00  0.00     0.010 A 
ATOM     45  C   UNL A   1      41.370  24.492  27.645  1.00  0.00    -0.014 A 
BRANCH  45  46
ATOM     46  C   UNL A   1      41.894  25.837  27.992  1.00  0.00     0.031 A 
ATOM     47  C   UNL A   1      43.277  26.264  27.585  1.00  0.00     0.074 A 
ATOM     48  C   UNL A   1      41.076  26.698  28.630  1.00  0.00     0.049 A 
ATOM     49  N   UNL A   1      43.855  27.425  27.764  1.00  0.00    -0.248 NA
ATOM     50  C   UNL A   1      44.127  25.277  26.896  1.00  0.00     0.031 C 
ATOM     51  C   UNL A   1      39.720  26.383  29.092  1.00  0.00     0.029 A 
ATOM     52  N   UNL A   1      41.244  28.013  28.978  1.00  0.00    -0.354 N 
ATOM     53  C   UNL A   1      45.140  27.295  27.253  1.00  0.00     0.074 A 
ATOM     54  C   UNL A   1      45.267  25.943  26.759  1.00  0.00     0.031 C 
ATOM     55  C   UNL A   1      39.158  27.487  29.603  1.00  0.00     0.029 A 
ATOM     56  C   UNL A   1      40.136  28.568  29.575  1.00  0.00     0.049 A 
ATOM     57  H   UNL A   1      42.077  28.512  28.816  1.00  0.00     0.167 HD
ATOM     58  C   UNL A   1      46.117  28.228  27.187  1.00  0.00     0.034 A 
ATOM     59  C   UNL A   1      39.927  29.804  30.065  1.00  0.00     0.034 A 
ATOM     60  C   UNL A   1      45.967  29.585  27.633  1.00  0.00     0.049 A 
ATOM     61  C   UNL A   1      41.026  30.817  29.973  1.00  0.00     0.074 A 
ATOM     62  C   UNL A   1      46.888  30.616  27.556  1.00  0.00     0.029 A 
ATOM     63  N   UNL A   1      44.833  30.102  28.236  1.00  0.00    -0.354 N 
ATOM     64  N   UNL A   1      42.208  30.691  29.420  1.00  0.00    -0.248 NA
ATOM     65  C   UNL A   1      40.771  32.139  30.559  1.00  0.00     0.031 C 
ATOM     66  C   UNL A   1      46.317  31.751  28.132  1.00  0.00     0.029 A 
ATOM     67  C   UNL A   1      45.032  31.434  28.543  1.00  0.00     0.049 A 
ATOM     68  H   UNL A   1      44.007  29.596  28.417  1.00  0.00     0.167 HD
ATOM     69  C   UNL A   1      42.830  31.922  29.573  1.00  0.00     0.074 A 
ATOM     70  C   UNL A   1      41.892  32.785  30.263  1.00  0.00     0.031 C 
ATOM     71  C   UNL A   1      44.072  32.293  29.185  1.00  0.00     0.034 A 
BRANCH  58  72
ATOM     72  C   UNL A   1      47.435  27.847  26.572  1.00  0.00     0.023 A 
ATOM     73  C   UNL A   1      48.466  27.354  27.396  1.00  0.00     0.012 A 
ATOM     74  C   UNL A   1      47.601  27.846  25.173  1.00  0.00     0.148 A 
ATOM     75  C   UNL A   1      49.647  26.868  26.836  1.00  0.00     0.002 A 
ATOM     76  C   UNL A   1      48.768  27.333  24.621  1.00  0.00     0.091 A 
ATOM     77  F   UNL A   1      46.607  28.326  24.413  1.00  0.00    -0.205 F 
ATOM     78  C   UNL A   1      49.792  26.846  25.450  1.00  0.00     0.022 A 
BRANCH  76  79
ATOM     79  S   UNL A   1      49.037  27.210  22.849  1.00  0.00     0.127 S 
ATOM     80  O   UNL A   1      50.495  27.114  22.779  1.00  0.00    -0.237 OA
ATOM     81  O   UNL A   1      48.327  25.975  22.517  1.00  0.00    -0.237 OA
ATOM     82  O   UNL A   1      48.471  28.420  22.268  1.00  0.00    -0.744 OA
ENDBRANCH  76  79
ENDBRANCH  58  72
BRANCH  59  83
ATOM     83  C   UNL A   1      38.602  30.134  30.652  1.00  0.00     0.023 A 
ATOM     84  C   UNL A   1      38.285  29.683  31.946  1.00  0.00     0.012 A 
ATOM     85  C   UNL A   1      37.698  30.973  29.970  1.00  0.00     0.148 A 
ATOM     86  C   UNL A   1      37.086  30.061  32.553  1.00  0.00     0.002 A 
ATOM     87  C   UNL A   1      36.527  31.380  30.596  1.00  0.00     0.091 A 
ATOM     88  F   UNL A   1      38.030  31.391  28.740  1.00  0.00    -0.205 F 
ATOM     89  C   UNL A   1      36.215  30.918  31.884  1.00  0.00     0.022 A 
BRANCH  87  90
ATOM     90  S   UNL A   1      35.396  32.563  29.857  1.00  0.00     0.127 S 
ATOM     91  O   UNL A   1      36.258  33.730  29.686  1.00  0.00    -0.237 OA
ATOM     92  O   UNL A   1      35.022  31.884  28.616  1.00  0.00    -0.237 OA
ATOM     93  O   UNL A   1      34.307  32.724  30.812  1.00  0.00    -0.744 OA
ENDBRANCH  87  90
ENDBRANCH  59  83
BRANCH  71  94
ATOM     94  C   UNL A   1      44.514  33.700  29.459  1.00  0.00     0.023 A 
ATOM     95  C   UNL A   1      45.144  34.001  30.682  1.00  0.00     0.012 A 
ATOM     96  C   UNL A   1      44.472  34.667  28.436  1.00  0.00     0.148 A 
ATOM     97  C   UNL A   1      45.736  35.247  30.877  1.00  0.00     0.002 A 
ATOM     98  C   UNL A   1      45.094  35.894  28.626  1.00  0.00     0.091 A 
ATOM     99  F   UNL A   1      43.864  34.347  27.284  1.00  0.00    -0.205 F 
ATOM    100  C   UNL A   1      45.725  36.185  29.847  1.00  0.00     0.022 A 
BRANCH  98 101
ATOM    101  S   UNL A   1      45.202  37.135  27.334  1.00  0.00     0.127 S 
ATOM    102  O   UNL A   1      45.939  38.202  28.008  1.00  0.00    -0.237 OA
ATOM    103  O   UNL A   1      45.956  36.432  26.296  1.00  0.00    -0.237 OA
ATOM    104  O   UNL A   1      43.831  37.470  26.975  1.00  0.00    -0.744 OA
ENDBRANCH  98 101
ENDBRANCH  71  94
ENDBRANCH  45  46
ENDBRANCH  37  40
ENDBRANCH  35  36
ENDBRANCH   1  35
TORSDOF 19
ENDMDL
MODEL 2
REMARK VINA RESULT:     -12.9      1.695      2.168
REMARK SMILES CO[C@@H]1C[NH2+][C@@H](O[C@@H]2C[C@@H](C(=O)NCCCNC(=O)c3ccc(-c4c5nc(c(-c6cccc(S(=O)(=O)[O-])c6F)c6ccc([nH]6)c(-c6cccc(S(=O)(=O)[O-])c6F)c6nc(c(-c7cccc(S(=O)(=O)[O-])c7F)c7ccc4[nH]7)C=C6)C=C5)cc3)N(C(=O)OC(C)(C)C)C2)c2cc(Cl)ccc21
REMARK SMILES IDX 15 1 14 2 13 3 11 4 12 5 10 7 8 8 9 9 91 10 83 11 7 12 6 13
REMARK SMILES IDX 3 14 4 15 98 16 5 17 92 18 97 19 93 22 96 23 94 24 95 25
REMARK SMILES IDX 2 26 1 27 84 28 85 29 86 30 87 31 88 32 89 33 90 34 16 35
REMARK SMILES IDX 17 36 18 37 19 39 20 40 21 41 82 42 22 43 81 44 23 45 24 46
REMARK SMILES IDX 25 47 75 48 26 49 80 50 74 51 76 52 27 53 79 54 73 55 72 56
REMARK SMILES IDX 28 58 60 59 40 60 59 61 41 62 44 63 58 64 77 65 42 66 43 67
REMARK SMILES IDX 57 69 78 70 45 71 29 72 30 73 38 74 31 75 33 76 39 77 32 78
REMARK SMILES IDX 34 79 35 80 36 81 37 82 61 83 62 84 70 85 63 86 65 87 71 88
REMARK SMILES IDX 64 89 66 90 67 91 68 92 69 93 46 94 47 95 55 96 48 97 50 98
REMARK SMILES IDX 56 99 49 100 51 101 52 102 53 103 54 104
REMARK H PARENT 13 6 5 20 5 21 17 38 76 57 44 68
REMARK Flexibility Score: inf
ROOT
ATOM      1  C   UNL A   1      38.197  19.749  24.913  1.00  0.00     0.042 C 
ENDROOT
BRANCH   1   2
ATOM      2  C   UNL A   1      36.970  20.644  25.029  1.00  0.00     0.117 C 
BRANCH   2   3
ATOM      3  N   UNL A   1      37.153  21.851  24.243  1.00  0.00    -0.354 N 
ATOM      4  C   UNL A   1      36.179  22.568  23.593  1.00  0.00     0.243 C 
ATOM      5  O   UNL A   1      36.456  22.952  22.457  1.00  0.00    -0.273 OA
ATOM      6  H   UNL A   1      38.074  22.190  24.169  1.00  0.00     0.163 HD
BRANCH   4   7
ATOM      7  C   UNL A   1      34.938  23.048  24.384  1.00  0.00     0.180 C 
ATOM      8  C   UNL A   1      33.942  23.879  26.424  1.00  0.00     0.147 C 
ATOM      9  C   UNL A   1      35.223  23.907  25.618  1.00  0.00     0.069 C 
ATOM     10  C   UNL A   1      33.425  22.460  26.181  1.00  0.00     0.156 C 
ATOM     11  N   UNL A   1      33.980  22.055  24.891  1.00  0.00    -0.293 N 
BRANCH   8  12
ATOM     12  O   UNL A   1      33.084  25.007  26.289  1.00  0.00    -0.320 OA
BRANCH  12  13
ATOM     13  C   UNL A   1      33.322  26.292  25.721  1.00  0.00     0.354 C 
ATOM     14  C   UNL A   1      31.486  28.629  25.598  1.00  0.00     0.203 C 
ATOM     15  C   UNL A   1      32.048  27.984  26.889  1.00  0.00     0.300 C 
ATOM     16  C   UNL A   1      31.789  27.811  24.350  1.00  0.00    -0.002 A 
ATOM     17  N   UNL A   1      33.347  27.331  26.742  1.00  0.00    -0.315 N 
ATOM     18  C   UNL A   1      32.665  26.701  24.410  1.00  0.00     0.046 A 
ATOM     19  C   UNL A   1      31.101  28.090  23.153  1.00  0.00     0.009 A 
ATOM     20  H   UNL A   1      33.607  26.911  27.635  1.00  0.00     0.349 HD
ATOM     21  H   UNL A   1      34.025  28.038  26.456  1.00  0.00     0.349 HD
ATOM     22  C   UNL A   1      32.922  25.978  23.228  1.00  0.00     0.033 A 
ATOM     23  C   UNL A   1      31.315  27.319  22.012  1.00  0.00     0.021 A 
ATOM     24  C   UNL A   1      32.246  26.286  22.046  1.00  0.00     0.041 A 
ATOM     25  Cl  UNL A   1      32.528  25.350  20.629  1.00  0.00    -0.084 Cl
BRANCH  14  26
ATOM     26  O   UNL A   1      31.790  30.011  25.382  1.00  0.00    -0.371 OA
ATOM     27  C   UNL A   1      31.876  30.821  26.540  1.00  0.00     0.196 C 
ENDBRANCH  14  26
ENDBRANCH  12  13
ENDBRANCH   8  12
BRANCH  11  28
ATOM     28  C   UNL A   1      33.312  21.110  24.139  1.00  0.00     0.411 C 
ATOM     29  O   UNL A   1      32.209  21.323  23.641  1.00  0.00    -0.224 OA
BRANCH  28  30
ATOM     30  O   UNL A   1      34.039  19.989  23.930  1.00  0.00    -0.444 OA
BRANCH  30  31
ATOM     31  C   UNL A   1      33.547  18.681  24.326  1.00  0.00     0.106 C 
ATOM     32  C   UNL A   1      34.659  17.624  24.332  1.00  0.00     0.056 C 
ATOM     33  C   UNL A   1      32.828  18.752  25.678  1.00  0.00     0.056 C 
ATOM     34  C   UNL A   1      32.524  18.295  23.248  1.00  0.00     0.056 C 
ENDBRANCH  30  31
ENDBRANCH  28  30
ENDBRANCH  11  28
ENDBRANCH   4   7
ENDBRANCH   2   3
ENDBRANCH   1   2
BRANCH   1  35
ATOM     35  C   UNL A   1      39.106  19.889  26.122  1.00  0.00     0.118 C 
BRANCH  35  36
ATOM     36  N   UNL A   1      40.391  19.240  25.900  1.00  0.00    -0.352 N 
ATOM     37  C   UNL A   1      41.638  19.812  25.832  1.00  0.00     0.251 C 
ATOM     38  H   UNL A   1      40.362  18.263  25.781  1.00  0.00     0.163 HD
ATOM     39  O   UNL A   1      42.579  19.181  25.366  1.00  0.00    -0.269 OA
BRANCH  37  40
ATOM     40  C   UNL A   1      41.806  21.198  26.310  1.00  0.00     0.039 A 
ATOM     41  C   UNL A   1      42.003  22.225  25.386  1.00  0.00     0.014 A 
ATOM     42  C   UNL A   1      41.821  21.465  27.680  1.00  0.00     0.014 A 
ATOM     43  C   UNL A   1      42.420  23.468  25.828  1.00  0.00     0.010 A 
ATOM     44  C   UNL A   1      42.109  22.759  28.121  1.00  0.00     0.010 A 
ATOM     45  C   UNL A   1      42.460  23.759  27.200  1.00  0.00    -0.014 A 
BRANCH  45  46
ATOM     46  C   UNL A   1      42.839  25.130  27.624  1.00  0.00     0.031 A 
ATOM     47  C   UNL A   1      44.237  25.649  27.432  1.00  0.00     0.074 A 
ATOM     48  C   UNL A   1      41.879  25.931  28.132  1.00  0.00     0.049 A 
ATOM     49  N   UNL A   1      44.706  26.842  27.698  1.00  0.00    -0.248 NA
ATOM     50  C   UNL A   1      45.243  24.725  26.879  1.00  0.00     0.031 C 
ATOM     51  C   UNL A   1      40.492  25.526  28.382  1.00  0.00     0.029 A 
ATOM     52  N   UNL A   1      41.909  27.250  28.503  1.00  0.00    -0.354 N 
ATOM     53  C   UNL A   1      46.059  26.799  27.388  1.00  0.00     0.074 A 
ATOM     54  C   UNL A   1      46.345  25.463  26.917  1.00  0.00     0.031 C 
ATOM     55  C   UNL A   1      39.791  26.587  28.804  1.00  0.00     0.029 A 
ATOM     56  C   UNL A   1      40.690  27.727  28.926  1.00  0.00     0.049 A 
ATOM     57  H   UNL A   1      42.723  27.802  28.470  1.00  0.00     0.167 HD
ATOM     58  C   UNL A   1      46.973  27.792  27.472  1.00  0.00     0.034 A 
ATOM     59  C   UNL A   1      40.330  28.943  29.380  1.00  0.00     0.034 A 
ATOM     60  C   UNL A   1      46.670  29.132  27.892  1.00  0.00     0.049 A 
ATOM     61  C   UNL A   1      41.364  30.024  29.457  1.00  0.00     0.074 A 
ATOM     62  C   UNL A   1      47.524  30.220  27.957  1.00  0.00     0.029 A 
ATOM     63  N   UNL A   1      45.427  29.569  28.316  1.00  0.00    -0.354 N 
ATOM     64  N   UNL A   1      42.621  29.979  29.089  1.00  0.00    -0.248 NA
ATOM     65  C   UNL A   1      40.938  31.321  29.999  1.00  0.00     0.031 C 
ATOM     66  C   UNL A   1      46.801  31.310  28.441  1.00  0.00     0.029 A 
ATOM     67  C   UNL A   1      45.492  30.908  28.652  1.00  0.00     0.049 A 
ATOM     68  H   UNL A   1      44.618  29.011  28.370  1.00  0.00     0.167 HD
ATOM     69  C   UNL A   1      43.133  31.245  29.337  1.00  0.00     0.074 A 
ATOM     70  C   UNL A   1      42.048  32.039  29.878  1.00  0.00     0.031 C 
ATOM     71  C   UNL A   1      44.392  31.698  29.142  1.00  0.00     0.034 A 
BRANCH  58  72
ATOM     72  C   UNL A   1      48.390  27.502  27.064  1.00  0.00     0.023 A 
ATOM     73  C   UNL A   1      49.271  26.915  27.993  1.00  0.00     0.012 A 
ATOM     74  C   UNL A   1      48.804  27.681  25.729  1.00  0.00     0.148 A 
ATOM     75  C   UNL A   1      50.547  26.512  27.600  1.00  0.00     0.002 A 
ATOM     76  C   UNL A   1      50.066  27.251  25.338  1.00  0.00     0.091 A 
ATOM     77  F   UNL A   1      47.948  28.248  24.867  1.00  0.00    -0.205 F 
ATOM     78  C   UNL A   1      50.939  26.669  26.272  1.00  0.00     0.022 A 
BRANCH  76  79
ATOM     79  S   UNL A   1      50.651  27.358  23.643  1.00  0.00     0.127 S 
ATOM     80  O   UNL A   1      51.897  26.594  23.714  1.00  0.00    -0.237 OA
ATOM     81  O   UNL A   1      49.573  26.700  22.905  1.00  0.00    -0.237 OA
ATOM     82  O   UNL A   1      50.815  28.777  23.359  1.00  0.00    -0.744 OA
ENDBRANCH  76  79
ENDBRANCH  58  72
BRANCH  59  83
ATOM     83  C   UNL A   1      38.913  29.182  29.759  1.00  0.00     0.023 A 
ATOM     84  C   UNL A   1      38.501  28.946  31.084  1.00  0.00     0.012 A 
ATOM     85  C   UNL A   1      38.001  29.733  28.837  1.00  0.00     0.148 A 
ATOM     86  C   UNL A   1      37.200  29.254  31.484  1.00  0.00     0.002 A 
ATOM     87  C   UNL A   1      36.722  30.077  29.253  1.00  0.00     0.091 A 
ATOM     88  F   UNL A   1      38.425  29.952  27.584  1.00  0.00    -0.205 F 
ATOM     89  C   UNL A   1      36.316  29.830  30.574  1.00  0.00     0.022 A 
BRANCH  87  90
ATOM     90  S   UNL A   1      35.550  30.918  28.184  1.00  0.00     0.127 S 
ATOM     91  O   UNL A   1      35.199  29.860  27.239  1.00  0.00    -0.237 OA
ATOM     92  O   UNL A   1      34.491  31.279  29.127  1.00  0.00    -0.237 OA
ATOM     93  O   UNL A   1      36.269  32.050  27.616  1.00  0.00    -0.744 OA
ENDBRANCH  87  90
ENDBRANCH  59  83
BRANCH  71  94
ATOM     94  C   UNL A   1      44.697  33.127  29.482  1.00  0.00     0.023 A 
ATOM     95  C   UNL A   1      45.297  33.431  30.719  1.00  0.00     0.012 A 
ATOM     96  C   UNL A   1      44.559  34.132  28.505  1.00  0.00     0.148 A 
ATOM     97  C   UNL A   1      45.767  34.718  30.973  1.00  0.00     0.002 A 
ATOM     98  C   UNL A   1      45.060  35.402  28.752  1.00  0.00     0.091 A 
ATOM     99  F   UNL A   1      43.983  33.808  27.337  1.00  0.00    -0.205 F 
ATOM    100  C   UNL A   1      45.663  35.696  29.987  1.00  0.00     0.022 A 
BRANCH  98 101
ATOM    101  S   UNL A   1      45.045  36.706  27.519  1.00  0.00     0.127 S 
ATOM    102  O   UNL A   1      45.734  37.787  28.222  1.00  0.00    -0.237 OA
ATOM    103  O   UNL A   1      45.807  36.104  26.426  1.00  0.00    -0.237 OA
ATOM    104  O   UNL A   1      43.644  36.967  27.219  1.00  0.00    -0.744 OA
ENDBRANCH  98 101
ENDBRANCH  71  94
ENDBRANCH  45  46
ENDBRANCH  37  40
ENDBRANCH  35  36
ENDBRANCH   1  35
TORSDOF 19
ENDMDL
MODEL 3
REMARK VINA RESULT:     -12.8      0.389      7.184
REMARK SMILES CO[C@@H]1C[NH2+][C@@H](O[C@@H]2C[C@@H](C(=O)NCCCNC(=O)c3ccc(-c4c5nc(c(-c6cccc(S(=O)(=O)[O-])c6F)c6ccc([nH]6)c(-c6cccc(S(=O)(=O)[O-])c6F)c6nc(c(-c7cccc(S(=O)(=O)[O-])c7F)c7ccc4[nH]7)C=C6)C=C5)cc3)N(C(=O)OC(C)(C)C)C2)c2cc(Cl)ccc21
REMARK SMILES IDX 15 1 14 2 13 3 11 4 12 5 10 7 8 8 9 9 91 10 83 11 7 12 6 13
REMARK SMILES IDX 3 14 4 15 98 16 5 17 92 18 97 19 93 22 96 23 94 24 95 25
REMARK SMILES IDX 2 26 1 27 84 28 85 29 86 30 87 31 88 32 89 33 90 34 16 35
REMARK SMILES IDX 17 36 18 37 19 39 20 40 21 41 82 42 22 43 81 44 23 45 24 46
REMARK SMILES IDX 25 47 75 48 26 49 80 50 74 51 76 52 27 53 79 54 73 55 72 56
REMARK SMILES IDX 28 58 60 59 40 60 59 61 41 62 44 63 58 64 77 65 42 66 43 67
REMARK SMILES IDX 57 69 78 70 45 71 29 72 30 73 38 74 31 75 33 76 39 77 32 78
REMARK SMILES IDX 34 79 35 80 36 81 37 82 61 83 62 84 70 85 63 86 65 87 71 88
REMARK SMILES IDX 64 89 66 90 67 91 68 92 69 93 46 94 47 95 55 96 48 97 50 98
REMARK SMILES IDX 56 99 49 100 51 101 52 102 53 103 54 104
REMARK H PARENT 13 6 5 20 5 21 17 38 76 57 44 68
REMARK Flexibility Score: inf
ROOT
ATOM      1  C   UNL A   1      37.153  20.755  24.983  1.00  0.00     0.042 C 
ENDROOT
BRANCH   1   2
ATOM      2  C   UNL A   1      36.051  21.632  25.561  1.00  0.00     0.117 C 
BRANCH   2   3
ATOM      3  N   UNL A   1      35.838  22.793  24.715  1.00  0.00    -0.354 N 
ATOM      4  C   UNL A   1      34.701  23.106  24.013  1.00  0.00     0.243 C 
ATOM      5  O   UNL A   1      34.867  23.511  22.862  1.00  0.00    -0.273 OA
ATOM      6  H   UNL A   1      36.591  23.422  24.637  1.00  0.00     0.163 HD
BRANCH   4   7
ATOM      7  C   UNL A   1      33.345  23.170  24.758  1.00  0.00     0.180 C 
ATOM      8  C   UNL A   1      32.078  23.562  26.780  1.00  0.00     0.147 C 
ATOM      9  C   UNL A   1      33.328  23.997  26.045  1.00  0.00     0.069 C 
ATOM     10  C   UNL A   1      31.994  22.072  26.442  1.00  0.00     0.156 C 
ATOM     11  N   UNL A   1      32.690  21.918  25.166  1.00  0.00    -0.293 N 
BRANCH   8  12
ATOM     12  O   UNL A   1      30.941  24.410  26.652  1.00  0.00    -0.320 OA
BRANCH  12  13
ATOM     13  C   UNL A   1      30.702  25.520  25.793  1.00  0.00     0.354 C 
ATOM     14  C   UNL A   1      31.642  25.937  23.002  1.00  0.00     0.203 C 
ATOM     15  C   UNL A   1      30.687  24.815  23.480  1.00  0.00     0.300 C 
ATOM     16  C   UNL A   1      32.257  26.719  24.155  1.00  0.00    -0.002 A 
ATOM     17  N   UNL A   1      29.878  25.145  24.651  1.00  0.00    -0.315 N 
ATOM     18  C   UNL A   1      31.807  26.520  25.481  1.00  0.00     0.046 A 
ATOM     19  C   UNL A   1      33.363  27.557  23.913  1.00  0.00     0.009 A 
ATOM     20  H   UNL A   1      29.316  24.331  24.902  1.00  0.00     0.349 HD
ATOM     21  H   UNL A   1      29.288  25.941  24.412  1.00  0.00     0.349 HD
ATOM     22  C   UNL A   1      32.400  27.272  26.515  1.00  0.00     0.033 A 
ATOM     23  C   UNL A   1      33.983  28.237  24.960  1.00  0.00     0.021 A 
ATOM     24  C   UNL A   1      33.481  28.115  26.250  1.00  0.00     0.041 A 
ATOM     25  Cl  UNL A   1      34.231  28.976  27.539  1.00  0.00    -0.084 Cl
BRANCH  14  26
ATOM     26  O   UNL A   1      31.141  26.827  21.999  1.00  0.00    -0.371 OA
ATOM     27  C   UNL A   1      30.367  27.919  22.462  1.00  0.00     0.196 C 
ENDBRANCH  14  26
ENDBRANCH  12  13
ENDBRANCH   8  12
BRANCH  11  28
ATOM     28  C   UNL A   1      32.345  20.871  24.335  1.00  0.00     0.411 C 
ATOM     29  O   UNL A   1      32.284  20.991  23.113  1.00  0.00    -0.224 OA
BRANCH  28  30
ATOM     30  O   UNL A   1      32.190  19.700  24.995  1.00  0.00    -0.444 OA
BRANCH  30  31
ATOM     31  C   UNL A   1      32.833  18.481  24.539  1.00  0.00     0.106 C 
ATOM     32  C   UNL A   1      34.358  18.628  24.462  1.00  0.00     0.056 C 
ATOM     33  C   UNL A   1      32.423  17.286  25.407  1.00  0.00     0.056 C 
ATOM     34  C   UNL A   1      32.301  18.257  23.115  1.00  0.00     0.056 C 
ENDBRANCH  30  31
ENDBRANCH  28  30
ENDBRANCH  11  28
ENDBRANCH   4   7
ENDBRANCH   2   3
ENDBRANCH   1   2
BRANCH   1  35
ATOM     35  C   UNL A   1      38.531  21.313  25.295  1.00  0.00     0.118 C 
BRANCH  35  36
ATOM     36  N   UNL A   1      39.323  20.370  26.074  1.00  0.00    -0.352 N 
ATOM     37  C   UNL A   1      40.414  20.622  26.870  1.00  0.00     0.251 C 
ATOM     38  H   UNL A   1      39.039  19.429  26.023  1.00  0.00     0.163 HD
ATOM     39  O   UNL A   1      41.135  19.699  27.233  1.00  0.00    -0.269 OA
BRANCH  37  40
ATOM     40  C   UNL A   1      40.703  22.017  27.251  1.00  0.00     0.039 A 
ATOM     41  C   UNL A   1      40.144  23.061  26.513  1.00  0.00     0.014 A 
ATOM     42  C   UNL A   1      41.573  22.284  28.310  1.00  0.00     0.014 A 
ATOM     43  C   UNL A   1      40.613  24.351  26.694  1.00  0.00     0.010 A 
ATOM     44  C   UNL A   1      41.938  23.605  28.577  1.00  0.00     0.010 A 
ATOM     45  C   UNL A   1      41.501  24.645  27.741  1.00  0.00    -0.014 A 
BRANCH  45  46
ATOM     46  C   UNL A   1      41.915  26.055  27.945  1.00  0.00     0.031 A 
ATOM     47  C   UNL A   1      41.022  27.038  28.648  1.00  0.00     0.074 A 
ATOM     48  C   UNL A   1      43.147  26.425  27.537  1.00  0.00     0.049 A 
ATOM     49  N   UNL A   1      41.266  28.288  28.952  1.00  0.00    -0.248 NA
ATOM     50  C   UNL A   1      39.685  26.577  29.063  1.00  0.00     0.031 C 
ATOM     51  C   UNL A   1      44.092  25.560  26.824  1.00  0.00     0.029 A 
ATOM     52  N   UNL A   1      43.828  27.606  27.682  1.00  0.00    -0.354 N 
ATOM     53  C   UNL A   1      40.109  28.770  29.550  1.00  0.00     0.074 A 
ATOM     54  C   UNL A   1      39.155  27.685  29.566  1.00  0.00     0.031 C 
ATOM     55  C   UNL A   1      45.249  26.214  26.651  1.00  0.00     0.029 A 
ATOM     56  C   UNL A   1      45.105  27.568  27.172  1.00  0.00     0.049 A 
ATOM     57  H   UNL A   1      43.442  28.403  28.111  1.00  0.00     0.167 HD
ATOM     58  C   UNL A   1      39.875  30.002  30.055  1.00  0.00     0.034 A 
ATOM     59  C   UNL A   1      46.057  28.518  27.110  1.00  0.00     0.034 A 
ATOM     60  C   UNL A   1      40.846  31.060  30.083  1.00  0.00     0.049 A 
ATOM     61  C   UNL A   1      45.769  29.872  27.683  1.00  0.00     0.074 A 
ATOM     62  C   UNL A   1      40.713  32.327  30.625  1.00  0.00     0.029 A 
ATOM     63  N   UNL A   1      42.122  30.981  29.550  1.00  0.00    -0.354 N 
ATOM     64  N   UNL A   1      44.693  30.281  28.308  1.00  0.00    -0.248 NA
ATOM     65  C   UNL A   1      46.819  30.891  27.554  1.00  0.00     0.031 C 
ATOM     66  C   UNL A   1      41.903  33.021  30.401  1.00  0.00     0.029 A 
ATOM     67  C   UNL A   1      42.785  32.178  29.743  1.00  0.00     0.049 A 
ATOM     68  H   UNL A   1      42.501  30.190  29.102  1.00  0.00     0.167 HD
ATOM     69  C   UNL A   1      44.941  31.599  28.665  1.00  0.00     0.074 A 
ATOM     70  C   UNL A   1      46.274  31.918  28.195  1.00  0.00     0.031 C 
ATOM     71  C   UNL A   1      44.128  32.464  29.313  1.00  0.00     0.034 A 
BRANCH  58  72
ATOM     72  C   UNL A   1      38.532  30.284  30.669  1.00  0.00     0.023 A 
ATOM     73  C   UNL A   1      38.251  29.811  31.966  1.00  0.00     0.012 A 
ATOM     74  C   UNL A   1      37.608  31.127  30.020  1.00  0.00     0.148 A 
ATOM     75  C   UNL A   1      37.068  30.172  32.609  1.00  0.00     0.002 A 
ATOM     76  C   UNL A   1      36.446  31.507  30.679  1.00  0.00     0.091 A 
ATOM     77  F   UNL A   1      37.897  31.558  28.784  1.00  0.00    -0.205 F 
ATOM     78  C   UNL A   1      36.173  31.029  31.971  1.00  0.00     0.022 A 
BRANCH  76  79
ATOM     79  S   UNL A   1      35.250  32.645  29.970  1.00  0.00     0.127 S 
ATOM     80  O   UNL A   1      34.234  32.695  31.022  1.00  0.00    -0.237 OA
ATOM     81  O   UNL A   1      36.040  33.868  29.826  1.00  0.00    -0.237 OA
ATOM     82  O   UNL A   1      34.811  32.045  28.718  1.00  0.00    -0.744 OA
ENDBRANCH  76  79
ENDBRANCH  58  72
BRANCH  59  83
ATOM     83  C   UNL A   1      47.372  28.185  26.504  1.00  0.00     0.023 A 
ATOM     84  C   UNL A   1      48.467  27.898  27.340  1.00  0.00     0.012 A 
ATOM     85  C   UNL A   1      47.514  28.056  25.108  1.00  0.00     0.148 A 
ATOM     86  C   UNL A   1      49.685  27.490  26.795  1.00  0.00     0.002 A 
ATOM     87  C   UNL A   1      48.716  27.609  24.575  1.00  0.00     0.091 A 
ATOM     88  F   UNL A   1      46.452  28.331  24.338  1.00  0.00    -0.205 F 
ATOM     89  C   UNL A   1      49.805  27.333  25.415  1.00  0.00     0.022 A 
BRANCH  87  90
ATOM     90  S   UNL A   1      48.933  27.277  22.823  1.00  0.00     0.127 S 
ATOM     91  O   UNL A   1      50.388  27.239  22.707  1.00  0.00    -0.237 OA
ATOM     92  O   UNL A   1      48.268  25.981  22.680  1.00  0.00    -0.237 OA
ATOM     93  O   UNL A   1      48.278  28.375  22.125  1.00  0.00    -0.744 OA
ENDBRANCH  87  90
ENDBRANCH  59  83
BRANCH  71  94
ATOM     94  C   UNL A   1      44.638  33.848  29.595  1.00  0.00     0.023 A 
ATOM     95  C   UNL A   1      45.383  34.084  30.766  1.00  0.00     0.012 A 
ATOM     96  C   UNL A   1      44.534  34.853  28.615  1.00  0.00     0.148 A 
ATOM     97  C   UNL A   1      46.030  35.304  30.951  1.00  0.00     0.002 A 
ATOM     98  C   UNL A   1      45.209  36.054  28.791  1.00  0.00     0.091 A 
ATOM     99  F   UNL A   1      43.816  34.595  27.512  1.00  0.00    -0.205 F 
ATOM    100  C   UNL A   1      45.956  36.280  29.960  1.00  0.00     0.022 A 
BRANCH  98 101
ATOM    101  S   UNL A   1      45.241  37.339  27.539  1.00  0.00     0.127 S 
ATOM    102  O   UNL A   1      45.784  38.471  28.289  1.00  0.00    -0.237 OA
ATOM    103  O   UNL A   1      46.149  36.774  26.542  1.00  0.00    -0.237 OA
ATOM    104  O   UNL A   1      43.865  37.505  27.091  1.00  0.00    -0.744 OA
ENDBRANCH  98 101
ENDBRANCH  71  94
ENDBRANCH  45  46
ENDBRANCH  37  40
ENDBRANCH  35  36
ENDBRANCH   1  35
TORSDOF 19
ENDMDL
