MODEL 1
REMARK VINA RESULT:     -13.1      0.000      0.000
REMARK SMILES CCCC(=O)N(c1cc2sc(=O)oc2c2ccccc12)S(=O)(=O)c1ccc(C(=O)NCCCNC(=O)c2ccc(-c3c4nc(c(-c5cccc(S(=O)(=O)[O-])c5F)c5ccc([nH]5)c(-c5cccc(S(=O)(=O)[O-])c5F)c5nc(c(-c6cccc(S(=O)(=O)[O-])c6F)c6ccc3[nH]6)C=C5)C=C4)cc2)cc1
REMARK SMILES IDX 31 1 30 2 28 3 29 4 27 6 24 7 25 8 101 9 26 10 100 11 21 12
REMARK SMILES IDX 22 13 23 14 6 15 4 16 5 17 3 18 2 19 1 20 7 21 8 22 20 23
REMARK SMILES IDX 9 24 15 25 19 26 10 27 14 28 16 29 18 30 11 31 13 32 17 33
REMARK SMILES IDX 12 34 32 35 33 36 34 37 35 38 36 40 37 41 38 42 99 43 39 44
REMARK SMILES IDX 98 45 40 46 41 47 42 48 92 49 43 50 97 51 91 52 93 53 44 54
REMARK SMILES IDX 96 55 90 56 89 57 45 59 77 60 57 61 76 62 58 63 61 64 75 65
REMARK SMILES IDX 94 66 59 67 60 68 74 70 95 71 62 72 46 73 47 74 55 75 48 76
REMARK SMILES IDX 50 77 56 78 49 79 51 80 52 81 53 82 54 83 78 84 79 85 87 86
REMARK SMILES IDX 80 87 82 88 88 89 81 90 83 91 84 92 85 93 86 94 63 95 64 96
REMARK SMILES IDX 72 97 65 98 67 99 73 100 66 101 68 102 69 103 70 104 71 105
REMARK H PARENT 30 5 34 39 93 58 61 69
REMARK Flexibility Score: inf
ROOT
ATOM      1  C   UNL A   1      31.593  29.676  25.273  1.00  0.00     0.118 C 
ENDROOT
BRANCH   1   2
ATOM      2  N   UNL A   1      32.658  29.796  24.289  1.00  0.00    -0.352 N 
ATOM      3  C   UNL A   1      33.297  28.936  23.447  1.00  0.00     0.251 C 
ATOM      4  O   UNL A   1      34.214  29.419  22.774  1.00  0.00    -0.269 OA
ATOM      5  H   UNL A   1      32.998  30.717  24.215  1.00  0.00     0.163 HD
BRANCH   3   6
ATOM      6  C   UNL A   1      32.961  27.499  23.249  1.00  0.00     0.039 A 
ATOM      7  C   UNL A   1      32.468  24.711  23.186  1.00  0.00     0.088 A 
ATOM      8  C   UNL A   1      33.576  25.214  23.864  1.00  0.00     0.023 A 
ATOM      9  C   UNL A   1      31.669  25.592  22.450  1.00  0.00     0.023 A 
ATOM     10  C   UNL A   1      33.784  26.592  23.941  1.00  0.00     0.015 A 
ATOM     11  C   UNL A   1      31.913  26.979  22.485  1.00  0.00     0.015 A 
BRANCH   7  12
ATOM     12  S   UNL A   1      32.147  22.943  23.133  1.00  0.00     0.270 S 
ATOM     13  O   UNL A   1      33.028  22.427  22.108  1.00  0.00    -0.201 OA
ATOM     14  O   UNL A   1      30.704  22.808  23.043  1.00  0.00    -0.201 OA
BRANCH  12  15
ATOM     15  N   UNL A   1      32.579  22.241  24.646  1.00  0.00    -0.202 N 
BRANCH  15  16
ATOM     16  C   UNL A   1      31.603  22.332  25.704  1.00  0.00     0.241 C 
ATOM     17  O   UNL A   1      30.779  21.446  25.915  1.00  0.00    -0.273 OA
BRANCH  16  18
ATOM     18  C   UNL A   1      31.563  23.580  26.583  1.00  0.00     0.101 C 
BRANCH  18  19
ATOM     19  C   UNL A   1      30.309  24.436  26.378  1.00  0.00     0.006 C 
ATOM     20  C   UNL A   1      30.639  25.885  26.044  1.00  0.00     0.004 C 
ENDBRANCH  18  19
ENDBRANCH  16  18
ENDBRANCH  15  16
BRANCH  15  21
ATOM     21  C   UNL A   1      33.420  21.074  24.645  1.00  0.00     0.070 A 
ATOM     22  C   UNL A   1      32.743  19.847  24.535  1.00  0.00     0.051 A 
ATOM     23  C   UNL A   1      34.844  21.119  24.824  1.00  0.00     0.010 A 
ATOM     24  C   UNL A   1      33.462  18.673  24.646  1.00  0.00     0.080 A 
ATOM     25  C   UNL A   1      35.569  19.896  24.815  1.00  0.00     0.028 A 
ATOM     26  C   UNL A   1      35.593  22.306  25.003  1.00  0.00     0.011 A 
ATOM     27  S   UNL A   1      32.845  17.035  24.711  1.00  0.00    -0.052 S 
ATOM     28  C   UNL A   1      34.844  18.696  24.778  1.00  0.00     0.157 A 
ATOM     29  C   UNL A   1      36.978  19.909  24.839  1.00  0.00     0.013 A 
ATOM     30  C   UNL A   1      36.990  22.304  25.018  1.00  0.00     0.001 A 
ATOM     31  C   UNL A   1      34.498  16.470  24.971  1.00  0.00     0.396 A 
ATOM     32  O   UNL A   1      35.480  17.456  24.923  1.00  0.00    -0.413 OA
ATOM     33  C   UNL A   1      37.683  21.107  24.905  1.00  0.00     0.001 A 
ATOM     34  O   UNL A   1      34.763  15.290  25.156  1.00  0.00    -0.233 OA
ENDBRANCH  15  21
ENDBRANCH  12  15
ENDBRANCH   7  12
ENDBRANCH   3   6
ENDBRANCH   1   2
BRANCH   1  35
ATOM     35  C   UNL A   1      32.186  29.318  26.633  1.00  0.00     0.042 C 
BRANCH  35  36
ATOM     36  C   UNL A   1      33.690  29.611  26.678  1.00  0.00     0.118 C 
BRANCH  36  37
ATOM     37  N   UNL A   1      34.016  30.989  27.039  1.00  0.00    -0.352 N 
ATOM     38  C   UNL A   1      35.060  31.478  27.795  1.00  0.00     0.251 C 
ATOM     39  H   UNL A   1      33.397  31.670  26.689  1.00  0.00     0.163 HD
ATOM     40  O   UNL A   1      35.138  32.674  28.049  1.00  0.00    -0.269 OA
BRANCH  38  41
ATOM     41  C   UNL A   1      36.034  30.517  28.344  1.00  0.00     0.039 A 
ATOM     42  C   UNL A   1      35.975  30.179  29.697  1.00  0.00     0.014 A 
ATOM     43  C   UNL A   1      37.092  30.089  27.537  1.00  0.00     0.014 A 
ATOM     44  C   UNL A   1      37.079  29.605  30.296  1.00  0.00     0.010 A 
ATOM     45  C   UNL A   1      38.173  29.443  28.128  1.00  0.00     0.010 A 
ATOM     46  C   UNL A   1      38.188  29.264  29.516  1.00  0.00    -0.014 A 
BRANCH  46  47
ATOM     47  C   UNL A   1      39.285  28.620  30.242  1.00  0.00     0.031 A 
ATOM     48  C   UNL A   1      39.772  27.389  29.548  1.00  0.00     0.074 A 
ATOM     49  C   UNL A   1      40.083  29.349  31.049  1.00  0.00     0.049 A 
ATOM     50  N   UNL A   1      40.621  27.414  28.565  1.00  0.00    -0.248 NA
ATOM     51  C   UNL A   1      39.084  26.105  29.696  1.00  0.00     0.031 C 
ATOM     52  C   UNL A   1      40.598  30.687  30.731  1.00  0.00     0.029 A 
ATOM     53  N   UNL A   1      40.755  28.988  32.195  1.00  0.00    -0.354 N 
ATOM     54  C   UNL A   1      40.567  26.180  27.937  1.00  0.00     0.074 A 
ATOM     55  C   UNL A   1      39.594  25.402  28.672  1.00  0.00     0.031 C 
ATOM     56  C   UNL A   1      41.641  30.953  31.546  1.00  0.00     0.029 A 
ATOM     57  C   UNL A   1      41.796  29.864  32.507  1.00  0.00     0.049 A 
ATOM     58  H   UNL A   1      40.526  28.198  32.735  1.00  0.00     0.167 HD
ATOM     59  C   UNL A   1      41.337  25.862  26.859  1.00  0.00     0.034 A 
ATOM     60  C   UNL A   1      42.969  29.452  33.070  1.00  0.00     0.034 A 
ATOM     61  C   UNL A   1      42.252  26.890  26.452  1.00  0.00     0.049 A 
ATOM     62  C   UNL A   1      43.651  28.870  31.844  1.00  0.00     0.074 A 
ATOM     63  C   UNL A   1      42.382  27.806  25.432  1.00  0.00     0.029 A 
ATOM     64  N   UNL A   1      43.318  27.146  27.282  1.00  0.00    -0.354 N 
ATOM     65  N   UNL A   1      44.167  29.548  30.849  1.00  0.00    -0.248 NA
ATOM     66  C   UNL A   1      43.351  27.470  31.533  1.00  0.00     0.031 C 
ATOM     67  C   UNL A   1      43.227  28.839  25.954  1.00  0.00     0.029 A 
ATOM     68  C   UNL A   1      43.558  28.494  27.264  1.00  0.00     0.049 A 
ATOM     69  H   UNL A   1      43.820  26.476  27.800  1.00  0.00     0.167 HD
ATOM     70  C   UNL A   1      43.950  28.761  29.711  1.00  0.00     0.074 A 
ATOM     71  C   UNL A   1      43.454  27.493  30.211  1.00  0.00     0.031 C 
ATOM     72  C   UNL A   1      44.024  29.225  28.427  1.00  0.00     0.034 A 
BRANCH  59  73
ATOM     73  C   UNL A   1      41.484  24.491  26.314  1.00  0.00     0.023 A 
ATOM     74  C   UNL A   1      40.408  23.616  26.572  1.00  0.00     0.012 A 
ATOM     75  C   UNL A   1      42.672  23.979  25.761  1.00  0.00     0.148 A 
ATOM     76  C   UNL A   1      40.517  22.251  26.334  1.00  0.00     0.002 A 
ATOM     77  C   UNL A   1      42.771  22.608  25.517  1.00  0.00     0.091 A 
ATOM     78  F   UNL A   1      43.686  24.822  25.522  1.00  0.00    -0.205 F 
ATOM     79  C   UNL A   1      41.701  21.745  25.814  1.00  0.00     0.022 A 
BRANCH  77  80
ATOM     80  S   UNL A   1      44.250  21.817  24.865  1.00  0.00     0.127 S 
ATOM     81  O   UNL A   1      43.895  20.400  24.940  1.00  0.00    -0.237 OA
ATOM     82  O   UNL A   1      44.305  22.358  23.505  1.00  0.00    -0.237 OA
ATOM     83  O   UNL A   1      45.345  22.232  25.730  1.00  0.00    -0.744 OA
ENDBRANCH  77  80
ENDBRANCH  59  73
BRANCH  60  84
ATOM     84  C   UNL A   1      42.812  28.710  34.376  1.00  0.00     0.023 A 
ATOM     85  C   UNL A   1      41.708  27.823  34.479  1.00  0.00     0.012 A 
ATOM     86  C   UNL A   1      43.674  28.794  35.483  1.00  0.00     0.148 A 
ATOM     87  C   UNL A   1      41.555  26.951  35.557  1.00  0.00     0.002 A 
ATOM     88  C   UNL A   1      43.541  27.896  36.545  1.00  0.00     0.091 A 
ATOM     89  F   UNL A   1      44.633  29.728  35.490  1.00  0.00    -0.205 F 
ATOM     90  C   UNL A   1      42.495  26.963  36.576  1.00  0.00     0.022 A 
BRANCH  88  91
ATOM     91  S   UNL A   1      44.718  27.808  37.904  1.00  0.00     0.127 S 
ATOM     92  O   UNL A   1      45.919  27.316  37.234  1.00  0.00    -0.237 OA
ATOM     93  O   UNL A   1      44.775  29.207  38.326  1.00  0.00    -0.237 OA
ATOM     94  O   UNL A   1      44.133  26.889  38.871  1.00  0.00    -0.744 OA
ENDBRANCH  88  91
ENDBRANCH  60  84
BRANCH  72  95
ATOM     95  C   UNL A   1      44.503  30.633  28.241  1.00  0.00     0.023 A 
ATOM     96  C   UNL A   1      43.601  31.677  28.509  1.00  0.00     0.012 A 
ATOM     97  C   UNL A   1      45.843  30.942  27.923  1.00  0.00     0.148 A 
ATOM     98  C   UNL A   1      44.023  33.004  28.495  1.00  0.00     0.002 A 
ATOM     99  C   UNL A   1      46.264  32.268  27.933  1.00  0.00     0.091 A 
ATOM    100  F   UNL A   1      46.691  29.940  27.646  1.00  0.00    -0.205 F 
ATOM    101  C   UNL A   1      45.356  33.299  28.223  1.00  0.00     0.022 A 
BRANCH  99 102
ATOM    102  S   UNL A   1      47.968  32.762  27.632  1.00  0.00     0.127 S 
ATOM    103  O   UNL A   1      48.134  32.441  26.213  1.00  0.00    -0.237 OA
ATOM    104  O   UNL A   1      47.926  34.193  27.930  1.00  0.00    -0.237 OA
ATOM    105  O   UNL A   1      48.792  31.965  28.532  1.00  0.00    -0.744 OA
ENDBRANCH  99 102
ENDBRANCH  72  95
ENDBRANCH  46  47
ENDBRANCH  38  41
ENDBRANCH  36  37
ENDBRANCH  35  36
ENDBRANCH   1  35
TORSDOF 19
ENDMDL
MODEL 2
REMARK VINA RESULT:     -12.2      2.537      3.068
REMARK SMILES CCCC(=O)N(c1cc2sc(=O)oc2c2ccccc12)S(=O)(=O)c1ccc(C(=O)NCCCNC(=O)c2ccc(-c3c4nc(c(-c5cccc(S(=O)(=O)[O-])c5F)c5ccc([nH]5)c(-c5cccc(S(=O)(=O)[O-])c5F)c5nc(c(-c6cccc(S(=O)(=O)[O-])c6F)c6ccc3[nH]6)C=C5)C=C4)cc2)cc1
REMARK SMILES IDX 31 1 30 2 28 3 29 4 27 6 24 7 25 8 101 9 26 10 100 11 21 12
REMARK SMILES IDX 22 13 23 14 6 15 4 16 5 17 3 18 2 19 1 20 7 21 8 22 20 23
REMARK SMILES IDX 9 24 15 25 19 26 10 27 14 28 16 29 18 30 11 31 13 32 17 33
REMARK SMILES IDX 12 34 32 35 33 36 34 37 35 38 36 40 37 41 38 42 99 43 39 44
REMARK SMILES IDX 98 45 40 46 41 47 42 48 92 49 43 50 97 51 91 52 93 53 44 54
REMARK SMILES IDX 96 55 90 56 89 57 45 59 77 60 57 61 76 62 58 63 61 64 75 65
REMARK SMILES IDX 94 66 59 67 60 68 74 70 95 71 62 72 46 73 47 74 55 75 48 76
REMARK SMILES IDX 50 77 56 78 49 79 51 80 52 81 53 82 54 83 78 84 79 85 87 86
REMARK SMILES IDX 80 87 82 88 88 89 81 90 83 91 84 92 85 93 86 94 63 95 64 96
REMARK SMILES IDX 72 97 65 98 67 99 73 100 66 101 68 102 69 103 70 104 71 105
REMARK H PARENT 30 5 34 39 93 58 61 69
REMARK Flexibility Score: inf
ROOT
ATOM      1  C   UNL A   1      32.838  29.672  25.132  1.00  0.00     0.118 C 
ENDROOT
BRANCH   1   2
ATOM      2  N   UNL A   1      31.727  29.594  24.195  1.00  0.00    -0.352 N 
ATOM      3  C   UNL A   1      31.201  28.620  23.401  1.00  0.00     0.251 C 
ATOM      4  O   UNL A   1      30.253  28.960  22.684  1.00  0.00    -0.269 OA
ATOM      5  H   UNL A   1      31.243  30.447  24.115  1.00  0.00     0.163 HD
BRANCH   3   6
ATOM      6  C   UNL A   1      31.641  27.198  23.356  1.00  0.00     0.039 A 
ATOM      7  C   UNL A   1      32.184  24.431  23.092  1.00  0.00     0.088 A 
ATOM      8  C   UNL A   1      30.870  24.887  23.157  1.00  0.00     0.023 A 
ATOM      9  C   UNL A   1      33.226  25.348  23.266  1.00  0.00     0.023 A 
ATOM     10  C   UNL A   1      30.605  26.255  23.230  1.00  0.00     0.015 A 
ATOM     11  C   UNL A   1      32.955  26.724  23.394  1.00  0.00     0.015 A 
BRANCH   7  12
ATOM     12  S   UNL A   1      32.544  22.677  22.930  1.00  0.00     0.270 S 
ATOM     13  O   UNL A   1      33.709  22.605  22.076  1.00  0.00    -0.201 OA
ATOM     14  O   UNL A   1      31.285  22.051  22.566  1.00  0.00    -0.201 OA
BRANCH  12  15
ATOM     15  N   UNL A   1      32.944  22.034  24.477  1.00  0.00    -0.202 N 
BRANCH  15  16
ATOM     16  C   UNL A   1      32.019  22.304  25.550  1.00  0.00     0.241 C 
ATOM     17  O   UNL A   1      30.936  21.732  25.642  1.00  0.00    -0.273 OA
BRANCH  16  18
ATOM     18  C   UNL A   1      32.374  23.354  26.600  1.00  0.00     0.101 C 
BRANCH  18  19
ATOM     19  C   UNL A   1      31.306  24.440  26.767  1.00  0.00     0.006 C 
ATOM     20  C   UNL A   1      31.889  25.846  26.710  1.00  0.00     0.004 C 
ENDBRANCH  18  19
ENDBRANCH  16  18
ENDBRANCH  15  16
BRANCH  15  21
ATOM     21  C   UNL A   1      33.652  20.782  24.537  1.00  0.00     0.070 A 
ATOM     22  C   UNL A   1      32.843  19.634  24.484  1.00  0.00     0.051 A 
ATOM     23  C   UNL A   1      35.072  20.679  24.720  1.00  0.00     0.010 A 
ATOM     24  C   UNL A   1      33.429  18.395  24.655  1.00  0.00     0.080 A 
ATOM     25  C   UNL A   1      35.657  19.385  24.773  1.00  0.00     0.028 A 
ATOM     26  C   UNL A   1      35.948  21.784  24.843  1.00  0.00     0.011 A 
ATOM     27  S   UNL A   1      32.634  16.840  24.798  1.00  0.00    -0.052 S 
ATOM     28  C   UNL A   1      34.805  18.272  24.792  1.00  0.00     0.157 A 
ATOM     29  C   UNL A   1      37.060  19.244  24.802  1.00  0.00     0.013 A 
ATOM     30  C   UNL A   1      37.336  21.628  24.864  1.00  0.00     0.001 A 
ATOM     31  C   UNL A   1      34.215  16.110  25.092  1.00  0.00     0.396 A 
ATOM     32  O   UNL A   1      35.301  16.978  25.000  1.00  0.00    -0.413 OA
ATOM     33  C   UNL A   1      37.892  20.359  24.813  1.00  0.00     0.001 A 
ATOM     34  O   UNL A   1      34.349  14.918  25.335  1.00  0.00    -0.233 OA
ENDBRANCH  15  21
ENDBRANCH  12  15
ENDBRANCH   7  12
ENDBRANCH   3   6
ENDBRANCH   1   2
BRANCH   1  35
ATOM     35  C   UNL A   1      32.319  29.529  26.560  1.00  0.00     0.042 C 
BRANCH  35  36
ATOM     36  C   UNL A   1      33.299  30.135  27.571  1.00  0.00     0.118 C 
BRANCH  36  37
ATOM     37  N   UNL A   1      33.586  31.550  27.346  1.00  0.00    -0.352 N 
ATOM     38  C   UNL A   1      34.622  32.326  27.824  1.00  0.00     0.251 C 
ATOM     39  H   UNL A   1      32.945  32.020  26.766  1.00  0.00     0.163 HD
ATOM     40  O   UNL A   1      34.666  33.525  27.578  1.00  0.00    -0.269 OA
BRANCH  38  41
ATOM     41  C   UNL A   1      35.629  31.688  28.691  1.00  0.00     0.039 A 
ATOM     42  C   UNL A   1      35.522  31.821  30.076  1.00  0.00     0.014 A 
ATOM     43  C   UNL A   1      36.754  31.102  28.105  1.00  0.00     0.014 A 
ATOM     44  C   UNL A   1      36.629  31.573  30.863  1.00  0.00     0.010 A 
ATOM     45  C   UNL A   1      37.844  30.783  28.908  1.00  0.00     0.010 A 
ATOM     46  C   UNL A   1      37.799  31.081  30.274  1.00  0.00    -0.014 A 
BRANCH  46  47
ATOM     47  C   UNL A   1      38.897  30.811  31.204  1.00  0.00     0.031 A 
ATOM     48  C   UNL A   1      39.566  29.505  30.919  1.00  0.00     0.074 A 
ATOM     49  C   UNL A   1      39.547  31.831  31.800  1.00  0.00     0.049 A 
ATOM     50  N   UNL A   1      40.482  29.357  30.009  1.00  0.00    -0.248 NA
ATOM     51  C   UNL A   1      39.009  28.240  31.401  1.00  0.00     0.031 C 
ATOM     52  C   UNL A   1      39.940  33.079  31.132  1.00  0.00     0.029 A 
ATOM     53  N   UNL A   1      40.162  31.895  33.030  1.00  0.00    -0.354 N 
ATOM     54  C   UNL A   1      40.610  27.999  29.764  1.00  0.00     0.074 A 
ATOM     55  C   UNL A   1      39.670  27.345  30.649  1.00  0.00     0.031 C 
ATOM     56  C   UNL A   1      40.881  33.692  31.881  1.00  0.00     0.029 A 
ATOM     57  C   UNL A   1      41.075  32.947  33.122  1.00  0.00     0.049 A 
ATOM     58  H   UNL A   1      39.976  31.268  33.766  1.00  0.00     0.167 HD
ATOM     59  C   UNL A   1      41.491  27.489  28.860  1.00  0.00     0.034 A 
ATOM     60  C   UNL A   1      42.237  32.860  33.832  1.00  0.00     0.034 A 
ATOM     61  C   UNL A   1      42.321  28.465  28.214  1.00  0.00     0.049 A 
ATOM     62  C   UNL A   1      43.072  32.045  32.859  1.00  0.00     0.074 A 
ATOM     63  C   UNL A   1      42.432  29.065  26.980  1.00  0.00     0.029 A 
ATOM     64  N   UNL A   1      43.284  29.076  28.981  1.00  0.00    -0.354 N 
ATOM     65  N   UNL A   1      43.590  32.474  31.735  1.00  0.00    -0.248 NA
ATOM     66  C   UNL A   1      42.949  30.588  32.954  1.00  0.00     0.031 C 
ATOM     67  C   UNL A   1      43.119  30.301  27.218  1.00  0.00     0.029 A 
ATOM     68  C   UNL A   1      43.381  30.384  28.585  1.00  0.00     0.049 A 
ATOM     69  H   UNL A   1      43.813  28.648  29.693  1.00  0.00     0.167 HD
ATOM     70  C   UNL A   1      43.548  31.376  30.865  1.00  0.00     0.074 A 
ATOM     71  C   UNL A   1      43.152  30.250  31.688  1.00  0.00     0.031 C 
ATOM     72  C   UNL A   1      43.673  31.465  29.506  1.00  0.00     0.034 A 
BRANCH  59  73
ATOM     73  C   UNL A   1      41.826  26.049  28.742  1.00  0.00     0.023 A 
ATOM     74  C   UNL A   1      43.123  25.691  29.167  1.00  0.00     0.012 A 
ATOM     75  C   UNL A   1      41.035  25.101  28.068  1.00  0.00     0.148 A 
ATOM     76  C   UNL A   1      43.650  24.435  28.890  1.00  0.00     0.002 A 
ATOM     77  C   UNL A   1      41.568  23.839  27.800  1.00  0.00     0.091 A 
ATOM     78  F   UNL A   1      39.805  25.456  27.671  1.00  0.00    -0.205 F 
ATOM     79  C   UNL A   1      42.876  23.512  28.199  1.00  0.00     0.022 A 
BRANCH  77  80
ATOM     80  S   UNL A   1      40.684  22.556  26.900  1.00  0.00     0.127 S 
ATOM     81  O   UNL A   1      40.452  21.557  27.944  1.00  0.00    -0.237 OA
ATOM     82  O   UNL A   1      39.482  23.268  26.463  1.00  0.00    -0.237 OA
ATOM     83  O   UNL A   1      41.569  22.136  25.823  1.00  0.00    -0.744 OA
ENDBRANCH  77  80
ENDBRANCH  59  73
BRANCH  60  84
ATOM     84  C   UNL A   1      42.058  32.502  35.288  1.00  0.00     0.023 A 
ATOM     85  C   UNL A   1      43.036  31.649  35.863  1.00  0.00     0.012 A 
ATOM     86  C   UNL A   1      41.030  32.961  36.132  1.00  0.00     0.148 A 
ATOM     87  C   UNL A   1      43.083  31.392  37.234  1.00  0.00     0.002 A 
ATOM     88  C   UNL A   1      41.098  32.732  37.508  1.00  0.00     0.091 A 
ATOM     89  F   UNL A   1      40.006  33.636  35.597  1.00  0.00    -0.205 F 
ATOM     90  C   UNL A   1      42.132  31.965  38.063  1.00  0.00     0.022 A 
BRANCH  88  91
ATOM     91  S   UNL A   1      39.933  33.449  38.677  1.00  0.00     0.127 S 
ATOM     92  O   UNL A   1      40.057  32.547  39.821  1.00  0.00    -0.237 OA
ATOM     93  O   UNL A   1      40.507  34.779  38.876  1.00  0.00    -0.237 OA
ATOM     94  O   UNL A   1      38.640  33.422  38.010  1.00  0.00    -0.744 OA
ENDBRANCH  88  91
ENDBRANCH  60  84
BRANCH  72  95
ATOM     95  C   UNL A   1      44.012  32.812  28.942  1.00  0.00     0.023 A 
ATOM     96  C   UNL A   1      42.986  33.768  28.854  1.00  0.00     0.012 A 
ATOM     97  C   UNL A   1      45.332  33.183  28.610  1.00  0.00     0.148 A 
ATOM     98  C   UNL A   1      43.263  35.078  28.475  1.00  0.00     0.002 A 
ATOM     99  C   UNL A   1      45.608  34.500  28.254  1.00  0.00     0.091 A 
ATOM    100  F   UNL A   1      46.302  32.258  28.674  1.00  0.00    -0.205 F 
ATOM    101  C   UNL A   1      44.574  35.449  28.191  1.00  0.00     0.022 A 
BRANCH  99 102
ATOM    102  S   UNL A   1      47.267  35.098  27.902  1.00  0.00     0.127 S 
ATOM    103  O   UNL A   1      47.114  36.544  28.063  1.00  0.00    -0.237 OA
ATOM    104  O   UNL A   1      48.053  34.450  28.953  1.00  0.00    -0.237 OA
ATOM    105  O   UNL A   1      47.579  34.670  26.544  1.00  0.00    -0.744 OA
ENDBRANCH  99 102
ENDBRANCH  72  95
ENDBRANCH  46  47
ENDBRANCH  38  41
ENDBRANCH  36  37
ENDBRANCH  35  36
ENDBRANCH   1  35
TORSDOF 19
ENDMDL
MODEL 3
REMARK VINA RESULT:     -12.0      2.261      3.064
REMARK SMILES CCCC(=O)N(c1cc2sc(=O)oc2c2ccccc12)S(=O)(=O)c1ccc(C(=O)NCCCNC(=O)c2ccc(-c3c4nc(c(-c5cccc(S(=O)(=O)[O-])c5F)c5ccc([nH]5)c(-c5cccc(S(=O)(=O)[O-])c5F)c5nc(c(-c6cccc(S(=O)(=O)[O-])c6F)c6ccc3[nH]6)C=C5)C=C4)cc2)cc1
REMARK SMILES IDX 31 1 30 2 28 3 29 4 27 6 24 7 25 8 101 9 26 10 100 11 21 12
REMARK SMILES IDX 22 13 23 14 6 15 4 16 5 17 3 18 2 19 1 20 7 21 8 22 20 23
REMARK SMILES IDX 9 24 15 25 19 26 10 27 14 28 16 29 18 30 11 31 13 32 17 33
REMARK SMILES IDX 12 34 32 35 33 36 34 37 35 38 36 40 37 41 38 42 99 43 39 44
REMARK SMILES IDX 98 45 40 46 41 47 42 48 92 49 43 50 97 51 91 52 93 53 44 54
REMARK SMILES IDX 96 55 90 56 89 57 45 59 77 60 57 61 76 62 58 63 61 64 75 65
REMARK SMILES IDX 94 66 59 67 60 68 74 70 95 71 62 72 46 73 47 74 55 75 48 76
REMARK SMILES IDX 50 77 56 78 49 79 51 80 52 81 53 82 54 83 78 84 79 85 87 86
REMARK SMILES IDX 80 87 82 88 88 89 81 90 83 91 84 92 85 93 86 94 63 95 64 96
REMARK SMILES IDX 72 97 65 98 67 99 73 100 66 101 68 102 69 103 70 104 71 105
REMARK H PARENT 30 5 34 39 93 58 61 69
REMARK Flexibility Score: inf
ROOT
ATOM      1  C   UNL A   1      33.537  31.398  27.631  1.00  0.00     0.118 C 
ENDROOT
BRANCH   1   2
ATOM      2  N   UNL A   1      34.698  30.577  27.941  1.00  0.00    -0.352 N 
ATOM      3  C   UNL A   1      35.204  29.403  27.471  1.00  0.00     0.251 C 
ATOM      4  O   UNL A   1      36.218  28.984  28.040  1.00  0.00    -0.269 OA
ATOM      5  H   UNL A   1      35.246  30.961  28.664  1.00  0.00     0.163 HD
BRANCH   3   6
ATOM      6  C   UNL A   1      34.666  28.618  26.324  1.00  0.00     0.039 A 
ATOM      7  C   UNL A   1      33.581  26.872  24.377  1.00  0.00     0.088 A 
ATOM      8  C   UNL A   1      34.240  26.360  25.492  1.00  0.00     0.023 A 
ATOM      9  C   UNL A   1      33.560  28.258  24.182  1.00  0.00     0.023 A 
ATOM     10  C   UNL A   1      34.723  27.222  26.478  1.00  0.00     0.015 A 
ATOM     11  C   UNL A   1      34.097  29.125  25.153  1.00  0.00     0.015 A 
BRANCH   7  12
ATOM     12  S   UNL A   1      32.892  25.776  23.130  1.00  0.00     0.270 S 
ATOM     13  O   UNL A   1      34.023  25.047  22.598  1.00  0.00    -0.201 OA
ATOM     14  O   UNL A   1      32.054  26.613  22.290  1.00  0.00    -0.201 OA
BRANCH  12  15
ATOM     15  N   UNL A   1      31.816  24.663  23.885  1.00  0.00    -0.202 N 
BRANCH  15  16
ATOM     16  C   UNL A   1      30.407  24.950  23.779  1.00  0.00     0.241 C 
ATOM     17  O   UNL A   1      29.696  24.441  22.915  1.00  0.00    -0.273 OA
BRANCH  16  18
ATOM     18  C   UNL A   1      29.768  25.941  24.748  1.00  0.00     0.101 C 
BRANCH  18  19
ATOM     19  C   UNL A   1      30.444  25.980  26.122  1.00  0.00     0.006 C 
ATOM     20  C   UNL A   1      30.897  27.381  26.511  1.00  0.00     0.004 C 
ENDBRANCH  18  19
ENDBRANCH  16  18
ENDBRANCH  15  16
BRANCH  15  21
ATOM     21  C   UNL A   1      32.187  23.273  23.929  1.00  0.00     0.070 A 
ATOM     22  C   UNL A   1      31.960  22.553  22.743  1.00  0.00     0.051 A 
ATOM     23  C   UNL A   1      32.680  22.618  25.108  1.00  0.00     0.010 A 
ATOM     24  C   UNL A   1      32.176  21.189  22.736  1.00  0.00     0.080 A 
ATOM     25  C   UNL A   1      33.005  21.236  25.032  1.00  0.00     0.028 A 
ATOM     26  C   UNL A   1      32.879  23.255  26.356  1.00  0.00     0.011 A 
ATOM     27  S   UNL A   1      31.815  20.049  21.456  1.00  0.00    -0.052 S 
ATOM     28  C   UNL A   1      32.692  20.546  23.853  1.00  0.00     0.157 A 
ATOM     29  C   UNL A   1      33.629  20.596  26.122  1.00  0.00     0.013 A 
ATOM     30  C   UNL A   1      33.505  22.609  27.425  1.00  0.00     0.001 A 
ATOM     31  C   UNL A   1      32.333  18.747  22.530  1.00  0.00     0.396 A 
ATOM     32  O   UNL A   1      32.838  19.155  23.763  1.00  0.00    -0.413 OA
ATOM     33  C   UNL A   1      33.908  21.288  27.296  1.00  0.00     0.001 A 
ATOM     34  O   UNL A   1      32.276  17.569  22.203  1.00  0.00    -0.233 OA
ENDBRANCH  15  21
ENDBRANCH  12  15
ENDBRANCH   7  12
ENDBRANCH   3   6
ENDBRANCH   1   2
BRANCH   1  35
ATOM     35  C   UNL A   1      33.641  32.734  28.362  1.00  0.00     0.042 C 
BRANCH  35  36
ATOM     36  C   UNL A   1      34.724  32.691  29.446  1.00  0.00     0.118 C 
BRANCH  36  37
ATOM     37  N   UNL A   1      35.711  33.763  29.342  1.00  0.00    -0.352 N 
ATOM     38  C   UNL A   1      37.075  33.727  29.541  1.00  0.00     0.251 C 
ATOM     39  H   UNL A   1      35.348  34.644  29.093  1.00  0.00     0.163 HD
ATOM     40  O   UNL A   1      37.742  34.752  29.470  1.00  0.00    -0.269 OA
BRANCH  38  41
ATOM     41  C   UNL A   1      37.693  32.440  29.906  1.00  0.00     0.039 A 
ATOM     42  C   UNL A   1      37.938  32.155  31.250  1.00  0.00     0.014 A 
ATOM     43  C   UNL A   1      38.165  31.602  28.892  1.00  0.00     0.014 A 
ATOM     44  C   UNL A   1      38.840  31.161  31.574  1.00  0.00     0.010 A 
ATOM     45  C   UNL A   1      39.016  30.553  29.223  1.00  0.00     0.010 A 
ATOM     46  C   UNL A   1      39.400  30.380  30.558  1.00  0.00    -0.014 A 
BRANCH  46  47
ATOM     47  C   UNL A   1      40.309  29.326  31.013  1.00  0.00     0.031 A 
ATOM     48  C   UNL A   1      40.114  28.050  30.258  1.00  0.00     0.074 A 
ATOM     49  C   UNL A   1      41.490  29.647  31.579  1.00  0.00     0.049 A 
ATOM     50  N   UNL A   1      40.650  27.821  29.097  1.00  0.00    -0.248 NA
ATOM     51  C   UNL A   1      39.046  27.111  30.607  1.00  0.00     0.031 C 
ATOM     52  C   UNL A   1      42.384  30.712  31.106  1.00  0.00     0.029 A 
ATOM     53  N   UNL A   1      42.226  28.985  32.536  1.00  0.00    -0.354 N 
ATOM     54  C   UNL A   1      39.985  26.741  28.538  1.00  0.00     0.074 A 
ATOM     55  C   UNL A   1      38.993  26.337  29.511  1.00  0.00     0.031 C 
ATOM     56  C   UNL A   1      43.610  30.514  31.633  1.00  0.00     0.029 A 
ATOM     57  C   UNL A   1      43.563  29.385  32.560  1.00  0.00     0.049 A 
ATOM     58  H   UNL A   1      41.849  28.305  33.139  1.00  0.00     0.167 HD
ATOM     59  C   UNL A   1      40.297  26.230  27.315  1.00  0.00     0.034 A 
ATOM     60  C   UNL A   1      44.589  28.527  32.831  1.00  0.00     0.034 A 
ATOM     61  C   UNL A   1      41.410  26.864  26.666  1.00  0.00     0.049 A 
ATOM     62  C   UNL A   1      44.688  27.814  31.493  1.00  0.00     0.074 A 
ATOM     63  C   UNL A   1      41.632  27.730  25.619  1.00  0.00     0.029 A 
ATOM     64  N   UNL A   1      42.656  26.647  27.203  1.00  0.00    -0.354 N 
ATOM     65  N   UNL A   1      45.172  28.314  30.383  1.00  0.00    -0.248 NA
ATOM     66  C   UNL A   1      43.816  26.653  31.306  1.00  0.00     0.031 C 
ATOM     67  C   UNL A   1      42.904  28.335  25.889  1.00  0.00     0.029 A 
ATOM     68  C   UNL A   1      43.379  27.805  27.088  1.00  0.00     0.049 A 
ATOM     69  H   UNL A   1      42.974  25.805  27.602  1.00  0.00     0.167 HD
ATOM     70  C   UNL A   1      44.409  27.743  29.356  1.00  0.00     0.074 A 
ATOM     71  C   UNL A   1      43.604  26.722  29.999  1.00  0.00     0.031 C 
ATOM     72  C   UNL A   1      44.348  28.229  28.080  1.00  0.00     0.034 A 
BRANCH  59  73
ATOM     73  C   UNL A   1      39.780  24.943  26.790  1.00  0.00     0.023 A 
ATOM     74  C   UNL A   1      38.408  24.929  26.463  1.00  0.00     0.012 A 
ATOM     75  C   UNL A   1      40.499  23.734  26.799  1.00  0.00     0.148 A 
ATOM     76  C   UNL A   1      37.744  23.738  26.194  1.00  0.00     0.002 A 
ATOM     77  C   UNL A   1      39.828  22.542  26.521  1.00  0.00     0.091 A 
ATOM     78  F   UNL A   1      41.802  23.763  27.113  1.00  0.00    -0.205 F 
ATOM     79  C   UNL A   1      38.452  22.543  26.231  1.00  0.00     0.022 A 
BRANCH  77  80
ATOM     80  S   UNL A   1      40.616  20.925  26.551  1.00  0.00     0.127 S 
ATOM     81  O   UNL A   1      41.843  21.170  25.793  1.00  0.00    -0.237 OA
ATOM     82  O   UNL A   1      40.819  20.716  27.986  1.00  0.00    -0.237 OA
ATOM     83  O   UNL A   1      39.673  20.005  25.930  1.00  0.00    -0.744 OA
ENDBRANCH  77  80
ENDBRANCH  59  73
BRANCH  60  84
ATOM     84  C   UNL A   1      44.476  27.813  34.157  1.00  0.00     0.023 A 
ATOM     85  C   UNL A   1      43.447  28.248  35.032  1.00  0.00     0.012 A 
ATOM     86  C   UNL A   1      45.276  26.739  34.588  1.00  0.00     0.148 A 
ATOM     87  C   UNL A   1      43.126  27.557  36.201  1.00  0.00     0.002 A 
ATOM     88  C   UNL A   1      44.931  26.027  35.740  1.00  0.00     0.091 A 
ATOM     89  F   UNL A   1      46.351  26.400  33.867  1.00  0.00    -0.205 F 
ATOM     90  C   UNL A   1      43.848  26.422  36.536  1.00  0.00     0.022 A 
BRANCH  88  91
ATOM     91  S   UNL A   1      45.782  24.526  36.252  1.00  0.00     0.127 S 
ATOM     92  O   UNL A   1      46.016  23.858  34.974  1.00  0.00    -0.237 OA
ATOM     93  O   UNL A   1      46.978  25.078  36.888  1.00  0.00    -0.237 OA
ATOM     94  O   UNL A   1      44.862  23.839  37.147  1.00  0.00    -0.744 OA
ENDBRANCH  88  91
ENDBRANCH  60  84
BRANCH  72  95
ATOM     95  C   UNL A   1      45.267  29.364  27.742  1.00  0.00     0.023 A 
ATOM     96  C   UNL A   1      46.599  29.059  27.414  1.00  0.00     0.012 A 
ATOM     97  C   UNL A   1      44.816  30.697  27.631  1.00  0.00     0.148 A 
ATOM     98  C   UNL A   1      47.464  30.047  26.954  1.00  0.00     0.002 A 
ATOM     99  C   UNL A   1      45.678  31.677  27.148  1.00  0.00     0.091 A 
ATOM    100  F   UNL A   1      43.549  30.983  27.968  1.00  0.00    -0.205 F 
ATOM    101  C   UNL A   1      47.001  31.352  26.805  1.00  0.00     0.022 A 
BRANCH  99 102
ATOM    102  S   UNL A   1      45.178  33.384  26.882  1.00  0.00     0.127 S 
ATOM    103  O   UNL A   1      44.050  33.233  25.961  1.00  0.00    -0.237 OA
ATOM    104  O   UNL A   1      44.805  33.805  28.233  1.00  0.00    -0.237 OA
ATOM    105  O   UNL A   1      46.333  34.068  26.316  1.00  0.00    -0.744 OA
ENDBRANCH  99 102
ENDBRANCH  72  95
ENDBRANCH  46  47
ENDBRANCH  38  41
ENDBRANCH  36  37
ENDBRANCH  35  36
ENDBRANCH   1  35
TORSDOF 19
ENDMDL
