MODEL 1
REMARK VINA RESULT:     -12.1      0.000      0.000
REMARK SMILES Cc1ccc(F)cc1NC(=O)c1nn(C)cc1C(=O)NCCCNC(=O)c1ccc(-c2c3nc(c(-c4cccc(S(=O)(=O)[O-])c4F)c4ccc([nH]4)c(-c4cccc(S(=O)(=O)[O-])c4F)c4nc(c(-c5cccc(S(=O)(=O)[O-])c5F)c5ccc2[nH]5)C=C4)C=C3)cc1
REMARK SMILES IDX 22 1 21 2 20 3 18 4 19 5 17 7 12 8 13 9 14 10 16 11 15 12
REMARK SMILES IDX 10 13 9 14 11 16 8 17 1 18 2 19 3 20 4 21 7 22 5 23 6 24
REMARK SMILES IDX 23 25 24 26 25 27 26 29 27 30 28 31 89 32 29 33 88 34 30 35
REMARK SMILES IDX 31 36 32 37 82 38 33 39 87 40 81 41 83 42 34 43 86 44 80 45
REMARK SMILES IDX 79 46 35 48 67 49 47 50 66 51 48 52 51 53 65 54 84 55 49 56
REMARK SMILES IDX 50 57 64 59 85 60 52 61 36 62 37 63 45 64 38 65 40 66 46 67
REMARK SMILES IDX 39 68 41 69 42 70 43 71 44 72 68 73 69 74 77 75 70 76 72 77
REMARK SMILES IDX 78 78 71 79 73 80 74 81 75 82 76 83 53 84 54 85 62 86 55 87
REMARK SMILES IDX 57 88 63 89 56 90 58 91 59 92 60 93 61 94
REMARK H PARENT 20 6 9 15 24 28 83 47 51 58
REMARK Flexibility Score: inf
ROOT
ATOM      1  C   UNL A   1      33.403  27.981  25.352  1.00  0.00     0.042 C 
ENDROOT
BRANCH   1   2
ATOM      2  C   UNL A   1      33.854  26.555  25.047  1.00  0.00     0.118 C 
BRANCH   2   3
ATOM      3  N   UNL A   1      33.776  26.198  23.641  1.00  0.00    -0.352 N 
ATOM      4  C   UNL A   1      33.878  25.018  22.948  1.00  0.00     0.255 C 
ATOM      5  O   UNL A   1      33.682  25.090  21.732  1.00  0.00    -0.269 OA
ATOM      6  H   UNL A   1      33.615  26.973  23.056  1.00  0.00     0.163 HD
BRANCH   4   7
ATOM      7  C   UNL A   1      34.225  23.747  23.568  1.00  0.00     0.090 A 
ATOM      8  C   UNL A   1      33.453  22.530  23.463  1.00  0.00     0.163 A 
ATOM      9  N   UNL A   1      34.020  21.522  24.155  1.00  0.00    -0.167 NA
ATOM     10  N   UNL A   1      35.129  22.055  24.668  1.00  0.00    -0.274 N 
ATOM     11  C   UNL A   1      35.279  23.382  24.387  1.00  0.00     0.123 A 
ATOM     12  C   UNL A   1      36.030  21.223  25.430  1.00  0.00     0.173 C 
BRANCH   8  13
ATOM     13  C   UNL A   1      32.201  22.291  22.735  1.00  0.00     0.277 C 
ATOM     14  N   UNL A   1      31.032  22.950  23.066  1.00  0.00    -0.320 N 
ATOM     15  H   UNL A   1      30.253  22.640  22.551  1.00  0.00     0.170 HD
ATOM     16  O   UNL A   1      32.144  21.484  21.801  1.00  0.00    -0.267 OA
BRANCH  14  17
ATOM     17  C   UNL A   1      30.720  23.971  23.986  1.00  0.00     0.047 A 
ATOM     18  C   UNL A   1      30.977  22.321  25.966  1.00  0.00     0.046 C 
ATOM     19  C   UNL A   1      30.755  23.688  25.372  1.00  0.00    -0.027 A 
ATOM     20  C   UNL A   1      30.560  24.737  26.297  1.00  0.00     0.008 A 
ATOM     21  C   UNL A   1      30.312  26.037  25.867  1.00  0.00     0.039 A 
ATOM     22  C   UNL A   1      30.378  25.264  23.580  1.00  0.00     0.065 A 
ATOM     23  C   UNL A   1      30.205  26.282  24.510  1.00  0.00     0.125 A 
ATOM     24  F   UNL A   1      29.939  27.522  24.081  1.00  0.00    -0.207 F 
ENDBRANCH  14  17
ENDBRANCH   8  13
ENDBRANCH   4   7
ENDBRANCH   2   3
ENDBRANCH   1   2
BRANCH   1  25
ATOM     25  C   UNL A   1      33.487  28.383  26.827  1.00  0.00     0.118 C 
BRANCH  25  26
ATOM     26  N   UNL A   1      33.535  29.829  27.015  1.00  0.00    -0.352 N 
ATOM     27  C   UNL A   1      34.430  30.644  27.660  1.00  0.00     0.251 C 
ATOM     28  H   UNL A   1      32.784  30.311  26.600  1.00  0.00     0.163 HD
ATOM     29  O   UNL A   1      34.108  31.815  27.857  1.00  0.00    -0.269 OA
BRANCH  27  30
ATOM     30  C   UNL A   1      35.758  30.168  28.118  1.00  0.00     0.039 A 
ATOM     31  C   UNL A   1      35.866  29.655  29.417  1.00  0.00     0.014 A 
ATOM     32  C   UNL A   1      36.909  30.307  27.340  1.00  0.00     0.014 A 
ATOM     33  C   UNL A   1      37.109  29.245  29.912  1.00  0.00     0.010 A 
ATOM     34  C   UNL A   1      38.138  29.837  27.810  1.00  0.00     0.010 A 
ATOM     35  C   UNL A   1      38.255  29.309  29.105  1.00  0.00    -0.014 A 
BRANCH  35  36
ATOM     36  C   UNL A   1      39.565  28.804  29.598  1.00  0.00     0.031 A 
ATOM     37  C   UNL A   1      40.289  29.493  30.725  1.00  0.00     0.074 A 
ATOM     38  C   UNL A   1      40.142  27.757  28.975  1.00  0.00     0.049 A 
ATOM     39  N   UNL A   1      41.439  29.186  31.273  1.00  0.00    -0.248 NA
ATOM     40  C   UNL A   1      39.661  30.697  31.294  1.00  0.00     0.031 C 
ATOM     41  C   UNL A   1      39.596  27.064  27.807  1.00  0.00     0.029 A 
ATOM     42  N   UNL A   1      41.329  27.109  29.219  1.00  0.00    -0.354 N 
ATOM     43  C   UNL A   1      41.689  30.175  32.218  1.00  0.00     0.074 A 
ATOM     44  C   UNL A   1      40.583  31.104  32.156  1.00  0.00     0.031 C 
ATOM     45  C   UNL A   1      40.443  26.091  27.435  1.00  0.00     0.029 A 
ATOM     46  C   UNL A   1      41.599  26.098  28.327  1.00  0.00     0.049 A 
ATOM     47  H   UNL A   1      41.929  27.346  29.962  1.00  0.00     0.167 HD
ATOM     48  C   UNL A   1      42.731  30.282  33.079  1.00  0.00     0.034 A 
ATOM     49  C   UNL A   1      42.656  25.266  28.235  1.00  0.00     0.034 A 
ATOM     50  C   UNL A   1      43.796  29.321  33.186  1.00  0.00     0.049 A 
ATOM     51  C   UNL A   1      43.749  25.353  29.265  1.00  0.00     0.074 A 
ATOM     52  C   UNL A   1      44.826  29.279  34.112  1.00  0.00     0.029 A 
ATOM     53  N   UNL A   1      43.976  28.239  32.340  1.00  0.00    -0.354 N 
ATOM     54  N   UNL A   1      43.862  26.174  30.280  1.00  0.00    -0.248 NA
ATOM     55  C   UNL A   1      44.836  24.369  29.163  1.00  0.00     0.031 C 
ATOM     56  C   UNL A   1      45.635  28.176  33.816  1.00  0.00     0.029 A 
ATOM     57  C   UNL A   1      45.103  27.527  32.714  1.00  0.00     0.049 A 
ATOM     58  H   UNL A   1      43.388  28.010  31.585  1.00  0.00     0.167 HD
ATOM     59  C   UNL A   1      45.017  25.792  30.951  1.00  0.00     0.074 A 
ATOM     60  C   UNL A   1      45.550  24.644  30.248  1.00  0.00     0.031 C 
ATOM     61  C   UNL A   1      45.598  26.355  32.039  1.00  0.00     0.034 A 
BRANCH  48  62
ATOM     62  C   UNL A   1      42.741  31.448  34.034  1.00  0.00     0.023 A 
ATOM     63  C   UNL A   1      43.320  32.667  33.630  1.00  0.00     0.012 A 
ATOM     64  C   UNL A   1      42.099  31.367  35.286  1.00  0.00     0.148 A 
ATOM     65  C   UNL A   1      43.283  33.783  34.466  1.00  0.00     0.002 A 
ATOM     66  C   UNL A   1      42.032  32.495  36.097  1.00  0.00     0.091 A 
ATOM     67  F   UNL A   1      41.570  30.194  35.660  1.00  0.00    -0.205 F 
ATOM     68  C   UNL A   1      42.630  33.700  35.693  1.00  0.00     0.022 A 
BRANCH  66  69
ATOM     69  S   UNL A   1      41.151  32.515  37.664  1.00  0.00     0.127 S 
ATOM     70  O   UNL A   1      41.989  31.641  38.484  1.00  0.00    -0.237 OA
ATOM     71  O   UNL A   1      41.206  33.930  38.031  1.00  0.00    -0.237 OA
ATOM     72  O   UNL A   1      39.815  32.012  37.379  1.00  0.00    -0.744 OA
ENDBRANCH  66  69
ENDBRANCH  48  62
BRANCH  49  73
ATOM     73  C   UNL A   1      42.689  24.226  27.168  1.00  0.00     0.023 A 
ATOM     74  C   UNL A   1      43.419  24.468  25.988  1.00  0.00     0.012 A 
ATOM     75  C   UNL A   1      42.034  22.990  27.328  1.00  0.00     0.148 A 
ATOM     76  C   UNL A   1      43.469  23.512  24.974  1.00  0.00     0.002 A 
ATOM     77  C   UNL A   1      42.136  22.019  26.337  1.00  0.00     0.091 A 
ATOM     78  F   UNL A   1      41.328  22.781  28.448  1.00  0.00    -0.205 F 
ATOM     79  C   UNL A   1      42.838  22.284  25.151  1.00  0.00     0.022 A 
BRANCH  77  80
ATOM     80  S   UNL A   1      41.472  20.364  26.560  1.00  0.00     0.127 S 
ATOM     81  O   UNL A   1      42.047  19.980  27.845  1.00  0.00    -0.237 OA
ATOM     82  O   UNL A   1      40.028  20.609  26.579  1.00  0.00    -0.237 OA
ATOM     83  O   UNL A   1      41.930  19.611  25.400  1.00  0.00    -0.744 OA
ENDBRANCH  77  80
ENDBRANCH  49  73
BRANCH  61  84
ATOM     84  C   UNL A   1      46.872  25.736  32.546  1.00  0.00     0.023 A 
ATOM     85  C   UNL A   1      48.109  26.168  32.027  1.00  0.00     0.012 A 
ATOM     86  C   UNL A   1      46.854  24.772  33.573  1.00  0.00     0.148 A 
ATOM     87  C   UNL A   1      49.305  25.628  32.497  1.00  0.00     0.002 A 
ATOM     88  C   UNL A   1      48.052  24.270  34.068  1.00  0.00     0.091 A 
ATOM     89  F   UNL A   1      45.668  24.354  34.041  1.00  0.00    -0.205 F 
ATOM     90  C   UNL A   1      49.277  24.688  33.524  1.00  0.00     0.022 A 
BRANCH  88  91
ATOM     91  S   UNL A   1      48.106  23.124  35.451  1.00  0.00     0.127 S 
ATOM     92  O   UNL A   1      47.436  21.950  34.894  1.00  0.00    -0.237 OA
ATOM     93  O   UNL A   1      49.544  22.958  35.670  1.00  0.00    -0.237 OA
ATOM     94  O   UNL A   1      47.408  23.791  36.543  1.00  0.00    -0.744 OA
ENDBRANCH  88  91
ENDBRANCH  61  84
ENDBRANCH  35  36
ENDBRANCH  27  30
ENDBRANCH  25  26
ENDBRANCH   1  25
TORSDOF 15
ENDMDL
MODEL 2
REMARK VINA RESULT:     -12.1      1.394      1.984
REMARK SMILES Cc1ccc(F)cc1NC(=O)c1nn(C)cc1C(=O)NCCCNC(=O)c1ccc(-c2c3nc(c(-c4cccc(S(=O)(=O)[O-])c4F)c4ccc([nH]4)c(-c4cccc(S(=O)(=O)[O-])c4F)c4nc(c(-c5cccc(S(=O)(=O)[O-])c5F)c5ccc2[nH]5)C=C4)C=C3)cc1
REMARK SMILES IDX 22 1 21 2 20 3 18 4 19 5 17 7 12 8 13 9 14 10 16 11 15 12
REMARK SMILES IDX 10 13 9 14 11 16 8 17 1 18 2 19 3 20 4 21 7 22 5 23 6 24
REMARK SMILES IDX 23 25 24 26 25 27 26 29 27 30 28 31 89 32 29 33 88 34 30 35
REMARK SMILES IDX 31 36 32 37 82 38 33 39 87 40 81 41 83 42 34 43 86 44 80 45
REMARK SMILES IDX 79 46 35 48 67 49 47 50 66 51 48 52 51 53 65 54 84 55 49 56
REMARK SMILES IDX 50 57 64 59 85 60 52 61 36 62 37 63 45 64 38 65 40 66 46 67
REMARK SMILES IDX 39 68 41 69 42 70 43 71 44 72 68 73 69 74 77 75 70 76 72 77
REMARK SMILES IDX 78 78 71 79 73 80 74 81 75 82 76 83 53 84 54 85 62 86 55 87
REMARK SMILES IDX 57 88 63 89 56 90 58 91 59 92 60 93 61 94
REMARK H PARENT 20 6 9 15 24 28 83 47 51 58
REMARK Flexibility Score: inf
ROOT
ATOM      1  C   UNL A   1      32.875  27.971  26.991  1.00  0.00     0.042 C 
ENDROOT
BRANCH   1   2
ATOM      2  C   UNL A   1      31.723  27.375  26.186  1.00  0.00     0.118 C 
BRANCH   2   3
ATOM      3  N   UNL A   1      31.268  26.084  26.670  1.00  0.00    -0.352 N 
ATOM      4  C   UNL A   1      31.744  24.801  26.564  1.00  0.00     0.255 C 
ATOM      5  O   UNL A   1      31.113  23.941  27.184  1.00  0.00    -0.269 OA
ATOM      6  H   UNL A   1      30.433  26.141  27.189  1.00  0.00     0.163 HD
BRANCH   4   7
ATOM      7  C   UNL A   1      32.899  24.435  25.757  1.00  0.00     0.090 A 
ATOM      8  C   UNL A   1      32.859  24.078  24.357  1.00  0.00     0.163 A 
ATOM      9  N   UNL A   1      34.085  23.776  23.887  1.00  0.00    -0.167 NA
ATOM     10  N   UNL A   1      34.894  23.953  24.933  1.00  0.00    -0.274 N 
ATOM     11  C   UNL A   1      34.239  24.304  26.077  1.00  0.00     0.123 A 
ATOM     12  C   UNL A   1      36.317  23.777  24.768  1.00  0.00     0.173 C 
BRANCH   8  13
ATOM     13  C   UNL A   1      31.703  24.011  23.455  1.00  0.00     0.277 C 
ATOM     14  N   UNL A   1      31.238  25.129  22.787  1.00  0.00    -0.320 N 
ATOM     15  H   UNL A   1      30.413  24.960  22.278  1.00  0.00     0.170 HD
ATOM     16  O   UNL A   1      31.097  22.951  23.264  1.00  0.00    -0.267 OA
BRANCH  14  17
ATOM     17  C   UNL A   1      31.695  26.457  22.683  1.00  0.00     0.047 A 
ATOM     18  C   UNL A   1      29.359  27.356  23.349  1.00  0.00     0.046 C 
ATOM     19  C   UNL A   1      30.819  27.518  23.012  1.00  0.00    -0.027 A 
ATOM     20  C   UNL A   1      31.310  28.842  23.022  1.00  0.00     0.008 A 
ATOM     21  C   UNL A   1      32.633  29.120  22.693  1.00  0.00     0.039 A 
ATOM     22  C   UNL A   1      32.992  26.771  22.267  1.00  0.00     0.065 A 
ATOM     23  C   UNL A   1      33.456  28.081  22.301  1.00  0.00     0.125 A 
ATOM     24  F   UNL A   1      34.724  28.336  21.954  1.00  0.00    -0.207 F 
ENDBRANCH  14  17
ENDBRANCH   8  13
ENDBRANCH   4   7
ENDBRANCH   2   3
ENDBRANCH   1   2
BRANCH   1  25
ATOM     25  C   UNL A   1      33.824  28.869  26.193  1.00  0.00     0.118 C 
BRANCH  25  26
ATOM     26  N   UNL A   1      33.807  30.254  26.649  1.00  0.00    -0.352 N 
ATOM     27  C   UNL A   1      34.573  30.933  27.562  1.00  0.00     0.251 C 
ATOM     28  H   UNL A   1      33.115  30.807  26.220  1.00  0.00     0.163 HD
ATOM     29  O   UNL A   1      34.196  32.048  27.919  1.00  0.00    -0.269 OA
BRANCH  27  30
ATOM     30  C   UNL A   1      35.829  30.376  28.121  1.00  0.00     0.039 A 
ATOM     31  C   UNL A   1      37.017  30.571  27.404  1.00  0.00     0.014 A 
ATOM     32  C   UNL A   1      35.848  29.588  29.274  1.00  0.00     0.014 A 
ATOM     33  C   UNL A   1      38.217  30.018  27.863  1.00  0.00     0.010 A 
ATOM     34  C   UNL A   1      37.057  29.092  29.768  1.00  0.00     0.010 A 
ATOM     35  C   UNL A   1      38.254  29.292  29.064  1.00  0.00    -0.014 A 
BRANCH  35  36
ATOM     36  C   UNL A   1      39.540  28.766  29.597  1.00  0.00     0.031 A 
ATOM     37  C   UNL A   1      40.229  29.430  30.761  1.00  0.00     0.074 A 
ATOM     38  C   UNL A   1      40.131  27.723  28.979  1.00  0.00     0.049 A 
ATOM     39  N   UNL A   1      41.354  29.103  31.346  1.00  0.00    -0.248 NA
ATOM     40  C   UNL A   1      39.592  30.631  31.325  1.00  0.00     0.031 C 
ATOM     41  C   UNL A   1      39.621  27.054  27.781  1.00  0.00     0.029 A 
ATOM     42  N   UNL A   1      41.301  27.059  29.256  1.00  0.00    -0.354 N 
ATOM     43  C   UNL A   1      41.579  30.073  32.316  1.00  0.00     0.074 A 
ATOM     44  C   UNL A   1      40.485  31.015  32.228  1.00  0.00     0.031 C 
ATOM     45  C   UNL A   1      40.472  26.078  27.425  1.00  0.00     0.029 A 
ATOM     46  C   UNL A   1      41.594  26.059  28.359  1.00  0.00     0.049 A 
ATOM     47  H   UNL A   1      41.876  27.278  30.025  1.00  0.00     0.167 HD
ATOM     48  C   UNL A   1      42.589  30.157  33.216  1.00  0.00     0.034 A 
ATOM     49  C   UNL A   1      42.645  25.219  28.292  1.00  0.00     0.034 A 
ATOM     50  C   UNL A   1      43.641  29.184  33.347  1.00  0.00     0.049 A 
ATOM     51  C   UNL A   1      43.700  25.278  29.363  1.00  0.00     0.074 A 
ATOM     52  C   UNL A   1      44.634  29.116  34.309  1.00  0.00     0.029 A 
ATOM     53  N   UNL A   1      43.841  28.114  32.491  1.00  0.00    -0.354 N 
ATOM     54  N   UNL A   1      43.783  26.082  30.395  1.00  0.00    -0.248 NA
ATOM     55  C   UNL A   1      44.782  24.285  29.286  1.00  0.00     0.031 C 
ATOM     56  C   UNL A   1      45.444  28.010  34.026  1.00  0.00     0.029 A 
ATOM     57  C   UNL A   1      44.947  27.384  32.894  1.00  0.00     0.049 A 
ATOM     58  H   UNL A   1      43.280  27.902  31.711  1.00  0.00     0.167 HD
ATOM     59  C   UNL A   1      44.910  25.677  31.102  1.00  0.00     0.074 A 
ATOM     60  C   UNL A   1      45.457  24.535  30.401  1.00  0.00     0.031 C 
ATOM     61  C   UNL A   1      45.455  26.218  32.220  1.00  0.00     0.034 A 
BRANCH  48  62
ATOM     62  C   UNL A   1      42.575  31.307  34.190  1.00  0.00     0.023 A 
ATOM     63  C   UNL A   1      43.408  32.419  33.957  1.00  0.00     0.012 A 
ATOM     64  C   UNL A   1      41.676  31.330  35.274  1.00  0.00     0.148 A 
ATOM     65  C   UNL A   1      43.366  33.528  34.802  1.00  0.00     0.002 A 
ATOM     66  C   UNL A   1      41.613  32.455  36.090  1.00  0.00     0.091 A 
ATOM     67  F   UNL A   1      40.905  30.256  35.490  1.00  0.00    -0.205 F 
ATOM     68  C   UNL A   1      42.462  33.550  35.860  1.00  0.00     0.022 A 
BRANCH  66  69
ATOM     69  S   UNL A   1      40.431  32.615  37.435  1.00  0.00     0.127 S 
ATOM     70  O   UNL A   1      41.268  32.323  38.599  1.00  0.00    -0.237 OA
ATOM     71  O   UNL A   1      40.018  34.013  37.318  1.00  0.00    -0.237 OA
ATOM     72  O   UNL A   1      39.379  31.645  37.163  1.00  0.00    -0.744 OA
ENDBRANCH  66  69
ENDBRANCH  48  62
BRANCH  49  73
ATOM     73  C   UNL A   1      42.708  24.195  27.211  1.00  0.00     0.023 A 
ATOM     74  C   UNL A   1      43.481  24.450  26.061  1.00  0.00     0.012 A 
ATOM     75  C   UNL A   1      42.040  22.961  27.328  1.00  0.00     0.148 A 
ATOM     76  C   UNL A   1      43.559  23.510  25.033  1.00  0.00     0.002 A 
ATOM     77  C   UNL A   1      42.169  22.006  26.326  1.00  0.00     0.091 A 
ATOM     78  F   UNL A   1      41.294  22.740  28.420  1.00  0.00    -0.205 F 
ATOM     79  C   UNL A   1      42.914  22.284  25.170  1.00  0.00     0.022 A 
BRANCH  77  80
ATOM     80  S   UNL A   1      41.487  20.352  26.500  1.00  0.00     0.127 S 
ATOM     81  O   UNL A   1      42.060  19.667  25.347  1.00  0.00    -0.237 OA
ATOM     82  O   UNL A   1      42.022  19.932  27.797  1.00  0.00    -0.237 OA
ATOM     83  O   UNL A   1      40.041  20.534  26.487  1.00  0.00    -0.744 OA
ENDBRANCH  77  80
ENDBRANCH  49  73
BRANCH  61  84
ATOM     84  C   UNL A   1      46.703  25.578  32.764  1.00  0.00     0.023 A 
ATOM     85  C   UNL A   1      47.964  26.045  32.341  1.00  0.00     0.012 A 
ATOM     86  C   UNL A   1      46.635  24.557  33.733  1.00  0.00     0.148 A 
ATOM     87  C   UNL A   1      49.136  25.485  32.847  1.00  0.00     0.002 A 
ATOM     88  C   UNL A   1      47.808  24.035  34.267  1.00  0.00     0.091 A 
ATOM     89  F   UNL A   1      45.428  24.108  34.108  1.00  0.00    -0.205 F 
ATOM     90  C   UNL A   1      49.058  24.489  33.817  1.00  0.00     0.022 A 
BRANCH  88  91
ATOM     91  S   UNL A   1      47.792  22.813  35.585  1.00  0.00     0.127 S 
ATOM     92  O   UNL A   1      47.170  21.668  34.924  1.00  0.00    -0.237 OA
ATOM     93  O   UNL A   1      49.216  22.648  35.880  1.00  0.00    -0.237 OA
ATOM     94  O   UNL A   1      47.023  23.413  36.668  1.00  0.00    -0.744 OA
ENDBRANCH  88  91
ENDBRANCH  61  84
ENDBRANCH  35  36
ENDBRANCH  27  30
ENDBRANCH  25  26
ENDBRANCH   1  25
TORSDOF 15
ENDMDL
MODEL 3
REMARK VINA RESULT:     -11.8      5.272      9.650
REMARK SMILES Cc1ccc(F)cc1NC(=O)c1nn(C)cc1C(=O)NCCCNC(=O)c1ccc(-c2c3nc(c(-c4cccc(S(=O)(=O)[O-])c4F)c4ccc([nH]4)c(-c4cccc(S(=O)(=O)[O-])c4F)c4nc(c(-c5cccc(S(=O)(=O)[O-])c5F)c5ccc2[nH]5)C=C4)C=C3)cc1
REMARK SMILES IDX 22 1 21 2 20 3 18 4 19 5 17 7 12 8 13 9 14 10 16 11 15 12
REMARK SMILES IDX 10 13 9 14 11 16 8 17 1 18 2 19 3 20 4 21 7 22 5 23 6 24
REMARK SMILES IDX 23 25 24 26 25 27 26 29 27 30 28 31 89 32 29 33 88 34 30 35
REMARK SMILES IDX 31 36 32 37 82 38 33 39 87 40 81 41 83 42 34 43 86 44 80 45
REMARK SMILES IDX 79 46 35 48 67 49 47 50 66 51 48 52 51 53 65 54 84 55 49 56
REMARK SMILES IDX 50 57 64 59 85 60 52 61 36 62 37 63 45 64 38 65 40 66 46 67
REMARK SMILES IDX 39 68 41 69 42 70 43 71 44 72 68 73 69 74 77 75 70 76 72 77
REMARK SMILES IDX 78 78 71 79 73 80 74 81 75 82 76 83 53 84 54 85 62 86 55 87
REMARK SMILES IDX 57 88 63 89 56 90 58 91 59 92 60 93 61 94
REMARK H PARENT 20 6 9 15 24 28 83 47 51 58
REMARK Flexibility Score: inf
ROOT
ATOM      1  C   UNL A   1      35.142  22.651  25.233  1.00  0.00     0.042 C 
ENDROOT
BRANCH   1   2
ATOM      2  C   UNL A   1      34.407  23.958  25.519  1.00  0.00     0.118 C 
BRANCH   2   3
ATOM      3  N   UNL A   1      33.195  23.796  26.302  1.00  0.00    -0.352 N 
ATOM      4  C   UNL A   1      32.129  24.611  26.593  1.00  0.00     0.255 C 
ATOM      5  O   UNL A   1      31.222  24.094  27.251  1.00  0.00    -0.269 OA
ATOM      6  H   UNL A   1      33.121  22.907  26.717  1.00  0.00     0.163 HD
BRANCH   4   7
ATOM      7  C   UNL A   1      32.051  26.009  26.194  1.00  0.00     0.090 A 
ATOM      8  C   UNL A   1      31.006  26.587  25.382  1.00  0.00     0.163 A 
ATOM      9  N   UNL A   1      31.212  27.902  25.170  1.00  0.00    -0.167 NA
ATOM     10  N   UNL A   1      32.334  28.173  25.838  1.00  0.00    -0.274 N 
ATOM     11  C   UNL A   1      32.896  27.079  26.429  1.00  0.00     0.123 A 
ATOM     12  C   UNL A   1      32.824  29.530  25.883  1.00  0.00     0.173 C 
BRANCH   8  13
ATOM     13  C   UNL A   1      29.824  25.939  24.800  1.00  0.00     0.277 C 
ATOM     14  N   UNL A   1      29.932  25.016  23.777  1.00  0.00    -0.320 N 
ATOM     15  H   UNL A   1      29.061  24.719  23.429  1.00  0.00     0.170 HD
ATOM     16  O   UNL A   1      28.684  26.202  25.200  1.00  0.00    -0.267 OA
BRANCH  14  17
ATOM     17  C   UNL A   1      31.026  24.412  23.127  1.00  0.00     0.047 A 
ATOM     18  C   UNL A   1      31.501  26.592  21.811  1.00  0.00     0.046 C 
ATOM     19  C   UNL A   1      31.813  25.180  22.237  1.00  0.00    -0.027 A 
ATOM     20  C   UNL A   1      32.978  24.612  21.677  1.00  0.00     0.008 A 
ATOM     21  C   UNL A   1      33.349  23.303  21.968  1.00  0.00     0.039 A 
ATOM     22  C   UNL A   1      31.369  23.072  23.330  1.00  0.00     0.065 A 
ATOM     23  C   UNL A   1      32.529  22.541  22.779  1.00  0.00     0.125 A 
ATOM     24  F   UNL A   1      32.858  21.271  23.046  1.00  0.00    -0.207 F 
ENDBRANCH  14  17
ENDBRANCH   8  13
ENDBRANCH   4   7
ENDBRANCH   2   3
ENDBRANCH   1   2
BRANCH   1  25
ATOM     25  C   UNL A   1      35.791  21.994  26.454  1.00  0.00     0.118 C 
BRANCH  25  26
ATOM     26  N   UNL A   1      36.878  21.090  26.097  1.00  0.00    -0.352 N 
ATOM     27  C   UNL A   1      38.216  21.300  25.878  1.00  0.00     0.251 C 
ATOM     28  H   UNL A   1      36.600  20.152  25.994  1.00  0.00     0.163 HD
ATOM     29  O   UNL A   1      38.869  20.390  25.369  1.00  0.00    -0.269 OA
BRANCH  27  30
ATOM     30  C   UNL A   1      38.894  22.569  26.237  1.00  0.00     0.039 A 
ATOM     31  C   UNL A   1      39.949  22.520  27.157  1.00  0.00     0.014 A 
ATOM     32  C   UNL A   1      38.454  23.809  25.769  1.00  0.00     0.014 A 
ATOM     33  C   UNL A   1      40.583  23.697  27.568  1.00  0.00     0.010 A 
ATOM     34  C   UNL A   1      39.130  24.978  26.128  1.00  0.00     0.010 A 
ATOM     35  C   UNL A   1      40.196  24.938  27.039  1.00  0.00    -0.014 A 
BRANCH  35  36
ATOM     36  C   UNL A   1      40.916  26.185  27.414  1.00  0.00     0.031 A 
ATOM     37  C   UNL A   1      42.341  26.419  26.986  1.00  0.00     0.074 A 
ATOM     38  C   UNL A   1      40.303  27.084  28.210  1.00  0.00     0.049 A 
ATOM     39  N   UNL A   1      43.115  27.447  27.230  1.00  0.00    -0.248 NA
ATOM     40  C   UNL A   1      42.995  25.353  26.209  1.00  0.00     0.031 C 
ATOM     41  C   UNL A   1      38.962  26.932  28.778  1.00  0.00     0.029 A 
ATOM     42  N   UNL A   1      40.735  28.291  28.702  1.00  0.00    -0.354 N 
ATOM     43  C   UNL A   1      44.351  27.137  26.674  1.00  0.00     0.074 A 
ATOM     44  C   UNL A   1      44.233  25.815  26.099  1.00  0.00     0.031 C 
ATOM     45  C   UNL A   1      38.682  28.001  29.541  1.00  0.00     0.029 A 
ATOM     46  C   UNL A   1      39.825  28.908  29.529  1.00  0.00     0.049 A 
ATOM     47  H   UNL A   1      41.613  28.679  28.484  1.00  0.00     0.167 HD
ATOM     48  C   UNL A   1      45.474  27.896  26.622  1.00  0.00     0.034 A 
ATOM     49  C   UNL A   1      39.899  30.074  30.202  1.00  0.00     0.034 A 
ATOM     50  C   UNL A   1      45.570  29.236  27.137  1.00  0.00     0.049 A 
ATOM     51  C   UNL A   1      41.123  30.934  30.046  1.00  0.00     0.074 A 
ATOM     52  C   UNL A   1      46.623  30.128  27.019  1.00  0.00     0.029 A 
ATOM     53  N   UNL A   1      44.584  29.877  27.868  1.00  0.00    -0.354 N 
ATOM     54  N   UNL A   1      42.206  30.708  29.344  1.00  0.00    -0.248 NA
ATOM     55  C   UNL A   1      41.115  32.232  30.738  1.00  0.00     0.031 C 
ATOM     56  C   UNL A   1      46.277  31.305  27.692  1.00  0.00     0.029 A 
ATOM     57  C   UNL A   1      45.005  31.149  28.219  1.00  0.00     0.049 A 
ATOM     58  H   UNL A   1      43.712  29.487  28.104  1.00  0.00     0.167 HD
ATOM     59  C   UNL A   1      42.998  31.841  29.489  1.00  0.00     0.074 A 
ATOM     60  C   UNL A   1      42.254  32.768  30.318  1.00  0.00     0.031 C 
ATOM     61  C   UNL A   1      44.238  32.084  29.000  1.00  0.00     0.034 A 
BRANCH  48  62
ATOM     62  C   UNL A   1      46.680  27.326  25.922  1.00  0.00     0.023 A 
ATOM     63  C   UNL A   1      47.435  26.319  26.555  1.00  0.00     0.012 A 
ATOM     64  C   UNL A   1      47.011  27.717  24.609  1.00  0.00     0.148 A 
ATOM     65  C   UNL A   1      48.515  25.724  25.903  1.00  0.00     0.002 A 
ATOM     66  C   UNL A   1      48.065  27.092  23.951  1.00  0.00     0.091 A 
ATOM     67  F   UNL A   1      46.293  28.690  24.031  1.00  0.00    -0.205 F 
ATOM     68  C   UNL A   1      48.822  26.103  24.599  1.00  0.00     0.022 A 
BRANCH  66  69
ATOM     69  S   UNL A   1      48.497  27.455  22.245  1.00  0.00     0.127 S 
ATOM     70  O   UNL A   1      49.746  28.198  22.408  1.00  0.00    -0.237 OA
ATOM     71  O   UNL A   1      48.655  26.117  21.676  1.00  0.00    -0.237 OA
ATOM     72  O   UNL A   1      47.382  28.219  21.702  1.00  0.00    -0.744 OA
ENDBRANCH  66  69
ENDBRANCH  48  62
BRANCH  49  73
ATOM     73  C   UNL A   1      38.742  30.529  31.023  1.00  0.00     0.023 A 
ATOM     74  C   UNL A   1      38.757  30.320  32.416  1.00  0.00     0.012 A 
ATOM     75  C   UNL A   1      37.646  31.196  30.442  1.00  0.00     0.148 A 
ATOM     76  C   UNL A   1      37.688  30.738  33.210  1.00  0.00     0.002 A 
ATOM     77  C   UNL A   1      36.611  31.660  31.247  1.00  0.00     0.091 A 
ATOM     78  F   UNL A   1      37.637  31.371  29.113  1.00  0.00    -0.205 F 
ATOM     79  C   UNL A   1      36.621  31.416  32.629  1.00  0.00     0.022 A 
BRANCH  77  80
ATOM     80  S   UNL A   1      35.278  32.668  30.588  1.00  0.00     0.127 S 
ATOM     81  O   UNL A   1      34.354  32.722  31.716  1.00  0.00    -0.237 OA
ATOM     82  O   UNL A   1      35.961  33.928  30.289  1.00  0.00    -0.237 OA
ATOM     83  O   UNL A   1      34.809  31.955  29.407  1.00  0.00    -0.744 OA
ENDBRANCH  77  80
ENDBRANCH  49  73
BRANCH  61  84
ATOM     84  C   UNL A   1      44.872  33.407  29.337  1.00  0.00     0.023 A 
ATOM     85  C   UNL A   1      45.661  33.522  30.499  1.00  0.00     0.012 A 
ATOM     86  C   UNL A   1      44.737  34.517  28.480  1.00  0.00     0.148 A 
ATOM     87  C   UNL A   1      46.279  34.730  30.821  1.00  0.00     0.002 A 
ATOM     88  C   UNL A   1      45.393  35.705  28.785  1.00  0.00     0.091 A 
ATOM     89  F   UNL A   1      43.965  34.398  27.391  1.00  0.00    -0.205 F 
ATOM     90  C   UNL A   1      46.154  35.817  29.960  1.00  0.00     0.022 A 
BRANCH  88  91
ATOM     91  S   UNL A   1      45.356  37.123  27.681  1.00  0.00     0.127 S 
ATOM     92  O   UNL A   1      45.973  38.160  28.505  1.00  0.00    -0.237 OA
ATOM     93  O   UNL A   1      46.176  36.670  26.556  1.00  0.00    -0.237 OA
ATOM     94  O   UNL A   1      43.951  37.328  27.352  1.00  0.00    -0.744 OA
ENDBRANCH  88  91
ENDBRANCH  61  84
ENDBRANCH  35  36
ENDBRANCH  27  30
ENDBRANCH  25  26
ENDBRANCH   1  25
TORSDOF 15
ENDMDL
