MODEL 1
REMARK VINA RESULT:     -12.7      0.000      0.000
REMARK SMILES CCNC(=O)c1cccc(-c2ccc(Cl)c(C(=O)NCCCNC(=O)c3ccc(-c4c5nc(c(-c6cccc(S(=O)(=O)[O-])c6F)c6ccc([nH]6)c(-c6cccc(S(=O)(=O)[O-])c6F)c6nc(c(-c7cccc(S(=O)(=O)[O-])c7F)c7ccc4[nH]7)C=C6)C=C5)cc3)c2)c1
REMARK SMILES IDX 21 1 20 2 19 3 17 4 18 5 16 7 11 8 12 9 89 10 13 11 14 12
REMARK SMILES IDX 15 13 10 14 6 15 7 16 90 17 8 18 9 19 4 20 3 21 5 23 2 24
REMARK SMILES IDX 1 25 22 26 23 27 24 28 25 30 26 31 27 32 88 33 28 34 87 35
REMARK SMILES IDX 29 36 30 37 31 38 81 39 32 40 86 41 80 42 82 43 33 44 85 45
REMARK SMILES IDX 79 46 78 47 34 49 66 50 46 51 65 52 47 53 50 54 64 55 83 56
REMARK SMILES IDX 48 57 49 58 63 60 84 61 51 62 35 63 36 64 44 65 37 66 39 67
REMARK SMILES IDX 45 68 38 69 40 70 41 71 42 72 43 73 67 74 68 75 76 76 69 77
REMARK SMILES IDX 71 78 77 79 70 80 72 81 73 82 74 83 75 84 52 85 53 86 61 87
REMARK SMILES IDX 54 88 56 89 62 90 55 91 57 92 58 93 59 94 60 95
REMARK H PARENT 19 6 3 22 23 29 82 48 50 59
REMARK Flexibility Score: inf
ROOT
ATOM      1  C   UNL A   1      31.738  31.619  26.702  1.00  0.00     0.042 C 
ENDROOT
BRANCH   1   2
ATOM      2  C   UNL A   1      32.025  30.172  26.344  1.00  0.00     0.118 C 
BRANCH   2   3
ATOM      3  N   UNL A   1      32.811  29.985  25.121  1.00  0.00    -0.352 N 
ATOM      4  C   UNL A   1      32.860  29.058  24.097  1.00  0.00     0.252 C 
ATOM      5  O   UNL A   1      33.602  29.338  23.156  1.00  0.00    -0.269 OA
ATOM      6  H   UNL A   1      33.473  30.703  24.998  1.00  0.00     0.163 HD
BRANCH   4   7
ATOM      7  C   UNL A   1      32.091  27.776  24.090  1.00  0.00     0.059 A 
ATOM      8  C   UNL A   1      32.205  25.315  24.172  1.00  0.00    -0.017 A 
ATOM      9  C   UNL A   1      30.858  25.252  23.816  1.00  0.00     0.010 A 
ATOM     10  C   UNL A   1      32.734  26.589  24.439  1.00  0.00     0.024 A 
ATOM     11  C   UNL A   1      30.118  26.427  23.651  1.00  0.00     0.022 A 
ATOM     12  C   UNL A   1      30.736  27.686  23.740  1.00  0.00     0.053 A 
ATOM     13  Cl  UNL A   1      29.725  29.044  23.395  1.00  0.00    -0.083 Cl
BRANCH   8  14
ATOM     14  C   UNL A   1      33.103  24.139  24.172  1.00  0.00    -0.018 A 
ATOM     15  C   UNL A   1      33.873  22.058  25.216  1.00  0.00     0.040 A 
ATOM     16  C   UNL A   1      34.984  22.031  24.374  1.00  0.00     0.014 A 
ATOM     17  C   UNL A   1      32.972  23.126  25.136  1.00  0.00     0.022 A 
ATOM     18  C   UNL A   1      35.151  23.031  23.420  1.00  0.00     0.001 A 
ATOM     19  C   UNL A   1      34.213  24.066  23.311  1.00  0.00     0.009 A 
BRANCH  15  20
ATOM     20  C   UNL A   1      33.726  21.015  26.261  1.00  0.00     0.251 C 
ATOM     21  N   UNL A   1      33.355  19.733  25.937  1.00  0.00    -0.352 N 
ATOM     22  H   UNL A   1      33.114  19.170  26.708  1.00  0.00     0.163 HD
ATOM     23  O   UNL A   1      33.935  21.297  27.437  1.00  0.00    -0.269 OA
BRANCH  21  24
ATOM     24  C   UNL A   1      33.256  19.069  24.649  1.00  0.00     0.112 C 
ATOM     25  C   UNL A   1      34.331  18.013  24.495  1.00  0.00     0.027 C 
ENDBRANCH  21  24
ENDBRANCH  15  20
ENDBRANCH   8  14
ENDBRANCH   4   7
ENDBRANCH   2   3
ENDBRANCH   1   2
BRANCH   1  26
ATOM     26  C   UNL A   1      32.939  32.375  27.241  1.00  0.00     0.118 C 
BRANCH  26  27
ATOM     27  N   UNL A   1      32.635  33.768  27.563  1.00  0.00    -0.352 N 
ATOM     28  C   UNL A   1      33.133  34.594  28.547  1.00  0.00     0.251 C 
ATOM     29  H   UNL A   1      31.963  34.187  26.979  1.00  0.00     0.163 HD
ATOM     30  O   UNL A   1      32.596  35.672  28.763  1.00  0.00    -0.269 OA
BRANCH  28  31
ATOM     31  C   UNL A   1      34.306  34.176  29.348  1.00  0.00     0.039 A 
ATOM     32  C   UNL A   1      34.116  33.476  30.543  1.00  0.00     0.014 A 
ATOM     33  C   UNL A   1      35.596  34.486  28.922  1.00  0.00     0.014 A 
ATOM     34  C   UNL A   1      35.224  33.014  31.263  1.00  0.00     0.010 A 
ATOM     35  C   UNL A   1      36.690  33.938  29.577  1.00  0.00     0.010 A 
ATOM     36  C   UNL A   1      36.520  33.204  30.760  1.00  0.00    -0.014 A 
BRANCH  36  37
ATOM     37  C   UNL A   1      37.733  32.672  31.435  1.00  0.00     0.031 A 
ATOM     38  C   UNL A   1      38.489  31.532  30.801  1.00  0.00     0.074 A 
ATOM     39  C   UNL A   1      38.057  33.100  32.672  1.00  0.00     0.049 A 
ATOM     40  N   UNL A   1      39.433  30.784  31.308  1.00  0.00    -0.248 NA
ATOM     41  C   UNL A   1      38.098  31.152  29.432  1.00  0.00     0.031 C 
ATOM     42  C   UNL A   1      37.361  34.148  33.421  1.00  0.00     0.029 A 
ATOM     43  N   UNL A   1      39.032  32.669  33.540  1.00  0.00    -0.354 N 
ATOM     44  C   UNL A   1      39.694  29.806  30.356  1.00  0.00     0.074 A 
ATOM     45  C   UNL A   1      38.801  30.044  29.245  1.00  0.00     0.031 C 
ATOM     46  C   UNL A   1      37.922  34.271  34.636  1.00  0.00     0.029 A 
ATOM     47  C   UNL A   1      38.990  33.286  34.771  1.00  0.00     0.049 A 
ATOM     48  H   UNL A   1      39.698  31.983  33.304  1.00  0.00     0.167 HD
ATOM     49  C   UNL A   1      40.611  28.812  30.393  1.00  0.00     0.034 A 
ATOM     50  C   UNL A   1      39.714  33.067  35.886  1.00  0.00     0.034 A 
ATOM     51  C   UNL A   1      41.556  28.638  31.460  1.00  0.00     0.049 A 
ATOM     52  C   UNL A   1      40.777  31.999  35.866  1.00  0.00     0.074 A 
ATOM     53  C   UNL A   1      42.610  27.745  31.535  1.00  0.00     0.029 A 
ATOM     54  N   UNL A   1      41.567  29.372  32.634  1.00  0.00    -0.354 N 
ATOM     55  N   UNL A   1      41.119  31.193  34.891  1.00  0.00    -0.248 NA
ATOM     56  C   UNL A   1      41.579  31.833  37.088  1.00  0.00     0.031 C 
ATOM     57  C   UNL A   1      43.246  27.925  32.765  1.00  0.00     0.029 A 
ATOM     58  C   UNL A   1      42.604  28.949  33.444  1.00  0.00     0.049 A 
ATOM     59  H   UNL A   1      40.930  30.090  32.859  1.00  0.00     0.167 HD
ATOM     60  C   UNL A   1      42.204  30.462  35.362  1.00  0.00     0.074 A 
ATOM     61  C   UNL A   1      42.470  30.928  36.707  1.00  0.00     0.031 C 
ATOM     62  C   UNL A   1      42.909  29.485  34.744  1.00  0.00     0.034 A 
BRANCH  49  63
ATOM     63  C   UNL A   1      40.686  27.863  29.228  1.00  0.00     0.023 A 
ATOM     64  C   UNL A   1      39.796  26.773  29.155  1.00  0.00     0.012 A 
ATOM     65  C   UNL A   1      41.571  28.108  28.159  1.00  0.00     0.148 A 
ATOM     66  C   UNL A   1      39.800  25.927  28.047  1.00  0.00     0.002 A 
ATOM     67  C   UNL A   1      41.537  27.288  27.037  1.00  0.00     0.091 A 
ATOM     68  F   UNL A   1      42.422  29.139  28.258  1.00  0.00    -0.205 F 
ATOM     69  C   UNL A   1      40.660  26.192  26.984  1.00  0.00     0.022 A 
BRANCH  67  70
ATOM     70  S   UNL A   1      42.542  27.593  25.580  1.00  0.00     0.127 S 
ATOM     71  O   UNL A   1      43.889  27.618  26.150  1.00  0.00    -0.237 OA
ATOM     72  O   UNL A   1      42.251  26.419  24.757  1.00  0.00    -0.237 OA
ATOM     73  O   UNL A   1      42.079  28.858  25.026  1.00  0.00    -0.744 OA
ENDBRANCH  67  70
ENDBRANCH  49  63
BRANCH  50  74
ATOM     74  C   UNL A   1      39.508  33.907  37.101  1.00  0.00     0.023 A 
ATOM     75  C   UNL A   1      39.995  35.230  37.111  1.00  0.00     0.012 A 
ATOM     76  C   UNL A   1      38.847  33.414  38.244  1.00  0.00     0.148 A 
ATOM     77  C   UNL A   1      39.873  36.028  38.248  1.00  0.00     0.002 A 
ATOM     78  C   UNL A   1      38.680  34.234  39.355  1.00  0.00     0.091 A 
ATOM     79  F   UNL A   1      38.400  32.150  38.226  1.00  0.00    -0.205 F 
ATOM     80  C   UNL A   1      39.208  35.534  39.367  1.00  0.00     0.022 A 
BRANCH  78  81
ATOM     81  S   UNL A   1      37.727  33.719  40.789  1.00  0.00     0.127 S 
ATOM     82  O   UNL A   1      38.639  32.778  41.433  1.00  0.00    -0.237 OA
ATOM     83  O   UNL A   1      37.538  34.981  41.504  1.00  0.00    -0.237 OA
ATOM     84  O   UNL A   1      36.498  33.151  40.252  1.00  0.00    -0.744 OA
ENDBRANCH  78  81
ENDBRANCH  50  74
BRANCH  62  85
ATOM     85  C   UNL A   1      44.085  28.890  35.469  1.00  0.00     0.023 A 
ATOM     86  C   UNL A   1      45.354  29.488  35.360  1.00  0.00     0.012 A 
ATOM     87  C   UNL A   1      43.900  27.806  36.350  1.00  0.00     0.148 A 
ATOM     88  C   UNL A   1      46.430  29.001  36.103  1.00  0.00     0.002 A 
ATOM     89  C   UNL A   1      44.963  27.359  37.123  1.00  0.00     0.091 A 
ATOM     90  F   UNL A   1      42.684  27.242  36.424  1.00  0.00    -0.205 F 
ATOM     91  C   UNL A   1      46.230  27.949  36.993  1.00  0.00     0.022 A 
BRANCH  89  92
ATOM     92  S   UNL A   1      44.775  26.082  38.372  1.00  0.00     0.127 S 
ATOM     93  O   UNL A   1      46.163  25.835  38.757  1.00  0.00    -0.237 OA
ATOM     94  O   UNL A   1      43.970  26.759  39.390  1.00  0.00    -0.237 OA
ATOM     95  O   UNL A   1      44.103  24.969  37.713  1.00  0.00    -0.744 OA
ENDBRANCH  89  92
ENDBRANCH  62  85
ENDBRANCH  36  37
ENDBRANCH  28  31
ENDBRANCH  26  27
ENDBRANCH   1  26
TORSDOF 16
ENDMDL
MODEL 2
REMARK VINA RESULT:     -12.5      2.056      2.648
REMARK SMILES CCNC(=O)c1cccc(-c2ccc(Cl)c(C(=O)NCCCNC(=O)c3ccc(-c4c5nc(c(-c6cccc(S(=O)(=O)[O-])c6F)c6ccc([nH]6)c(-c6cccc(S(=O)(=O)[O-])c6F)c6nc(c(-c7cccc(S(=O)(=O)[O-])c7F)c7ccc4[nH]7)C=C6)C=C5)cc3)c2)c1
REMARK SMILES IDX 21 1 20 2 19 3 17 4 18 5 16 7 11 8 12 9 89 10 13 11 14 12
REMARK SMILES IDX 15 13 10 14 6 15 7 16 90 17 8 18 9 19 4 20 3 21 5 23 2 24
REMARK SMILES IDX 1 25 22 26 23 27 24 28 25 30 26 31 27 32 88 33 28 34 87 35
REMARK SMILES IDX 29 36 30 37 31 38 81 39 32 40 86 41 80 42 82 43 33 44 85 45
REMARK SMILES IDX 79 46 78 47 34 49 66 50 46 51 65 52 47 53 50 54 64 55 83 56
REMARK SMILES IDX 48 57 49 58 63 60 84 61 51 62 35 63 36 64 44 65 37 66 39 67
REMARK SMILES IDX 45 68 38 69 40 70 41 71 42 72 43 73 67 74 68 75 76 76 69 77
REMARK SMILES IDX 71 78 77 79 70 80 72 81 73 82 74 83 75 84 52 85 53 86 61 87
REMARK SMILES IDX 54 88 56 89 62 90 55 91 57 92 58 93 59 94 60 95
REMARK H PARENT 19 6 3 22 23 29 82 48 50 59
REMARK Flexibility Score: inf
ROOT
ATOM      1  C   UNL A   1      32.534  29.681  25.499  1.00  0.00     0.042 C 
ENDROOT
BRANCH   1   2
ATOM      2  C   UNL A   1      32.730  28.176  25.488  1.00  0.00     0.118 C 
BRANCH   2   3
ATOM      3  N   UNL A   1      31.509  27.395  25.706  1.00  0.00    -0.352 N 
ATOM      4  C   UNL A   1      30.971  26.223  25.210  1.00  0.00     0.252 C 
ATOM      5  O   UNL A   1      29.946  25.827  25.764  1.00  0.00    -0.269 OA
ATOM      6  H   UNL A   1      30.922  27.813  26.377  1.00  0.00     0.163 HD
BRANCH   4   7
ATOM      7  C   UNL A   1      31.552  25.452  24.068  1.00  0.00     0.059 A 
ATOM      8  C   UNL A   1      32.796  23.441  23.373  1.00  0.00    -0.017 A 
ATOM      9  C   UNL A   1      32.949  23.990  22.100  1.00  0.00     0.010 A 
ATOM     10  C   UNL A   1      31.970  24.137  24.271  1.00  0.00     0.024 A 
ATOM     11  C   UNL A   1      32.369  25.224  21.791  1.00  0.00     0.022 A 
ATOM     12  C   UNL A   1      31.713  25.978  22.779  1.00  0.00     0.053 A 
ATOM     13  Cl  UNL A   1      31.152  27.536  22.283  1.00  0.00    -0.083 Cl
BRANCH   8  14
ATOM     14  C   UNL A   1      33.536  22.247  23.839  1.00  0.00    -0.018 A 
ATOM     15  C   UNL A   1      33.534  19.937  24.663  1.00  0.00     0.040 A 
ATOM     16  C   UNL A   1      34.881  20.044  25.006  1.00  0.00     0.014 A 
ATOM     17  C   UNL A   1      32.869  21.045  24.125  1.00  0.00     0.022 A 
ATOM     18  C   UNL A   1      35.566  21.230  24.750  1.00  0.00     0.001 A 
ATOM     19  C   UNL A   1      34.904  22.314  24.160  1.00  0.00     0.009 A 
BRANCH  15  20
ATOM     20  C   UNL A   1      32.799  18.689  24.980  1.00  0.00     0.251 C 
ATOM     21  N   UNL A   1      32.532  17.756  24.008  1.00  0.00    -0.352 N 
ATOM     22  H   UNL A   1      31.893  17.057  24.277  1.00  0.00     0.163 HD
ATOM     23  O   UNL A   1      32.418  18.481  26.129  1.00  0.00    -0.269 OA
BRANCH  21  24
ATOM     24  C   UNL A   1      33.032  17.629  22.650  1.00  0.00     0.112 C 
ATOM     25  C   UNL A   1      32.151  18.374  21.670  1.00  0.00     0.027 C 
ENDBRANCH  21  24
ENDBRANCH  15  20
ENDBRANCH   8  14
ENDBRANCH   4   7
ENDBRANCH   2   3
ENDBRANCH   1   2
BRANCH   1  26
ATOM     26  C   UNL A   1      32.137  30.246  26.851  1.00  0.00     0.118 C 
BRANCH  26  27
ATOM     27  N   UNL A   1      32.052  31.705  26.855  1.00  0.00    -0.352 N 
ATOM     28  C   UNL A   1      32.873  32.653  27.424  1.00  0.00     0.251 C 
ATOM     29  H   UNL A   1      31.279  32.072  26.368  1.00  0.00     0.163 HD
ATOM     30  O   UNL A   1      32.509  33.821  27.472  1.00  0.00    -0.269 OA
BRANCH  28  31
ATOM     31  C   UNL A   1      34.185  32.262  27.986  1.00  0.00     0.039 A 
ATOM     32  C   UNL A   1      35.237  33.184  27.998  1.00  0.00     0.014 A 
ATOM     33  C   UNL A   1      34.381  30.978  28.491  1.00  0.00     0.014 A 
ATOM     34  C   UNL A   1      36.455  32.841  28.597  1.00  0.00     0.010 A 
ATOM     35  C   UNL A   1      35.548  30.676  29.177  1.00  0.00     0.010 A 
ATOM     36  C   UNL A   1      36.604  31.599  29.232  1.00  0.00    -0.014 A 
BRANCH  36  37
ATOM     37  C   UNL A   1      37.844  31.204  29.951  1.00  0.00     0.031 A 
ATOM     38  C   UNL A   1      38.761  30.181  29.331  1.00  0.00     0.074 A 
ATOM     39  C   UNL A   1      38.059  31.636  31.210  1.00  0.00     0.049 A 
ATOM     40  N   UNL A   1      39.768  29.542  29.865  1.00  0.00    -0.248 NA
ATOM     41  C   UNL A   1      38.479  29.790  27.938  1.00  0.00     0.031 C 
ATOM     42  C   UNL A   1      37.206  32.571  31.947  1.00  0.00     0.029 A 
ATOM     43  N   UNL A   1      39.041  31.306  32.113  1.00  0.00    -0.354 N 
ATOM     44  C   UNL A   1      40.188  28.628  28.906  1.00  0.00     0.074 A 
ATOM     45  C   UNL A   1      39.321  28.782  27.761  1.00  0.00     0.031 C 
ATOM     46  C   UNL A   1      37.695  32.732  33.188  1.00  0.00     0.029 A 
ATOM     47  C   UNL A   1      38.870  31.882  33.352  1.00  0.00     0.049 A 
ATOM     48  H   UNL A   1      39.796  30.714  31.894  1.00  0.00     0.167 HD
ATOM     49  C   UNL A   1      41.218  27.753  28.966  1.00  0.00     0.034 A 
ATOM     50  C   UNL A   1      39.567  31.726  34.495  1.00  0.00     0.034 A 
ATOM     51  C   UNL A   1      42.132  27.670  30.072  1.00  0.00     0.049 A 
ATOM     52  C   UNL A   1      40.754  30.798  34.503  1.00  0.00     0.074 A 
ATOM     53  C   UNL A   1      43.284  26.911  30.177  1.00  0.00     0.029 A 
ATOM     54  N   UNL A   1      42.001  28.370  31.259  1.00  0.00    -0.354 N 
ATOM     55  N   UNL A   1      41.235  30.064  33.528  1.00  0.00    -0.248 NA
ATOM     56  C   UNL A   1      41.517  30.700  35.757  1.00  0.00     0.031 C 
ATOM     57  C   UNL A   1      43.839  27.137  31.438  1.00  0.00     0.029 A 
ATOM     58  C   UNL A   1      43.047  28.057  32.107  1.00  0.00     0.049 A 
ATOM     59  H   UNL A   1      41.272  28.998  31.469  1.00  0.00     0.167 HD
ATOM     60  C   UNL A   1      42.380  29.461  34.035  1.00  0.00     0.074 A 
ATOM     61  C   UNL A   1      42.529  29.922  35.399  1.00  0.00     0.031 C 
ATOM     62  C   UNL A   1      43.227  28.593  33.430  1.00  0.00     0.034 A 
BRANCH  49  63
ATOM     63  C   UNL A   1      41.461  26.850  27.788  1.00  0.00     0.023 A 
ATOM     64  C   UNL A   1      42.231  27.309  26.701  1.00  0.00     0.012 A 
ATOM     65  C   UNL A   1      41.010  25.515  27.802  1.00  0.00     0.148 A 
ATOM     66  C   UNL A   1      42.529  26.462  25.634  1.00  0.00     0.002 A 
ATOM     67  C   UNL A   1      41.350  24.663  26.758  1.00  0.00     0.091 A 
ATOM     68  F   UNL A   1      40.263  25.104  28.837  1.00  0.00    -0.205 F 
ATOM     69  C   UNL A   1      42.100  25.138  25.670  1.00  0.00     0.022 A 
BRANCH  67  70
ATOM     70  S   UNL A   1      40.922  22.919  26.747  1.00  0.00     0.127 S 
ATOM     71  O   UNL A   1      41.329  22.507  28.091  1.00  0.00    -0.237 OA
ATOM     72  O   UNL A   1      39.475  22.960  26.535  1.00  0.00    -0.237 OA
ATOM     73  O   UNL A   1      41.682  22.322  25.658  1.00  0.00    -0.744 OA
ENDBRANCH  67  70
ENDBRANCH  49  63
BRANCH  50  74
ATOM     74  C   UNL A   1      39.206  32.503  35.716  1.00  0.00     0.023 A 
ATOM     75  C   UNL A   1      39.673  33.827  35.848  1.00  0.00     0.012 A 
ATOM     76  C   UNL A   1      38.420  31.951  36.746  1.00  0.00     0.148 A 
ATOM     77  C   UNL A   1      39.406  34.567  37.000  1.00  0.00     0.002 A 
ATOM     78  C   UNL A   1      38.111  32.713  37.867  1.00  0.00     0.091 A 
ATOM     79  F   UNL A   1      37.994  30.686  36.613  1.00  0.00    -0.205 F 
ATOM     80  C   UNL A   1      38.618  34.014  38.006  1.00  0.00     0.022 A 
BRANCH  78  81
ATOM     81  S   UNL A   1      36.999  32.121  39.149  1.00  0.00     0.127 S 
ATOM     82  O   UNL A   1      37.496  32.827  40.327  1.00  0.00    -0.237 OA
ATOM     83  O   UNL A   1      35.697  32.577  38.663  1.00  0.00    -0.237 OA
ATOM     84  O   UNL A   1      37.156  30.673  39.158  1.00  0.00    -0.744 OA
ENDBRANCH  78  81
ENDBRANCH  50  74
BRANCH  62  85
ATOM     85  C   UNL A   1      44.435  28.129  34.196  1.00  0.00     0.023 A 
ATOM     86  C   UNL A   1      45.644  28.843  34.103  1.00  0.00     0.012 A 
ATOM     87  C   UNL A   1      44.332  27.051  35.098  1.00  0.00     0.148 A 
ATOM     88  C   UNL A   1      46.742  28.478  34.882  1.00  0.00     0.002 A 
ATOM     89  C   UNL A   1      45.412  26.725  35.906  1.00  0.00     0.091 A 
ATOM     90  F   UNL A   1      43.174  26.376  35.157  1.00  0.00    -0.205 F 
ATOM     91  C   UNL A   1      46.621  27.430  35.792  1.00  0.00     0.022 A 
BRANCH  89  92
ATOM     92  S   UNL A   1      45.315  25.462  37.180  1.00  0.00     0.127 S 
ATOM     93  O   UNL A   1      46.628  25.574  37.812  1.00  0.00    -0.237 OA
ATOM     94  O   UNL A   1      44.200  25.936  38.002  1.00  0.00    -0.237 OA
ATOM     95  O   UNL A   1      45.062  24.206  36.485  1.00  0.00    -0.744 OA
ENDBRANCH  89  92
ENDBRANCH  62  85
ENDBRANCH  36  37
ENDBRANCH  28  31
ENDBRANCH  26  27
ENDBRANCH   1  26
TORSDOF 16
ENDMDL
MODEL 3
REMARK VINA RESULT:     -12.3      3.725      8.549
REMARK SMILES CCNC(=O)c1cccc(-c2ccc(Cl)c(C(=O)NCCCNC(=O)c3ccc(-c4c5nc(c(-c6cccc(S(=O)(=O)[O-])c6F)c6ccc([nH]6)c(-c6cccc(S(=O)(=O)[O-])c6F)c6nc(c(-c7cccc(S(=O)(=O)[O-])c7F)c7ccc4[nH]7)C=C6)C=C5)cc3)c2)c1
REMARK SMILES IDX 21 1 20 2 19 3 17 4 18 5 16 7 11 8 12 9 89 10 13 11 14 12
REMARK SMILES IDX 15 13 10 14 6 15 7 16 90 17 8 18 9 19 4 20 3 21 5 23 2 24
REMARK SMILES IDX 1 25 22 26 23 27 24 28 25 30 26 31 27 32 88 33 28 34 87 35
REMARK SMILES IDX 29 36 30 37 31 38 81 39 32 40 86 41 80 42 82 43 33 44 85 45
REMARK SMILES IDX 79 46 78 47 34 49 66 50 46 51 65 52 47 53 50 54 64 55 83 56
REMARK SMILES IDX 48 57 49 58 63 60 84 61 51 62 35 63 36 64 44 65 37 66 39 67
REMARK SMILES IDX 45 68 38 69 40 70 41 71 42 72 43 73 67 74 68 75 76 76 69 77
REMARK SMILES IDX 71 78 77 79 70 80 72 81 73 82 74 83 75 84 52 85 53 86 61 87
REMARK SMILES IDX 54 88 56 89 62 90 55 91 57 92 58 93 59 94 60 95
REMARK H PARENT 19 6 3 22 23 29 82 48 50 59
REMARK Flexibility Score: inf
ROOT
ATOM      1  C   UNL A   1      33.372  28.485  26.281  1.00  0.00     0.042 C 
ENDROOT
BRANCH   1   2
ATOM      2  C   UNL A   1      32.938  27.040  26.444  1.00  0.00     0.118 C 
BRANCH   2   3
ATOM      3  N   UNL A   1      31.540  26.774  26.095  1.00  0.00    -0.352 N 
ATOM      4  C   UNL A   1      30.873  26.015  25.152  1.00  0.00     0.252 C 
ATOM      5  O   UNL A   1      29.650  25.959  25.276  1.00  0.00    -0.269 OA
ATOM      6  H   UNL A   1      30.917  27.260  26.681  1.00  0.00     0.163 HD
BRANCH   4   7
ATOM      7  C   UNL A   1      31.546  25.296  24.025  1.00  0.00     0.059 A 
ATOM      8  C   UNL A   1      32.862  23.327  23.345  1.00  0.00    -0.017 A 
ATOM      9  C   UNL A   1      33.102  23.930  22.109  1.00  0.00     0.010 A 
ATOM     10  C   UNL A   1      31.964  23.979  24.207  1.00  0.00     0.024 A 
ATOM     11  C   UNL A   1      32.530  25.169  21.808  1.00  0.00     0.022 A 
ATOM     12  C   UNL A   1      31.794  25.876  22.774  1.00  0.00     0.053 A 
ATOM     13  Cl  UNL A   1      31.251  27.447  22.300  1.00  0.00    -0.083 Cl
BRANCH   8  14
ATOM     14  C   UNL A   1      33.581  22.123  23.815  1.00  0.00    -0.018 A 
ATOM     15  C   UNL A   1      33.537  19.843  24.717  1.00  0.00     0.040 A 
ATOM     16  C   UNL A   1      34.902  19.911  24.993  1.00  0.00     0.014 A 
ATOM     17  C   UNL A   1      32.886  20.956  24.173  1.00  0.00     0.022 A 
ATOM     18  C   UNL A   1      35.616  21.062  24.665  1.00  0.00     0.001 A 
ATOM     19  C   UNL A   1      34.964  22.150  24.071  1.00  0.00     0.009 A 
BRANCH  15  20
ATOM     20  C   UNL A   1      32.775  18.634  25.111  1.00  0.00     0.251 C 
ATOM     21  N   UNL A   1      32.442  17.672  24.188  1.00  0.00    -0.352 N 
ATOM     22  H   UNL A   1      31.792  17.006  24.507  1.00  0.00     0.163 HD
ATOM     23  O   UNL A   1      32.429  18.484  26.279  1.00  0.00    -0.269 OA
BRANCH  21  24
ATOM     24  C   UNL A   1      32.889  17.474  22.819  1.00  0.00     0.112 C 
ATOM     25  C   UNL A   1      34.212  16.739  22.776  1.00  0.00     0.027 C 
ENDBRANCH  21  24
ENDBRANCH  15  20
ENDBRANCH   8  14
ENDBRANCH   4   7
ENDBRANCH   2   3
ENDBRANCH   1   2
BRANCH   1  26
ATOM     26  C   UNL A   1      33.100  29.356  27.494  1.00  0.00     0.118 C 
BRANCH  26  27
ATOM     27  N   UNL A   1      33.542  30.737  27.313  1.00  0.00    -0.352 N 
ATOM     28  C   UNL A   1      34.716  31.362  27.676  1.00  0.00     0.251 C 
ATOM     29  H   UNL A   1      32.894  31.319  26.854  1.00  0.00     0.163 HD
ATOM     30  O   UNL A   1      34.801  32.580  27.601  1.00  0.00    -0.269 OA
BRANCH  28  31
ATOM     31  C   UNL A   1      35.864  30.566  28.163  1.00  0.00     0.039 A 
ATOM     32  C   UNL A   1      37.007  30.440  27.368  1.00  0.00     0.014 A 
ATOM     33  C   UNL A   1      35.807  29.932  29.403  1.00  0.00     0.014 A 
ATOM     34  C   UNL A   1      38.123  29.751  27.859  1.00  0.00     0.010 A 
ATOM     35  C   UNL A   1      36.946  29.343  29.931  1.00  0.00     0.010 A 
ATOM     36  C   UNL A   1      38.116  29.236  29.164  1.00  0.00    -0.014 A 
BRANCH  36  37
ATOM     37  C   UNL A   1      39.293  28.562  29.772  1.00  0.00     0.031 A 
ATOM     38  C   UNL A   1      39.931  29.159  30.999  1.00  0.00     0.074 A 
ATOM     39  C   UNL A   1      39.875  27.522  29.139  1.00  0.00     0.049 A 
ATOM     40  N   UNL A   1      41.073  28.865  31.563  1.00  0.00    -0.248 NA
ATOM     41  C   UNL A   1      39.212  30.267  31.653  1.00  0.00     0.031 C 
ATOM     42  C   UNL A   1      39.394  26.898  27.905  1.00  0.00     0.029 A 
ATOM     43  N   UNL A   1      41.031  26.835  29.425  1.00  0.00    -0.354 N 
ATOM     44  C   UNL A   1      41.242  29.794  32.584  1.00  0.00     0.074 A 
ATOM     45  C   UNL A   1      40.094  30.671  32.556  1.00  0.00     0.031 C 
ATOM     46  C   UNL A   1      40.250  25.931  27.535  1.00  0.00     0.029 A 
ATOM     47  C   UNL A   1      41.361  25.890  28.480  1.00  0.00     0.049 A 
ATOM     48  H   UNL A   1      41.571  27.003  30.231  1.00  0.00     0.167 HD
ATOM     49  C   UNL A   1      42.252  29.893  33.478  1.00  0.00     0.034 A 
ATOM     50  C   UNL A   1      42.447  25.099  28.374  1.00  0.00     0.034 A 
ATOM     51  C   UNL A   1      43.342  28.962  33.558  1.00  0.00     0.049 A 
ATOM     52  C   UNL A   1      43.517  25.186  29.431  1.00  0.00     0.074 A 
ATOM     53  C   UNL A   1      44.346  28.896  34.507  1.00  0.00     0.029 A 
ATOM     54  N   UNL A   1      43.570  27.933  32.659  1.00  0.00    -0.354 N 
ATOM     55  N   UNL A   1      43.575  25.963  30.486  1.00  0.00    -0.248 NA
ATOM     56  C   UNL A   1      44.657  24.264  29.305  1.00  0.00     0.031 C 
ATOM     57  C   UNL A   1      45.194  27.839  34.170  1.00  0.00     0.029 A 
ATOM     58  C   UNL A   1      44.702  27.231  33.026  1.00  0.00     0.049 A 
ATOM     59  H   UNL A   1      43.009  27.732  31.875  1.00  0.00     0.167 HD
ATOM     60  C   UNL A   1      44.725  25.590  31.172  1.00  0.00     0.074 A 
ATOM     61  C   UNL A   1      45.330  24.510  30.421  1.00  0.00     0.031 C 
ATOM     62  C   UNL A   1      45.242  26.102  32.314  1.00  0.00     0.034 A 
BRANCH  49  63
ATOM     63  C   UNL A   1      42.208  31.009  34.486  1.00  0.00     0.023 A 
ATOM     64  C   UNL A   1      41.645  30.783  35.758  1.00  0.00     0.012 A 
ATOM     65  C   UNL A   1      42.815  32.251  34.209  1.00  0.00     0.148 A 
ATOM     66  C   UNL A   1      41.664  31.781  36.730  1.00  0.00     0.002 A 
ATOM     67  C   UNL A   1      42.871  33.225  35.199  1.00  0.00     0.091 A 
ATOM     68  F   UNL A   1      43.328  32.452  32.987  1.00  0.00    -0.205 F 
ATOM     69  C   UNL A   1      42.288  32.995  36.455  1.00  0.00     0.022 A 
BRANCH  67  70
ATOM     70  S   UNL A   1      43.726  34.789  34.976  1.00  0.00     0.127 S 
ATOM     71  O   UNL A   1      42.957  35.393  33.888  1.00  0.00    -0.237 OA
ATOM     72  O   UNL A   1      43.542  35.426  36.279  1.00  0.00    -0.237 OA
ATOM     73  O   UNL A   1      45.105  34.454  34.649  1.00  0.00    -0.744 OA
ENDBRANCH  67  70
ENDBRANCH  49  63
BRANCH  50  74
ATOM     74  C   UNL A   1      42.559  24.110  27.264  1.00  0.00     0.023 A 
ATOM     75  C   UNL A   1      43.229  24.481  26.080  1.00  0.00     0.012 A 
ATOM     76  C   UNL A   1      42.008  22.817  27.359  1.00  0.00     0.148 A 
ATOM     77  C   UNL A   1      43.306  23.605  24.998  1.00  0.00     0.002 A 
ATOM     78  C   UNL A   1      42.136  21.928  26.296  1.00  0.00     0.091 A 
ATOM     79  F   UNL A   1      41.362  22.481  28.485  1.00  0.00    -0.205 F 
ATOM     80  C   UNL A   1      42.767  22.326  25.108  1.00  0.00     0.022 A 
BRANCH  78  81
ATOM     81  S   UNL A   1      41.582  20.222  26.404  1.00  0.00     0.127 S 
ATOM     82  O   UNL A   1      40.139  20.364  26.233  1.00  0.00    -0.237 OA
ATOM     83  O   UNL A   1      42.276  19.600  25.277  1.00  0.00    -0.237 OA
ATOM     84  O   UNL A   1      42.028  19.753  27.709  1.00  0.00    -0.744 OA
ENDBRANCH  78  81
ENDBRANCH  50  74
BRANCH  62  85
ATOM     85  C   UNL A   1      46.484  25.469  32.878  1.00  0.00     0.023 A 
ATOM     86  C   UNL A   1      47.749  26.000  32.565  1.00  0.00     0.012 A 
ATOM     87  C   UNL A   1      46.383  24.419  33.812  1.00  0.00     0.148 A 
ATOM     88  C   UNL A   1      48.900  25.480  33.157  1.00  0.00     0.002 A 
ATOM     89  C   UNL A   1      47.527  23.940  34.435  1.00  0.00     0.091 A 
ATOM     90  F   UNL A   1      45.168  23.919  34.082  1.00  0.00    -0.205 F 
ATOM     91  C   UNL A   1      48.787  24.462  34.101  1.00  0.00     0.022 A 
BRANCH  89  92
ATOM     92  S   UNL A   1      47.469  22.707  35.740  1.00  0.00     0.127 S 
ATOM     93  O   UNL A   1      46.308  23.145  36.512  1.00  0.00    -0.237 OA
ATOM     94  O   UNL A   1      47.269  21.468  34.987  1.00  0.00    -0.237 OA
ATOM     95  O   UNL A   1      48.747  22.793  36.434  1.00  0.00    -0.744 OA
ENDBRANCH  89  92
ENDBRANCH  62  85
ENDBRANCH  36  37
ENDBRANCH  28  31
ENDBRANCH  26  27
ENDBRANCH   1  26
TORSDOF 16
ENDMDL
