MODEL 1
REMARK VINA RESULT:     -12.2      0.000      0.000
REMARK SMILES O=C(NCCCNC(=O)[C@H]1C[N@H+](Cc2ccc(Cl)c(Cl)c2)CC12CCCCC2)c1ccc(-c2c3nc(c(-c4cccc(S(=O)(=O)[O-])c4F)c4ccc([nH]4)c(-c4cccc(S(=O)(=O)[O-])c4F)c4nc(c(-c5cccc(S(=O)(=O)[O-])c5F)c5ccc2[nH]5)C=C4)C=C3)cc1
REMARK SMILES IDX 4 1 3 2 1 3 2 4 29 6 30 7 91 8 31 9 90 10 32 11 33 12 34 13
REMARK SMILES IDX 84 14 35 15 89 16 83 17 85 18 36 19 88 20 82 21 81 22 37 24
REMARK SMILES IDX 69 25 49 26 68 27 50 28 53 29 67 30 86 31 51 32 52 33 66 35
REMARK SMILES IDX 87 36 54 37 38 38 39 39 47 40 40 41 42 42 48 43 41 44 43 45
REMARK SMILES IDX 44 46 45 47 46 48 70 49 71 50 79 51 72 52 74 53 80 54 73 55
REMARK SMILES IDX 75 56 76 57 77 58 78 59 55 60 56 61 64 62 57 63 59 64 65 65
REMARK SMILES IDX 58 66 60 67 61 68 62 69 63 70 5 71 6 72 7 73 8 74 9 76 10 77
REMARK SMILES IDX 11 78 23 79 12 80 22 81 24 82 28 83 25 85 27 86 26 87 13 88
REMARK SMILES IDX 14 89 15 90 21 91 16 92 19 93 17 94 20 95 18 96
REMARK H PARENT 3 5 85 23 53 34 7 75 12 84
REMARK Flexibility Score: inf
ROOT
ATOM      1  C   UNL A   1      33.300  29.143  25.239  1.00  0.00     0.118 C 
ENDROOT
BRANCH   1   2
ATOM      2  N   UNL A   1      32.770  30.428  25.657  1.00  0.00    -0.352 N 
ATOM      3  O   UNL A   1      32.329  32.085  27.105  1.00  0.00    -0.269 OA
ATOM      4  C   UNL A   1      33.085  31.169  26.765  1.00  0.00     0.251 C 
ATOM      5  H   UNL A   1      32.090  30.820  25.063  1.00  0.00     0.163 HD
BRANCH   4   6
ATOM      6  C   UNL A   1      34.304  30.877  27.551  1.00  0.00     0.039 A 
ATOM      7  C   UNL A   1      34.578  29.582  28.005  1.00  0.00     0.014 A 
ATOM      8  C   UNL A   1      35.220  31.906  27.788  1.00  0.00     0.014 A 
ATOM      9  C   UNL A   1      35.708  29.338  28.782  1.00  0.00     0.010 A 
ATOM     10  C   UNL A   1      36.393  31.642  28.499  1.00  0.00     0.010 A 
ATOM     11  C   UNL A   1      36.639  30.359  29.015  1.00  0.00    -0.014 A 
BRANCH  11  12
ATOM     12  C   UNL A   1      37.912  30.067  29.722  1.00  0.00     0.031 A 
ATOM     13  C   UNL A   1      38.919  29.118  29.138  1.00  0.00     0.074 A 
ATOM     14  C   UNL A   1      38.123  30.617  30.934  1.00  0.00     0.049 A 
ATOM     15  N   UNL A   1      40.036  28.682  29.658  1.00  0.00    -0.248 NA
ATOM     16  C   UNL A   1      38.628  28.579  27.800  1.00  0.00     0.031 C 
ATOM     17  C   UNL A   1      37.197  31.522  31.619  1.00  0.00     0.029 A 
ATOM     18  N   UNL A   1      39.162  30.473  31.817  1.00  0.00    -0.354 N 
ATOM     19  C   UNL A   1      40.560  27.782  28.738  1.00  0.00     0.074 A 
ATOM     20  C   UNL A   1      39.634  27.733  27.626  1.00  0.00     0.031 C 
ATOM     21  C   UNL A   1      37.704  31.846  32.817  1.00  0.00     0.029 A 
ATOM     22  C   UNL A   1      38.962  31.133  33.007  1.00  0.00     0.049 A 
ATOM     23  H   UNL A   1      39.972  29.950  31.619  1.00  0.00     0.167 HD
ATOM     24  C   UNL A   1      41.711  27.071  28.809  1.00  0.00     0.034 A 
ATOM     25  C   UNL A   1      39.690  31.140  34.141  1.00  0.00     0.034 A 
ATOM     26  C   UNL A   1      42.638  27.149  29.907  1.00  0.00     0.049 A 
ATOM     27  C   UNL A   1      40.970  30.357  34.189  1.00  0.00     0.074 A 
ATOM     28  C   UNL A   1      43.864  26.520  30.044  1.00  0.00     0.029 A 
ATOM     29  N   UNL A   1      42.438  27.889  31.063  1.00  0.00    -0.354 N 
ATOM     30  N   UNL A   1      41.511  29.610  33.259  1.00  0.00    -0.248 NA
ATOM     31  C   UNL A   1      41.755  30.438  35.429  1.00  0.00     0.031 C 
ATOM     32  C   UNL A   1      44.394  26.864  31.292  1.00  0.00     0.029 A 
ATOM     33  C   UNL A   1      43.513  27.728  31.922  1.00  0.00     0.049 A 
ATOM     34  H   UNL A   1      41.649  28.447  31.246  1.00  0.00     0.167 HD
ATOM     35  C   UNL A   1      42.717  29.161  33.783  1.00  0.00     0.074 A 
ATOM     36  C   UNL A   1      42.831  29.731  35.112  1.00  0.00     0.031 C 
ATOM     37  C   UNL A   1      43.640  28.346  33.218  1.00  0.00     0.034 A 
BRANCH  24  38
ATOM     38  C   UNL A   1      42.046  26.164  27.654  1.00  0.00     0.023 A 
ATOM     39  C   UNL A   1      42.743  26.680  26.542  1.00  0.00     0.012 A 
ATOM     40  C   UNL A   1      41.715  24.795  27.684  1.00  0.00     0.148 A 
ATOM     41  C   UNL A   1      43.071  25.858  25.464  1.00  0.00     0.002 A 
ATOM     42  C   UNL A   1      42.082  23.973  26.625  1.00  0.00     0.091 A 
ATOM     43  F   UNL A   1      41.033  24.324  28.739  1.00  0.00    -0.205 F 
ATOM     44  C   UNL A   1      42.749  24.504  25.509  1.00  0.00     0.022 A 
BRANCH  42  45
ATOM     45  S   UNL A   1      41.778  22.203  26.633  1.00  0.00     0.127 S 
ATOM     46  O   UNL A   1      42.397  21.789  25.375  1.00  0.00    -0.237 OA
ATOM     47  O   UNL A   1      42.493  21.768  27.834  1.00  0.00    -0.237 OA
ATOM     48  O   UNL A   1      40.331  22.049  26.707  1.00  0.00    -0.744 OA
ENDBRANCH  42  45
ENDBRANCH  24  38
BRANCH  25  49
ATOM     49  C   UNL A   1      39.230  31.959  35.297  1.00  0.00     0.023 A 
ATOM     50  C   UNL A   1      38.407  31.371  36.275  1.00  0.00     0.012 A 
ATOM     51  C   UNL A   1      39.670  33.286  35.471  1.00  0.00     0.148 A 
ATOM     52  C   UNL A   1      38.016  32.096  37.401  1.00  0.00     0.002 A 
ATOM     53  C   UNL A   1      39.323  33.983  36.622  1.00  0.00     0.091 A 
ATOM     54  F   UNL A   1      40.447  33.826  34.523  1.00  0.00    -0.205 F 
ATOM     55  C   UNL A   1      38.485  33.395  37.582  1.00  0.00     0.022 A 
BRANCH  53  56
ATOM     56  S   UNL A   1      39.990  35.606  37.008  1.00  0.00     0.127 S 
ATOM     57  O   UNL A   1      39.304  35.922  38.255  1.00  0.00    -0.237 OA
ATOM     58  O   UNL A   1      41.418  35.319  37.142  1.00  0.00    -0.237 OA
ATOM     59  O   UNL A   1      39.652  36.453  35.868  1.00  0.00    -0.744 OA
ENDBRANCH  53  56
ENDBRANCH  25  49
BRANCH  37  60
ATOM     60  C   UNL A   1      44.887  28.047  34.006  1.00  0.00     0.023 A 
ATOM     61  C   UNL A   1      45.988  28.923  33.937  1.00  0.00     0.012 A 
ATOM     62  C   UNL A   1      44.927  26.951  34.889  1.00  0.00     0.148 A 
ATOM     63  C   UNL A   1      47.119  28.699  34.721  1.00  0.00     0.002 A 
ATOM     64  C   UNL A   1      46.038  26.760  35.702  1.00  0.00     0.091 A 
ATOM     65  F   UNL A   1      43.876  26.119  34.922  1.00  0.00    -0.205 F 
ATOM     66  C   UNL A   1      47.138  27.628  35.613  1.00  0.00     0.022 A 
BRANCH  64  67
ATOM     67  S   UNL A   1      46.110  25.467  36.946  1.00  0.00     0.127 S 
ATOM     68  O   UNL A   1      47.425  25.701  37.542  1.00  0.00    -0.237 OA
ATOM     69  O   UNL A   1      44.980  25.804  37.811  1.00  0.00    -0.237 OA
ATOM     70  O   UNL A   1      45.966  24.209  36.227  1.00  0.00    -0.744 OA
ENDBRANCH  64  67
ENDBRANCH  37  60
ENDBRANCH  11  12
ENDBRANCH   4   6
ENDBRANCH   1   2
BRANCH   1  71
ATOM     71  C   UNL A   1      32.211  28.085  25.173  1.00  0.00     0.042 C 
BRANCH  71  72
ATOM     72  C   UNL A   1      32.127  27.208  26.417  1.00  0.00     0.117 C 
BRANCH  72  73
ATOM     73  N   UNL A   1      30.810  26.618  26.575  1.00  0.00    -0.356 N 
ATOM     74  C   UNL A   1      30.353  25.367  26.282  1.00  0.00     0.229 C 
ATOM     75  H   UNL A   1      30.133  27.221  26.959  1.00  0.00     0.163 HD
ATOM     76  O   UNL A   1      29.162  25.137  26.500  1.00  0.00    -0.275 OA
BRANCH  74  77
ATOM     77  C   UNL A   1      31.306  24.313  25.728  1.00  0.00     0.145 C 
ATOM     78  C   UNL A   1      30.654  22.930  25.836  1.00  0.00     0.276 C 
ATOM     79  C   UNL A   1      31.758  24.422  24.239  1.00  0.00     0.037 C 
ATOM     80  N   UNL A   1      31.348  22.089  24.870  1.00  0.00    -0.330 N 
ATOM     81  C   UNL A   1      31.641  22.952  23.724  1.00  0.00     0.270 C 
ATOM     82  C   UNL A   1      30.869  25.385  23.410  1.00  0.00     0.014 C 
ATOM     83  C   UNL A   1      33.234  24.881  24.147  1.00  0.00     0.014 C 
ATOM     84  H   UNL A   1      30.744  21.324  24.570  1.00  0.00     0.348 HD
ATOM     85  C   UNL A   1      31.399  25.681  22.004  1.00  0.00     0.001 C 
ATOM     86  C   UNL A   1      33.733  25.122  22.727  1.00  0.00     0.001 C 
ATOM     87  C   UNL A   1      32.854  26.136  22.016  1.00  0.00     0.000 C 
BRANCH  80  88
ATOM     88  C   UNL A   1      32.408  21.210  25.372  1.00  0.00     0.299 C 
BRANCH  88  89
ATOM     89  C   UNL A   1      33.801  21.781  25.538  1.00  0.00     0.008 A 
ATOM     90  C   UNL A   1      34.220  22.328  26.761  1.00  0.00     0.011 A 
ATOM     91  C   UNL A   1      34.691  21.818  24.451  1.00  0.00     0.031 A 
ATOM     92  C   UNL A   1      35.431  23.020  26.855  1.00  0.00     0.022 A 
ATOM     93  C   UNL A   1      35.915  22.495  24.548  1.00  0.00     0.060 A 
ATOM     94  C   UNL A   1      36.269  23.126  25.744  1.00  0.00     0.059 A 
ATOM     95  Cl  UNL A   1      36.901  22.576  23.132  1.00  0.00    -0.083 Cl
ATOM     96  Cl  UNL A   1      37.699  24.080  25.907  1.00  0.00    -0.083 Cl
ENDBRANCH  88  89
ENDBRANCH  80  88
ENDBRANCH  74  77
ENDBRANCH  72  73
ENDBRANCH  71  72
ENDBRANCH   1  71
TORSDOF 15
ENDMDL
MODEL 2
REMARK VINA RESULT:     -12.2      1.841      7.909
REMARK SMILES O=C(NCCCNC(=O)[C@H]1C[N@H+](Cc2ccc(Cl)c(Cl)c2)CC12CCCCC2)c1ccc(-c2c3nc(c(-c4cccc(S(=O)(=O)[O-])c4F)c4ccc([nH]4)c(-c4cccc(S(=O)(=O)[O-])c4F)c4nc(c(-c5cccc(S(=O)(=O)[O-])c5F)c5ccc2[nH]5)C=C4)C=C3)cc1
REMARK SMILES IDX 4 1 3 2 1 3 2 4 29 6 30 7 91 8 31 9 90 10 32 11 33 12 34 13
REMARK SMILES IDX 84 14 35 15 89 16 83 17 85 18 36 19 88 20 82 21 81 22 37 24
REMARK SMILES IDX 69 25 49 26 68 27 50 28 53 29 67 30 86 31 51 32 52 33 66 35
REMARK SMILES IDX 87 36 54 37 38 38 39 39 47 40 40 41 42 42 48 43 41 44 43 45
REMARK SMILES IDX 44 46 45 47 46 48 70 49 71 50 79 51 72 52 74 53 80 54 73 55
REMARK SMILES IDX 75 56 76 57 77 58 78 59 55 60 56 61 64 62 57 63 59 64 65 65
REMARK SMILES IDX 58 66 60 67 61 68 62 69 63 70 5 71 6 72 7 73 8 74 9 76 10 77
REMARK SMILES IDX 11 78 23 79 12 80 22 81 24 82 28 83 25 85 27 86 26 87 13 88
REMARK SMILES IDX 14 89 15 90 21 91 16 92 19 93 17 94 20 95 18 96
REMARK H PARENT 3 5 85 23 53 34 7 75 12 84
REMARK Flexibility Score: inf
ROOT
ATOM      1  C   UNL A   1      34.150  28.789  26.051  1.00  0.00     0.118 C 
ENDROOT
BRANCH   1   2
ATOM      2  N   UNL A   1      33.967  30.171  26.454  1.00  0.00    -0.352 N 
ATOM      3  O   UNL A   1      34.095  31.931  27.840  1.00  0.00    -0.269 OA
ATOM      4  C   UNL A   1      34.585  30.862  27.462  1.00  0.00     0.251 C 
ATOM      5  H   UNL A   1      33.308  30.682  25.931  1.00  0.00     0.163 HD
BRANCH   4   6
ATOM      6  C   UNL A   1      35.815  30.339  28.097  1.00  0.00     0.039 A 
ATOM      7  C   UNL A   1      35.762  29.645  29.311  1.00  0.00     0.014 A 
ATOM      8  C   UNL A   1      37.037  30.492  27.437  1.00  0.00     0.014 A 
ATOM      9  C   UNL A   1      36.935  29.201  29.916  1.00  0.00     0.010 A 
ATOM     10  C   UNL A   1      38.203  29.976  28.005  1.00  0.00     0.010 A 
ATOM     11  C   UNL A   1      38.165  29.339  29.256  1.00  0.00    -0.014 A 
BRANCH  11  12
ATOM     12  C   UNL A   1      39.396  28.741  29.832  1.00  0.00     0.031 A 
ATOM     13  C   UNL A   1      40.034  29.322  31.061  1.00  0.00     0.074 A 
ATOM     14  C   UNL A   1      39.974  27.705  29.193  1.00  0.00     0.049 A 
ATOM     15  N   UNL A   1      41.153  28.982  31.645  1.00  0.00    -0.248 NA
ATOM     16  C   UNL A   1      39.329  30.435  31.715  1.00  0.00     0.031 C 
ATOM     17  C   UNL A   1      39.467  27.084  27.968  1.00  0.00     0.029 A 
ATOM     18  N   UNL A   1      41.126  27.013  29.464  1.00  0.00    -0.354 N 
ATOM     19  C   UNL A   1      41.315  29.867  32.704  1.00  0.00     0.074 A 
ATOM     20  C   UNL A   1      40.178  30.762  32.681  1.00  0.00     0.031 C 
ATOM     21  C   UNL A   1      40.306  26.110  27.587  1.00  0.00     0.029 A 
ATOM     22  C   UNL A   1      41.435  26.072  28.510  1.00  0.00     0.049 A 
ATOM     23  H   UNL A   1      41.678  27.173  30.263  1.00  0.00     0.167 HD
ATOM     24  C   UNL A   1      42.315  29.922  33.617  1.00  0.00     0.034 A 
ATOM     25  C   UNL A   1      42.520  25.285  28.370  1.00  0.00     0.034 A 
ATOM     26  C   UNL A   1      43.428  29.009  33.648  1.00  0.00     0.049 A 
ATOM     27  C   UNL A   1      43.607  25.353  29.404  1.00  0.00     0.074 A 
ATOM     28  C   UNL A   1      44.456  28.938  34.571  1.00  0.00     0.029 A 
ATOM     29  N   UNL A   1      43.666  28.018  32.708  1.00  0.00    -0.354 N 
ATOM     30  N   UNL A   1      43.680  26.112  30.470  1.00  0.00    -0.248 NA
ATOM     31  C   UNL A   1      44.744  24.439  29.235  1.00  0.00     0.031 C 
ATOM     32  C   UNL A   1      45.328  27.918  34.177  1.00  0.00     0.029 A 
ATOM     33  C   UNL A   1      44.829  27.334  33.024  1.00  0.00     0.049 A 
ATOM     34  H   UNL A   1      43.093  27.826  31.931  1.00  0.00     0.167 HD
ATOM     35  C   UNL A   1      44.851  25.744  31.120  1.00  0.00     0.074 A 
ATOM     36  C   UNL A   1      45.450  24.684  30.332  1.00  0.00     0.031 C 
ATOM     37  C   UNL A   1      45.384  26.244  32.261  1.00  0.00     0.034 A 
BRANCH  24  38
ATOM     38  C   UNL A   1      42.237  30.990  34.676  1.00  0.00     0.023 A 
ATOM     39  C   UNL A   1      41.664  30.690  35.929  1.00  0.00     0.012 A 
ATOM     40  C   UNL A   1      42.771  32.275  34.453  1.00  0.00     0.148 A 
ATOM     41  C   UNL A   1      41.587  31.661  36.927  1.00  0.00     0.002 A 
ATOM     42  C   UNL A   1      42.729  33.225  35.468  1.00  0.00     0.091 A 
ATOM     43  F   UNL A   1      43.293  32.552  33.250  1.00  0.00    -0.205 F 
ATOM     44  C   UNL A   1      42.128  32.924  36.701  1.00  0.00     0.022 A 
BRANCH  42  45
ATOM     45  S   UNL A   1      43.471  34.851  35.292  1.00  0.00     0.127 S 
ATOM     46  O   UNL A   1      44.863  34.512  35.006  1.00  0.00    -0.237 OA
ATOM     47  O   UNL A   1      42.735  35.409  34.157  1.00  0.00    -0.237 OA
ATOM     48  O   UNL A   1      43.233  35.534  36.557  1.00  0.00    -0.744 OA
ENDBRANCH  42  45
ENDBRANCH  24  38
BRANCH  25  49
ATOM     49  C   UNL A   1      42.591  24.341  27.221  1.00  0.00     0.023 A 
ATOM     50  C   UNL A   1      43.297  24.715  26.062  1.00  0.00     0.012 A 
ATOM     51  C   UNL A   1      42.036  23.048  27.304  1.00  0.00     0.148 A 
ATOM     52  C   UNL A   1      43.435  23.823  24.998  1.00  0.00     0.002 A 
ATOM     53  C   UNL A   1      42.225  22.147  26.264  1.00  0.00     0.091 A 
ATOM     54  F   UNL A   1      41.363  22.717  28.415  1.00  0.00    -0.205 F 
ATOM     55  C   UNL A   1      42.912  22.537  25.104  1.00  0.00     0.022 A 
BRANCH  53  56
ATOM     56  S   UNL A   1      41.712  20.428  26.367  1.00  0.00     0.127 S 
ATOM     57  O   UNL A   1      42.513  19.813  25.315  1.00  0.00    -0.237 OA
ATOM     58  O   UNL A   1      42.107  20.078  27.732  1.00  0.00    -0.237 OA
ATOM     59  O   UNL A   1      40.270  20.433  26.143  1.00  0.00    -0.744 OA
ENDBRANCH  53  56
ENDBRANCH  25  49
BRANCH  37  60
ATOM     60  C   UNL A   1      46.661  25.627  32.767  1.00  0.00     0.023 A 
ATOM     61  C   UNL A   1      47.901  26.197  32.421  1.00  0.00     0.012 A 
ATOM     62  C   UNL A   1      46.622  24.543  33.665  1.00  0.00     0.148 A 
ATOM     63  C   UNL A   1      49.086  25.683  32.945  1.00  0.00     0.002 A 
ATOM     64  C   UNL A   1      47.802  24.065  34.220  1.00  0.00     0.091 A 
ATOM     65  F   UNL A   1      45.431  24.003  33.963  1.00  0.00    -0.205 F 
ATOM     66  C   UNL A   1      49.036  24.628  33.855  1.00  0.00     0.022 A 
BRANCH  64  67
ATOM     67  S   UNL A   1      47.825  22.776  35.471  1.00  0.00     0.127 S 
ATOM     68  O   UNL A   1      49.256  22.657  35.749  1.00  0.00    -0.237 OA
ATOM     69  O   UNL A   1      47.043  23.377  36.551  1.00  0.00    -0.237 OA
ATOM     70  O   UNL A   1      47.211  21.608  34.856  1.00  0.00    -0.744 OA
ENDBRANCH  64  67
ENDBRANCH  37  60
ENDBRANCH  11  12
ENDBRANCH   4   6
ENDBRANCH   1   2
BRANCH   1  71
ATOM     71  C   UNL A   1      32.819  28.087  25.843  1.00  0.00     0.042 C 
BRANCH  71  72
ATOM     72  C   UNL A   1      32.457  27.110  26.956  1.00  0.00     0.117 C 
BRANCH  72  73
ATOM     73  N   UNL A   1      31.070  26.688  26.876  1.00  0.00    -0.356 N 
ATOM     74  C   UNL A   1      30.504  25.587  26.306  1.00  0.00     0.229 C 
ATOM     75  H   UNL A   1      30.430  27.300  27.307  1.00  0.00     0.163 HD
ATOM     76  O   UNL A   1      29.278  25.488  26.367  1.00  0.00    -0.275 OA
BRANCH  74  77
ATOM     77  C   UNL A   1      31.383  24.528  25.647  1.00  0.00     0.145 C 
ATOM     78  C   UNL A   1      30.668  23.174  25.691  1.00  0.00     0.276 C 
ATOM     79  C   UNL A   1      31.785  24.715  24.151  1.00  0.00     0.037 C 
ATOM     80  N   UNL A   1      31.282  22.367  24.645  1.00  0.00    -0.330 N 
ATOM     81  C   UNL A   1      31.575  23.290  23.547  1.00  0.00     0.270 C 
ATOM     82  C   UNL A   1      30.914  25.772  23.423  1.00  0.00     0.014 C 
ATOM     83  C   UNL A   1      33.277  25.109  24.030  1.00  0.00     0.014 C 
ATOM     84  H   UNL A   1      30.631  21.653  24.320  1.00  0.00     0.348 HD
ATOM     85  C   UNL A   1      31.406  26.136  22.019  1.00  0.00     0.001 C 
ATOM     86  C   UNL A   1      33.734  25.421  22.610  1.00  0.00     0.001 C 
ATOM     87  C   UNL A   1      32.881  26.520  22.002  1.00  0.00     0.000 C 
BRANCH  80  88
ATOM     88  C   UNL A   1      32.316  21.407  25.046  1.00  0.00     0.299 C 
BRANCH  88  89
ATOM     89  C   UNL A   1      33.715  21.922  25.314  1.00  0.00     0.008 A 
ATOM     90  C   UNL A   1      34.064  22.460  26.562  1.00  0.00     0.011 A 
ATOM     91  C   UNL A   1      34.683  21.916  24.295  1.00  0.00     0.031 A 
ATOM     92  C   UNL A   1      35.292  23.102  26.744  1.00  0.00     0.022 A 
ATOM     93  C   UNL A   1      35.923  22.543  24.481  1.00  0.00     0.060 A 
ATOM     94  C   UNL A   1      36.213  23.167  25.698  1.00  0.00     0.059 A 
ATOM     95  Cl  UNL A   1      37.015  22.575  23.142  1.00  0.00    -0.083 Cl
ATOM     96  Cl  UNL A   1      37.665  24.063  25.963  1.00  0.00    -0.083 Cl
ENDBRANCH  88  89
ENDBRANCH  80  88
ENDBRANCH  74  77
ENDBRANCH  72  73
ENDBRANCH  71  72
ENDBRANCH   1  71
TORSDOF 15
ENDMDL
MODEL 3
REMARK VINA RESULT:     -12.1      2.256      8.009
REMARK SMILES O=C(NCCCNC(=O)[C@H]1C[N@H+](Cc2ccc(Cl)c(Cl)c2)CC12CCCCC2)c1ccc(-c2c3nc(c(-c4cccc(S(=O)(=O)[O-])c4F)c4ccc([nH]4)c(-c4cccc(S(=O)(=O)[O-])c4F)c4nc(c(-c5cccc(S(=O)(=O)[O-])c5F)c5ccc2[nH]5)C=C4)C=C3)cc1
REMARK SMILES IDX 4 1 3 2 1 3 2 4 29 6 30 7 91 8 31 9 90 10 32 11 33 12 34 13
REMARK SMILES IDX 84 14 35 15 89 16 83 17 85 18 36 19 88 20 82 21 81 22 37 24
REMARK SMILES IDX 69 25 49 26 68 27 50 28 53 29 67 30 86 31 51 32 52 33 66 35
REMARK SMILES IDX 87 36 54 37 38 38 39 39 47 40 40 41 42 42 48 43 41 44 43 45
REMARK SMILES IDX 44 46 45 47 46 48 70 49 71 50 79 51 72 52 74 53 80 54 73 55
REMARK SMILES IDX 75 56 76 57 77 58 78 59 55 60 56 61 64 62 57 63 59 64 65 65
REMARK SMILES IDX 58 66 60 67 61 68 62 69 63 70 5 71 6 72 7 73 8 74 9 76 10 77
REMARK SMILES IDX 11 78 23 79 12 80 22 81 24 82 28 83 25 85 27 86 26 87 13 88
REMARK SMILES IDX 14 89 15 90 21 91 16 92 19 93 17 94 20 95 18 96
REMARK H PARENT 3 5 85 23 53 34 7 75 12 84
REMARK Flexibility Score: inf
ROOT
ATOM      1  C   UNL A   1      34.173  28.660  26.143  1.00  0.00     0.118 C 
ENDROOT
BRANCH   1   2
ATOM      2  N   UNL A   1      33.951  30.033  26.557  1.00  0.00    -0.352 N 
ATOM      3  O   UNL A   1      34.074  31.797  27.939  1.00  0.00    -0.269 OA
ATOM      4  C   UNL A   1      34.590  30.751  27.533  1.00  0.00     0.251 C 
ATOM      5  H   UNL A   1      33.244  30.514  26.070  1.00  0.00     0.163 HD
BRANCH   4   6
ATOM      6  C   UNL A   1      35.873  30.281  28.103  1.00  0.00     0.039 A 
ATOM      7  C   UNL A   1      35.917  29.620  29.335  1.00  0.00     0.014 A 
ATOM      8  C   UNL A   1      37.046  30.452  27.362  1.00  0.00     0.014 A 
ATOM      9  C   UNL A   1      37.140  29.228  29.875  1.00  0.00     0.010 A 
ATOM     10  C   UNL A   1      38.261  29.986  27.868  1.00  0.00     0.010 A 
ATOM     11  C   UNL A   1      38.321  29.384  29.135  1.00  0.00    -0.014 A 
BRANCH  11  12
ATOM     12  C   UNL A   1      39.603  28.838  29.647  1.00  0.00     0.031 A 
ATOM     13  C   UNL A   1      40.347  29.526  30.756  1.00  0.00     0.074 A 
ATOM     14  C   UNL A   1      40.128  27.749  29.053  1.00  0.00     0.049 A 
ATOM     15  N   UNL A   1      41.517  29.239  31.263  1.00  0.00    -0.248 NA
ATOM     16  C   UNL A   1      39.696  30.694  31.370  1.00  0.00     0.031 C 
ATOM     17  C   UNL A   1      39.516  27.021  27.939  1.00  0.00     0.029 A 
ATOM     18  N   UNL A   1      41.306  27.082  29.278  1.00  0.00    -0.354 N 
ATOM     19  C   UNL A   1      41.769  30.215  32.219  1.00  0.00     0.074 A 
ATOM     20  C   UNL A   1      40.627  31.105  32.221  1.00  0.00     0.031 C 
ATOM     21  C   UNL A   1      40.324  26.016  27.572  1.00  0.00     0.029 A 
ATOM     22  C   UNL A   1      41.532  26.059  28.387  1.00  0.00     0.049 A 
ATOM     23  H   UNL A   1      41.927  27.313  30.006  1.00  0.00     0.167 HD
ATOM     24  C   UNL A   1      42.847  30.350  33.028  1.00  0.00     0.034 A 
ATOM     25  C   UNL A   1      42.606  25.262  28.219  1.00  0.00     0.034 A 
ATOM     26  C   UNL A   1      43.965  29.442  33.039  1.00  0.00     0.049 A 
ATOM     27  C   UNL A   1      43.782  25.421  29.139  1.00  0.00     0.074 A 
ATOM     28  C   UNL A   1      45.074  29.454  33.867  1.00  0.00     0.029 A 
ATOM     29  N   UNL A   1      44.124  28.370  32.173  1.00  0.00    -0.354 N 
ATOM     30  N   UNL A   1      43.947  26.272  30.122  1.00  0.00    -0.248 NA
ATOM     31  C   UNL A   1      44.906  24.494  28.950  1.00  0.00     0.031 C 
ATOM     32  C   UNL A   1      45.913  28.401  33.487  1.00  0.00     0.029 A 
ATOM     33  C   UNL A   1      45.315  27.717  32.441  1.00  0.00     0.049 A 
ATOM     34  H   UNL A   1      43.483  28.111  31.472  1.00  0.00     0.167 HD
ATOM     35  C   UNL A   1      45.174  25.963  30.693  1.00  0.00     0.074 A 
ATOM     36  C   UNL A   1      45.707  24.836  29.951  1.00  0.00     0.031 C 
ATOM     37  C   UNL A   1      45.806  26.562  31.731  1.00  0.00     0.034 A 
BRANCH  24  38
ATOM     38  C   UNL A   1      42.859  31.509  33.991  1.00  0.00     0.023 A 
ATOM     39  C   UNL A   1      43.382  32.752  33.580  1.00  0.00     0.012 A 
ATOM     40  C   UNL A   1      42.314  31.384  35.284  1.00  0.00     0.148 A 
ATOM     41  C   UNL A   1      43.398  33.840  34.453  1.00  0.00     0.002 A 
ATOM     42  C   UNL A   1      42.294  32.485  36.134  1.00  0.00     0.091 A 
ATOM     43  F   UNL A   1      41.840  30.190  35.668  1.00  0.00    -0.205 F 
ATOM     44  C   UNL A   1      42.846  33.710  35.724  1.00  0.00     0.022 A 
BRANCH  42  45
ATOM     45  S   UNL A   1      41.533  32.430  37.759  1.00  0.00     0.127 S 
ATOM     46  O   UNL A   1      41.656  33.821  38.191  1.00  0.00    -0.237 OA
ATOM     47  O   UNL A   1      40.167  32.007  37.451  1.00  0.00    -0.237 OA
ATOM     48  O   UNL A   1      42.305  31.460  38.526  1.00  0.00    -0.744 OA
ENDBRANCH  42  45
ENDBRANCH  24  38
BRANCH  25  49
ATOM     49  C   UNL A   1      42.579  24.219  27.157  1.00  0.00     0.023 A 
ATOM     50  C   UNL A   1      43.233  24.460  25.935  1.00  0.00     0.012 A 
ATOM     51  C   UNL A   1      41.981  22.963  27.384  1.00  0.00     0.148 A 
ATOM     52  C   UNL A   1      43.279  23.474  24.949  1.00  0.00     0.002 A 
ATOM     53  C   UNL A   1      42.079  21.966  26.421  1.00  0.00     0.091 A 
ATOM     54  F   UNL A   1      41.358  22.759  28.553  1.00  0.00    -0.205 F 
ATOM     55  C   UNL A   1      42.716  22.224  25.197  1.00  0.00     0.022 A 
BRANCH  53  56
ATOM     56  S   UNL A   1      41.509  20.287  26.704  1.00  0.00     0.127 S 
ATOM     57  O   UNL A   1      41.872  19.632  25.453  1.00  0.00    -0.237 OA
ATOM     58  O   UNL A   1      42.306  19.891  27.865  1.00  0.00    -0.237 OA
ATOM     59  O   UNL A   1      40.077  20.395  26.968  1.00  0.00    -0.744 OA
ENDBRANCH  53  56
ENDBRANCH  25  49
BRANCH  37  60
ATOM     60  C   UNL A   1      47.128  25.992  32.171  1.00  0.00     0.023 A 
ATOM     61  C   UNL A   1      48.320  26.434  31.566  1.00  0.00     0.012 A 
ATOM     62  C   UNL A   1      47.192  25.091  33.252  1.00  0.00     0.148 A 
ATOM     63  C   UNL A   1      49.556  25.972  32.016  1.00  0.00     0.002 A 
ATOM     64  C   UNL A   1      48.428  24.670  33.726  1.00  0.00     0.091 A 
ATOM     65  F   UNL A   1      46.043  24.667  33.798  1.00  0.00    -0.205 F 
ATOM     66  C   UNL A   1      49.610  25.103  33.105  1.00  0.00     0.022 A 
BRANCH  64  67
ATOM     67  S   UNL A   1      48.597  23.629  35.180  1.00  0.00     0.127 S 
ATOM     68  O   UNL A   1      47.947  22.395  34.740  1.00  0.00    -0.237 OA
ATOM     69  O   UNL A   1      50.050  23.534  35.327  1.00  0.00    -0.237 OA
ATOM     70  O   UNL A   1      47.925  24.337  36.261  1.00  0.00    -0.744 OA
ENDBRANCH  64  67
ENDBRANCH  37  60
ENDBRANCH  11  12
ENDBRANCH   4   6
ENDBRANCH   1   2
BRANCH   1  71
ATOM     71  C   UNL A   1      33.269  27.697  26.895  1.00  0.00     0.042 C 
BRANCH  71  72
ATOM     72  C   UNL A   1      31.797  28.093  26.876  1.00  0.00     0.117 C 
BRANCH  72  73
ATOM     73  N   UNL A   1      30.924  26.942  27.024  1.00  0.00    -0.356 N 
ATOM     74  C   UNL A   1      30.653  25.915  26.170  1.00  0.00     0.229 C 
ATOM     75  H   UNL A   1      30.449  26.894  27.885  1.00  0.00     0.163 HD
ATOM     76  O   UNL A   1      29.841  25.068  26.547  1.00  0.00    -0.275 OA
BRANCH  74  77
ATOM     77  C   UNL A   1      31.357  25.833  24.819  1.00  0.00     0.145 C 
ATOM     78  C   UNL A   1      31.261  24.403  24.279  1.00  0.00     0.276 C 
ATOM     79  C   UNL A   1      30.842  26.733  23.652  1.00  0.00     0.037 C 
ATOM     80  N   UNL A   1      31.473  24.507  22.842  1.00  0.00    -0.330 N 
ATOM     81  C   UNL A   1      30.835  25.758  22.431  1.00  0.00     0.270 C 
ATOM     82  C   UNL A   1      29.430  27.314  23.920  1.00  0.00     0.014 C 
ATOM     83  C   UNL A   1      31.830  27.892  23.377  1.00  0.00     0.014 C 
ATOM     84  H   UNL A   1      31.026  23.726  22.361  1.00  0.00     0.348 HD
ATOM     85  C   UNL A   1      28.975  28.363  22.900  1.00  0.00     0.001 C 
ATOM     86  C   UNL A   1      31.356  28.889  22.325  1.00  0.00     0.001 C 
ATOM     87  C   UNL A   1      30.006  29.468  22.706  1.00  0.00     0.000 C 
BRANCH  80  88
ATOM     88  C   UNL A   1      32.814  24.205  22.330  1.00  0.00     0.299 C 
BRANCH  88  89
ATOM     89  C   UNL A   1      33.791  23.490  23.240  1.00  0.00     0.008 A 
ATOM     90  C   UNL A   1      34.982  24.105  23.653  1.00  0.00     0.011 A 
ATOM     91  C   UNL A   1      33.543  22.169  23.652  1.00  0.00     0.031 A 
ATOM     92  C   UNL A   1      35.962  23.376  24.334  1.00  0.00     0.022 A 
ATOM     93  C   UNL A   1      34.517  21.441  24.351  1.00  0.00     0.060 A 
ATOM     94  C   UNL A   1      35.742  22.038  24.662  1.00  0.00     0.059 A 
ATOM     95  Cl  UNL A   1      34.168  19.792  24.730  1.00  0.00    -0.083 Cl
ATOM     96  Cl  UNL A   1      37.036  21.174  25.412  1.00  0.00    -0.083 Cl
ENDBRANCH  88  89
ENDBRANCH  80  88
ENDBRANCH  74  77
ENDBRANCH  72  73
ENDBRANCH  71  72
ENDBRANCH   1  71
TORSDOF 15
ENDMDL
