MODEL 1
REMARK VINA RESULT:     -13.3      0.000      0.000
REMARK SMILES O=C(NCCCNC(=O)c1nnn(-c2ccc(C(F)(F)F)cc2)c1-c1cccc(Cl)c1)c1ccc(-c2c3nc(c(-c4cccc(S(=O)(=O)[O-])c4F)c4ccc([nH]4)c(-c4cccc(S(=O)(=O)[O-])c4F)c4nc(c(-c5cccc(S(=O)(=O)[O-])c5F)c5ccc2[nH]5)C=C4)C=C3)cc1
REMARK SMILES IDX 4 1 3 2 1 3 2 4 32 6 33 7 94 8 34 9 93 10 35 11 36 12 37 13
REMARK SMILES IDX 87 14 38 15 92 16 86 17 88 18 39 19 91 20 85 21 84 22 40 24
REMARK SMILES IDX 72 25 52 26 71 27 53 28 56 29 70 30 89 31 54 32 55 33 69 35
REMARK SMILES IDX 90 36 57 37 41 38 42 39 50 40 43 41 45 42 51 43 44 44 46 45
REMARK SMILES IDX 47 46 48 47 49 48 73 49 74 50 82 51 75 52 77 53 83 54 76 55
REMARK SMILES IDX 78 56 79 57 80 58 81 59 58 60 59 61 67 62 60 63 62 64 68 65
REMARK SMILES IDX 61 66 63 67 64 68 65 69 66 70 5 71 6 72 7 73 8 74 9 76 10 77
REMARK SMILES IDX 11 78 24 79 12 80 13 81 25 82 26 83 31 84 27 85 29 86 28 87
REMARK SMILES IDX 30 88 14 89 15 90 23 91 16 92 22 93 17 94 18 95 19 96 20 97
REMARK SMILES IDX 21 98
REMARK H PARENT 3 5 88 23 56 34 7 75
REMARK Flexibility Score: inf
ROOT
ATOM      1  C   UNL A   1      33.539  29.566  26.693  1.00  0.00     0.118 C 
ENDROOT
BRANCH   1   2
ATOM      2  N   UNL A   1      33.698  30.626  27.669  1.00  0.00    -0.352 N 
ATOM      3  O   UNL A   1      34.491  32.158  29.032  1.00  0.00    -0.269 OA
ATOM      4  C   UNL A   1      34.725  31.099  28.441  1.00  0.00     0.251 C 
ATOM      5  H   UNL A   1      32.863  31.128  27.813  1.00  0.00     0.163 HD
BRANCH   4   6
ATOM      6  C   UNL A   1      36.045  30.435  28.653  1.00  0.00     0.039 A 
ATOM      7  C   UNL A   1      37.105  30.417  27.748  1.00  0.00     0.014 A 
ATOM      8  C   UNL A   1      36.206  29.752  29.876  1.00  0.00     0.014 A 
ATOM      9  C   UNL A   1      38.268  29.697  28.032  1.00  0.00     0.010 A 
ATOM     10  C   UNL A   1      37.373  29.045  30.174  1.00  0.00     0.010 A 
ATOM     11  C   UNL A   1      38.403  29.003  29.240  1.00  0.00    -0.014 A 
BRANCH  11  12
ATOM     12  C   UNL A   1      39.701  28.395  29.541  1.00  0.00     0.031 A 
ATOM     13  C   UNL A   1      40.149  28.515  30.957  1.00  0.00     0.074 A 
ATOM     14  C   UNL A   1      40.431  27.632  28.702  1.00  0.00     0.049 A 
ATOM     15  N   UNL A   1      41.175  29.158  31.419  1.00  0.00    -0.248 NA
ATOM     16  C   UNL A   1      39.310  27.898  31.993  1.00  0.00     0.031 C 
ATOM     17  C   UNL A   1      40.027  27.084  27.408  1.00  0.00     0.029 A 
ATOM     18  N   UNL A   1      41.667  27.080  28.907  1.00  0.00    -0.354 N 
ATOM     19  C   UNL A   1      41.232  28.851  32.779  1.00  0.00     0.074 A 
ATOM     20  C   UNL A   1      39.988  28.201  33.100  1.00  0.00     0.031 C 
ATOM     21  C   UNL A   1      40.894  26.108  27.052  1.00  0.00     0.029 A 
ATOM     22  C   UNL A   1      41.978  26.056  28.020  1.00  0.00     0.049 A 
ATOM     23  H   UNL A   1      42.280  27.381  29.617  1.00  0.00     0.167 HD
ATOM     24  C   UNL A   1      42.385  28.970  33.497  1.00  0.00     0.034 A 
ATOM     25  C   UNL A   1      43.016  25.191  28.105  1.00  0.00     0.034 A 
ATOM     26  C   UNL A   1      43.372  29.758  32.806  1.00  0.00     0.049 A 
ATOM     27  C   UNL A   1      44.036  25.775  29.003  1.00  0.00     0.074 A 
ATOM     28  C   UNL A   1      43.437  31.034  32.283  1.00  0.00     0.029 A 
ATOM     29  N   UNL A   1      44.463  29.092  32.307  1.00  0.00    -0.354 N 
ATOM     30  N   UNL A   1      44.794  26.790  28.693  1.00  0.00    -0.248 NA
ATOM     31  C   UNL A   1      44.035  25.399  30.407  1.00  0.00     0.031 C 
ATOM     32  C   UNL A   1      44.296  30.927  31.150  1.00  0.00     0.029 A 
ATOM     33  C   UNL A   1      44.718  29.599  31.065  1.00  0.00     0.049 A 
ATOM     34  H   UNL A   1      44.969  28.381  32.762  1.00  0.00     0.167 HD
ATOM     35  C   UNL A   1      45.012  27.438  29.899  1.00  0.00     0.074 A 
ATOM     36  C   UNL A   1      44.658  26.460  30.921  1.00  0.00     0.031 C 
ATOM     37  C   UNL A   1      45.169  28.794  29.951  1.00  0.00     0.034 A 
BRANCH  24  38
ATOM     38  C   UNL A   1      42.783  28.103  34.678  1.00  0.00     0.023 A 
ATOM     39  C   UNL A   1      43.162  28.770  35.869  1.00  0.00     0.012 A 
ATOM     40  C   UNL A   1      43.088  26.726  34.598  1.00  0.00     0.148 A 
ATOM     41  C   UNL A   1      43.877  28.126  36.884  1.00  0.00     0.002 A 
ATOM     42  C   UNL A   1      43.722  26.070  35.649  1.00  0.00     0.091 A 
ATOM     43  F   UNL A   1      42.892  26.059  33.457  1.00  0.00    -0.205 F 
ATOM     44  C   UNL A   1      44.155  26.771  36.776  1.00  0.00     0.022 A 
BRANCH  42  45
ATOM     45  S   UNL A   1      44.035  24.301  35.591  1.00  0.00     0.127 S 
ATOM     46  O   UNL A   1      45.035  24.216  34.531  1.00  0.00    -0.237 OA
ATOM     47  O   UNL A   1      44.538  24.038  36.940  1.00  0.00    -0.237 OA
ATOM     48  O   UNL A   1      42.739  23.696  35.312  1.00  0.00    -0.744 OA
ENDBRANCH  42  45
ENDBRANCH  24  38
BRANCH  25  49
ATOM     49  C   UNL A   1      43.168  23.811  27.588  1.00  0.00     0.023 A 
ATOM     50  C   UNL A   1      42.232  22.824  27.957  1.00  0.00     0.012 A 
ATOM     51  C   UNL A   1      44.056  23.525  26.530  1.00  0.00     0.148 A 
ATOM     52  C   UNL A   1      42.158  21.606  27.272  1.00  0.00     0.002 A 
ATOM     53  C   UNL A   1      43.986  22.307  25.859  1.00  0.00     0.091 A 
ATOM     54  F   UNL A   1      44.902  24.480  26.121  1.00  0.00    -0.205 F 
ATOM     55  C   UNL A   1      43.030  21.349  26.219  1.00  0.00     0.022 A 
BRANCH  53  56
ATOM     56  S   UNL A   1      45.074  21.915  24.482  1.00  0.00     0.127 S 
ATOM     57  O   UNL A   1      46.383  21.848  25.135  1.00  0.00    -0.237 OA
ATOM     58  O   UNL A   1      44.546  20.629  24.036  1.00  0.00    -0.237 OA
ATOM     59  O   UNL A   1      44.935  23.022  23.544  1.00  0.00    -0.744 OA
ENDBRANCH  53  56
ENDBRANCH  25  49
BRANCH  37  60
ATOM     60  C   UNL A   1      45.510  29.535  28.685  1.00  0.00     0.023 A 
ATOM     61  C   UNL A   1      44.524  29.982  27.784  1.00  0.00     0.012 A 
ATOM     62  C   UNL A   1      46.845  29.929  28.480  1.00  0.00     0.148 A 
ATOM     63  C   UNL A   1      44.865  30.773  26.683  1.00  0.00     0.002 A 
ATOM     64  C   UNL A   1      47.172  30.762  27.416  1.00  0.00     0.091 A 
ATOM     65  F   UNL A   1      47.779  29.499  29.342  1.00  0.00    -0.205 F 
ATOM     66  C   UNL A   1      46.187  31.174  26.508  1.00  0.00     0.022 A 
BRANCH  64  67
ATOM     67  S   UNL A   1      48.829  31.428  27.236  1.00  0.00     0.127 S 
ATOM     68  O   UNL A   1      48.615  32.545  26.320  1.00  0.00    -0.237 OA
ATOM     69  O   UNL A   1      49.169  31.817  28.606  1.00  0.00    -0.237 OA
ATOM     70  O   UNL A   1      49.636  30.328  26.720  1.00  0.00    -0.744 OA
ENDBRANCH  64  67
ENDBRANCH  37  60
ENDBRANCH  11  12
ENDBRANCH   4   6
ENDBRANCH   1   2
BRANCH   1  71
ATOM     71  C   UNL A   1      33.040  28.238  27.255  1.00  0.00     0.042 C 
BRANCH  71  72
ATOM     72  C   UNL A   1      32.914  27.101  26.248  1.00  0.00     0.118 C 
BRANCH  72  73
ATOM     73  N   UNL A   1      33.251  27.474  24.883  1.00  0.00    -0.351 N 
ATOM     74  C   UNL A   1      33.100  26.745  23.726  1.00  0.00     0.274 C 
ATOM     75  H   UNL A   1      33.642  28.371  24.773  1.00  0.00     0.163 HD
ATOM     76  O   UNL A   1      33.481  27.250  22.662  1.00  0.00    -0.267 OA
BRANCH  74  77
ATOM     77  C   UNL A   1      32.511  25.418  23.773  1.00  0.00     0.178 A 
ATOM     78  N   UNL A   1      31.173  25.212  23.543  1.00  0.00    -0.124 NA
ATOM     79  C   UNL A   1      33.131  24.192  23.996  1.00  0.00     0.108 A 
ATOM     80  N   UNL A   1      30.949  23.907  23.516  1.00  0.00    -0.061 NA
ATOM     81  N   UNL A   1      32.088  23.277  23.880  1.00  0.00    -0.212 N 
BRANCH  79  82
ATOM     82  C   UNL A   1      34.546  23.836  24.102  1.00  0.00     0.004 A 
ATOM     83  C   UNL A   1      35.171  23.157  23.041  1.00  0.00     0.010 A 
ATOM     84  C   UNL A   1      35.293  24.173  25.234  1.00  0.00     0.031 A 
ATOM     85  C   UNL A   1      36.519  22.811  23.110  1.00  0.00     0.002 A 
ATOM     86  C   UNL A   1      36.641  23.813  25.300  1.00  0.00     0.041 A 
ATOM     87  C   UNL A   1      37.256  23.137  24.245  1.00  0.00     0.020 A 
ATOM     88  Cl  UNL A   1      37.555  24.199  26.706  1.00  0.00    -0.084 Cl
ENDBRANCH  79  82
BRANCH  81  89
ATOM     89  C   UNL A   1      32.157  21.868  23.999  1.00  0.00     0.067 A 
ATOM     90  C   UNL A   1      32.051  21.077  22.851  1.00  0.00     0.029 A 
ATOM     91  C   UNL A   1      32.455  21.284  25.236  1.00  0.00     0.029 A 
ATOM     92  C   UNL A   1      32.362  19.716  22.930  1.00  0.00     0.015 A 
ATOM     93  C   UNL A   1      32.733  19.921  25.313  1.00  0.00     0.015 A 
ATOM     94  C   UNL A   1      32.727  19.130  24.156  1.00  0.00     0.056 A 
BRANCH  94  95
ATOM     95  C   UNL A   1      33.149  17.681  24.213  1.00  0.00     0.416 C 
ATOM     96  F   UNL A   1      32.589  17.012  25.257  1.00  0.00    -0.166 F 
ATOM     97  F   UNL A   1      32.800  16.996  23.091  1.00  0.00    -0.166 F 
ATOM     98  F   UNL A   1      34.496  17.516  24.346  1.00  0.00    -0.166 F 
ENDBRANCH  94  95
ENDBRANCH  81  89
ENDBRANCH  74  77
ENDBRANCH  72  73
ENDBRANCH  71  72
ENDBRANCH   1  71
TORSDOF 16
ENDMDL
MODEL 2
REMARK VINA RESULT:     -12.5      5.415      9.135
REMARK SMILES O=C(NCCCNC(=O)c1nnn(-c2ccc(C(F)(F)F)cc2)c1-c1cccc(Cl)c1)c1ccc(-c2c3nc(c(-c4cccc(S(=O)(=O)[O-])c4F)c4ccc([nH]4)c(-c4cccc(S(=O)(=O)[O-])c4F)c4nc(c(-c5cccc(S(=O)(=O)[O-])c5F)c5ccc2[nH]5)C=C4)C=C3)cc1
REMARK SMILES IDX 4 1 3 2 1 3 2 4 32 6 33 7 94 8 34 9 93 10 35 11 36 12 37 13
REMARK SMILES IDX 87 14 38 15 92 16 86 17 88 18 39 19 91 20 85 21 84 22 40 24
REMARK SMILES IDX 72 25 52 26 71 27 53 28 56 29 70 30 89 31 54 32 55 33 69 35
REMARK SMILES IDX 90 36 57 37 41 38 42 39 50 40 43 41 45 42 51 43 44 44 46 45
REMARK SMILES IDX 47 46 48 47 49 48 73 49 74 50 82 51 75 52 77 53 83 54 76 55
REMARK SMILES IDX 78 56 79 57 80 58 81 59 58 60 59 61 67 62 60 63 62 64 68 65
REMARK SMILES IDX 61 66 63 67 64 68 65 69 66 70 5 71 6 72 7 73 8 74 9 76 10 77
REMARK SMILES IDX 11 78 24 79 12 80 13 81 25 82 26 83 31 84 27 85 29 86 28 87
REMARK SMILES IDX 30 88 14 89 15 90 23 91 16 92 22 93 17 94 18 95 19 96 20 97
REMARK SMILES IDX 21 98
REMARK H PARENT 3 5 88 23 56 34 7 75
REMARK Flexibility Score: inf
ROOT
ATOM      1  C   UNL A   1      34.898  33.627  30.899  1.00  0.00     0.118 C 
ENDROOT
BRANCH   1   2
ATOM      2  N   UNL A   1      34.809  33.473  29.460  1.00  0.00    -0.352 N 
ATOM      3  O   UNL A   1      34.894  32.727  27.394  1.00  0.00    -0.269 OA
ATOM      4  C   UNL A   1      35.376  32.646  28.528  1.00  0.00     0.251 C 
ATOM      5  H   UNL A   1      34.189  34.122  29.054  1.00  0.00     0.163 HD
BRANCH   4   6
ATOM      6  C   UNL A   1      36.523  31.719  28.756  1.00  0.00     0.039 A 
ATOM      7  C   UNL A   1      36.503  30.336  28.583  1.00  0.00     0.014 A 
ATOM      8  C   UNL A   1      37.721  32.313  29.206  1.00  0.00     0.014 A 
ATOM      9  C   UNL A   1      37.624  29.565  28.900  1.00  0.00     0.010 A 
ATOM     10  C   UNL A   1      38.850  31.549  29.507  1.00  0.00     0.010 A 
ATOM     11  C   UNL A   1      38.797  30.167  29.369  1.00  0.00    -0.014 A 
BRANCH  11  12
ATOM     12  C   UNL A   1      39.982  29.322  29.539  1.00  0.00     0.031 A 
ATOM     13  C   UNL A   1      40.290  28.931  30.943  1.00  0.00     0.074 A 
ATOM     14  C   UNL A   1      40.705  28.765  28.546  1.00  0.00     0.049 A 
ATOM     15  N   UNL A   1      41.327  29.249  31.651  1.00  0.00    -0.248 NA
ATOM     16  C   UNL A   1      39.285  28.144  31.669  1.00  0.00     0.031 C 
ATOM     17  C   UNL A   1      40.380  28.710  27.122  1.00  0.00     0.029 A 
ATOM     18  N   UNL A   1      41.845  28.012  28.639  1.00  0.00    -0.354 N 
ATOM     19  C   UNL A   1      41.209  28.528  32.841  1.00  0.00     0.074 A 
ATOM     20  C   UNL A   1      39.874  27.990  32.856  1.00  0.00     0.031 C 
ATOM     21  C   UNL A   1      41.166  27.784  26.526  1.00  0.00     0.029 A 
ATOM     22  C   UNL A   1      42.131  27.283  27.492  1.00  0.00     0.049 A 
ATOM     23  H   UNL A   1      42.410  27.988  29.446  1.00  0.00     0.167 HD
ATOM     24  C   UNL A   1      42.286  28.257  33.630  1.00  0.00     0.034 A 
ATOM     25  C   UNL A   1      43.052  26.300  27.358  1.00  0.00     0.034 A 
ATOM     26  C   UNL A   1      43.421  29.077  33.294  1.00  0.00     0.049 A 
ATOM     27  C   UNL A   1      44.032  26.428  28.459  1.00  0.00     0.074 A 
ATOM     28  C   UNL A   1      43.682  30.430  33.216  1.00  0.00     0.029 A 
ATOM     29  N   UNL A   1      44.478  28.456  32.677  1.00  0.00    -0.354 N 
ATOM     30  N   UNL A   1      44.925  27.373  28.542  1.00  0.00    -0.248 NA
ATOM     31  C   UNL A   1      43.843  25.636  29.663  1.00  0.00     0.031 C 
ATOM     32  C   UNL A   1      44.636  30.565  32.166  1.00  0.00     0.029 A 
ATOM     33  C   UNL A   1      44.915  29.285  31.683  1.00  0.00     0.049 A 
ATOM     34  H   UNL A   1      44.852  27.575  32.908  1.00  0.00     0.167 HD
ATOM     35  C   UNL A   1      45.088  27.576  29.904  1.00  0.00     0.074 A 
ATOM     36  C   UNL A   1      44.522  26.387  30.531  1.00  0.00     0.031 C 
ATOM     37  C   UNL A   1      45.387  28.813  30.400  1.00  0.00     0.034 A 
BRANCH  24  38
ATOM     38  C   UNL A   1      42.461  27.019  34.490  1.00  0.00     0.023 A 
ATOM     39  C   UNL A   1      42.085  27.121  35.853  1.00  0.00     0.012 A 
ATOM     40  C   UNL A   1      43.228  25.890  34.128  1.00  0.00     0.148 A 
ATOM     41  C   UNL A   1      42.518  26.201  36.812  1.00  0.00     0.002 A 
ATOM     42  C   UNL A   1      43.582  24.930  35.072  1.00  0.00     0.091 A 
ATOM     43  F   UNL A   1      43.740  25.791  32.898  1.00  0.00    -0.205 F 
ATOM     44  C   UNL A   1      43.265  25.100  36.421  1.00  0.00     0.022 A 
BRANCH  42  45
ATOM     45  S   UNL A   1      44.483  23.448  34.604  1.00  0.00     0.127 S 
ATOM     46  O   UNL A   1      45.733  24.011  34.105  1.00  0.00    -0.237 OA
ATOM     47  O   UNL A   1      44.587  22.739  35.880  1.00  0.00    -0.237 OA
ATOM     48  O   UNL A   1      43.634  22.782  33.623  1.00  0.00    -0.744 OA
ENDBRANCH  42  45
ENDBRANCH  24  38
BRANCH  25  49
ATOM     49  C   UNL A   1      43.103  25.143  26.434  1.00  0.00     0.023 A 
ATOM     50  C   UNL A   1      44.044  25.132  25.385  1.00  0.00     0.012 A 
ATOM     51  C   UNL A   1      42.427  23.942  26.735  1.00  0.00     0.148 A 
ATOM     52  C   UNL A   1      44.331  23.956  24.682  1.00  0.00     0.002 A 
ATOM     53  C   UNL A   1      42.707  22.777  26.025  1.00  0.00     0.091 A 
ATOM     54  F   UNL A   1      41.583  23.919  27.775  1.00  0.00    -0.205 F 
ATOM     55  C   UNL A   1      43.668  22.777  25.007  1.00  0.00     0.022 A 
BRANCH  53  56
ATOM     56  S   UNL A   1      41.896  21.217  26.399  1.00  0.00     0.127 S 
ATOM     57  O   UNL A   1      40.491  21.530  26.135  1.00  0.00    -0.237 OA
ATOM     58  O   UNL A   1      42.515  20.314  25.433  1.00  0.00    -0.237 OA
ATOM     59  O   UNL A   1      42.191  20.948  27.801  1.00  0.00    -0.744 OA
ENDBRANCH  53  56
ENDBRANCH  25  49
BRANCH  37  60
ATOM     60  C   UNL A   1      45.938  29.857  29.465  1.00  0.00     0.023 A 
ATOM     61  C   UNL A   1      47.321  30.065  29.296  1.00  0.00     0.012 A 
ATOM     62  C   UNL A   1      45.042  30.535  28.617  1.00  0.00     0.148 A 
ATOM     63  C   UNL A   1      47.799  30.956  28.332  1.00  0.00     0.002 A 
ATOM     64  C   UNL A   1      45.524  31.377  27.622  1.00  0.00     0.091 A 
ATOM     65  F   UNL A   1      43.726  30.332  28.783  1.00  0.00    -0.205 F 
ATOM     66  C   UNL A   1      46.901  31.600  27.485  1.00  0.00     0.022 A 
BRANCH  64  67
ATOM     67  S   UNL A   1      44.418  32.108  26.412  1.00  0.00     0.127 S 
ATOM     68  O   UNL A   1      45.333  32.457  25.328  1.00  0.00    -0.237 OA
ATOM     69  O   UNL A   1      43.502  31.007  26.108  1.00  0.00    -0.237 OA
ATOM     70  O   UNL A   1      43.783  33.230  27.094  1.00  0.00    -0.744 OA
ENDBRANCH  64  67
ENDBRANCH  37  60
ENDBRANCH  11  12
ENDBRANCH   4   6
ENDBRANCH   1   2
BRANCH   1  71
ATOM     71  C   UNL A   1      34.782  32.331  31.698  1.00  0.00     0.042 C 
BRANCH  71  72
ATOM     72  C   UNL A   1      35.949  32.022  32.628  1.00  0.00     0.118 C 
BRANCH  72  73
ATOM     73  N   UNL A   1      36.053  32.915  33.770  1.00  0.00    -0.351 N 
ATOM     74  C   UNL A   1      37.055  33.802  34.085  1.00  0.00     0.274 C 
ATOM     75  H   UNL A   1      35.302  32.878  34.407  1.00  0.00     0.163 HD
ATOM     76  O   UNL A   1      36.954  34.453  35.134  1.00  0.00    -0.267 OA
BRANCH  74  77
ATOM     77  C   UNL A   1      38.199  33.953  33.202  1.00  0.00     0.178 A 
ATOM     78  N   UNL A   1      38.102  34.611  32.001  1.00  0.00    -0.124 NA
ATOM     79  C   UNL A   1      39.513  33.539  33.393  1.00  0.00     0.108 A 
ATOM     80  N   UNL A   1      39.316  34.711  31.480  1.00  0.00    -0.061 NA
ATOM     81  N   UNL A   1      40.163  33.993  32.248  1.00  0.00    -0.212 N 
BRANCH  79  82
ATOM     82  C   UNL A   1      40.182  32.972  34.563  1.00  0.00     0.004 A 
ATOM     83  C   UNL A   1      40.412  31.586  34.627  1.00  0.00     0.010 A 
ATOM     84  C   UNL A   1      40.612  33.785  35.615  1.00  0.00     0.031 A 
ATOM     85  C   UNL A   1      41.053  31.017  35.725  1.00  0.00     0.002 A 
ATOM     86  C   UNL A   1      41.245  33.206  36.717  1.00  0.00     0.041 A 
ATOM     87  C   UNL A   1      41.468  31.830  36.776  1.00  0.00     0.020 A 
ATOM     88  Cl  UNL A   1      41.748  34.203  38.027  1.00  0.00    -0.084 Cl
ENDBRANCH  79  82
BRANCH  81  89
ATOM     89  C   UNL A   1      41.535  33.859  31.922  1.00  0.00     0.067 A 
ATOM     90  C   UNL A   1      41.902  33.125  30.789  1.00  0.00     0.029 A 
ATOM     91  C   UNL A   1      42.500  34.558  32.656  1.00  0.00     0.029 A 
ATOM     92  C   UNL A   1      43.220  33.196  30.330  1.00  0.00     0.015 A 
ATOM     93  C   UNL A   1      43.819  34.598  32.209  1.00  0.00     0.015 A 
ATOM     94  C   UNL A   1      44.186  33.950  31.022  1.00  0.00     0.056 A 
BRANCH  94  95
ATOM     95  C   UNL A   1      45.583  34.093  30.468  1.00  0.00     0.416 C 
ATOM     96  F   UNL A   1      46.327  32.964  30.620  1.00  0.00    -0.166 F 
ATOM     97  F   UNL A   1      45.586  34.374  29.137  1.00  0.00    -0.166 F 
ATOM     98  F   UNL A   1      46.299  35.091  31.061  1.00  0.00    -0.166 F 
ENDBRANCH  94  95
ENDBRANCH  81  89
ENDBRANCH  74  77
ENDBRANCH  72  73
ENDBRANCH  71  72
ENDBRANCH   1  71
TORSDOF 16
ENDMDL
MODEL 3
REMARK VINA RESULT:     -12.4      5.751     11.620
REMARK SMILES O=C(NCCCNC(=O)c1nnn(-c2ccc(C(F)(F)F)cc2)c1-c1cccc(Cl)c1)c1ccc(-c2c3nc(c(-c4cccc(S(=O)(=O)[O-])c4F)c4ccc([nH]4)c(-c4cccc(S(=O)(=O)[O-])c4F)c4nc(c(-c5cccc(S(=O)(=O)[O-])c5F)c5ccc2[nH]5)C=C4)C=C3)cc1
REMARK SMILES IDX 4 1 3 2 1 3 2 4 32 6 33 7 94 8 34 9 93 10 35 11 36 12 37 13
REMARK SMILES IDX 87 14 38 15 92 16 86 17 88 18 39 19 91 20 85 21 84 22 40 24
REMARK SMILES IDX 72 25 52 26 71 27 53 28 56 29 70 30 89 31 54 32 55 33 69 35
REMARK SMILES IDX 90 36 57 37 41 38 42 39 50 40 43 41 45 42 51 43 44 44 46 45
REMARK SMILES IDX 47 46 48 47 49 48 73 49 74 50 82 51 75 52 77 53 83 54 76 55
REMARK SMILES IDX 78 56 79 57 80 58 81 59 58 60 59 61 67 62 60 63 62 64 68 65
REMARK SMILES IDX 61 66 63 67 64 68 65 69 66 70 5 71 6 72 7 73 8 74 9 76 10 77
REMARK SMILES IDX 11 78 24 79 12 80 13 81 25 82 26 83 31 84 27 85 29 86 28 87
REMARK SMILES IDX 30 88 14 89 15 90 23 91 16 92 22 93 17 94 18 95 19 96 20 97
REMARK SMILES IDX 21 98
REMARK H PARENT 3 5 88 23 56 34 7 75
REMARK Flexibility Score: inf
ROOT
ATOM      1  C   UNL A   1      42.762  21.525  26.876  1.00  0.00     0.118 C 
ENDROOT
BRANCH   1   2
ATOM      2  N   UNL A   1      41.320  21.444  26.751  1.00  0.00    -0.352 N 
ATOM      3  O   UNL A   1      39.183  21.884  26.482  1.00  0.00    -0.269 OA
ATOM      4  C   UNL A   1      40.280  22.332  26.828  1.00  0.00     0.251 C 
ATOM      5  H   UNL A   1      41.013  20.527  26.565  1.00  0.00     0.163 HD
BRANCH   4   6
ATOM      6  C   UNL A   1      40.358  23.737  27.326  1.00  0.00     0.039 A 
ATOM      7  C   UNL A   1      39.528  24.787  26.939  1.00  0.00     0.014 A 
ATOM      8  C   UNL A   1      41.383  24.010  28.255  1.00  0.00     0.014 A 
ATOM      9  C   UNL A   1      39.746  26.080  27.423  1.00  0.00     0.010 A 
ATOM     10  C   UNL A   1      41.595  25.296  28.756  1.00  0.00     0.010 A 
ATOM     11  C   UNL A   1      40.784  26.340  28.325  1.00  0.00    -0.014 A 
BRANCH  11  12
ATOM     12  C   UNL A   1      40.866  27.681  28.909  1.00  0.00     0.031 A 
ATOM     13  C   UNL A   1      41.833  28.605  28.251  1.00  0.00     0.074 A 
ATOM     14  C   UNL A   1      40.058  28.178  29.867  1.00  0.00     0.049 A 
ATOM     15  N   UNL A   1      42.907  29.126  28.752  1.00  0.00    -0.248 NA
ATOM     16  C   UNL A   1      41.608  28.934  26.836  1.00  0.00     0.031 C 
ATOM     17  C   UNL A   1      38.827  27.590  30.396  1.00  0.00     0.029 A 
ATOM     18  N   UNL A   1      40.116  29.399  30.485  1.00  0.00    -0.354 N 
ATOM     19  C   UNL A   1      43.381  30.017  27.787  1.00  0.00     0.074 A 
ATOM     20  C   UNL A   1      42.634  29.747  26.586  1.00  0.00     0.031 C 
ATOM     21  C   UNL A   1      38.142  28.539  31.074  1.00  0.00     0.029 A 
ATOM     22  C   UNL A   1      38.943  29.752  31.140  1.00  0.00     0.049 A 
ATOM     23  H   UNL A   1      40.915  29.974  30.466  1.00  0.00     0.167 HD
ATOM     24  C   UNL A   1      44.211  31.050  28.105  1.00  0.00     0.034 A 
ATOM     25  C   UNL A   1      38.626  30.966  31.649  1.00  0.00     0.034 A 
ATOM     26  C   UNL A   1      44.796  30.889  29.411  1.00  0.00     0.049 A 
ATOM     27  C   UNL A   1      39.878  31.734  31.831  1.00  0.00     0.074 A 
ATOM     28  C   UNL A   1      45.564  29.934  30.046  1.00  0.00     0.029 A 
ATOM     29  N   UNL A   1      44.355  31.733  30.400  1.00  0.00    -0.354 N 
ATOM     30  N   UNL A   1      40.766  31.483  32.751  1.00  0.00    -0.248 NA
ATOM     31  C   UNL A   1      40.299  32.648  30.783  1.00  0.00     0.031 C 
ATOM     32  C   UNL A   1      45.169  29.987  31.414  1.00  0.00     0.029 A 
ATOM     33  C   UNL A   1      44.201  30.987  31.534  1.00  0.00     0.049 A 
ATOM     34  H   UNL A   1      44.183  32.697  30.308  1.00  0.00     0.167 HD
ATOM     35  C   UNL A   1      41.973  31.849  32.173  1.00  0.00     0.074 A 
ATOM     36  C   UNL A   1      41.607  32.693  31.042  1.00  0.00     0.031 C 
ATOM     37  C   UNL A   1      43.129  31.191  32.484  1.00  0.00     0.034 A 
BRANCH  24  38
ATOM     38  C   UNL A   1      44.254  32.396  27.404  1.00  0.00     0.023 A 
ATOM     39  C   UNL A   1      45.276  32.589  26.442  1.00  0.00     0.012 A 
ATOM     40  C   UNL A   1      43.562  33.549  27.835  1.00  0.00     0.148 A 
ATOM     41  C   UNL A   1      45.645  33.863  26.000  1.00  0.00     0.002 A 
ATOM     42  C   UNL A   1      43.875  34.806  27.324  1.00  0.00     0.091 A 
ATOM     43  F   UNL A   1      42.684  33.471  28.839  1.00  0.00    -0.205 F 
ATOM     44  C   UNL A   1      44.940  34.975  26.438  1.00  0.00     0.022 A 
BRANCH  42  45
ATOM     45  S   UNL A   1      42.942  36.265  27.801  1.00  0.00     0.127 S 
ATOM     46  O   UNL A   1      41.598  35.911  27.357  1.00  0.00    -0.237 OA
ATOM     47  O   UNL A   1      43.130  36.286  29.252  1.00  0.00    -0.237 OA
ATOM     48  O   UNL A   1      43.586  37.372  27.103  1.00  0.00    -0.744 OA
ENDBRANCH  42  45
ENDBRANCH  24  38
BRANCH  25  49
ATOM     49  C   UNL A   1      37.309  31.605  31.874  1.00  0.00     0.023 A 
ATOM     50  C   UNL A   1      36.922  31.958  33.183  1.00  0.00     0.012 A 
ATOM     51  C   UNL A   1      36.555  32.114  30.796  1.00  0.00     0.148 A 
ATOM     52  C   UNL A   1      35.842  32.819  33.410  1.00  0.00     0.002 A 
ATOM     53  C   UNL A   1      35.473  32.961  31.028  1.00  0.00     0.091 A 
ATOM     54  F   UNL A   1      36.953  31.846  29.545  1.00  0.00    -0.205 F 
ATOM     55  C   UNL A   1      35.122  33.326  32.333  1.00  0.00     0.022 A 
BRANCH  53  56
ATOM     56  S   UNL A   1      34.507  33.660  29.683  1.00  0.00     0.127 S 
ATOM     57  O   UNL A   1      35.500  34.478  28.985  1.00  0.00    -0.237 OA
ATOM     58  O   UNL A   1      34.083  32.464  28.961  1.00  0.00    -0.237 OA
ATOM     59  O   UNL A   1      33.446  34.429  30.321  1.00  0.00    -0.744 OA
ENDBRANCH  53  56
ENDBRANCH  25  49
BRANCH  37  60
ATOM     60  C   UNL A   1      43.176  30.354  33.735  1.00  0.00     0.023 A 
ATOM     61  C   UNL A   1      43.631  30.863  34.967  1.00  0.00     0.012 A 
ATOM     62  C   UNL A   1      42.597  29.072  33.703  1.00  0.00     0.148 A 
ATOM     63  C   UNL A   1      43.547  30.099  36.133  1.00  0.00     0.002 A 
ATOM     64  C   UNL A   1      42.463  28.338  34.876  1.00  0.00     0.091 A 
ATOM     65  F   UNL A   1      42.165  28.593  32.526  1.00  0.00    -0.205 F 
ATOM     66  C   UNL A   1      42.949  28.842  36.090  1.00  0.00     0.022 A 
BRANCH  64  67
ATOM     67  S   UNL A   1      41.566  26.783  34.897  1.00  0.00     0.127 S 
ATOM     68  O   UNL A   1      42.572  25.839  34.418  1.00  0.00    -0.237 OA
ATOM     69  O   UNL A   1      41.213  26.636  36.311  1.00  0.00    -0.237 OA
ATOM     70  O   UNL A   1      40.416  26.986  34.023  1.00  0.00    -0.744 OA
ENDBRANCH  64  67
ENDBRANCH  37  60
ENDBRANCH  11  12
ENDBRANCH   4   6
ENDBRANCH   1   2
BRANCH   1  71
ATOM     71  C   UNL A   1      43.535  21.372  25.569  1.00  0.00     0.042 C 
BRANCH  71  72
ATOM     72  C   UNL A   1      44.141  22.652  25.007  1.00  0.00     0.118 C 
BRANCH  72  73
ATOM     73  N   UNL A   1      43.266  23.810  25.085  1.00  0.00    -0.351 N 
ATOM     74  C   UNL A   1      43.583  25.113  25.389  1.00  0.00     0.274 C 
ATOM     75  H   UNL A   1      42.316  23.637  24.894  1.00  0.00     0.163 HD
ATOM     76  O   UNL A   1      42.667  25.945  25.425  1.00  0.00    -0.267 OA
BRANCH  74  77
ATOM     77  C   UNL A   1      44.961  25.483  25.663  1.00  0.00     0.178 A 
ATOM     78  N   UNL A   1      45.749  26.090  24.717  1.00  0.00    -0.124 NA
ATOM     79  C   UNL A   1      45.685  25.350  26.844  1.00  0.00     0.108 A 
ATOM     80  N   UNL A   1      46.897  26.430  25.283  1.00  0.00    -0.061 NA
ATOM     81  N   UNL A   1      46.920  25.911  26.530  1.00  0.00    -0.212 N 
BRANCH  79  82
ATOM     82  C   UNL A   1      45.267  24.949  28.187  1.00  0.00     0.004 A 
ATOM     83  C   UNL A   1      45.050  23.587  28.468  1.00  0.00     0.010 A 
ATOM     84  C   UNL A   1      45.094  25.892  29.203  1.00  0.00     0.031 A 
ATOM     85  C   UNL A   1      44.659  23.173  29.740  1.00  0.00     0.002 A 
ATOM     86  C   UNL A   1      44.692  25.470  30.472  1.00  0.00     0.041 A 
ATOM     87  C   UNL A   1      44.476  24.118  30.744  1.00  0.00     0.020 A 
ATOM     88  Cl  UNL A   1      44.448  26.634  31.716  1.00  0.00    -0.084 Cl
ENDBRANCH  79  82
BRANCH  81  89
ATOM     89  C   UNL A   1      48.044  26.056  27.379  1.00  0.00     0.067 A 
ATOM     90  C   UNL A   1      48.246  27.268  28.048  1.00  0.00     0.029 A 
ATOM     91  C   UNL A   1      48.870  24.957  27.641  1.00  0.00     0.029 A 
ATOM     92  C   UNL A   1      49.203  27.333  29.065  1.00  0.00     0.015 A 
ATOM     93  C   UNL A   1      49.843  25.039  28.634  1.00  0.00     0.015 A 
ATOM     94  C   UNL A   1      49.995  26.214  29.383  1.00  0.00     0.056 A 
BRANCH  94  95
ATOM     95  C   UNL A   1      50.961  26.267  30.542  1.00  0.00     0.416 C 
ATOM     96  F   UNL A   1      52.169  25.715  30.245  1.00  0.00    -0.166 F 
ATOM     97  F   UNL A   1      51.215  27.541  30.947  1.00  0.00    -0.166 F 
ATOM     98  F   UNL A   1      50.514  25.608  31.649  1.00  0.00    -0.166 F 
ENDBRANCH  94  95
ENDBRANCH  81  89
ENDBRANCH  74  77
ENDBRANCH  72  73
ENDBRANCH  71  72
ENDBRANCH   1  71
TORSDOF 16
ENDMDL
