MODEL 1
REMARK VINA RESULT:     -11.6      0.000      0.000
REMARK SMILES CC[C@@H]1CCCN1c1cc(C)c(N)c(C(=O)NCCCNC(=O)c2ccc(-c3c4nc(c(-c5cccc(S(=O)(=O)[O-])c5F)c5ccc([nH]5)c(-c5cccc(S(=O)(=O)[O-])c5F)c5nc(c(-c6cccc(S(=O)(=O)[O-])c6F)c6ccc3[nH]6)C=C5)C=C4)cc2)c1
REMARK SMILES IDX 19 1 18 2 17 3 15 4 16 5 14 7 8 8 9 9 87 10 10 11 11 12
REMARK SMILES IDX 12 13 7 14 3 15 4 16 5 17 6 18 2 19 1 20 13 21 20 24 21 25
REMARK SMILES IDX 22 26 23 28 24 29 25 30 86 31 26 32 85 33 27 34 28 35 29 36
REMARK SMILES IDX 79 37 30 38 84 39 78 40 80 41 31 42 83 43 77 44 76 45 32 47
REMARK SMILES IDX 64 48 44 49 63 50 45 51 48 52 62 53 81 54 46 55 47 56 61 58
REMARK SMILES IDX 82 59 49 60 33 61 34 62 42 63 35 64 37 65 43 66 36 67 38 68
REMARK SMILES IDX 39 69 40 70 41 71 65 72 66 73 74 74 67 75 69 76 75 77 68 78
REMARK SMILES IDX 70 79 71 80 72 81 73 82 50 83 51 84 59 85 52 86 54 87 60 88
REMARK SMILES IDX 53 89 55 90 56 91 57 92 58 93
REMARK H PARENT 17 6 13 22 13 23 21 27 80 46 48 57
REMARK Flexibility Score: inf
ROOT
ATOM      1  C   UNL A   1      33.269  27.715  26.676  1.00  0.00     0.042 C 
ENDROOT
BRANCH   1   2
ATOM      2  C   UNL A   1      31.761  27.910  26.501  1.00  0.00     0.118 C 
BRANCH   2   3
ATOM      3  N   UNL A   1      31.049  26.669  26.741  1.00  0.00    -0.352 N 
ATOM      4  C   UNL A   1      31.121  25.413  26.194  1.00  0.00     0.253 C 
ATOM      5  O   UNL A   1      30.319  24.590  26.649  1.00  0.00    -0.269 OA
ATOM      6  H   UNL A   1      30.369  26.745  27.448  1.00  0.00     0.163 HD
BRANCH   4   7
ATOM      7  C   UNL A   1      32.115  24.990  25.152  1.00  0.00     0.065 A 
ATOM      8  C   UNL A   1      34.137  23.782  24.495  1.00  0.00     0.038 A 
ATOM      9  C   UNL A   1      33.900  24.146  23.171  1.00  0.00     0.031 A 
ATOM     10  C   UNL A   1      33.264  24.253  25.475  1.00  0.00     0.042 A 
ATOM     11  C   UNL A   1      32.828  24.976  22.812  1.00  0.00    -0.025 A 
ATOM     12  C   UNL A   1      32.694  25.398  21.376  1.00  0.00     0.046 C 
ATOM     13  C   UNL A   1      31.925  25.409  23.805  1.00  0.00     0.047 A 
BRANCH   8  14
ATOM     14  N   UNL A   1      35.214  22.983  24.791  1.00  0.00    -0.369 N 
ATOM     15  C   UNL A   1      35.235  21.531  24.586  1.00  0.00     0.082 C 
ATOM     16  C   UNL A   1      36.546  21.179  25.303  1.00  0.00     0.027 C 
ATOM     17  C   UNL A   1      37.482  22.310  24.892  1.00  0.00     0.024 C 
ATOM     18  C   UNL A   1      36.569  23.527  24.708  1.00  0.00     0.117 C 
BRANCH  15  19
ATOM     19  C   UNL A   1      34.049  20.771  25.181  1.00  0.00     0.021 C 
ATOM     20  C   UNL A   1      33.956  19.335  24.674  1.00  0.00     0.006 C 
ENDBRANCH  15  19
ENDBRANCH   8  14
BRANCH  13  21
ATOM     21  N   UNL A   1      30.778  26.118  23.414  1.00  0.00    -0.398 N 
ATOM     22  H   UNL A   1      30.863  27.025  23.043  1.00  0.00     0.156 HD
ATOM     23  H   UNL A   1      29.888  25.707  23.510  1.00  0.00     0.156 HD
ENDBRANCH  13  21
ENDBRANCH   4   7
ENDBRANCH   2   3
ENDBRANCH   1   2
BRANCH   1  24
ATOM     24  C   UNL A   1      34.099  28.788  25.971  1.00  0.00     0.118 C 
BRANCH  24  25
ATOM     25  N   UNL A   1      33.857  30.110  26.536  1.00  0.00    -0.352 N 
ATOM     26  C   UNL A   1      34.487  30.756  27.569  1.00  0.00     0.251 C 
ATOM     27  H   UNL A   1      33.129  30.618  26.109  1.00  0.00     0.163 HD
ATOM     28  O   UNL A   1      33.965  31.754  28.060  1.00  0.00    -0.269 OA
BRANCH  26  29
ATOM     29  C   UNL A   1      35.781  30.264  28.091  1.00  0.00     0.039 A 
ATOM     30  C   UNL A   1      35.816  29.670  29.356  1.00  0.00     0.014 A 
ATOM     31  C   UNL A   1      36.963  30.439  27.367  1.00  0.00     0.014 A 
ATOM     32  C   UNL A   1      37.029  29.214  29.876  1.00  0.00     0.010 A 
ATOM     33  C   UNL A   1      38.161  29.925  27.858  1.00  0.00     0.010 A 
ATOM     34  C   UNL A   1      38.208  29.318  29.122  1.00  0.00    -0.014 A 
BRANCH  34  35
ATOM     35  C   UNL A   1      39.499  28.787  29.630  1.00  0.00     0.031 A 
ATOM     36  C   UNL A   1      40.222  29.487  30.748  1.00  0.00     0.074 A 
ATOM     37  C   UNL A   1      40.066  27.731  29.014  1.00  0.00     0.049 A 
ATOM     38  N   UNL A   1      41.387  29.211  31.275  1.00  0.00    -0.248 NA
ATOM     39  C   UNL A   1      39.565  30.667  31.332  1.00  0.00     0.031 C 
ATOM     40  C   UNL A   1      39.503  27.024  27.862  1.00  0.00     0.029 A 
ATOM     41  N   UNL A   1      41.258  27.092  29.246  1.00  0.00    -0.354 N 
ATOM     42  C   UNL A   1      41.624  30.206  32.216  1.00  0.00     0.074 A 
ATOM     43  C   UNL A   1      40.491  31.106  32.172  1.00  0.00     0.031 C 
ATOM     44  C   UNL A   1      40.352  26.056  27.483  1.00  0.00     0.029 A 
ATOM     45  C   UNL A   1      41.530  26.090  28.344  1.00  0.00     0.049 A 
ATOM     46  H   UNL A   1      41.862  27.328  29.987  1.00  0.00     0.167 HD
ATOM     47  C   UNL A   1      42.675  30.344  33.060  1.00  0.00     0.034 A 
ATOM     48  C   UNL A   1      42.610  25.296  28.216  1.00  0.00     0.034 A 
ATOM     49  C   UNL A   1      43.772  29.417  33.133  1.00  0.00     0.049 A 
ATOM     50  C   UNL A   1      43.735  25.428  29.205  1.00  0.00     0.074 A 
ATOM     51  C   UNL A   1      44.828  29.402  34.028  1.00  0.00     0.029 A 
ATOM     52  N   UNL A   1      43.963  28.346  32.274  1.00  0.00    -0.354 N 
ATOM     53  N   UNL A   1      43.855  26.264  30.208  1.00  0.00    -0.248 NA
ATOM     54  C   UNL A   1      44.854  24.484  29.073  1.00  0.00     0.031 C 
ATOM     55  C   UNL A   1      45.669  28.336  33.694  1.00  0.00     0.029 A 
ATOM     56  C   UNL A   1      45.123  27.671  32.607  1.00  0.00     0.049 A 
ATOM     57  H   UNL A   1      43.359  28.101  31.535  1.00  0.00     0.167 HD
ATOM     58  C   UNL A   1      45.045  25.930  30.844  1.00  0.00     0.074 A 
ATOM     59  C   UNL A   1      45.596  24.798  30.126  1.00  0.00     0.031 C 
ATOM     60  C   UNL A   1      45.636  26.515  31.915  1.00  0.00     0.034 A 
BRANCH  47  61
ATOM     61  C   UNL A   1      42.665  31.515  34.009  1.00  0.00     0.023 A 
ATOM     62  C   UNL A   1      43.213  32.748  33.599  1.00  0.00     0.012 A 
ATOM     63  C   UNL A   1      42.065  31.415  35.279  1.00  0.00     0.148 A 
ATOM     64  C   UNL A   1      43.201  33.851  34.454  1.00  0.00     0.002 A 
ATOM     65  C   UNL A   1      42.017  32.531  36.107  1.00  0.00     0.091 A 
ATOM     66  F   UNL A   1      41.568  30.231  35.661  1.00  0.00    -0.205 F 
ATOM     67  C   UNL A   1      42.594  33.745  35.702  1.00  0.00     0.022 A 
BRANCH  65  68
ATOM     68  S   UNL A   1      41.186  32.519  37.701  1.00  0.00     0.127 S 
ATOM     69  O   UNL A   1      42.042  31.617  38.472  1.00  0.00    -0.237 OA
ATOM     70  O   UNL A   1      41.264  33.924  38.101  1.00  0.00    -0.237 OA
ATOM     71  O   UNL A   1      39.836  32.037  37.444  1.00  0.00    -0.744 OA
ENDBRANCH  65  68
ENDBRANCH  47  61
BRANCH  48  72
ATOM     72  C   UNL A   1      42.642  24.261  27.144  1.00  0.00     0.023 A 
ATOM     73  C   UNL A   1      43.341  24.521  25.950  1.00  0.00     0.012 A 
ATOM     74  C   UNL A   1      42.029  23.005  27.321  1.00  0.00     0.148 A 
ATOM     75  C   UNL A   1      43.406  23.561  24.939  1.00  0.00     0.002 A 
ATOM     76  C   UNL A   1      42.146  22.032  26.336  1.00  0.00     0.091 A 
ATOM     77  F   UNL A   1      41.360  22.780  28.461  1.00  0.00    -0.205 F 
ATOM     78  C   UNL A   1      42.820  22.313  25.137  1.00  0.00     0.022 A 
BRANCH  76  79
ATOM     79  S   UNL A   1      41.547  20.353  26.562  1.00  0.00     0.127 S 
ATOM     80  O   UNL A   1      40.101  20.550  26.578  1.00  0.00    -0.237 OA
ATOM     81  O   UNL A   1      42.066  19.683  25.370  1.00  0.00    -0.237 OA
ATOM     82  O   UNL A   1      42.139  19.891  27.812  1.00  0.00    -0.744 OA
ENDBRANCH  76  79
ENDBRANCH  48  72
BRANCH  60  83
ATOM     83  C   UNL A   1      46.937  25.932  32.401  1.00  0.00     0.023 A 
ATOM     84  C   UNL A   1      48.156  26.431  31.900  1.00  0.00     0.012 A 
ATOM     85  C   UNL A   1      46.952  24.949  33.409  1.00  0.00     0.148 A 
ATOM     86  C   UNL A   1      49.371  25.937  32.375  1.00  0.00     0.002 A 
ATOM     87  C   UNL A   1      48.166  24.497  33.912  1.00  0.00     0.091 A 
ATOM     88  F   UNL A   1      45.781  24.475  33.858  1.00  0.00    -0.205 F 
ATOM     89  C   UNL A   1      49.376  24.981  33.389  1.00  0.00     0.022 A 
BRANCH  87  90
ATOM     90  S   UNL A   1      48.269  23.340  35.282  1.00  0.00     0.127 S 
ATOM     91  O   UNL A   1      47.502  22.206  34.772  1.00  0.00    -0.237 OA
ATOM     92  O   UNL A   1      49.710  23.106  35.385  1.00  0.00    -0.237 OA
ATOM     93  O   UNL A   1      47.687  24.024  36.429  1.00  0.00    -0.744 OA
ENDBRANCH  87  90
ENDBRANCH  60  83
ENDBRANCH  34  35
ENDBRANCH  26  29
ENDBRANCH  24  25
ENDBRANCH   1  24
TORSDOF 16
ENDMDL
MODEL 2
REMARK VINA RESULT:     -11.4      3.359      8.755
REMARK SMILES CC[C@@H]1CCCN1c1cc(C)c(N)c(C(=O)NCCCNC(=O)c2ccc(-c3c4nc(c(-c5cccc(S(=O)(=O)[O-])c5F)c5ccc([nH]5)c(-c5cccc(S(=O)(=O)[O-])c5F)c5nc(c(-c6cccc(S(=O)(=O)[O-])c6F)c6ccc3[nH]6)C=C5)C=C4)cc2)c1
REMARK SMILES IDX 19 1 18 2 17 3 15 4 16 5 14 7 8 8 9 9 87 10 10 11 11 12
REMARK SMILES IDX 12 13 7 14 3 15 4 16 5 17 6 18 2 19 1 20 13 21 20 24 21 25
REMARK SMILES IDX 22 26 23 28 24 29 25 30 86 31 26 32 85 33 27 34 28 35 29 36
REMARK SMILES IDX 79 37 30 38 84 39 78 40 80 41 31 42 83 43 77 44 76 45 32 47
REMARK SMILES IDX 64 48 44 49 63 50 45 51 48 52 62 53 81 54 46 55 47 56 61 58
REMARK SMILES IDX 82 59 49 60 33 61 34 62 42 63 35 64 37 65 43 66 36 67 38 68
REMARK SMILES IDX 39 69 40 70 41 71 65 72 66 73 74 74 67 75 69 76 75 77 68 78
REMARK SMILES IDX 70 79 71 80 72 81 73 82 50 83 51 84 59 85 52 86 54 87 60 88
REMARK SMILES IDX 53 89 55 90 56 91 57 92 58 93
REMARK H PARENT 17 6 13 22 13 23 21 27 80 46 48 57
REMARK Flexibility Score: inf
ROOT
ATOM      1  C   UNL A   1      31.584  31.872  26.815  1.00  0.00     0.042 C 
ENDROOT
BRANCH   1   2
ATOM      2  C   UNL A   1      31.766  30.357  26.705  1.00  0.00     0.118 C 
BRANCH   2   3
ATOM      3  N   UNL A   1      33.125  29.975  27.039  1.00  0.00    -0.352 N 
ATOM      4  C   UNL A   1      33.927  28.917  26.692  1.00  0.00     0.253 C 
ATOM      5  O   UNL A   1      35.052  28.914  27.203  1.00  0.00    -0.269 OA
ATOM      6  H   UNL A   1      33.566  30.611  27.646  1.00  0.00     0.163 HD
BRANCH   4   7
ATOM      7  C   UNL A   1      33.542  27.836  25.723  1.00  0.00     0.065 A 
ATOM      8  C   UNL A   1      32.654  25.608  25.252  1.00  0.00     0.038 A 
ATOM      9  C   UNL A   1      32.752  25.879  23.889  1.00  0.00     0.031 A 
ATOM     10  C   UNL A   1      33.098  26.577  26.150  1.00  0.00     0.042 A 
ATOM     11  C   UNL A   1      33.294  27.081  23.410  1.00  0.00    -0.025 A 
ATOM     12  C   UNL A   1      33.451  27.259  21.926  1.00  0.00     0.046 C 
ATOM     13  C   UNL A   1      33.699  28.072  24.328  1.00  0.00     0.047 A 
BRANCH   8  14
ATOM     14  N   UNL A   1      32.133  24.406  25.664  1.00  0.00    -0.369 N 
ATOM     15  C   UNL A   1      32.937  23.322  26.238  1.00  0.00     0.082 C 
ATOM     16  C   UNL A   1      31.890  22.199  26.265  1.00  0.00     0.027 C 
ATOM     17  C   UNL A   1      30.622  22.916  26.714  1.00  0.00     0.024 C 
ATOM     18  C   UNL A   1      30.760  24.339  26.163  1.00  0.00     0.117 C 
BRANCH  15  19
ATOM     19  C   UNL A   1      34.168  22.921  25.425  1.00  0.00     0.021 C 
ATOM     20  C   UNL A   1      35.430  23.656  25.867  1.00  0.00     0.006 C 
ENDBRANCH  15  19
ENDBRANCH   8  14
BRANCH  13  21
ATOM     21  N   UNL A   1      34.104  29.323  23.837  1.00  0.00    -0.398 N 
ATOM     22  H   UNL A   1      33.557  30.122  24.013  1.00  0.00     0.156 HD
ATOM     23  H   UNL A   1      34.937  29.402  23.317  1.00  0.00     0.156 HD
ENDBRANCH  13  21
ENDBRANCH   4   7
ENDBRANCH   2   3
ENDBRANCH   1   2
BRANCH   1  24
ATOM     24  C   UNL A   1      32.895  32.617  27.068  1.00  0.00     0.118 C 
BRANCH  24  25
ATOM     25  N   UNL A   1      32.659  33.952  27.604  1.00  0.00    -0.352 N 
ATOM     26  C   UNL A   1      33.177  34.560  28.718  1.00  0.00     0.251 C 
ATOM     27  H   UNL A   1      32.030  34.503  27.083  1.00  0.00     0.163 HD
ATOM     28  O   UNL A   1      32.655  35.589  29.139  1.00  0.00    -0.269 OA
BRANCH  26  29
ATOM     29  C   UNL A   1      34.354  33.991  29.411  1.00  0.00     0.039 A 
ATOM     30  C   UNL A   1      34.148  33.074  30.447  1.00  0.00     0.014 A 
ATOM     31  C   UNL A   1      35.650  34.399  29.084  1.00  0.00     0.014 A 
ATOM     32  C   UNL A   1      35.244  32.537  31.127  1.00  0.00     0.010 A 
ATOM     33  C   UNL A   1      36.743  33.813  29.718  1.00  0.00     0.010 A 
ATOM     34  C   UNL A   1      36.551  32.885  30.753  1.00  0.00    -0.014 A 
BRANCH  34  35
ATOM     35  C   UNL A   1      37.732  32.281  31.422  1.00  0.00     0.031 A 
ATOM     36  C   UNL A   1      38.478  31.148  30.772  1.00  0.00     0.074 A 
ATOM     37  C   UNL A   1      38.069  32.689  32.661  1.00  0.00     0.049 A 
ATOM     38  N   UNL A   1      39.484  30.452  31.233  1.00  0.00    -0.248 NA
ATOM     39  C   UNL A   1      38.014  30.720  29.442  1.00  0.00     0.031 C 
ATOM     40  C   UNL A   1      37.366  33.719  33.430  1.00  0.00     0.029 A 
ATOM     41  N   UNL A   1      39.062  32.263  33.506  1.00  0.00    -0.354 N 
ATOM     42  C   UNL A   1      39.745  29.478  30.277  1.00  0.00     0.074 A 
ATOM     43  C   UNL A   1      38.774  29.658  29.218  1.00  0.00     0.031 C 
ATOM     44  C   UNL A   1      37.944  33.838  34.635  1.00  0.00     0.029 A 
ATOM     45  C   UNL A   1      39.039  32.878  34.736  1.00  0.00     0.049 A 
ATOM     46  H   UNL A   1      39.728  31.583  33.256  1.00  0.00     0.167 HD
ATOM     47  C   UNL A   1      40.719  28.537  30.267  1.00  0.00     0.034 A 
ATOM     48  C   UNL A   1      39.803  32.682  35.828  1.00  0.00     0.034 A 
ATOM     49  C   UNL A   1      41.712  28.398  31.298  1.00  0.00     0.049 A 
ATOM     50  C   UNL A   1      40.919  31.676  35.768  1.00  0.00     0.074 A 
ATOM     51  C   UNL A   1      42.808  27.554  31.330  1.00  0.00     0.029 A 
ATOM     52  N   UNL A   1      41.724  29.113  32.486  1.00  0.00    -0.354 N 
ATOM     53  N   UNL A   1      41.264  30.888  34.777  1.00  0.00    -0.248 NA
ATOM     54  C   UNL A   1      41.776  31.558  36.955  1.00  0.00     0.031 C 
ATOM     55  C   UNL A   1      43.469  27.742  32.548  1.00  0.00     0.029 A 
ATOM     56  C   UNL A   1      42.800  28.722  33.264  1.00  0.00     0.049 A 
ATOM     57  H   UNL A   1      41.065  29.799  32.739  1.00  0.00     0.167 HD
ATOM     58  C   UNL A   1      42.393  30.202  35.210  1.00  0.00     0.074 A 
ATOM     59  C   UNL A   1      42.688  30.687  36.543  1.00  0.00     0.031 C 
ATOM     60  C   UNL A   1      43.111  29.248  34.569  1.00  0.00     0.034 A 
BRANCH  47  61
ATOM     61  C   UNL A   1      40.792  27.614  29.077  1.00  0.00     0.023 A 
ATOM     62  C   UNL A   1      39.919  26.510  28.998  1.00  0.00     0.012 A 
ATOM     63  C   UNL A   1      41.680  27.869  28.014  1.00  0.00     0.148 A 
ATOM     64  C   UNL A   1      39.956  25.651  27.899  1.00  0.00     0.002 A 
ATOM     65  C   UNL A   1      41.680  27.034  26.902  1.00  0.00     0.091 A 
ATOM     66  F   UNL A   1      42.518  28.910  28.114  1.00  0.00    -0.205 F 
ATOM     67  C   UNL A   1      40.828  25.919  26.848  1.00  0.00     0.022 A 
BRANCH  65  68
ATOM     68  S   UNL A   1      42.709  27.341  25.461  1.00  0.00     0.127 S 
ATOM     69  O   UNL A   1      42.087  28.542  24.904  1.00  0.00    -0.237 OA
ATOM     70  O   UNL A   1      44.025  27.560  26.062  1.00  0.00    -0.237 OA
ATOM     71  O   UNL A   1      42.611  26.144  24.637  1.00  0.00    -0.744 OA
ENDBRANCH  65  68
ENDBRANCH  47  61
BRANCH  48  72
ATOM     72  C   UNL A   1      39.575  33.510  37.046  1.00  0.00     0.023 A 
ATOM     73  C   UNL A   1      40.049  34.835  37.082  1.00  0.00     0.012 A 
ATOM     74  C   UNL A   1      38.849  33.010  38.146  1.00  0.00     0.148 A 
ATOM     75  C   UNL A   1      39.830  35.639  38.202  1.00  0.00     0.002 A 
ATOM     76  C   UNL A   1      38.583  33.834  39.233  1.00  0.00     0.091 A 
ATOM     77  F   UNL A   1      38.415  31.742  38.096  1.00  0.00    -0.205 F 
ATOM     78  C   UNL A   1      39.087  35.144  39.270  1.00  0.00     0.022 A 
BRANCH  76  79
ATOM     79  S   UNL A   1      37.518  33.328  40.588  1.00  0.00     0.127 S 
ATOM     80  O   UNL A   1      37.426  34.555  41.372  1.00  0.00    -0.237 OA
ATOM     81  O   UNL A   1      36.292  32.951  39.885  1.00  0.00    -0.237 OA
ATOM     82  O   UNL A   1      38.205  32.214  41.231  1.00  0.00    -0.744 OA
ENDBRANCH  76  79
ENDBRANCH  48  72
BRANCH  60  83
ATOM     83  C   UNL A   1      44.307  28.675  35.283  1.00  0.00     0.023 A 
ATOM     84  C   UNL A   1      45.584  29.231  35.064  1.00  0.00     0.012 A 
ATOM     85  C   UNL A   1      44.154  27.642  36.229  1.00  0.00     0.148 A 
ATOM     86  C   UNL A   1      46.694  28.745  35.753  1.00  0.00     0.002 A 
ATOM     87  C   UNL A   1      45.257  27.197  36.947  1.00  0.00     0.091 A 
ATOM     88  F   UNL A   1      42.934  27.115  36.408  1.00  0.00    -0.205 F 
ATOM     89  C   UNL A   1      46.529  27.739  36.703  1.00  0.00     0.022 A 
BRANCH  87  90
ATOM     90  S   UNL A   1      45.122  25.975  38.256  1.00  0.00     0.127 S 
ATOM     91  O   UNL A   1      46.501  25.896  38.733  1.00  0.00    -0.237 OA
ATOM     92  O   UNL A   1      44.191  26.615  39.186  1.00  0.00    -0.237 OA
ATOM     93  O   UNL A   1      44.608  24.767  37.625  1.00  0.00    -0.744 OA
ENDBRANCH  87  90
ENDBRANCH  60  83
ENDBRANCH  34  35
ENDBRANCH  26  29
ENDBRANCH  24  25
ENDBRANCH   1  24
TORSDOF 16
ENDMDL
MODEL 3
REMARK VINA RESULT:     -11.4      5.242      8.639
REMARK SMILES CC[C@@H]1CCCN1c1cc(C)c(N)c(C(=O)NCCCNC(=O)c2ccc(-c3c4nc(c(-c5cccc(S(=O)(=O)[O-])c5F)c5ccc([nH]5)c(-c5cccc(S(=O)(=O)[O-])c5F)c5nc(c(-c6cccc(S(=O)(=O)[O-])c6F)c6ccc3[nH]6)C=C5)C=C4)cc2)c1
REMARK SMILES IDX 19 1 18 2 17 3 15 4 16 5 14 7 8 8 9 9 87 10 10 11 11 12
REMARK SMILES IDX 12 13 7 14 3 15 4 16 5 17 6 18 2 19 1 20 13 21 20 24 21 25
REMARK SMILES IDX 22 26 23 28 24 29 25 30 86 31 26 32 85 33 27 34 28 35 29 36
REMARK SMILES IDX 79 37 30 38 84 39 78 40 80 41 31 42 83 43 77 44 76 45 32 47
REMARK SMILES IDX 64 48 44 49 63 50 45 51 48 52 62 53 81 54 46 55 47 56 61 58
REMARK SMILES IDX 82 59 49 60 33 61 34 62 42 63 35 64 37 65 43 66 36 67 38 68
REMARK SMILES IDX 39 69 40 70 41 71 65 72 66 73 74 74 67 75 69 76 75 77 68 78
REMARK SMILES IDX 70 79 71 80 72 81 73 82 50 83 51 84 59 85 52 86 54 87 60 88
REMARK SMILES IDX 53 89 55 90 56 91 57 92 58 93
REMARK H PARENT 17 6 13 22 13 23 21 27 80 46 48 57
REMARK Flexibility Score: inf
ROOT
ATOM      1  C   UNL A   1      38.035  19.771  24.924  1.00  0.00     0.042 C 
ENDROOT
BRANCH   1   2
ATOM      2  C   UNL A   1      37.275  21.045  24.551  1.00  0.00     0.118 C 
BRANCH   2   3
ATOM      3  N   UNL A   1      37.742  22.172  25.336  1.00  0.00    -0.352 N 
ATOM      4  C   UNL A   1      37.140  23.308  25.818  1.00  0.00     0.253 C 
ATOM      5  O   UNL A   1      37.879  24.073  26.446  1.00  0.00    -0.269 OA
ATOM      6  H   UNL A   1      38.694  22.109  25.574  1.00  0.00     0.163 HD
BRANCH   4   7
ATOM      7  C   UNL A   1      35.680  23.628  25.673  1.00  0.00     0.065 A 
ATOM      8  C   UNL A   1      33.863  24.870  24.608  1.00  0.00     0.038 A 
ATOM      9  C   UNL A   1      32.948  24.138  25.363  1.00  0.00     0.031 A 
ATOM     10  C   UNL A   1      35.222  24.636  24.812  1.00  0.00     0.042 A 
ATOM     11  C   UNL A   1      33.361  23.198  26.318  1.00  0.00    -0.025 A 
ATOM     12  C   UNL A   1      32.316  22.517  27.157  1.00  0.00     0.046 C 
ATOM     13  C   UNL A   1      34.737  22.937  26.484  1.00  0.00     0.047 A 
BRANCH   8  14
ATOM     14  N   UNL A   1      33.402  25.792  23.701  1.00  0.00    -0.369 N 
ATOM     15  C   UNL A   1      33.631  27.236  23.818  1.00  0.00     0.082 C 
ATOM     16  C   UNL A   1      32.707  27.743  22.701  1.00  0.00     0.027 C 
ATOM     17  C   UNL A   1      32.926  26.733  21.581  1.00  0.00     0.024 C 
ATOM     18  C   UNL A   1      33.240  25.415  22.297  1.00  0.00     0.117 C 
BRANCH  15  19
ATOM     19  C   UNL A   1      33.264  27.848  25.170  1.00  0.00     0.021 C 
ATOM     20  C   UNL A   1      31.756  27.970  25.371  1.00  0.00     0.006 C 
ENDBRANCH  15  19
ENDBRANCH   8  14
BRANCH  13  21
ATOM     21  N   UNL A   1      35.130  21.895  27.338  1.00  0.00    -0.398 N 
ATOM     22  H   UNL A   1      35.965  21.969  27.854  1.00  0.00     0.156 HD
ATOM     23  H   UNL A   1      34.570  21.088  27.421  1.00  0.00     0.156 HD
ENDBRANCH  13  21
ENDBRANCH   4   7
ENDBRANCH   2   3
ENDBRANCH   1   2
BRANCH   1  24
ATOM     24  C   UNL A   1      38.883  19.925  26.188  1.00  0.00     0.118 C 
BRANCH  24  25
ATOM     25  N   UNL A   1      40.094  19.117  26.123  1.00  0.00    -0.352 N 
ATOM     26  C   UNL A   1      41.409  19.501  26.075  1.00  0.00     0.251 C 
ATOM     27  H   UNL A   1      39.943  18.143  26.114  1.00  0.00     0.163 HD
ATOM     28  O   UNL A   1      42.265  18.677  25.762  1.00  0.00    -0.269 OA
BRANCH  26  29
ATOM     29  C   UNL A   1      41.803  20.891  26.397  1.00  0.00     0.039 A 
ATOM     30  C   UNL A   1      42.131  21.210  27.718  1.00  0.00     0.014 A 
ATOM     31  C   UNL A   1      41.792  21.888  25.418  1.00  0.00     0.014 A 
ATOM     32  C   UNL A   1      42.489  22.519  28.048  1.00  0.00     0.010 A 
ATOM     33  C   UNL A   1      42.213  23.177  25.735  1.00  0.00     0.010 A 
ATOM     34  C   UNL A   1      42.555  23.508  27.055  1.00  0.00    -0.014 A 
BRANCH  34  35
ATOM     35  C   UNL A   1      42.990  24.892  27.372  1.00  0.00     0.031 A 
ATOM     36  C   UNL A   1      42.030  25.867  27.999  1.00  0.00     0.074 A 
ATOM     37  C   UNL A   1      44.220  25.299  27.001  1.00  0.00     0.049 A 
ATOM     38  N   UNL A   1      42.209  27.131  28.284  1.00  0.00    -0.248 NA
ATOM     39  C   UNL A   1      40.685  25.364  28.323  1.00  0.00     0.031 C 
ATOM     40  C   UNL A   1      45.208  24.471  26.306  1.00  0.00     0.029 A 
ATOM     41  N   UNL A   1      44.836  26.519  27.123  1.00  0.00    -0.354 N 
ATOM     42  C   UNL A   1      40.991  27.586  28.774  1.00  0.00     0.074 A 
ATOM     43  C   UNL A   1      40.073  26.468  28.728  1.00  0.00     0.031 C 
ATOM     44  C   UNL A   1      46.301  25.208  26.055  1.00  0.00     0.029 A 
ATOM     45  C   UNL A   1      46.083  26.565  26.546  1.00  0.00     0.049 A 
ATOM     46  H   UNL A   1      44.425  27.288  27.580  1.00  0.00     0.167 HD
ATOM     47  C   UNL A   1      40.672  28.815  29.247  1.00  0.00     0.034 A 
ATOM     48  C   UNL A   1      46.950  27.588  26.414  1.00  0.00     0.034 A 
ATOM     49  C   UNL A   1      41.603  29.907  29.338  1.00  0.00     0.049 A 
ATOM     50  C   UNL A   1      46.597  28.925  27.004  1.00  0.00     0.074 A 
ATOM     51  C   UNL A   1      41.414  31.156  29.904  1.00  0.00     0.029 A 
ATOM     52  N   UNL A   1      42.898  29.887  28.841  1.00  0.00    -0.354 N 
ATOM     53  N   UNL A   1      45.502  29.285  27.630  1.00  0.00    -0.248 NA
ATOM     54  C   UNL A   1      47.609  29.986  26.906  1.00  0.00     0.031 C 
ATOM     55  C   UNL A   1      42.585  31.898  29.728  1.00  0.00     0.029 A 
ATOM     56  C   UNL A   1      43.515  31.103  29.075  1.00  0.00     0.049 A 
ATOM     57  H   UNL A   1      43.316  29.119  28.389  1.00  0.00     0.167 HD
ATOM     58  C   UNL A   1      45.704  30.603  28.027  1.00  0.00     0.074 A 
ATOM     59  C   UNL A   1      47.037  30.968  27.591  1.00  0.00     0.031 C 
ATOM     60  C   UNL A   1      44.859  31.438  28.679  1.00  0.00     0.034 A 
BRANCH  47  61
ATOM     61  C   UNL A   1      39.267  29.031  29.750  1.00  0.00     0.023 A 
ATOM     62  C   UNL A   1      38.931  28.643  31.063  1.00  0.00     0.012 A 
ATOM     63  C   UNL A   1      38.299  29.667  28.949  1.00  0.00     0.148 A 
ATOM     64  C   UNL A   1      37.642  28.847  31.557  1.00  0.00     0.002 A 
ATOM     65  C   UNL A   1      37.030  29.907  29.465  1.00  0.00     0.091 A 
ATOM     66  F   UNL A   1      38.628  30.010  27.696  1.00  0.00    -0.205 F 
ATOM     67  C   UNL A   1      36.696  29.488  30.763  1.00  0.00     0.022 A 
BRANCH  65  68
ATOM     68  S   UNL A   1      35.766  30.798  28.549  1.00  0.00     0.127 S 
ATOM     69  O   UNL A   1      34.915  31.297  29.629  1.00  0.00    -0.237 OA
ATOM     70  O   UNL A   1      36.548  31.828  27.864  1.00  0.00    -0.237 OA
ATOM     71  O   UNL A   1      35.148  29.819  27.665  1.00  0.00    -0.744 OA
ENDBRANCH  65  68
ENDBRANCH  47  61
BRANCH  48  72
ATOM     72  C   UNL A   1      48.265  27.360  25.750  1.00  0.00     0.023 A 
ATOM     73  C   UNL A   1      49.360  26.919  26.516  1.00  0.00     0.012 A 
ATOM     74  C   UNL A   1      48.422  27.528  24.360  1.00  0.00     0.148 A 
ATOM     75  C   UNL A   1      50.597  26.676  25.916  1.00  0.00     0.002 A 
ATOM     76  C   UNL A   1      49.638  27.229  23.759  1.00  0.00     0.091 A 
ATOM     77  F   UNL A   1      47.369  27.958  23.649  1.00  0.00    -0.205 F 
ATOM     78  C   UNL A   1      50.733  26.819  24.537  1.00  0.00     0.022 A 
BRANCH  76  79
ATOM     79  S   UNL A   1      49.864  27.247  21.977  1.00  0.00     0.127 S 
ATOM     80  O   UNL A   1      49.629  28.651  21.659  1.00  0.00    -0.237 OA
ATOM     81  O   UNL A   1      51.253  26.807  21.843  1.00  0.00    -0.237 OA
ATOM     82  O   UNL A   1      48.885  26.304  21.449  1.00  0.00    -0.744 OA
ENDBRANCH  76  79
ENDBRANCH  48  72
BRANCH  60  83
ATOM     83  C   UNL A   1      45.351  32.827  28.990  1.00  0.00     0.023 A 
ATOM     84  C   UNL A   1      46.048  33.069  30.191  1.00  0.00     0.012 A 
ATOM     85  C   UNL A   1      45.192  33.872  28.058  1.00  0.00     0.148 A 
ATOM     86  C   UNL A   1      46.553  34.338  30.472  1.00  0.00     0.002 A 
ATOM     87  C   UNL A   1      45.740  35.120  28.324  1.00  0.00     0.091 A 
ATOM     88  F   UNL A   1      44.509  33.625  26.931  1.00  0.00    -0.205 F 
ATOM     89  C   UNL A   1      46.411  35.359  29.534  1.00  0.00     0.022 A 
BRANCH  87  90
ATOM     90  S   UNL A   1      45.689  36.465  27.134  1.00  0.00     0.127 S 
ATOM     91  O   UNL A   1      46.496  37.484  27.803  1.00  0.00    -0.237 OA
ATOM     92  O   UNL A   1      46.318  35.865  25.957  1.00  0.00    -0.237 OA
ATOM     93  O   UNL A   1      44.281  36.795  26.963  1.00  0.00    -0.744 OA
ENDBRANCH  87  90
ENDBRANCH  60  83
ENDBRANCH  34  35
ENDBRANCH  26  29
ENDBRANCH  24  25
ENDBRANCH   1  24
TORSDOF 16
ENDMDL
