MODEL 1
REMARK VINA RESULT:      -9.8      0.000      0.000
REMARK SMILES CN(CC1CCC1)C(=O)N(CC(=O)NCCCNC(=O)c1ccc(-c2c3nc(c(-c4cccc(S(=O)(=O)[O-])c4F)c4ccc([nH]4)c(-c4cccc(S(=O)(=O)[O-])c4F)c4nc(c(-c5cccc(S(=O)(=O)[O-])c5F)c5ccc2[nH]5)C=C4)C=C3)cc1)C(C)(C)C
REMARK SMILES IDX 15 1 14 2 12 3 13 4 11 6 10 7 8 8 9 9 2 10 1 11 3 12 4 13
REMARK SMILES IDX 5 14 7 15 6 16 84 17 85 18 86 19 87 20 16 21 17 22 18 23
REMARK SMILES IDX 19 24 20 26 21 27 22 28 83 29 23 30 82 31 24 32 25 33 26 34
REMARK SMILES IDX 76 35 27 36 81 37 75 38 77 39 28 40 80 41 74 42 73 43 29 45
REMARK SMILES IDX 61 46 41 47 60 48 42 49 45 50 59 51 78 52 43 53 44 54 58 56
REMARK SMILES IDX 79 57 46 58 30 59 31 60 39 61 32 62 34 63 40 64 33 65 35 66
REMARK SMILES IDX 36 67 37 68 38 69 62 70 63 71 71 72 64 73 66 74 72 75 65 76
REMARK SMILES IDX 67 77 68 78 69 79 70 80 47 81 48 82 56 83 49 84 51 85 57 86
REMARK SMILES IDX 50 87 52 88 53 89 54 90 55 91
REMARK H PARENT 14 5 18 25 77 44 45 55
REMARK Flexibility Score: inf
ROOT
ATOM      1  C   UNL A   1      36.874  21.983  24.787  1.00  0.00     0.117 C 
ENDROOT
BRANCH   1   2
ATOM      2  N   UNL A   1      36.017  22.393  25.889  1.00  0.00    -0.354 N 
ATOM      3  C   UNL A   1      35.145  23.429  25.996  1.00  0.00     0.239 C 
ATOM      4  O   UNL A   1      34.287  23.337  26.885  1.00  0.00    -0.273 OA
ATOM      5  H   UNL A   1      36.079  21.824  26.690  1.00  0.00     0.163 HD
BRANCH   3   6
ATOM      6  C   UNL A   1      35.064  24.589  24.991  1.00  0.00     0.221 C 
BRANCH   6   7
ATOM      7  N   UNL A   1      33.781  24.990  24.415  1.00  0.00    -0.311 N 
BRANCH   7   8
ATOM      8  C   UNL A   1      33.325  24.627  23.147  1.00  0.00     0.320 C 
ATOM      9  O   UNL A   1      33.798  25.194  22.155  1.00  0.00    -0.248 OA
BRANCH   8  10
ATOM     10  N   UNL A   1      32.392  23.611  22.918  1.00  0.00    -0.327 N 
ATOM     11  C   UNL A   1      31.011  24.024  23.180  1.00  0.00     0.148 C 
BRANCH  10  12
ATOM     12  C   UNL A   1      32.556  22.149  22.817  1.00  0.00     0.124 C 
BRANCH  12  13
ATOM     13  C   UNL A   1      32.979  21.518  24.157  1.00  0.00     0.008 C 
ATOM     14  C   UNL A   1      32.015  21.172  25.345  1.00  0.00     0.005 C 
ATOM     15  C   UNL A   1      33.361  20.023  24.212  1.00  0.00     0.005 C 
ATOM     16  C   UNL A   1      32.977  20.007  25.685  1.00  0.00     0.001 C 
ENDBRANCH  12  13
ENDBRANCH  10  12
ENDBRANCH   8  10
ENDBRANCH   7   8
BRANCH   7  17
ATOM     17  C   UNL A   1      32.983  26.041  25.208  1.00  0.00     0.037 C 
ATOM     18  C   UNL A   1      31.913  25.395  26.118  1.00  0.00     0.034 C 
ATOM     19  C   UNL A   1      33.909  26.922  26.078  1.00  0.00     0.034 C 
ATOM     20  C   UNL A   1      32.209  27.052  24.310  1.00  0.00     0.034 C 
ENDBRANCH   7  17
ENDBRANCH   6   7
ENDBRANCH   3   6
ENDBRANCH   1   2
BRANCH   1  21
ATOM     21  C   UNL A   1      37.771  20.812  25.110  1.00  0.00     0.042 C 
BRANCH  21  22
ATOM     22  C   UNL A   1      38.947  21.223  25.978  1.00  0.00     0.118 C 
BRANCH  22  23
ATOM     23  N   UNL A   1      40.008  20.213  26.063  1.00  0.00    -0.352 N 
ATOM     24  C   UNL A   1      41.361  20.346  26.277  1.00  0.00     0.251 C 
ATOM     25  H   UNL A   1      39.701  19.285  25.946  1.00  0.00     0.163 HD
ATOM     26  O   UNL A   1      42.103  19.373  26.159  1.00  0.00    -0.269 OA
BRANCH  24  27
ATOM     27  C   UNL A   1      41.913  21.671  26.618  1.00  0.00     0.039 A 
ATOM     28  C   UNL A   1      42.235  22.583  25.613  1.00  0.00     0.014 A 
ATOM     29  C   UNL A   1      42.041  22.034  27.955  1.00  0.00     0.014 A 
ATOM     30  C   UNL A   1      42.585  23.889  25.963  1.00  0.00     0.010 A 
ATOM     31  C   UNL A   1      42.180  23.369  28.285  1.00  0.00     0.010 A 
ATOM     32  C   UNL A   1      42.503  24.310  27.302  1.00  0.00    -0.014 A 
BRANCH  32  33
ATOM     33  C   UNL A   1      42.796  25.703  27.725  1.00  0.00     0.031 A 
ATOM     34  C   UNL A   1      44.220  26.210  27.686  1.00  0.00     0.074 A 
ATOM     35  C   UNL A   1      41.817  26.472  28.242  1.00  0.00     0.049 A 
ATOM     36  N   UNL A   1      44.705  27.346  28.113  1.00  0.00    -0.248 NA
ATOM     37  C   UNL A   1      45.249  25.295  27.154  1.00  0.00     0.031 C 
ATOM     38  C   UNL A   1      40.424  26.061  28.446  1.00  0.00     0.029 A 
ATOM     39  N   UNL A   1      41.849  27.761  28.712  1.00  0.00    -0.354 N 
ATOM     40  C   UNL A   1      46.082  27.252  27.959  1.00  0.00     0.074 A 
ATOM     41  C   UNL A   1      46.368  25.923  27.473  1.00  0.00     0.031 C 
ATOM     42  C   UNL A   1      39.730  27.088  28.961  1.00  0.00     0.029 A 
ATOM     43  C   UNL A   1      40.631  28.218  29.160  1.00  0.00     0.049 A 
ATOM     44  H   UNL A   1      42.667  28.309  28.726  1.00  0.00     0.167 HD
ATOM     45  C   UNL A   1      47.029  28.201  28.145  1.00  0.00     0.034 A 
ATOM     46  C   UNL A   1      40.283  29.416  29.670  1.00  0.00     0.034 A 
ATOM     47  C   UNL A   1      46.729  29.550  28.529  1.00  0.00     0.049 A 
ATOM     48  C   UNL A   1      41.336  30.486  29.779  1.00  0.00     0.074 A 
ATOM     49  C   UNL A   1      47.588  30.628  28.632  1.00  0.00     0.029 A 
ATOM     50  N   UNL A   1      45.464  30.007  28.862  1.00  0.00    -0.354 N 
ATOM     51  N   UNL A   1      42.608  30.427  29.468  1.00  0.00    -0.248 NA
ATOM     52  C   UNL A   1      40.898  31.798  30.273  1.00  0.00     0.031 C 
ATOM     53  C   UNL A   1      46.843  31.735  29.045  1.00  0.00     0.029 A 
ATOM     54  C   UNL A   1      45.517  31.353  29.175  1.00  0.00     0.049 A 
ATOM     55  H   UNL A   1      44.648  29.457  28.875  1.00  0.00     0.167 HD
ATOM     56  C   UNL A   1      43.116  31.701  29.696  1.00  0.00     0.074 A 
ATOM     57  C   UNL A   1      42.006  32.517  30.144  1.00  0.00     0.031 C 
ATOM     58  C   UNL A   1      44.387  32.155  29.565  1.00  0.00     0.034 A 
BRANCH  45  59
ATOM     59  C   UNL A   1      48.460  27.831  27.852  1.00  0.00     0.023 A 
ATOM     60  C   UNL A   1      49.278  27.332  28.889  1.00  0.00     0.012 A 
ATOM     61  C   UNL A   1      48.988  27.940  26.551  1.00  0.00     0.148 A 
ATOM     62  C   UNL A   1      50.608  26.991  28.647  1.00  0.00     0.002 A 
ATOM     63  C   UNL A   1      50.299  27.547  26.306  1.00  0.00     0.091 A 
ATOM     64  F   UNL A   1      48.205  28.435  25.582  1.00  0.00    -0.205 F 
ATOM     65  C   UNL A   1      51.114  27.089  27.355  1.00  0.00     0.022 A 
BRANCH  63  66
ATOM     66  S   UNL A   1      51.024  27.553  24.663  1.00  0.00     0.127 S 
ATOM     67  O   UNL A   1      51.071  28.985  24.366  1.00  0.00    -0.237 OA
ATOM     68  O   UNL A   1      52.329  26.937  24.903  1.00  0.00    -0.237 OA
ATOM     69  O   UNL A   1      50.127  26.771  23.824  1.00  0.00    -0.744 OA
ENDBRANCH  63  66
ENDBRANCH  45  59
BRANCH  46  70
ATOM     70  C   UNL A   1      38.863  29.696  30.029  1.00  0.00     0.023 A 
ATOM     71  C   UNL A   1      38.414  29.411  31.334  1.00  0.00     0.012 A 
ATOM     72  C   UNL A   1      37.962  30.254  29.103  1.00  0.00     0.148 A 
ATOM     73  C   UNL A   1      37.087  29.638  31.699  1.00  0.00     0.002 A 
ATOM     74  C   UNL A   1      36.655  30.530  29.488  1.00  0.00     0.091 A 
ATOM     75  F   UNL A   1      38.404  30.512  27.864  1.00  0.00    -0.205 F 
ATOM     76  C   UNL A   1      36.209  30.205  30.779  1.00  0.00     0.022 A 
BRANCH  74  77
ATOM     77  S   UNL A   1      35.491  31.375  28.412  1.00  0.00     0.127 S 
ATOM     78  O   UNL A   1      36.295  32.489  27.918  1.00  0.00    -0.237 OA
ATOM     79  O   UNL A   1      35.192  30.342  27.419  1.00  0.00    -0.237 OA
ATOM     80  O   UNL A   1      34.363  31.734  29.262  1.00  0.00    -0.744 OA
ENDBRANCH  74  77
ENDBRANCH  46  70
BRANCH  58  81
ATOM     81  C   UNL A   1      44.643  33.604  29.875  1.00  0.00     0.023 A 
ATOM     82  C   UNL A   1      45.068  33.979  31.164  1.00  0.00     0.012 A 
ATOM     83  C   UNL A   1      44.540  34.581  28.866  1.00  0.00     0.148 A 
ATOM     84  C   UNL A   1      45.351  35.312  31.455  1.00  0.00     0.002 A 
ATOM     85  C   UNL A   1      44.876  35.899  29.149  1.00  0.00     0.091 A 
ATOM     86  F   UNL A   1      44.120  34.204  27.650  1.00  0.00    -0.205 F 
ATOM     87  C   UNL A   1      45.268  36.269  30.446  1.00  0.00     0.022 A 
BRANCH  85  88
ATOM     88  S   UNL A   1      44.897  37.177  27.887  1.00  0.00     0.127 S 
ATOM     89  O   UNL A   1      45.831  36.617  26.912  1.00  0.00    -0.237 OA
ATOM     90  O   UNL A   1      43.501  37.204  27.450  1.00  0.00    -0.237 OA
ATOM     91  O   UNL A   1      45.343  38.393  28.556  1.00  0.00    -0.744 OA
ENDBRANCH  85  88
ENDBRANCH  58  81
ENDBRANCH  32  33
ENDBRANCH  24  27
ENDBRANCH  22  23
ENDBRANCH  21  22
ENDBRANCH   1  21
TORSDOF 19
ENDMDL
MODEL 2
REMARK VINA RESULT:      -9.6      2.117      8.167
REMARK SMILES CN(CC1CCC1)C(=O)N(CC(=O)NCCCNC(=O)c1ccc(-c2c3nc(c(-c4cccc(S(=O)(=O)[O-])c4F)c4ccc([nH]4)c(-c4cccc(S(=O)(=O)[O-])c4F)c4nc(c(-c5cccc(S(=O)(=O)[O-])c5F)c5ccc2[nH]5)C=C4)C=C3)cc1)C(C)(C)C
REMARK SMILES IDX 15 1 14 2 12 3 13 4 11 6 10 7 8 8 9 9 2 10 1 11 3 12 4 13
REMARK SMILES IDX 5 14 7 15 6 16 84 17 85 18 86 19 87 20 16 21 17 22 18 23
REMARK SMILES IDX 19 24 20 26 21 27 22 28 83 29 23 30 82 31 24 32 25 33 26 34
REMARK SMILES IDX 76 35 27 36 81 37 75 38 77 39 28 40 80 41 74 42 73 43 29 45
REMARK SMILES IDX 61 46 41 47 60 48 42 49 45 50 59 51 78 52 43 53 44 54 58 56
REMARK SMILES IDX 79 57 46 58 30 59 31 60 39 61 32 62 34 63 40 64 33 65 35 66
REMARK SMILES IDX 36 67 37 68 38 69 62 70 63 71 71 72 64 73 66 74 72 75 65 76
REMARK SMILES IDX 67 77 68 78 69 79 70 80 47 81 48 82 56 83 49 84 51 85 57 86
REMARK SMILES IDX 50 87 52 88 53 89 54 90 55 91
REMARK H PARENT 14 5 18 25 77 44 45 55
REMARK Flexibility Score: inf
ROOT
ATOM      1  C   UNL A   1      37.142  22.179  25.407  1.00  0.00     0.117 C 
ENDROOT
BRANCH   1   2
ATOM      2  N   UNL A   1      36.117  22.082  26.436  1.00  0.00    -0.354 N 
ATOM      3  C   UNL A   1      34.923  22.717  26.562  1.00  0.00     0.239 C 
ATOM      4  O   UNL A   1      34.096  22.190  27.319  1.00  0.00    -0.273 OA
ATOM      5  H   UNL A   1      36.325  21.450  27.162  1.00  0.00     0.163 HD
BRANCH   3   6
ATOM      6  C   UNL A   1      34.498  23.921  25.707  1.00  0.00     0.221 C 
BRANCH   6   7
ATOM      7  N   UNL A   1      33.194  23.943  25.044  1.00  0.00    -0.311 N 
BRANCH   7   8
ATOM      8  C   UNL A   1      32.040  24.530  25.566  1.00  0.00     0.320 C 
ATOM      9  O   UNL A   1      31.244  23.828  26.202  1.00  0.00    -0.248 OA
BRANCH   8  10
ATOM     10  N   UNL A   1      31.747  25.893  25.462  1.00  0.00    -0.327 N 
ATOM     11  C   UNL A   1      30.583  26.296  26.255  1.00  0.00     0.148 C 
BRANCH  10  12
ATOM     12  C   UNL A   1      32.148  26.898  24.460  1.00  0.00     0.124 C 
BRANCH  12  13
ATOM     13  C   UNL A   1      30.997  27.860  24.110  1.00  0.00     0.008 C 
ATOM     14  C   UNL A   1      31.072  29.032  23.071  1.00  0.00     0.005 C 
ATOM     15  C   UNL A   1      29.814  27.359  23.252  1.00  0.00     0.005 C 
ATOM     16  C   UNL A   1      29.565  28.792  22.806  1.00  0.00     0.001 C 
ENDBRANCH  12  13
ENDBRANCH  10  12
ENDBRANCH   8  10
ENDBRANCH   7   8
BRANCH   7  17
ATOM     17  C   UNL A   1      33.067  23.085  23.772  1.00  0.00     0.037 C 
ATOM     18  C   UNL A   1      31.998  23.637  22.801  1.00  0.00     0.034 C 
ATOM     19  C   UNL A   1      34.414  22.980  23.020  1.00  0.00     0.034 C 
ATOM     20  C   UNL A   1      32.654  21.608  24.048  1.00  0.00     0.034 C 
ENDBRANCH   7  17
ENDBRANCH   6   7
ENDBRANCH   3   6
ENDBRANCH   1   2
BRANCH   1  21
ATOM     21  C   UNL A   1      38.003  20.947  25.281  1.00  0.00     0.042 C 
BRANCH  21  22
ATOM     22  C   UNL A   1      39.169  20.968  26.254  1.00  0.00     0.118 C 
BRANCH  22  23
ATOM     23  N   UNL A   1      40.079  19.826  26.120  1.00  0.00    -0.352 N 
ATOM     24  C   UNL A   1      41.452  19.774  26.047  1.00  0.00     0.251 C 
ATOM     25  H   UNL A   1      39.634  18.949  26.074  1.00  0.00     0.163 HD
ATOM     26  O   UNL A   1      42.017  18.716  25.781  1.00  0.00    -0.269 OA
BRANCH  24  27
ATOM     27  C   UNL A   1      42.236  21.007  26.261  1.00  0.00     0.039 A 
ATOM     28  C   UNL A   1      42.518  21.858  25.193  1.00  0.00     0.014 A 
ATOM     29  C   UNL A   1      42.626  21.353  27.550  1.00  0.00     0.014 A 
ATOM     30  C   UNL A   1      43.102  23.102  25.448  1.00  0.00     0.010 A 
ATOM     31  C   UNL A   1      43.006  22.655  27.818  1.00  0.00     0.010 A 
ATOM     32  C   UNL A   1      43.297  23.535  26.770  1.00  0.00    -0.014 A 
BRANCH  32  33
ATOM     33  C   UNL A   1      43.850  24.873  27.104  1.00  0.00     0.031 A 
ATOM     34  C   UNL A   1      42.950  25.915  27.728  1.00  0.00     0.074 A 
ATOM     35  C   UNL A   1      45.112  25.189  26.754  1.00  0.00     0.049 A 
ATOM     36  N   UNL A   1      43.200  27.171  27.994  1.00  0.00    -0.248 NA
ATOM     37  C   UNL A   1      41.563  25.514  28.038  1.00  0.00     0.031 C 
ATOM     38  C   UNL A   1      46.047  24.314  26.040  1.00  0.00     0.029 A 
ATOM     39  N   UNL A   1      45.824  26.348  26.936  1.00  0.00    -0.354 N 
ATOM     40  C   UNL A   1      41.998  27.710  28.436  1.00  0.00     0.074 A 
ATOM     41  C   UNL A   1      41.000  26.674  28.332  1.00  0.00     0.031 C 
ATOM     42  C   UNL A   1      47.217  24.952  25.880  1.00  0.00     0.029 A 
ATOM     43  C   UNL A   1      47.109  26.292  26.445  1.00  0.00     0.049 A 
ATOM     44  H   UNL A   1      45.452  27.145  27.378  1.00  0.00     0.167 HD
ATOM     45  C   UNL A   1      41.750  28.941  28.943  1.00  0.00     0.034 A 
ATOM     46  C   UNL A   1      48.087  27.219  26.454  1.00  0.00     0.034 A 
ATOM     47  C   UNL A   1      42.768  29.933  29.139  1.00  0.00     0.049 A 
ATOM     48  C   UNL A   1      47.815  28.547  27.108  1.00  0.00     0.074 A 
ATOM     49  C   UNL A   1      42.661  31.166  29.753  1.00  0.00     0.029 A 
ATOM     50  N   UNL A   1      44.086  29.794  28.735  1.00  0.00    -0.354 N 
ATOM     51  N   UNL A   1      46.714  28.979  27.674  1.00  0.00    -0.248 NA
ATOM     52  C   UNL A   1      48.931  29.501  27.160  1.00  0.00     0.031 C 
ATOM     53  C   UNL A   1      43.914  31.783  29.703  1.00  0.00     0.029 A 
ATOM     54  C   UNL A   1      44.806  30.922  29.082  1.00  0.00     0.049 A 
ATOM     55  H   UNL A   1      44.456  29.009  28.270  1.00  0.00     0.167 HD
ATOM     56  C   UNL A   1      47.013  30.240  28.178  1.00  0.00     0.074 A 
ATOM     57  C   UNL A   1      48.408  30.488  27.875  1.00  0.00     0.031 C 
ATOM     58  C   UNL A   1      46.207  31.122  28.818  1.00  0.00     0.034 A 
BRANCH  45  59
ATOM     59  C   UNL A   1      40.344  29.244  29.394  1.00  0.00     0.023 A 
ATOM     60  C   UNL A   1      39.393  29.697  28.455  1.00  0.00     0.012 A 
ATOM     61  C   UNL A   1      39.952  29.047  30.732  1.00  0.00     0.148 A 
ATOM     62  C   UNL A   1      38.088  29.993  28.848  1.00  0.00     0.002 A 
ATOM     63  C   UNL A   1      38.636  29.293  31.106  1.00  0.00     0.091 A 
ATOM     64  F   UNL A   1      40.873  28.636  31.615  1.00  0.00    -0.205 F 
ATOM     65  C   UNL A   1      37.708  29.780  30.170  1.00  0.00     0.022 A 
BRANCH  63  66
ATOM     66  S   UNL A   1      38.020  28.973  32.762  1.00  0.00     0.127 S 
ATOM     67  O   UNL A   1      36.682  29.559  32.698  1.00  0.00    -0.237 OA
ATOM     68  O   UNL A   1      38.043  27.511  32.819  1.00  0.00    -0.237 OA
ATOM     69  O   UNL A   1      38.947  29.632  33.671  1.00  0.00    -0.744 OA
ENDBRANCH  63  66
ENDBRANCH  45  59
BRANCH  46  70
ATOM     70  C   UNL A   1      49.436  26.893  25.909  1.00  0.00     0.023 A 
ATOM     71  C   UNL A   1      50.351  26.185  26.714  1.00  0.00     0.012 A 
ATOM     72  C   UNL A   1      49.814  27.259  24.604  1.00  0.00     0.148 A 
ATOM     73  C   UNL A   1      51.630  25.883  26.245  1.00  0.00     0.002 A 
ATOM     74  C   UNL A   1      51.071  26.907  24.122  1.00  0.00     0.091 A 
ATOM     75  F   UNL A   1      48.935  27.938  23.855  1.00  0.00    -0.205 F 
ATOM     76  C   UNL A   1      51.987  26.235  24.947  1.00  0.00     0.022 A 
BRANCH  74  77
ATOM     77  S   UNL A   1      51.571  27.207  22.423  1.00  0.00     0.127 S 
ATOM     78  O   UNL A   1      52.808  26.437  22.335  1.00  0.00    -0.237 OA
ATOM     79  O   UNL A   1      50.443  26.650  21.674  1.00  0.00    -0.237 OA
ATOM     80  O   UNL A   1      51.713  28.652  22.307  1.00  0.00    -0.744 OA
ENDBRANCH  74  77
ENDBRANCH  46  70
BRANCH  58  81
ATOM     81  C   UNL A   1      46.815  32.423  29.265  1.00  0.00     0.023 A 
ATOM     82  C   UNL A   1      47.510  32.486  30.488  1.00  0.00     0.012 A 
ATOM     83  C   UNL A   1      46.765  33.559  28.434  1.00  0.00     0.148 A 
ATOM     84  C   UNL A   1      48.116  33.673  30.896  1.00  0.00     0.002 A 
ATOM     85  C   UNL A   1      47.417  34.722  28.823  1.00  0.00     0.091 A 
ATOM     86  F   UNL A   1      46.086  33.480  27.281  1.00  0.00    -0.205 F 
ATOM     87  C   UNL A   1      48.080  34.786  30.059  1.00  0.00     0.022 A 
BRANCH  85  88
ATOM     88  S   UNL A   1      47.512  36.170  27.763  1.00  0.00     0.127 S 
ATOM     89  O   UNL A   1      48.078  35.606  26.539  1.00  0.00    -0.237 OA
ATOM     90  O   UNL A   1      46.109  36.570  27.659  1.00  0.00    -0.237 OA
ATOM     91  O   UNL A   1      48.361  37.124  28.464  1.00  0.00    -0.744 OA
ENDBRANCH  85  88
ENDBRANCH  58  81
ENDBRANCH  32  33
ENDBRANCH  24  27
ENDBRANCH  22  23
ENDBRANCH  21  22
ENDBRANCH   1  21
TORSDOF 19
ENDMDL
MODEL 3
REMARK VINA RESULT:      -9.1      2.182      3.293
REMARK SMILES CN(CC1CCC1)C(=O)N(CC(=O)NCCCNC(=O)c1ccc(-c2c3nc(c(-c4cccc(S(=O)(=O)[O-])c4F)c4ccc([nH]4)c(-c4cccc(S(=O)(=O)[O-])c4F)c4nc(c(-c5cccc(S(=O)(=O)[O-])c5F)c5ccc2[nH]5)C=C4)C=C3)cc1)C(C)(C)C
REMARK SMILES IDX 15 1 14 2 12 3 13 4 11 6 10 7 8 8 9 9 2 10 1 11 3 12 4 13
REMARK SMILES IDX 5 14 7 15 6 16 84 17 85 18 86 19 87 20 16 21 17 22 18 23
REMARK SMILES IDX 19 24 20 26 21 27 22 28 83 29 23 30 82 31 24 32 25 33 26 34
REMARK SMILES IDX 76 35 27 36 81 37 75 38 77 39 28 40 80 41 74 42 73 43 29 45
REMARK SMILES IDX 61 46 41 47 60 48 42 49 45 50 59 51 78 52 43 53 44 54 58 56
REMARK SMILES IDX 79 57 46 58 30 59 31 60 39 61 32 62 34 63 40 64 33 65 35 66
REMARK SMILES IDX 36 67 37 68 38 69 62 70 63 71 71 72 64 73 66 74 72 75 65 76
REMARK SMILES IDX 67 77 68 78 69 79 70 80 47 81 48 82 56 83 49 84 51 85 57 86
REMARK SMILES IDX 50 87 52 88 53 89 54 90 55 91
REMARK H PARENT 14 5 18 25 77 44 45 55
REMARK Flexibility Score: inf
ROOT
ATOM      1  C   UNL A   1      37.298  22.487  25.522  1.00  0.00     0.117 C 
ENDROOT
BRANCH   1   2
ATOM      2  N   UNL A   1      36.258  22.146  26.481  1.00  0.00    -0.354 N 
ATOM      3  C   UNL A   1      34.964  22.549  26.568  1.00  0.00     0.239 C 
ATOM      4  O   UNL A   1      34.210  21.837  27.245  1.00  0.00    -0.273 OA
ATOM      5  H   UNL A   1      36.541  21.518  27.184  1.00  0.00     0.163 HD
BRANCH   3   6
ATOM      6  C   UNL A   1      34.371  23.708  25.752  1.00  0.00     0.221 C 
BRANCH   6   7
ATOM      7  N   UNL A   1      32.998  23.643  25.251  1.00  0.00    -0.311 N 
BRANCH   7   8
ATOM      8  C   UNL A   1      31.872  24.094  25.943  1.00  0.00     0.320 C 
ATOM      9  O   UNL A   1      31.298  23.323  26.721  1.00  0.00    -0.248 OA
BRANCH   8  10
ATOM     10  N   UNL A   1      31.375  25.397  25.853  1.00  0.00    -0.327 N 
ATOM     11  C   UNL A   1      29.927  25.479  26.058  1.00  0.00     0.148 C 
BRANCH  10  12
ATOM     12  C   UNL A   1      31.950  26.616  25.253  1.00  0.00     0.124 C 
BRANCH  12  13
ATOM     13  C   UNL A   1      31.579  27.884  26.046  1.00  0.00     0.008 C 
ATOM     14  C   UNL A   1      31.936  28.157  27.548  1.00  0.00     0.005 C 
ATOM     15  C   UNL A   1      32.329  29.206  25.771  1.00  0.00     0.005 C 
ATOM     16  C   UNL A   1      31.990  29.660  27.183  1.00  0.00     0.001 C 
ENDBRANCH  12  13
ENDBRANCH  10  12
ENDBRANCH   8  10
ENDBRANCH   7   8
BRANCH   7  17
ATOM     17  C   UNL A   1      32.788  22.845  23.953  1.00  0.00     0.037 C 
ATOM     18  C   UNL A   1      33.973  23.007  22.972  1.00  0.00     0.034 C 
ATOM     19  C   UNL A   1      32.582  21.339  24.238  1.00  0.00     0.034 C 
ATOM     20  C   UNL A   1      31.523  23.270  23.149  1.00  0.00     0.034 C 
ENDBRANCH   7  17
ENDBRANCH   6   7
ENDBRANCH   3   6
ENDBRANCH   1   2
BRANCH   1  21
ATOM     21  C   UNL A   1      38.284  21.375  25.264  1.00  0.00     0.042 C 
BRANCH  21  22
ATOM     22  C   UNL A   1      39.325  21.273  26.365  1.00  0.00     0.118 C 
BRANCH  22  23
ATOM     23  N   UNL A   1      40.356  20.258  26.121  1.00  0.00    -0.352 N 
ATOM     24  C   UNL A   1      41.726  20.365  26.063  1.00  0.00     0.251 C 
ATOM     25  H   UNL A   1      40.009  19.349  25.973  1.00  0.00     0.163 HD
ATOM     26  O   UNL A   1      42.405  19.410  25.692  1.00  0.00    -0.269 OA
BRANCH  24  27
ATOM     27  C   UNL A   1      42.369  21.645  26.421  1.00  0.00     0.039 A 
ATOM     28  C   UNL A   1      42.675  22.582  25.434  1.00  0.00     0.014 A 
ATOM     29  C   UNL A   1      42.599  21.943  27.760  1.00  0.00     0.014 A 
ATOM     30  C   UNL A   1      43.115  23.853  25.813  1.00  0.00     0.010 A 
ATOM     31  C   UNL A   1      42.830  23.253  28.133  1.00  0.00     0.010 A 
ATOM     32  C   UNL A   1      43.140  24.219  27.169  1.00  0.00    -0.014 A 
BRANCH  32  33
ATOM     33  C   UNL A   1      43.532  25.576  27.628  1.00  0.00     0.031 A 
ATOM     34  C   UNL A   1      44.997  25.944  27.697  1.00  0.00     0.074 A 
ATOM     35  C   UNL A   1      42.596  26.432  28.082  1.00  0.00     0.049 A 
ATOM     36  N   UNL A   1      45.555  27.027  28.170  1.00  0.00    -0.248 NA
ATOM     37  C   UNL A   1      45.970  24.937  27.230  1.00  0.00     0.031 C 
ATOM     38  C   UNL A   1      41.159  26.156  28.180  1.00  0.00     0.029 A 
ATOM     39  N   UNL A   1      42.716  27.711  28.567  1.00  0.00    -0.354 N 
ATOM     40  C   UNL A   1      46.925  26.801  28.115  1.00  0.00     0.074 A 
ATOM     41  C   UNL A   1      47.118  25.454  27.636  1.00  0.00     0.031 C 
ATOM     42  C   UNL A   1      40.530  27.242  28.656  1.00  0.00     0.029 A 
ATOM     43  C   UNL A   1      41.517  28.280  28.932  1.00  0.00     0.049 A 
ATOM     44  H   UNL A   1      43.579  28.177  28.645  1.00  0.00     0.167 HD
ATOM     45  C   UNL A   1      47.942  27.655  28.379  1.00  0.00     0.034 A 
ATOM     46  C   UNL A   1      41.249  29.504  29.428  1.00  0.00     0.034 A 
ATOM     47  C   UNL A   1      47.744  29.025  28.756  1.00  0.00     0.049 A 
ATOM     48  C   UNL A   1      42.389  30.468  29.625  1.00  0.00     0.074 A 
ATOM     49  C   UNL A   1      48.692  30.015  28.932  1.00  0.00     0.029 A 
ATOM     50  N   UNL A   1      46.508  29.599  29.002  1.00  0.00    -0.354 N 
ATOM     51  N   UNL A   1      43.669  30.289  29.405  1.00  0.00    -0.248 NA
ATOM     52  C   UNL A   1      42.043  31.814  30.100  1.00  0.00     0.031 C 
ATOM     53  C   UNL A   1      48.028  31.187  29.303  1.00  0.00     0.029 A 
ATOM     54  C   UNL A   1      46.666  30.933  29.332  1.00  0.00     0.049 A 
ATOM     55  H   UNL A   1      45.644  29.130  28.949  1.00  0.00     0.167 HD
ATOM     56  C   UNL A   1      44.277  31.508  29.683  1.00  0.00     0.074 A 
ATOM     57  C   UNL A   1      43.220  32.423  30.059  1.00  0.00     0.031 C 
ATOM     58  C   UNL A   1      45.592  31.838  29.649  1.00  0.00     0.034 A 
BRANCH  45  59
ATOM     59  C   UNL A   1      49.349  27.151  28.186  1.00  0.00     0.023 A 
ATOM     60  C   UNL A   1      50.016  26.516  29.256  1.00  0.00     0.012 A 
ATOM     61  C   UNL A   1      49.999  27.269  26.943  1.00  0.00     0.148 A 
ATOM     62  C   UNL A   1      51.321  26.049  29.107  1.00  0.00     0.002 A 
ATOM     63  C   UNL A   1      51.281  26.753  26.785  1.00  0.00     0.091 A 
ATOM     64  F   UNL A   1      49.360  27.892  25.943  1.00  0.00    -0.205 F 
ATOM     65  C   UNL A   1      51.948  26.158  27.870  1.00  0.00     0.022 A 
BRANCH  63  66
ATOM     66  S   UNL A   1      52.147  26.765  25.212  1.00  0.00     0.127 S 
ATOM     67  O   UNL A   1      53.149  25.720  25.419  1.00  0.00    -0.237 OA
ATOM     68  O   UNL A   1      51.081  26.410  24.275  1.00  0.00    -0.237 OA
ATOM     69  O   UNL A   1      52.674  28.113  25.053  1.00  0.00    -0.744 OA
ENDBRANCH  63  66
ENDBRANCH  45  59
BRANCH  46  70
ATOM     70  C   UNL A   1      39.840  29.917  29.687  1.00  0.00     0.023 A 
ATOM     71  C   UNL A   1      39.030  30.315  28.605  1.00  0.00     0.012 A 
ATOM     72  C   UNL A   1      39.292  29.903  30.984  1.00  0.00     0.148 A 
ATOM     73  C   UNL A   1      37.714  30.730  28.812  1.00  0.00     0.002 A 
ATOM     74  C   UNL A   1      37.963  30.265  31.177  1.00  0.00     0.091 A 
ATOM     75  F   UNL A   1      40.078  29.529  32.002  1.00  0.00    -0.205 F 
ATOM     76  C   UNL A   1      37.178  30.697  30.096  1.00  0.00     0.022 A 
BRANCH  74  77
ATOM     77  S   UNL A   1      37.150  30.132  32.774  1.00  0.00     0.127 S 
ATOM     78  O   UNL A   1      35.829  30.681  32.483  1.00  0.00    -0.237 OA
ATOM     79  O   UNL A   1      37.181  28.688  33.009  1.00  0.00    -0.237 OA
ATOM     80  O   UNL A   1      37.971  30.907  33.695  1.00  0.00    -0.744 OA
ENDBRANCH  74  77
ENDBRANCH  46  70
BRANCH  58  81
ATOM     81  C   UNL A   1      45.962  33.255  29.993  1.00  0.00     0.023 A 
ATOM     82  C   UNL A   1      46.149  34.198  28.964  1.00  0.00     0.012 A 
ATOM     83  C   UNL A   1      46.046  33.666  31.337  1.00  0.00     0.148 A 
ATOM     84  C   UNL A   1      46.449  35.524  29.269  1.00  0.00     0.002 A 
ATOM     85  C   UNL A   1      46.293  35.000  31.633  1.00  0.00     0.091 A 
ATOM     86  F   UNL A   1      45.879  32.747  32.300  1.00  0.00    -0.205 F 
ATOM     87  C   UNL A   1      46.509  35.928  30.600  1.00  0.00     0.022 A 
BRANCH  85  88
ATOM     88  S   UNL A   1      46.285  35.629  33.315  1.00  0.00     0.127 S 
ATOM     89  O   UNL A   1      44.945  35.258  33.765  1.00  0.00    -0.237 OA
ATOM     90  O   UNL A   1      47.370  34.868  33.936  1.00  0.00    -0.237 OA
ATOM     91  O   UNL A   1      46.536  37.061  33.209  1.00  0.00    -0.744 OA
ENDBRANCH  85  88
ENDBRANCH  58  81
ENDBRANCH  32  33
ENDBRANCH  24  27
ENDBRANCH  22  23
ENDBRANCH  21  22
ENDBRANCH   1  21
TORSDOF 19
ENDMDL
