MODEL 1
REMARK VINA RESULT:     -12.0      0.000      0.000
REMARK SMILES Cc1nc(/C=C/C(=O)N2CCC[C@@H]2C(=O)NCCCNC(=O)c2ccc(-c3c4nc(c(-c5cccc(S(=O)(=O)[O-])c5F)c5ccc([nH]5)c(-c5cccc(S(=O)(=O)[O-])c5F)c5nc(c(-c6cccc(S(=O)(=O)[O-])c6F)c6ccc3[nH]6)C=C5)C=C4)cc2)cs1
REMARK SMILES IDX 18 1 17 2 16 3 14 4 15 5 13 7 9 8 10 9 11 10 12 11 7 12 8 13
REMARK SMILES IDX 6 14 5 15 4 16 1 17 2 18 3 19 87 20 86 21 19 22 20 23 21 24
REMARK SMILES IDX 22 26 23 27 24 28 85 29 25 30 84 31 26 32 27 33 28 34 78 35
REMARK SMILES IDX 29 36 83 37 77 38 79 39 30 40 82 41 76 42 75 43 31 45 63 46
REMARK SMILES IDX 43 47 62 48 44 49 47 50 61 51 80 52 45 53 46 54 60 56 81 57
REMARK SMILES IDX 48 58 32 59 33 60 41 61 34 62 36 63 42 64 35 65 37 66 38 67
REMARK SMILES IDX 39 68 40 69 64 70 65 71 73 72 66 73 68 74 74 75 67 76 69 77
REMARK SMILES IDX 70 78 71 79 72 80 49 81 50 82 58 83 51 84 53 85 59 86 52 87
REMARK SMILES IDX 54 88 55 89 56 90 57 91
REMARK H PARENT 16 6 20 25 79 44 47 55
REMARK Flexibility Score: inf
ROOT
ATOM      1  C   UNL A   1      34.909  21.766  26.592  1.00  0.00     0.042 C 
ENDROOT
BRANCH   1   2
ATOM      2  C   UNL A   1      34.319  22.928  27.368  1.00  0.00     0.117 C 
BRANCH   2   3
ATOM      3  N   UNL A   1      32.888  22.814  27.537  1.00  0.00    -0.354 N 
ATOM      4  C   UNL A   1      31.872  23.447  26.886  1.00  0.00     0.242 C 
ATOM      5  O   UNL A   1      30.738  23.313  27.363  1.00  0.00    -0.273 OA
ATOM      6  H   UNL A   1      32.603  22.180  28.233  1.00  0.00     0.163 HD
BRANCH   4   7
ATOM      7  C   UNL A   1      32.117  24.452  25.736  1.00  0.00     0.174 C 
ATOM      8  N   UNL A   1      32.576  23.904  24.458  1.00  0.00    -0.327 N 
ATOM      9  C   UNL A   1      33.603  24.757  23.883  1.00  0.00     0.121 C 
ATOM     10  C   UNL A   1      34.304  25.341  25.093  1.00  0.00     0.024 C 
ATOM     11  C   UNL A   1      33.193  25.478  26.134  1.00  0.00     0.037 C 
BRANCH   8  12
ATOM     12  C   UNL A   1      31.822  22.959  23.808  1.00  0.00     0.247 C 
ATOM     13  O   UNL A   1      30.651  23.150  23.485  1.00  0.00    -0.270 OA
BRANCH  12  14
ATOM     14  C   UNL A   1      32.383  21.599  23.578  1.00  0.00     0.073 C 
ATOM     15  C   UNL A   1      32.401  20.641  24.516  1.00  0.00     0.035 C 
BRANCH  15  16
ATOM     16  C   UNL A   1      32.710  19.262  24.354  1.00  0.00     0.074 A 
ATOM     17  C   UNL A   1      32.347  16.012  25.952  1.00  0.00     0.079 C 
ATOM     18  C   UNL A   1      32.619  17.179  25.070  1.00  0.00     0.090 A 
ATOM     19  N   UNL A   1      32.344  18.426  25.386  1.00  0.00    -0.242 NA
ATOM     20  S   UNL A   1      33.337  16.952  23.523  1.00  0.00    -0.127 S 
ATOM     21  C   UNL A   1      33.260  18.648  23.252  1.00  0.00     0.095 A 
ENDBRANCH  15  16
ENDBRANCH  12  14
ENDBRANCH   8  12
ENDBRANCH   4   7
ENDBRANCH   2   3
ENDBRANCH   1   2
BRANCH   1  22
ATOM     22  C   UNL A   1      36.162  22.138  25.822  1.00  0.00     0.118 C 
BRANCH  22  23
ATOM     23  N   UNL A   1      37.157  21.072  25.845  1.00  0.00    -0.352 N 
ATOM     24  C   UNL A   1      38.519  21.147  25.966  1.00  0.00     0.251 C 
ATOM     25  H   UNL A   1      36.795  20.160  25.760  1.00  0.00     0.163 HD
ATOM     26  O   UNL A   1      39.203  20.143  25.750  1.00  0.00    -0.269 OA
BRANCH  24  27
ATOM     27  C   UNL A   1      39.170  22.416  26.350  1.00  0.00     0.039 A 
ATOM     28  C   UNL A   1      40.230  22.390  27.260  1.00  0.00     0.014 A 
ATOM     29  C   UNL A   1      38.716  23.636  25.842  1.00  0.00     0.014 A 
ATOM     30  C   UNL A   1      40.854  23.582  27.631  1.00  0.00     0.010 A 
ATOM     31  C   UNL A   1      39.405  24.807  26.128  1.00  0.00     0.010 A 
ATOM     32  C   UNL A   1      40.457  24.799  27.053  1.00  0.00    -0.014 A 
BRANCH  32  33
ATOM     33  C   UNL A   1      41.090  26.083  27.438  1.00  0.00     0.031 A 
ATOM     34  C   UNL A   1      42.512  26.369  27.028  1.00  0.00     0.074 A 
ATOM     35  C   UNL A   1      40.421  26.952  28.221  1.00  0.00     0.049 A 
ATOM     36  N   UNL A   1      43.260  27.402  27.313  1.00  0.00    -0.248 NA
ATOM     37  C   UNL A   1      43.193  25.342  26.220  1.00  0.00     0.031 C 
ATOM     38  C   UNL A   1      39.072  26.748  28.751  1.00  0.00     0.029 A 
ATOM     39  N   UNL A   1      40.797  28.170  28.727  1.00  0.00    -0.354 N 
ATOM     40  C   UNL A   1      44.507  27.129  26.761  1.00  0.00     0.074 A 
ATOM     41  C   UNL A   1      44.428  25.816  26.161  1.00  0.00     0.031 C 
ATOM     42  C   UNL A   1      38.730  27.809  29.501  1.00  0.00     0.029 A 
ATOM     43  C   UNL A   1      39.844  28.752  29.528  1.00  0.00     0.049 A 
ATOM     44  H   UNL A   1      41.667  28.587  28.535  1.00  0.00     0.167 HD
ATOM     45  C   UNL A   1      45.610  27.914  26.724  1.00  0.00     0.034 A 
ATOM     46  C   UNL A   1      39.866  29.915  30.207  1.00  0.00     0.034 A 
ATOM     47  C   UNL A   1      45.665  29.240  27.275  1.00  0.00     0.049 A 
ATOM     48  C   UNL A   1      41.078  30.798  30.097  1.00  0.00     0.074 A 
ATOM     49  C   UNL A   1      46.700  30.155  27.216  1.00  0.00     0.029 A 
ATOM     50  N   UNL A   1      44.640  29.840  27.990  1.00  0.00    -0.354 N 
ATOM     51  N   UNL A   1      42.195  30.590  29.441  1.00  0.00    -0.248 NA
ATOM     52  C   UNL A   1      41.018  32.098  30.780  1.00  0.00     0.031 C 
ATOM     53  C   UNL A   1      46.309  31.302  27.916  1.00  0.00     0.029 A 
ATOM     54  C   UNL A   1      45.016  31.113  28.379  1.00  0.00     0.049 A 
ATOM     55  H   UNL A   1      43.772  29.423  28.190  1.00  0.00     0.167 HD
ATOM     56  C   UNL A   1      42.950  31.748  29.594  1.00  0.00     0.074 A 
ATOM     57  C   UNL A   1      42.155  32.659  30.392  1.00  0.00     0.031 C 
ATOM     58  C   UNL A   1      44.190  32.029  29.122  1.00  0.00     0.034 A 
BRANCH  45  59
ATOM     59  C   UNL A   1      46.829  27.374  26.020  1.00  0.00     0.023 A 
ATOM     60  C   UNL A   1      47.664  26.447  26.679  1.00  0.00     0.012 A 
ATOM     61  C   UNL A   1      47.130  27.751  24.697  1.00  0.00     0.148 A 
ATOM     62  C   UNL A   1      48.801  25.939  26.051  1.00  0.00     0.002 A 
ATOM     63  C   UNL A   1      48.236  27.202  24.059  1.00  0.00     0.091 A 
ATOM     64  F   UNL A   1      46.339  28.649  24.092  1.00  0.00    -0.205 F 
ATOM     65  C   UNL A   1      49.080  26.308  24.739  1.00  0.00     0.022 A 
BRANCH  63  66
ATOM     66  S   UNL A   1      48.632  27.546  22.341  1.00  0.00     0.127 S 
ATOM     67  O   UNL A   1      48.699  26.198  21.777  1.00  0.00    -0.237 OA
ATOM     68  O   UNL A   1      47.475  28.331  21.909  1.00  0.00    -0.237 OA
ATOM     69  O   UNL A   1      49.890  28.279  22.359  1.00  0.00    -0.744 OA
ENDBRANCH  63  66
ENDBRANCH  45  59
BRANCH  46  70
ATOM     70  C   UNL A   1      38.669  30.344  30.984  1.00  0.00     0.023 A 
ATOM     71  C   UNL A   1      38.583  30.024  32.354  1.00  0.00     0.012 A 
ATOM     72  C   UNL A   1      37.637  31.093  30.388  1.00  0.00     0.148 A 
ATOM     73  C   UNL A   1      37.474  30.411  33.107  1.00  0.00     0.002 A 
ATOM     74  C   UNL A   1      36.562  31.523  31.157  1.00  0.00     0.091 A 
ATOM     75  F   UNL A   1      37.735  31.383  29.083  1.00  0.00    -0.205 F 
ATOM     76  C   UNL A   1      36.469  31.167  32.512  1.00  0.00     0.022 A 
BRANCH  74  77
ATOM     77  S   UNL A   1      35.287  32.612  30.511  1.00  0.00     0.127 S 
ATOM     78  O   UNL A   1      36.059  33.804  30.166  1.00  0.00    -0.237 OA
ATOM     79  O   UNL A   1      34.792  31.846  29.366  1.00  0.00    -0.237 OA
ATOM     80  O   UNL A   1      34.323  32.774  31.588  1.00  0.00    -0.744 OA
ENDBRANCH  74  77
ENDBRANCH  46  70
BRANCH  58  81
ATOM     81  C   UNL A   1      44.748  33.399  29.402  1.00  0.00     0.023 A 
ATOM     82  C   UNL A   1      45.463  33.644  30.591  1.00  0.00     0.012 A 
ATOM     83  C   UNL A   1      44.621  34.427  28.446  1.00  0.00     0.148 A 
ATOM     84  C   UNL A   1      46.008  34.903  30.841  1.00  0.00     0.002 A 
ATOM     85  C   UNL A   1      45.214  35.661  28.679  1.00  0.00     0.091 A 
ATOM     86  F   UNL A   1      43.921  34.180  27.329  1.00  0.00    -0.205 F 
ATOM     87  C   UNL A   1      45.895  35.906  29.882  1.00  0.00     0.022 A 
BRANCH  85  88
ATOM     88  S   UNL A   1      45.203  36.974  27.453  1.00  0.00     0.127 S 
ATOM     89  O   UNL A   1      45.902  38.046  28.158  1.00  0.00    -0.237 OA
ATOM     90  O   UNL A   1      45.956  36.376  26.349  1.00  0.00    -0.237 OA
ATOM     91  O   UNL A   1      43.800  37.230  27.154  1.00  0.00    -0.744 OA
ENDBRANCH  85  88
ENDBRANCH  58  81
ENDBRANCH  32  33
ENDBRANCH  24  27
ENDBRANCH  22  23
ENDBRANCH   1  22
TORSDOF 16
ENDMDL
MODEL 2
REMARK VINA RESULT:     -12.0      5.607     10.500
REMARK SMILES Cc1nc(/C=C/C(=O)N2CCC[C@@H]2C(=O)NCCCNC(=O)c2ccc(-c3c4nc(c(-c5cccc(S(=O)(=O)[O-])c5F)c5ccc([nH]5)c(-c5cccc(S(=O)(=O)[O-])c5F)c5nc(c(-c6cccc(S(=O)(=O)[O-])c6F)c6ccc3[nH]6)C=C5)C=C4)cc2)cs1
REMARK SMILES IDX 18 1 17 2 16 3 14 4 15 5 13 7 9 8 10 9 11 10 12 11 7 12 8 13
REMARK SMILES IDX 6 14 5 15 4 16 1 17 2 18 3 19 87 20 86 21 19 22 20 23 21 24
REMARK SMILES IDX 22 26 23 27 24 28 85 29 25 30 84 31 26 32 27 33 28 34 78 35
REMARK SMILES IDX 29 36 83 37 77 38 79 39 30 40 82 41 76 42 75 43 31 45 63 46
REMARK SMILES IDX 43 47 62 48 44 49 47 50 61 51 80 52 45 53 46 54 60 56 81 57
REMARK SMILES IDX 48 58 32 59 33 60 41 61 34 62 36 63 42 64 35 65 37 66 38 67
REMARK SMILES IDX 39 68 40 69 64 70 65 71 73 72 66 73 68 74 74 75 67 76 69 77
REMARK SMILES IDX 70 78 71 79 72 80 49 81 50 82 58 83 51 84 53 85 59 86 52 87
REMARK SMILES IDX 54 88 55 89 56 90 57 91
REMARK H PARENT 16 6 20 25 79 44 47 55
REMARK Flexibility Score: inf
ROOT
ATOM      1  C   UNL A   1      33.145  29.130  24.023  1.00  0.00     0.042 C 
ENDROOT
BRANCH   1   2
ATOM      2  C   UNL A   1      34.086  28.008  23.629  1.00  0.00     0.117 C 
BRANCH   2   3
ATOM      3  N   UNL A   1      33.716  27.387  22.377  1.00  0.00    -0.354 N 
ATOM      4  C   UNL A   1      33.325  26.110  22.109  1.00  0.00     0.242 C 
ATOM      5  O   UNL A   1      33.256  25.788  20.917  1.00  0.00    -0.273 OA
ATOM      6  H   UNL A   1      33.755  27.982  21.593  1.00  0.00     0.163 HD
BRANCH   4   7
ATOM      7  C   UNL A   1      33.168  25.038  23.214  1.00  0.00     0.174 C 
ATOM      8  N   UNL A   1      32.199  25.313  24.278  1.00  0.00    -0.327 N 
ATOM      9  C   UNL A   1      32.738  24.909  25.566  1.00  0.00     0.121 C 
ATOM     10  C   UNL A   1      34.230  25.128  25.416  1.00  0.00     0.024 C 
ATOM     11  C   UNL A   1      34.504  24.814  23.945  1.00  0.00     0.037 C 
BRANCH   8  12
ATOM     12  C   UNL A   1      30.883  25.542  23.963  1.00  0.00     0.247 C 
ATOM     13  O   UNL A   1      30.147  24.669  23.508  1.00  0.00    -0.270 OA
BRANCH  12  14
ATOM     14  C   UNL A   1      30.333  26.922  24.055  1.00  0.00     0.073 C 
ATOM     15  C   UNL A   1      29.907  27.618  22.991  1.00  0.00     0.035 C 
BRANCH  15  16
ATOM     16  C   UNL A   1      29.177  28.840  22.980  1.00  0.00     0.074 A 
ATOM     17  C   UNL A   1      29.347  32.317  24.042  1.00  0.00     0.079 C 
ATOM     18  C   UNL A   1      29.015  30.981  23.476  1.00  0.00     0.090 A 
ATOM     19  N   UNL A   1      29.757  29.906  23.632  1.00  0.00    -0.242 NA
ATOM     20  S   UNL A   1      27.583  30.761  22.548  1.00  0.00    -0.127 S 
ATOM     21  C   UNL A   1      27.995  29.107  22.326  1.00  0.00     0.095 A 
ENDBRANCH  15  16
ENDBRANCH  12  14
ENDBRANCH   8  12
ENDBRANCH   4   7
ENDBRANCH   2   3
ENDBRANCH   1   2
BRANCH   1  22
ATOM     22  C   UNL A   1      32.993  29.280  25.525  1.00  0.00     0.118 C 
BRANCH  22  23
ATOM     23  N   UNL A   1      32.641  30.643  25.909  1.00  0.00    -0.352 N 
ATOM     24  C   UNL A   1      33.141  31.428  26.913  1.00  0.00     0.251 C 
ATOM     25  H   UNL A   1      31.938  31.062  25.362  1.00  0.00     0.163 HD
ATOM     26  O   UNL A   1      32.562  32.476  27.208  1.00  0.00    -0.269 OA
BRANCH  24  27
ATOM     27  C   UNL A   1      34.361  31.026  27.643  1.00  0.00     0.039 A 
ATOM     28  C   UNL A   1      35.396  31.952  27.800  1.00  0.00     0.014 A 
ATOM     29  C   UNL A   1      34.502  29.729  28.143  1.00  0.00     0.014 A 
ATOM     30  C   UNL A   1      36.554  31.585  28.488  1.00  0.00     0.010 A 
ATOM     31  C   UNL A   1      35.606  29.400  28.918  1.00  0.00     0.010 A 
ATOM     32  C   UNL A   1      36.660  30.311  29.068  1.00  0.00    -0.014 A 
BRANCH  32  33
ATOM     33  C   UNL A   1      37.883  29.888  29.791  1.00  0.00     0.031 A 
ATOM     34  C   UNL A   1      38.160  30.424  31.172  1.00  0.00     0.074 A 
ATOM     35  C   UNL A   1      38.781  29.090  29.180  1.00  0.00     0.049 A 
ATOM     36  N   UNL A   1      39.196  30.223  31.943  1.00  0.00    -0.248 NA
ATOM     37  C   UNL A   1      37.155  31.336  31.747  1.00  0.00     0.031 C 
ATOM     38  C   UNL A   1      38.664  28.575  27.814  1.00  0.00     0.029 A 
ATOM     39  N   UNL A   1      39.981  28.595  29.622  1.00  0.00    -0.354 N 
ATOM     40  C   UNL A   1      38.991  31.014  33.068  1.00  0.00     0.074 A 
ATOM     41  C   UNL A   1      37.753  31.732  32.861  1.00  0.00     0.031 C 
ATOM     42  C   UNL A   1      39.745  27.829  27.533  1.00  0.00     0.029 A 
ATOM     43  C   UNL A   1      40.642  27.836  28.685  1.00  0.00     0.049 A 
ATOM     44  H   UNL A   1      40.335  28.766  30.523  1.00  0.00     0.167 HD
ATOM     45  C   UNL A   1      39.744  31.111  34.188  1.00  0.00     0.034 A 
ATOM     46  C   UNL A   1      41.837  27.218  28.748  1.00  0.00     0.034 A 
ATOM     47  C   UNL A   1      40.946  30.354  34.409  1.00  0.00     0.049 A 
ATOM     48  C   UNL A   1      42.624  27.286  30.027  1.00  0.00     0.074 A 
ATOM     49  C   UNL A   1      41.738  30.307  35.542  1.00  0.00     0.029 A 
ATOM     50  N   UNL A   1      41.530  29.512  33.476  1.00  0.00    -0.354 N 
ATOM     51  N   UNL A   1      42.338  27.919  31.140  1.00  0.00    -0.248 NA
ATOM     52  C   UNL A   1      43.877  26.519  30.078  1.00  0.00     0.031 C 
ATOM     53  C   UNL A   1      42.816  29.452  35.285  1.00  0.00     0.029 A 
ATOM     54  C   UNL A   1      42.673  28.940  34.004  1.00  0.00     0.049 A 
ATOM     55  H   UNL A   1      41.182  29.344  32.571  1.00  0.00     0.167 HD
ATOM     56  C   UNL A   1      43.348  27.589  32.038  1.00  0.00     0.074 A 
ATOM     57  C   UNL A   1      44.245  26.689  31.341  1.00  0.00     0.031 C 
ATOM     58  C   UNL A   1      43.521  28.000  33.318  1.00  0.00     0.034 A 
BRANCH  45  59
ATOM     59  C   UNL A   1      39.260  32.032  35.279  1.00  0.00     0.023 A 
ATOM     60  C   UNL A   1      38.273  31.587  36.183  1.00  0.00     0.012 A 
ATOM     61  C   UNL A   1      39.806  33.320  35.436  1.00  0.00     0.148 A 
ATOM     62  C   UNL A   1      37.805  32.424  37.196  1.00  0.00     0.002 A 
ATOM     63  C   UNL A   1      39.372  34.130  36.479  1.00  0.00     0.091 A 
ATOM     64  F   UNL A   1      40.728  33.737  34.556  1.00  0.00    -0.205 F 
ATOM     65  C   UNL A   1      38.361  33.689  37.349  1.00  0.00     0.022 A 
BRANCH  63  66
ATOM     66  S   UNL A   1      40.087  35.743  36.814  1.00  0.00     0.127 S 
ATOM     67  O   UNL A   1      39.528  36.046  38.132  1.00  0.00    -0.237 OA
ATOM     68  O   UNL A   1      41.520  35.451  36.814  1.00  0.00    -0.237 OA
ATOM     69  O   UNL A   1      39.644  36.611  35.733  1.00  0.00    -0.744 OA
ENDBRANCH  63  66
ENDBRANCH  45  59
BRANCH  46  70
ATOM     70  C   UNL A   1      42.319  26.413  27.589  1.00  0.00     0.023 A 
ATOM     71  C   UNL A   1      43.184  27.007  26.648  1.00  0.00     0.012 A 
ATOM     72  C   UNL A   1      41.956  25.063  27.432  1.00  0.00     0.148 A 
ATOM     73  C   UNL A   1      43.651  26.280  25.553  1.00  0.00     0.002 A 
ATOM     74  C   UNL A   1      42.470  24.328  26.369  1.00  0.00     0.091 A 
ATOM     75  F   UNL A   1      41.129  24.518  28.335  1.00  0.00    -0.205 F 
ATOM     76  C   UNL A   1      43.301  24.940  25.418  1.00  0.00     0.022 A 
BRANCH  74  77
ATOM     77  S   UNL A   1      42.182  22.564  26.188  1.00  0.00     0.127 S 
ATOM     78  O   UNL A   1      42.919  22.265  24.962  1.00  0.00    -0.237 OA
ATOM     79  O   UNL A   1      42.784  22.034  27.413  1.00  0.00    -0.237 OA
ATOM     80  O   UNL A   1      40.737  22.406  26.112  1.00  0.00    -0.744 OA
ENDBRANCH  74  77
ENDBRANCH  46  70
BRANCH  58  81
ATOM     81  C   UNL A   1      44.692  27.435  34.079  1.00  0.00     0.023 A 
ATOM     82  C   UNL A   1      45.948  28.071  34.021  1.00  0.00     0.012 A 
ATOM     83  C   UNL A   1      44.524  26.310  34.910  1.00  0.00     0.148 A 
ATOM     84  C   UNL A   1      47.028  27.570  34.747  1.00  0.00     0.002 A 
ATOM     85  C   UNL A   1      45.589  25.849  35.672  1.00  0.00     0.091 A 
ATOM     86  F   UNL A   1      43.325  25.707  34.937  1.00  0.00    -0.205 F 
ATOM     87  C   UNL A   1      46.847  26.469  35.581  1.00  0.00     0.022 A 
BRANCH  85  88
ATOM     88  S   UNL A   1      45.415  24.502  36.847  1.00  0.00     0.127 S 
ATOM     89  O   UNL A   1      45.072  23.384  35.971  1.00  0.00    -0.237 OA
ATOM     90  O   UNL A   1      46.752  24.428  37.438  1.00  0.00    -0.237 OA
ATOM     91  O   UNL A   1      44.371  24.915  37.776  1.00  0.00    -0.744 OA
ENDBRANCH  85  88
ENDBRANCH  58  81
ENDBRANCH  32  33
ENDBRANCH  24  27
ENDBRANCH  22  23
ENDBRANCH   1  22
TORSDOF 16
ENDMDL
MODEL 3
REMARK VINA RESULT:     -11.9      5.595      8.054
REMARK SMILES Cc1nc(/C=C/C(=O)N2CCC[C@@H]2C(=O)NCCCNC(=O)c2ccc(-c3c4nc(c(-c5cccc(S(=O)(=O)[O-])c5F)c5ccc([nH]5)c(-c5cccc(S(=O)(=O)[O-])c5F)c5nc(c(-c6cccc(S(=O)(=O)[O-])c6F)c6ccc3[nH]6)C=C5)C=C4)cc2)cs1
REMARK SMILES IDX 18 1 17 2 16 3 14 4 15 5 13 7 9 8 10 9 11 10 12 11 7 12 8 13
REMARK SMILES IDX 6 14 5 15 4 16 1 17 2 18 3 19 87 20 86 21 19 22 20 23 21 24
REMARK SMILES IDX 22 26 23 27 24 28 85 29 25 30 84 31 26 32 27 33 28 34 78 35
REMARK SMILES IDX 29 36 83 37 77 38 79 39 30 40 82 41 76 42 75 43 31 45 63 46
REMARK SMILES IDX 43 47 62 48 44 49 47 50 61 51 80 52 45 53 46 54 60 56 81 57
REMARK SMILES IDX 48 58 32 59 33 60 41 61 34 62 36 63 42 64 35 65 37 66 38 67
REMARK SMILES IDX 39 68 40 69 64 70 65 71 73 72 66 73 68 74 74 75 67 76 69 77
REMARK SMILES IDX 70 78 71 79 72 80 49 81 50 82 58 83 51 84 53 85 59 86 52 87
REMARK SMILES IDX 54 88 55 89 56 90 57 91
REMARK H PARENT 16 6 20 25 79 44 47 55
REMARK Flexibility Score: inf
ROOT
ATOM      1  C   UNL A   1      33.275  29.127  23.654  1.00  0.00     0.042 C 
ENDROOT
BRANCH   1   2
ATOM      2  C   UNL A   1      34.260  28.138  23.063  1.00  0.00     0.117 C 
BRANCH   2   3
ATOM      3  N   UNL A   1      33.729  27.447  21.910  1.00  0.00    -0.354 N 
ATOM      4  C   UNL A   1      33.122  26.231  21.814  1.00  0.00     0.242 C 
ATOM      5  O   UNL A   1      32.940  25.789  20.673  1.00  0.00    -0.273 OA
ATOM      6  H   UNL A   1      33.823  27.932  21.058  1.00  0.00     0.163 HD
BRANCH   4   7
ATOM      7  C   UNL A   1      32.849  25.336  23.046  1.00  0.00     0.174 C 
ATOM      8  N   UNL A   1      31.963  25.876  24.080  1.00  0.00    -0.327 N 
ATOM      9  C   UNL A   1      32.479  25.560  25.401  1.00  0.00     0.121 C 
ATOM     10  C   UNL A   1      33.982  25.542  25.206  1.00  0.00     0.024 C 
ATOM     11  C   UNL A   1      34.163  25.015  23.782  1.00  0.00     0.037 C 
BRANCH   8  12
ATOM     12  C   UNL A   1      30.683  26.251  23.756  1.00  0.00     0.247 C 
ATOM     13  O   UNL A   1      29.824  25.446  23.400  1.00  0.00    -0.270 OA
BRANCH  12  14
ATOM     14  C   UNL A   1      30.328  27.696  23.712  1.00  0.00     0.073 C 
ATOM     15  C   UNL A   1      29.788  28.290  22.638  1.00  0.00     0.035 C 
BRANCH  15  16
ATOM     16  C   UNL A   1      29.219  29.590  22.550  1.00  0.00     0.074 A 
ATOM     17  C   UNL A   1      27.928  32.025  20.173  1.00  0.00     0.079 C 
ATOM     18  C   UNL A   1      28.363  31.233  21.355  1.00  0.00     0.090 A 
ATOM     19  N   UNL A   1      28.953  30.059  21.282  1.00  0.00    -0.242 NA
ATOM     20  S   UNL A   1      28.107  31.832  22.946  1.00  0.00    -0.127 S 
ATOM     21  C   UNL A   1      28.826  30.408  23.586  1.00  0.00     0.095 A 
ENDBRANCH  15  16
ENDBRANCH  12  14
ENDBRANCH   8  12
ENDBRANCH   4   7
ENDBRANCH   2   3
ENDBRANCH   1   2
BRANCH   1  22
ATOM     22  C   UNL A   1      33.325  29.187  25.169  1.00  0.00     0.118 C 
BRANCH  22  23
ATOM     23  N   UNL A   1      32.699  30.396  25.693  1.00  0.00    -0.352 N 
ATOM     24  C   UNL A   1      33.014  31.138  26.800  1.00  0.00     0.251 C 
ATOM     25  H   UNL A   1      31.933  30.730  25.171  1.00  0.00     0.163 HD
ATOM     26  O   UNL A   1      32.230  32.006  27.191  1.00  0.00    -0.269 OA
BRANCH  24  27
ATOM     27  C   UNL A   1      34.279  30.902  27.525  1.00  0.00     0.039 A 
ATOM     28  C   UNL A   1      35.188  31.954  27.669  1.00  0.00     0.014 A 
ATOM     29  C   UNL A   1      34.587  29.638  28.036  1.00  0.00     0.014 A 
ATOM     30  C   UNL A   1      36.386  31.745  28.353  1.00  0.00     0.010 A 
ATOM     31  C   UNL A   1      35.729  29.460  28.806  1.00  0.00     0.010 A 
ATOM     32  C   UNL A   1      36.657  30.500  28.943  1.00  0.00    -0.014 A 
BRANCH  32  33
ATOM     33  C   UNL A   1      37.929  30.243  29.662  1.00  0.00     0.031 A 
ATOM     34  C   UNL A   1      38.965  29.337  29.049  1.00  0.00     0.074 A 
ATOM     35  C   UNL A   1      38.118  30.756  30.893  1.00  0.00     0.049 A 
ATOM     36  N   UNL A   1      40.110  28.942  29.541  1.00  0.00    -0.248 NA
ATOM     37  C   UNL A   1      38.657  28.771  27.723  1.00  0.00     0.031 C 
ATOM     38  C   UNL A   1      37.153  31.579  31.625  1.00  0.00     0.029 A 
ATOM     39  N   UNL A   1      39.177  30.638  31.756  1.00  0.00    -0.354 N 
ATOM     40  C   UNL A   1      40.635  28.051  28.611  1.00  0.00     0.074 A 
ATOM     41  C   UNL A   1      39.665  27.930  27.545  1.00  0.00     0.031 C 
ATOM     42  C   UNL A   1      37.668  31.899  32.823  1.00  0.00     0.029 A 
ATOM     43  C   UNL A   1      38.985  31.282  32.956  1.00  0.00     0.049 A 
ATOM     44  H   UNL A   1      39.997  30.140  31.538  1.00  0.00     0.167 HD
ATOM     45  C   UNL A   1      41.831  27.417  28.622  1.00  0.00     0.034 A 
ATOM     46  C   UNL A   1      39.780  31.365  34.039  1.00  0.00     0.034 A 
ATOM     47  C   UNL A   1      42.812  27.584  29.658  1.00  0.00     0.049 A 
ATOM     48  C   UNL A   1      41.131  30.706  34.001  1.00  0.00     0.074 A 
ATOM     49  C   UNL A   1      44.091  27.061  29.726  1.00  0.00     0.029 A 
ATOM     50  N   UNL A   1      42.624  28.331  30.810  1.00  0.00    -0.354 N 
ATOM     51  N   UNL A   1      41.675  29.990  33.045  1.00  0.00    -0.248 NA
ATOM     52  C   UNL A   1      42.000  30.902  35.170  1.00  0.00     0.031 C 
ATOM     53  C   UNL A   1      44.668  27.473  30.932  1.00  0.00     0.029 A 
ATOM     54  C   UNL A   1      43.760  28.283  31.597  1.00  0.00     0.049 A 
ATOM     55  H   UNL A   1      41.802  28.824  31.035  1.00  0.00     0.167 HD
ATOM     56  C   UNL A   1      42.962  29.691  33.476  1.00  0.00     0.074 A 
ATOM     57  C   UNL A   1      43.122  30.316  34.774  1.00  0.00     0.031 C 
ATOM     58  C   UNL A   1      43.923  28.960  32.858  1.00  0.00     0.034 A 
BRANCH  45  59
ATOM     59  C   UNL A   1      42.160  26.524  27.452  1.00  0.00     0.023 A 
ATOM     60  C   UNL A   1      42.804  27.065  26.320  1.00  0.00     0.012 A 
ATOM     61  C   UNL A   1      41.869  25.147  27.487  1.00  0.00     0.148 A 
ATOM     62  C   UNL A   1      43.112  26.260  25.224  1.00  0.00     0.002 A 
ATOM     63  C   UNL A   1      42.225  24.341  26.412  1.00  0.00     0.091 A 
ATOM     64  F   UNL A   1      41.237  24.653  28.561  1.00  0.00    -0.205 F 
ATOM     65  C   UNL A   1      42.832  24.898  25.274  1.00  0.00     0.022 A 
BRANCH  63  66
ATOM     66  S   UNL A   1      41.986  22.561  26.416  1.00  0.00     0.127 S 
ATOM     67  O   UNL A   1      40.527  22.458  26.399  1.00  0.00    -0.237 OA
ATOM     68  O   UNL A   1      42.639  22.160  25.169  1.00  0.00    -0.237 OA
ATOM     69  O   UNL A   1      42.633  22.072  27.624  1.00  0.00    -0.744 OA
ENDBRANCH  63  66
ENDBRANCH  45  59
BRANCH  46  70
ATOM     70  C   UNL A   1      39.349  32.170  35.217  1.00  0.00     0.023 A 
ATOM     71  C   UNL A   1      38.502  31.585  36.181  1.00  0.00     0.012 A 
ATOM     72  C   UNL A   1      39.797  33.490  35.407  1.00  0.00     0.148 A 
ATOM     73  C   UNL A   1      38.081  32.313  37.293  1.00  0.00     0.002 A 
ATOM     74  C   UNL A   1      39.419  34.191  36.547  1.00  0.00     0.091 A 
ATOM     75  F   UNL A   1      40.597  34.029  34.477  1.00  0.00    -0.205 F 
ATOM     76  C   UNL A   1      38.545  33.612  37.481  1.00  0.00     0.022 A 
BRANCH  74  77
ATOM     77  S   UNL A   1      40.071  35.819  36.939  1.00  0.00     0.127 S 
ATOM     78  O   UNL A   1      39.619  36.606  35.795  1.00  0.00    -0.237 OA
ATOM     79  O   UNL A   1      39.392  36.117  38.201  1.00  0.00    -0.237 OA
ATOM     80  O   UNL A   1      41.512  35.647  37.059  1.00  0.00    -0.744 OA
ENDBRANCH  74  77
ENDBRANCH  46  70
BRANCH  58  81
ATOM     81  C   UNL A   1      45.258  28.841  33.544  1.00  0.00     0.023 A 
ATOM     82  C   UNL A   1      46.284  29.765  33.265  1.00  0.00     0.012 A 
ATOM     83  C   UNL A   1      45.468  27.849  34.523  1.00  0.00     0.148 A 
ATOM     84  C   UNL A   1      47.512  29.678  33.920  1.00  0.00     0.002 A 
ATOM     85  C   UNL A   1      46.674  27.802  35.210  1.00  0.00     0.091 A 
ATOM     86  F   UNL A   1      44.486  26.967  34.762  1.00  0.00    -0.205 F 
ATOM     87  C   UNL A   1      47.703  28.706  34.900  1.00  0.00     0.022 A 
BRANCH  85  88
ATOM     88  S   UNL A   1      46.965  26.650  36.556  1.00  0.00     0.127 S 
ATOM     89  O   UNL A   1      46.791  25.361  35.889  1.00  0.00    -0.237 OA
ATOM     90  O   UNL A   1      48.343  26.959  36.940  1.00  0.00    -0.237 OA
ATOM     91  O   UNL A   1      45.973  26.967  37.575  1.00  0.00    -0.744 OA
ENDBRANCH  85  88
ENDBRANCH  58  81
ENDBRANCH  32  33
ENDBRANCH  24  27
ENDBRANCH  22  23
ENDBRANCH   1  22
TORSDOF 16
ENDMDL
