MODEL 1
REMARK VINA RESULT:     -11.6      0.000      0.000
REMARK SMILES CCCc1cc(OCC(=O)NCCCNC(=O)c2ccc(-c3c4nc(c(-c5cccc(S(=O)(=O)[O-])c5F)c5ccc([nH]5)c(-c5cccc(S(=O)(=O)[O-])c5F)c5nc(c(-c6cccc(S(=O)(=O)[O-])c6F)c6ccc3[nH]6)C=C5)C=C4)cc2)nc(Nc2ccc(C#N)cc2)n1
REMARK SMILES IDX 12 1 11 2 9 3 10 4 8 6 7 7 6 8 4 9 5 10 92 11 82 12 81 13
REMARK SMILES IDX 3 14 2 15 1 16 83 17 84 19 85 20 91 21 86 22 90 23 87 24
REMARK SMILES IDX 88 25 89 26 13 27 14 28 15 29 16 30 17 32 18 33 19 34 80 35
REMARK SMILES IDX 20 36 79 37 21 38 22 39 23 40 73 41 24 42 78 43 72 44 74 45
REMARK SMILES IDX 25 46 77 47 71 48 70 49 26 51 58 52 38 53 57 54 39 55 42 56
REMARK SMILES IDX 56 57 75 58 40 59 41 60 55 62 76 63 43 64 27 65 28 66 36 67
REMARK SMILES IDX 29 68 31 69 37 70 30 71 32 72 33 73 34 74 35 75 59 76 60 77
REMARK SMILES IDX 68 78 61 79 63 80 69 81 62 82 64 83 65 84 66 85 67 86 44 87
REMARK SMILES IDX 45 88 53 89 46 90 48 91 54 92 47 93 49 94 50 95 51 96 52 97
REMARK H PARENT 11 5 83 18 15 31 74 50 42 61
REMARK Flexibility Score: inf
ROOT
ATOM      1  C   UNL A   1      31.514  30.809  26.059  1.00  0.00     0.117 C 
ENDROOT
BRANCH   1   2
ATOM      2  N   UNL A   1      32.683  30.024  26.409  1.00  0.00    -0.353 N 
ATOM      3  C   UNL A   1      32.725  28.778  26.958  1.00  0.00     0.258 C 
ATOM      4  O   UNL A   1      33.820  28.242  27.142  1.00  0.00    -0.271 OA
ATOM      5  H   UNL A   1      33.555  30.446  26.229  1.00  0.00     0.163 HD
BRANCH   3   6
ATOM      6  C   UNL A   1      31.416  28.060  27.309  1.00  0.00     0.331 C 
BRANCH   6   7
ATOM      7  O   UNL A   1      31.423  26.648  27.198  1.00  0.00    -0.467 OA
BRANCH   7   8
ATOM      8  C   UNL A   1      31.164  26.093  25.975  1.00  0.00     0.218 A 
ATOM      9  C   UNL A   1      31.453  24.608  24.189  1.00  0.00     0.050 A 
ATOM     10  C   UNL A   1      31.896  25.077  25.402  1.00  0.00     0.092 A 
ATOM     11  N   UNL A   1      30.392  25.154  23.581  1.00  0.00    -0.218 NA
ATOM     12  C   UNL A   1      29.731  26.154  24.186  1.00  0.00     0.230 A 
ATOM     13  N   UNL A   1      30.095  26.651  25.374  1.00  0.00    -0.177 NA
BRANCH   9  14
ATOM     14  C   UNL A   1      32.195  23.520  23.457  1.00  0.00     0.056 C 
BRANCH  14  15
ATOM     15  C   UNL A   1      33.491  23.962  22.769  1.00  0.00     0.003 C 
ATOM     16  C   UNL A   1      34.708  23.124  23.128  1.00  0.00     0.004 C 
ENDBRANCH  14  15
ENDBRANCH   9  14
BRANCH  12  17
ATOM     17  N   UNL A   1      28.652  26.737  23.523  1.00  0.00    -0.324 N 
ATOM     18  H   UNL A   1      27.894  26.149  23.303  1.00  0.00     0.170 HD
BRANCH  17  19
ATOM     19  C   UNL A   1      28.543  28.078  23.141  1.00  0.00     0.041 A 
ATOM     20  C   UNL A   1      27.333  28.762  23.271  1.00  0.00     0.027 A 
ATOM     21  C   UNL A   1      29.673  28.791  22.719  1.00  0.00     0.027 A 
ATOM     22  C   UNL A   1      27.276  30.148  23.076  1.00  0.00     0.021 A 
ATOM     23  C   UNL A   1      29.622  30.172  22.510  1.00  0.00     0.021 A 
ATOM     24  C   UNL A   1      28.427  30.860  22.719  1.00  0.00     0.052 A 
BRANCH  24  25
ATOM     25  C   UNL A   1      28.396  32.289  22.628  1.00  0.00     0.099 C 
ATOM     26  N   UNL A   1      28.405  33.452  22.593  1.00  0.00    -0.192 NA
ENDBRANCH  24  25
ENDBRANCH  17  19
ENDBRANCH  12  17
ENDBRANCH   7   8
ENDBRANCH   6   7
ENDBRANCH   3   6
ENDBRANCH   1   2
BRANCH   1  27
ATOM     27  C   UNL A   1      31.391  32.085  26.883  1.00  0.00     0.042 C 
BRANCH  27  28
ATOM     28  C   UNL A   1      32.650  32.949  26.897  1.00  0.00     0.118 C 
BRANCH  28  29
ATOM     29  N   UNL A   1      32.477  34.197  27.631  1.00  0.00    -0.352 N 
ATOM     30  C   UNL A   1      33.098  34.655  28.766  1.00  0.00     0.251 C 
ATOM     31  H   UNL A   1      31.806  34.810  27.251  1.00  0.00     0.163 HD
ATOM     32  O   UNL A   1      32.668  35.665  29.319  1.00  0.00    -0.269 OA
BRANCH  30  33
ATOM     33  C   UNL A   1      34.260  33.938  29.335  1.00  0.00     0.039 A 
ATOM     34  C   UNL A   1      35.545  34.333  28.956  1.00  0.00     0.014 A 
ATOM     35  C   UNL A   1      34.092  32.869  30.220  1.00  0.00     0.014 A 
ATOM     36  C   UNL A   1      36.658  33.706  29.520  1.00  0.00     0.010 A 
ATOM     37  C   UNL A   1      35.201  32.303  30.844  1.00  0.00     0.010 A 
ATOM     38  C   UNL A   1      36.498  32.714  30.502  1.00  0.00    -0.014 A 
BRANCH  38  39
ATOM     39  C   UNL A   1      37.672  32.123  31.196  1.00  0.00     0.031 A 
ATOM     40  C   UNL A   1      38.445  30.993  30.568  1.00  0.00     0.074 A 
ATOM     41  C   UNL A   1      38.000  32.556  32.430  1.00  0.00     0.049 A 
ATOM     42  N   UNL A   1      39.459  30.323  31.051  1.00  0.00    -0.248 NA
ATOM     43  C   UNL A   1      38.013  30.545  29.233  1.00  0.00     0.031 C 
ATOM     44  C   UNL A   1      37.291  33.598  33.177  1.00  0.00     0.029 A 
ATOM     45  N   UNL A   1      38.996  32.156  33.289  1.00  0.00    -0.354 N 
ATOM     46  C   UNL A   1      39.762  29.353  30.103  1.00  0.00     0.074 A 
ATOM     47  C   UNL A   1      38.812  29.507  29.023  1.00  0.00     0.031 C 
ATOM     48  C   UNL A   1      37.873  33.756  34.376  1.00  0.00     0.029 A 
ATOM     49  C   UNL A   1      38.963  32.795  34.507  1.00  0.00     0.049 A 
ATOM     50  H   UNL A   1      39.667  31.475  33.055  1.00  0.00     0.167 HD
ATOM     51  C   UNL A   1      40.752  28.429  30.122  1.00  0.00     0.034 A 
ATOM     52  C   UNL A   1      39.705  32.611  35.618  1.00  0.00     0.034 A 
ATOM     53  C   UNL A   1      41.709  28.292  31.186  1.00  0.00     0.049 A 
ATOM     54  C   UNL A   1      40.800  31.579  35.604  1.00  0.00     0.074 A 
ATOM     55  C   UNL A   1      42.800  27.441  31.251  1.00  0.00     0.029 A 
ATOM     56  N   UNL A   1      41.681  28.998  32.378  1.00  0.00    -0.354 N 
ATOM     57  N   UNL A   1      41.166  30.777  34.635  1.00  0.00    -0.248 NA
ATOM     58  C   UNL A   1      41.606  31.448  36.826  1.00  0.00     0.031 C 
ATOM     59  C   UNL A   1      43.396  27.591  32.507  1.00  0.00     0.029 A 
ATOM     60  C   UNL A   1      42.718  28.583  33.196  1.00  0.00     0.049 A 
ATOM     61  H   UNL A   1      41.021  29.691  32.608  1.00  0.00     0.167 HD
ATOM     62  C   UNL A   1      42.267  30.077  35.115  1.00  0.00     0.074 A 
ATOM     63  C   UNL A   1      42.523  30.568  36.453  1.00  0.00     0.031 C 
ATOM     64  C   UNL A   1      42.994  29.108  34.508  1.00  0.00     0.034 A 
BRANCH  51  65
ATOM     65  C   UNL A   1      40.872  27.492  28.949  1.00  0.00     0.023 A 
ATOM     66  C   UNL A   1      39.989  26.401  28.824  1.00  0.00     0.012 A 
ATOM     67  C   UNL A   1      41.796  27.755  27.918  1.00  0.00     0.148 A 
ATOM     68  C   UNL A   1      40.040  25.571  27.704  1.00  0.00     0.002 A 
ATOM     69  C   UNL A   1      41.808  26.954  26.782  1.00  0.00     0.091 A 
ATOM     70  F   UNL A   1      42.637  28.788  28.064  1.00  0.00    -0.205 F 
ATOM     71  C   UNL A   1      40.939  25.855  26.679  1.00  0.00     0.022 A 
BRANCH  69  72
ATOM     72  S   UNL A   1      42.867  27.287  25.371  1.00  0.00     0.127 S 
ATOM     73  O   UNL A   1      44.154  27.529  26.020  1.00  0.00    -0.237 OA
ATOM     74  O   UNL A   1      42.785  26.030  24.627  1.00  0.00    -0.237 OA
ATOM     75  O   UNL A   1      42.289  28.438  24.693  1.00  0.00    -0.744 OA
ENDBRANCH  69  72
ENDBRANCH  51  65
BRANCH  52  76
ATOM     76  C   UNL A   1      39.446  33.423  36.842  1.00  0.00     0.023 A 
ATOM     77  C   UNL A   1      39.947  34.736  36.934  1.00  0.00     0.012 A 
ATOM     78  C   UNL A   1      38.719  32.888  37.923  1.00  0.00     0.148 A 
ATOM     79  C   UNL A   1      39.778  35.481  38.102  1.00  0.00     0.002 A 
ATOM     80  C   UNL A   1      38.498  33.659  39.059  1.00  0.00     0.091 A 
ATOM     81  F   UNL A   1      38.255  31.635  37.820  1.00  0.00    -0.205 F 
ATOM     82  C   UNL A   1      39.048  34.945  39.161  1.00  0.00     0.022 A 
BRANCH  80  83
ATOM     83  S   UNL A   1      37.462  33.100  40.413  1.00  0.00     0.127 S 
ATOM     84  O   UNL A   1      37.547  34.225  41.340  1.00  0.00    -0.237 OA
ATOM     85  O   UNL A   1      36.166  32.941  39.753  1.00  0.00    -0.237 OA
ATOM     86  O   UNL A   1      38.054  31.852  40.877  1.00  0.00    -0.744 OA
ENDBRANCH  80  83
ENDBRANCH  52  76
BRANCH  64  87
ATOM     87  C   UNL A   1      44.180  28.549  35.251  1.00  0.00     0.023 A 
ATOM     88  C   UNL A   1      45.472  29.063  35.025  1.00  0.00     0.012 A 
ATOM     89  C   UNL A   1      43.998  27.546  36.224  1.00  0.00     0.148 A 
ATOM     90  C   UNL A   1      46.568  28.560  35.724  1.00  0.00     0.002 A 
ATOM     91  C   UNL A   1      45.083  27.091  36.959  1.00  0.00     0.091 A 
ATOM     92  F   UNL A   1      42.763  27.059  36.414  1.00  0.00    -0.205 F 
ATOM     93  C   UNL A   1      46.372  27.583  36.698  1.00  0.00     0.022 A 
BRANCH  91  94
ATOM     94  S   UNL A   1      44.914  25.909  38.301  1.00  0.00     0.127 S 
ATOM     95  O   UNL A   1      46.309  25.696  38.686  1.00  0.00    -0.237 OA
ATOM     96  O   UNL A   1      44.120  26.659  39.273  1.00  0.00    -0.237 OA
ATOM     97  O   UNL A   1      44.243  24.748  37.734  1.00  0.00    -0.744 OA
ENDBRANCH  91  94
ENDBRANCH  64  87
ENDBRANCH  38  39
ENDBRANCH  30  33
ENDBRANCH  28  29
ENDBRANCH  27  28
ENDBRANCH   1  27
TORSDOF 20
ENDMDL
MODEL 2
REMARK VINA RESULT:     -11.2      6.328     11.845
REMARK SMILES CCCc1cc(OCC(=O)NCCCNC(=O)c2ccc(-c3c4nc(c(-c5cccc(S(=O)(=O)[O-])c5F)c5ccc([nH]5)c(-c5cccc(S(=O)(=O)[O-])c5F)c5nc(c(-c6cccc(S(=O)(=O)[O-])c6F)c6ccc3[nH]6)C=C5)C=C4)cc2)nc(Nc2ccc(C#N)cc2)n1
REMARK SMILES IDX 12 1 11 2 9 3 10 4 8 6 7 7 6 8 4 9 5 10 92 11 82 12 81 13
REMARK SMILES IDX 3 14 2 15 1 16 83 17 84 19 85 20 91 21 86 22 90 23 87 24
REMARK SMILES IDX 88 25 89 26 13 27 14 28 15 29 16 30 17 32 18 33 19 34 80 35
REMARK SMILES IDX 20 36 79 37 21 38 22 39 23 40 73 41 24 42 78 43 72 44 74 45
REMARK SMILES IDX 25 46 77 47 71 48 70 49 26 51 58 52 38 53 57 54 39 55 42 56
REMARK SMILES IDX 56 57 75 58 40 59 41 60 55 62 76 63 43 64 27 65 28 66 36 67
REMARK SMILES IDX 29 68 31 69 37 70 30 71 32 72 33 73 34 74 35 75 59 76 60 77
REMARK SMILES IDX 68 78 61 79 63 80 69 81 62 82 64 83 65 84 66 85 67 86 44 87
REMARK SMILES IDX 45 88 53 89 46 90 48 91 54 92 47 93 49 94 50 95 51 96 52 97
REMARK H PARENT 11 5 83 18 15 31 74 50 42 61
REMARK Flexibility Score: inf
ROOT
ATOM      1  C   UNL A   1      36.162  20.193  24.658  1.00  0.00     0.117 C 
ENDROOT
BRANCH   1   2
ATOM      2  N   UNL A   1      35.842  21.222  25.630  1.00  0.00    -0.353 N 
ATOM      3  C   UNL A   1      36.045  22.566  25.529  1.00  0.00     0.258 C 
ATOM      4  O   UNL A   1      35.661  23.299  26.443  1.00  0.00    -0.271 OA
ATOM      5  H   UNL A   1      35.428  20.910  26.468  1.00  0.00     0.163 HD
BRANCH   3   6
ATOM      6  C   UNL A   1      36.720  23.139  24.277  1.00  0.00     0.331 C 
BRANCH   6   7
ATOM      7  O   UNL A   1      35.915  23.236  23.116  1.00  0.00    -0.467 OA
BRANCH   7   8
ATOM      8  C   UNL A   1      34.562  23.365  23.275  1.00  0.00     0.218 A 
ATOM      9  C   UNL A   1      32.535  24.500  23.552  1.00  0.00     0.050 A 
ATOM     10  C   UNL A   1      33.905  24.560  23.467  1.00  0.00     0.092 A 
ATOM     11  N   UNL A   1      31.887  23.328  23.500  1.00  0.00    -0.218 NA
ATOM     12  C   UNL A   1      32.590  22.197  23.328  1.00  0.00     0.230 A 
ATOM     13  N   UNL A   1      33.924  22.181  23.221  1.00  0.00    -0.177 NA
BRANCH   9  14
ATOM     14  C   UNL A   1      31.715  25.741  23.793  1.00  0.00     0.056 C 
BRANCH  14  15
ATOM     15  C   UNL A   1      30.403  25.521  24.553  1.00  0.00     0.003 C 
ATOM     16  C   UNL A   1      29.224  26.314  24.010  1.00  0.00     0.004 C 
ENDBRANCH  14  15
ENDBRANCH   9  14
BRANCH  12  17
ATOM     17  N   UNL A   1      31.906  20.983  23.313  1.00  0.00    -0.324 N 
ATOM     18  H   UNL A   1      30.983  20.996  22.973  1.00  0.00     0.170 HD
BRANCH  17  19
ATOM     19  C   UNL A   1      32.407  19.748  23.738  1.00  0.00     0.041 A 
ATOM     20  C   UNL A   1      32.552  19.465  25.098  1.00  0.00     0.027 A 
ATOM     21  C   UNL A   1      32.674  18.732  22.811  1.00  0.00     0.027 A 
ATOM     22  C   UNL A   1      32.864  18.168  25.524  1.00  0.00     0.021 A 
ATOM     23  C   UNL A   1      32.999  17.438  23.227  1.00  0.00     0.021 A 
ATOM     24  C   UNL A   1      33.064  17.145  24.589  1.00  0.00     0.052 A 
BRANCH  24  25
ATOM     25  C   UNL A   1      33.273  15.797  25.025  1.00  0.00     0.099 C 
ATOM     26  N   UNL A   1      33.427  14.685  25.332  1.00  0.00    -0.192 NA
ENDBRANCH  24  25
ENDBRANCH  17  19
ENDBRANCH  12  17
ENDBRANCH   7   8
ENDBRANCH   6   7
ENDBRANCH   3   6
ENDBRANCH   1   2
BRANCH   1  27
ATOM     27  C   UNL A   1      37.351  19.337  25.075  1.00  0.00     0.042 C 
BRANCH  27  28
ATOM     28  C   UNL A   1      38.620  20.128  25.386  1.00  0.00     0.118 C 
BRANCH  28  29
ATOM     29  N   UNL A   1      39.747  19.279  25.752  1.00  0.00    -0.352 N 
ATOM     30  C   UNL A   1      41.000  19.609  26.203  1.00  0.00     0.251 C 
ATOM     31  H   UNL A   1      39.582  18.312  25.661  1.00  0.00     0.163 HD
ATOM     32  O   UNL A   1      41.860  18.733  26.281  1.00  0.00    -0.269 OA
BRANCH  30  33
ATOM     33  C   UNL A   1      41.328  21.003  26.575  1.00  0.00     0.039 A 
ATOM     34  C   UNL A   1      42.056  21.232  27.746  1.00  0.00     0.014 A 
ATOM     35  C   UNL A   1      40.907  22.082  25.794  1.00  0.00     0.014 A 
ATOM     36  C   UNL A   1      42.422  22.535  28.091  1.00  0.00     0.010 A 
ATOM     37  C   UNL A   1      41.345  23.369  26.094  1.00  0.00     0.010 A 
ATOM     38  C   UNL A   1      42.108  23.612  27.245  1.00  0.00    -0.014 A 
BRANCH  38  39
ATOM     39  C   UNL A   1      42.594  24.986  27.539  1.00  0.00     0.031 A 
ATOM     40  C   UNL A   1      41.686  25.998  28.187  1.00  0.00     0.074 A 
ATOM     41  C   UNL A   1      43.835  25.347  27.154  1.00  0.00     0.049 A 
ATOM     42  N   UNL A   1      41.923  27.254  28.467  1.00  0.00    -0.248 NA
ATOM     43  C   UNL A   1      40.332  25.549  28.553  1.00  0.00     0.031 C 
ATOM     44  C   UNL A   1      44.789  24.481  26.456  1.00  0.00     0.029 A 
ATOM     45  N   UNL A   1      44.499  26.545  27.266  1.00  0.00    -0.354 N 
ATOM     46  C   UNL A   1      40.742  27.754  29.003  1.00  0.00     0.074 A 
ATOM     47  C   UNL A   1      39.782  26.673  28.992  1.00  0.00     0.031 C 
ATOM     48  C   UNL A   1      45.912  25.172  26.206  1.00  0.00     0.029 A 
ATOM     49  C   UNL A   1      45.743  26.543  26.677  1.00  0.00     0.049 A 
ATOM     50  H   UNL A   1      44.120  27.330  27.722  1.00  0.00     0.167 HD
ATOM     51  C   UNL A   1      40.486  28.997  29.478  1.00  0.00     0.034 A 
ATOM     52  C   UNL A   1      46.637  27.537  26.507  1.00  0.00     0.034 A 
ATOM     53  C   UNL A   1      41.450  30.064  29.509  1.00  0.00     0.049 A 
ATOM     54  C   UNL A   1      46.324  28.905  27.050  1.00  0.00     0.074 A 
ATOM     55  C   UNL A   1      41.306  31.331  30.050  1.00  0.00     0.029 A 
ATOM     56  N   UNL A   1      42.719  30.007  28.958  1.00  0.00    -0.354 N 
ATOM     57  N   UNL A   1      45.257  29.314  27.691  1.00  0.00    -0.248 NA
ATOM     58  C   UNL A   1      47.351  29.942  26.874  1.00  0.00     0.031 C 
ATOM     59  C   UNL A   1      42.468  32.058  29.774  1.00  0.00     0.029 A 
ATOM     60  C   UNL A   1      43.360  31.223  29.122  1.00  0.00     0.049 A 
ATOM     61  H   UNL A   1      43.108  29.217  28.516  1.00  0.00     0.167 HD
ATOM     62  C   UNL A   1      45.501  30.640  28.030  1.00  0.00     0.074 A 
ATOM     63  C   UNL A   1      46.827  30.958  27.544  1.00  0.00     0.031 C 
ATOM     64  C   UNL A   1      44.697  31.518  28.676  1.00  0.00     0.034 A 
BRANCH  51  65
ATOM     65  C   UNL A   1      39.111  29.280  30.022  1.00  0.00     0.023 A 
ATOM     66  C   UNL A   1      38.795  28.941  31.353  1.00  0.00     0.012 A 
ATOM     67  C   UNL A   1      38.165  29.976  29.243  1.00  0.00     0.148 A 
ATOM     68  C   UNL A   1      37.551  29.267  31.892  1.00  0.00     0.002 A 
ATOM     69  C   UNL A   1      36.947  30.342  29.802  1.00  0.00     0.091 A 
ATOM     70  F   UNL A   1      38.480  30.275  27.975  1.00  0.00    -0.205 F 
ATOM     71  C   UNL A   1      36.634  29.978  31.122  1.00  0.00     0.022 A 
BRANCH  69  72
ATOM     72  S   UNL A   1      35.734  31.332  28.923  1.00  0.00     0.127 S 
ATOM     73  O   UNL A   1      36.578  32.357  28.311  1.00  0.00    -0.237 OA
ATOM     74  O   UNL A   1      35.174  30.361  27.984  1.00  0.00    -0.237 OA
ATOM     75  O   UNL A   1      34.801  31.818  29.930  1.00  0.00    -0.744 OA
ENDBRANCH  69  72
ENDBRANCH  51  65
BRANCH  52  76
ATOM     76  C   UNL A   1      47.922  27.283  25.793  1.00  0.00     0.023 A 
ATOM     77  C   UNL A   1      49.058  26.867  26.515  1.00  0.00     0.012 A 
ATOM     78  C   UNL A   1      48.025  27.471  24.401  1.00  0.00     0.148 A 
ATOM     79  C   UNL A   1      50.285  26.698  25.874  1.00  0.00     0.002 A 
ATOM     80  C   UNL A   1      49.235  27.238  23.758  1.00  0.00     0.091 A 
ATOM     81  F   UNL A   1      46.937  27.873  23.731  1.00  0.00    -0.205 F 
ATOM     82  C   UNL A   1      50.372  26.876  24.495  1.00  0.00     0.022 A 
BRANCH  80  83
ATOM     83  S   UNL A   1      49.406  27.316  21.973  1.00  0.00     0.127 S 
ATOM     84  O   UNL A   1      50.855  27.264  21.807  1.00  0.00    -0.237 OA
ATOM     85  O   UNL A   1      48.693  26.110  21.551  1.00  0.00    -0.237 OA
ATOM     86  O   UNL A   1      48.767  28.561  21.567  1.00  0.00    -0.744 OA
ENDBRANCH  80  83
ENDBRANCH  52  76
BRANCH  64  87
ATOM     87  C   UNL A   1      45.241  32.895  28.957  1.00  0.00     0.023 A 
ATOM     88  C   UNL A   1      46.063  33.123  30.078  1.00  0.00     0.012 A 
ATOM     89  C   UNL A   1      44.981  33.955  28.066  1.00  0.00     0.148 A 
ATOM     90  C   UNL A   1      46.583  34.392  30.330  1.00  0.00     0.002 A 
ATOM     91  C   UNL A   1      45.550  35.202  28.289  1.00  0.00     0.091 A 
ATOM     92  F   UNL A   1      44.185  33.722  27.012  1.00  0.00    -0.205 F 
ATOM     93  C   UNL A   1      46.336  35.427  29.431  1.00  0.00     0.022 A 
BRANCH  91  94
ATOM     94  S   UNL A   1      45.370  36.566  27.136  1.00  0.00     0.127 S 
ATOM     95  O   UNL A   1      46.358  36.223  26.113  1.00  0.00    -0.237 OA
ATOM     96  O   UNL A   1      43.978  36.428  26.709  1.00  0.00    -0.237 OA
ATOM     97  O   UNL A   1      45.657  37.776  27.893  1.00  0.00    -0.744 OA
ENDBRANCH  91  94
ENDBRANCH  64  87
ENDBRANCH  38  39
ENDBRANCH  30  33
ENDBRANCH  28  29
ENDBRANCH  27  28
ENDBRANCH   1  27
TORSDOF 20
ENDMDL
MODEL 3
REMARK VINA RESULT:     -11.0      3.129      8.911
REMARK SMILES CCCc1cc(OCC(=O)NCCCNC(=O)c2ccc(-c3c4nc(c(-c5cccc(S(=O)(=O)[O-])c5F)c5ccc([nH]5)c(-c5cccc(S(=O)(=O)[O-])c5F)c5nc(c(-c6cccc(S(=O)(=O)[O-])c6F)c6ccc3[nH]6)C=C5)C=C4)cc2)nc(Nc2ccc(C#N)cc2)n1
REMARK SMILES IDX 12 1 11 2 9 3 10 4 8 6 7 7 6 8 4 9 5 10 92 11 82 12 81 13
REMARK SMILES IDX 3 14 2 15 1 16 83 17 84 19 85 20 91 21 86 22 90 23 87 24
REMARK SMILES IDX 88 25 89 26 13 27 14 28 15 29 16 30 17 32 18 33 19 34 80 35
REMARK SMILES IDX 20 36 79 37 21 38 22 39 23 40 73 41 24 42 78 43 72 44 74 45
REMARK SMILES IDX 25 46 77 47 71 48 70 49 26 51 58 52 38 53 57 54 39 55 42 56
REMARK SMILES IDX 56 57 75 58 40 59 41 60 55 62 76 63 43 64 27 65 28 66 36 67
REMARK SMILES IDX 29 68 31 69 37 70 30 71 32 72 33 73 34 74 35 75 59 76 60 77
REMARK SMILES IDX 68 78 61 79 63 80 69 81 62 82 64 83 65 84 66 85 67 86 44 87
REMARK SMILES IDX 45 88 53 89 46 90 48 91 54 92 47 93 49 94 50 95 51 96 52 97
REMARK H PARENT 11 5 83 18 15 31 74 50 42 61
REMARK Flexibility Score: inf
ROOT
ATOM      1  C   UNL A   1      31.205  27.405  25.444  1.00  0.00     0.117 C 
ENDROOT
BRANCH   1   2
ATOM      2  N   UNL A   1      30.790  27.908  24.148  1.00  0.00    -0.353 N 
ATOM      3  C   UNL A   1      30.677  27.221  22.976  1.00  0.00     0.258 C 
ATOM      4  O   UNL A   1      30.257  27.807  21.976  1.00  0.00    -0.271 OA
ATOM      5  H   UNL A   1      30.563  28.865  24.109  1.00  0.00     0.163 HD
BRANCH   3   6
ATOM      6  C   UNL A   1      31.048  25.733  22.932  1.00  0.00     0.331 C 
BRANCH   6   7
ATOM      7  O   UNL A   1      32.259  25.405  22.275  1.00  0.00    -0.467 OA
BRANCH   7   8
ATOM      8  C   UNL A   1      32.963  24.319  22.721  1.00  0.00     0.218 A 
ATOM      9  C   UNL A   1      34.845  23.139  23.458  1.00  0.00     0.050 A 
ATOM     10  C   UNL A   1      34.319  24.307  22.958  1.00  0.00     0.092 A 
ATOM     11  N   UNL A   1      34.076  22.060  23.652  1.00  0.00    -0.218 NA
ATOM     12  C   UNL A   1      32.762  22.133  23.384  1.00  0.00     0.230 A 
ATOM     13  N   UNL A   1      32.178  23.241  22.911  1.00  0.00    -0.177 NA
BRANCH   9  14
ATOM     14  C   UNL A   1      36.322  23.003  23.726  1.00  0.00     0.056 C 
BRANCH  14  15
ATOM     15  C   UNL A   1      36.818  23.677  25.009  1.00  0.00     0.003 C 
ATOM     16  C   UNL A   1      36.845  22.764  26.225  1.00  0.00     0.004 C 
ENDBRANCH  14  15
ENDBRANCH   9  14
BRANCH  12  17
ATOM     17  N   UNL A   1      31.981  20.991  23.555  1.00  0.00    -0.324 N 
ATOM     18  H   UNL A   1      31.013  21.087  23.409  1.00  0.00     0.170 HD
BRANCH  17  19
ATOM     19  C   UNL A   1      32.444  19.721  23.914  1.00  0.00     0.041 A 
ATOM     20  C   UNL A   1      32.716  19.411  25.248  1.00  0.00     0.027 A 
ATOM     21  C   UNL A   1      32.545  18.703  22.956  1.00  0.00     0.027 A 
ATOM     22  C   UNL A   1      32.988  18.090  25.629  1.00  0.00     0.021 A 
ATOM     23  C   UNL A   1      32.828  17.386  23.326  1.00  0.00     0.021 A 
ATOM     24  C   UNL A   1      33.020  17.071  24.671  1.00  0.00     0.052 A 
BRANCH  24  25
ATOM     25  C   UNL A   1      33.187  15.706  25.072  1.00  0.00     0.099 C 
ATOM     26  N   UNL A   1      33.370  14.598  25.376  1.00  0.00    -0.192 NA
ENDBRANCH  24  25
ENDBRANCH  17  19
ENDBRANCH  12  17
ENDBRANCH   7   8
ENDBRANCH   6   7
ENDBRANCH   3   6
ENDBRANCH   1   2
BRANCH   1  27
ATOM     27  C   UNL A   1      31.694  28.507  26.376  1.00  0.00     0.042 C 
BRANCH  27  28
ATOM     28  C   UNL A   1      32.716  29.453  25.750  1.00  0.00     0.118 C 
BRANCH  28  29
ATOM     29  N   UNL A   1      32.517  30.845  26.136  1.00  0.00    -0.352 N 
ATOM     30  C   UNL A   1      33.184  31.619  27.052  1.00  0.00     0.251 C 
ATOM     31  H   UNL A   1      31.784  31.303  25.663  1.00  0.00     0.163 HD
ATOM     32  O   UNL A   1      32.730  32.722  27.349  1.00  0.00    -0.269 OA
BRANCH  30  33
ATOM     33  C   UNL A   1      34.425  31.132  27.694  1.00  0.00     0.039 A 
ATOM     34  C   UNL A   1      35.451  32.045  27.953  1.00  0.00     0.014 A 
ATOM     35  C   UNL A   1      34.593  29.784  28.022  1.00  0.00     0.014 A 
ATOM     36  C   UNL A   1      36.610  31.619  28.604  1.00  0.00     0.010 A 
ATOM     37  C   UNL A   1      35.711  29.380  28.746  1.00  0.00     0.010 A 
ATOM     38  C   UNL A   1      36.734  30.291  29.047  1.00  0.00    -0.014 A 
BRANCH  38  39
ATOM     39  C   UNL A   1      37.909  29.855  29.846  1.00  0.00     0.031 A 
ATOM     40  C   UNL A   1      38.143  30.406  31.228  1.00  0.00     0.074 A 
ATOM     41  C   UNL A   1      38.810  29.016  29.296  1.00  0.00     0.049 A 
ATOM     42  N   UNL A   1      39.140  30.180  32.044  1.00  0.00    -0.248 NA
ATOM     43  C   UNL A   1      37.139  31.345  31.756  1.00  0.00     0.031 C 
ATOM     44  C   UNL A   1      38.735  28.463  27.941  1.00  0.00     0.029 A 
ATOM     45  N   UNL A   1      39.982  28.501  29.796  1.00  0.00    -0.354 N 
ATOM     46  C   UNL A   1      38.906  30.974  33.160  1.00  0.00     0.074 A 
ATOM     47  C   UNL A   1      37.683  31.703  32.911  1.00  0.00     0.031 C 
ATOM     48  C   UNL A   1      39.808  27.688  27.719  1.00  0.00     0.029 A 
ATOM     49  C   UNL A   1      40.674  27.726  28.892  1.00  0.00     0.049 A 
ATOM     50  H   UNL A   1      40.298  28.672  30.712  1.00  0.00     0.167 HD
ATOM     51  C   UNL A   1      39.634  31.072  34.298  1.00  0.00     0.034 A 
ATOM     52  C   UNL A   1      41.882  27.137  28.983  1.00  0.00     0.034 A 
ATOM     53  C   UNL A   1      40.839  30.329  34.554  1.00  0.00     0.049 A 
ATOM     54  C   UNL A   1      42.665  27.263  30.263  1.00  0.00     0.074 A 
ATOM     55  C   UNL A   1      41.597  30.301  35.712  1.00  0.00     0.029 A 
ATOM     56  N   UNL A   1      41.477  29.508  33.638  1.00  0.00    -0.354 N 
ATOM     57  N   UNL A   1      42.347  27.897  31.365  1.00  0.00    -0.248 NA
ATOM     58  C   UNL A   1      43.958  26.565  30.324  1.00  0.00     0.031 C 
ATOM     59  C   UNL A   1      42.725  29.508  35.476  1.00  0.00     0.029 A 
ATOM     60  C   UNL A   1      42.633  28.990  34.196  1.00  0.00     0.049 A 
ATOM     61  H   UNL A   1      41.155  29.322  32.727  1.00  0.00     0.167 HD
ATOM     62  C   UNL A   1      43.379  27.641  32.261  1.00  0.00     0.074 A 
ATOM     63  C   UNL A   1      44.319  26.775  31.581  1.00  0.00     0.031 C 
ATOM     64  C   UNL A   1      43.540  28.092  33.529  1.00  0.00     0.034 A 
BRANCH  51  65
ATOM     65  C   UNL A   1      39.149  32.009  35.374  1.00  0.00     0.023 A 
ATOM     66  C   UNL A   1      38.235  31.555  36.345  1.00  0.00     0.012 A 
ATOM     67  C   UNL A   1      39.680  33.310  35.479  1.00  0.00     0.148 A 
ATOM     68  C   UNL A   1      37.837  32.388  37.390  1.00  0.00     0.002 A 
ATOM     69  C   UNL A   1      39.318  34.117  36.550  1.00  0.00     0.091 A 
ATOM     70  F   UNL A   1      40.536  33.727  34.536  1.00  0.00    -0.205 F 
ATOM     71  C   UNL A   1      38.388  33.662  37.499  1.00  0.00     0.022 A 
BRANCH  69  72
ATOM     72  S   UNL A   1      40.035  35.740  36.829  1.00  0.00     0.127 S 
ATOM     73  O   UNL A   1      39.652  36.444  35.606  1.00  0.00    -0.237 OA
ATOM     74  O   UNL A   1      39.330  36.180  38.033  1.00  0.00    -0.237 OA
ATOM     75  O   UNL A   1      41.465  35.527  36.999  1.00  0.00    -0.744 OA
ENDBRANCH  69  72
ENDBRANCH  51  65
BRANCH  52  76
ATOM     76  C   UNL A   1      42.435  26.366  27.832  1.00  0.00     0.023 A 
ATOM     77  C   UNL A   1      43.321  26.988  26.930  1.00  0.00     0.012 A 
ATOM     78  C   UNL A   1      42.069  25.024  27.618  1.00  0.00     0.148 A 
ATOM     79  C   UNL A   1      43.788  26.305  25.807  1.00  0.00     0.002 A 
ATOM     80  C   UNL A   1      42.589  24.328  26.532  1.00  0.00     0.091 A 
ATOM     81  F   UNL A   1      41.220  24.451  28.482  1.00  0.00    -0.205 F 
ATOM     82  C   UNL A   1      43.427  24.974  25.612  1.00  0.00     0.022 A 
BRANCH  80  83
ATOM     83  S   UNL A   1      42.283  22.578  26.277  1.00  0.00     0.127 S 
ATOM     84  O   UNL A   1      42.872  21.992  27.478  1.00  0.00    -0.237 OA
ATOM     85  O   UNL A   1      40.823  22.533  26.220  1.00  0.00    -0.237 OA
ATOM     86  O   UNL A   1      42.942  22.239  25.021  1.00  0.00    -0.744 OA
ENDBRANCH  80  83
ENDBRANCH  52  76
BRANCH  64  87
ATOM     87  C   UNL A   1      44.744  27.613  34.298  1.00  0.00     0.023 A 
ATOM     88  C   UNL A   1      45.949  28.341  34.265  1.00  0.00     0.012 A 
ATOM     89  C   UNL A   1      44.655  26.462  35.107  1.00  0.00     0.148 A 
ATOM     90  C   UNL A   1      47.059  27.909  34.991  1.00  0.00     0.002 A 
ATOM     91  C   UNL A   1      45.744  26.070  35.874  1.00  0.00     0.091 A 
ATOM     92  F   UNL A   1      43.504  25.774  35.114  1.00  0.00    -0.205 F 
ATOM     93  C   UNL A   1      46.953  26.782  35.803  1.00  0.00     0.022 A 
BRANCH  91  94
ATOM     94  S   UNL A   1      45.671  24.693  37.023  1.00  0.00     0.127 S 
ATOM     95  O   UNL A   1      44.524  23.941  36.513  1.00  0.00    -0.237 OA
ATOM     96  O   UNL A   1      46.966  24.047  36.813  1.00  0.00    -0.237 OA
ATOM     97  O   UNL A   1      45.490  25.277  38.345  1.00  0.00    -0.744 OA
ENDBRANCH  91  94
ENDBRANCH  64  87
ENDBRANCH  38  39
ENDBRANCH  30  33
ENDBRANCH  28  29
ENDBRANCH  27  28
ENDBRANCH   1  27
TORSDOF 20
ENDMDL
