MODEL 1
REMARK VINA RESULT:     -13.6      0.000      0.000
REMARK SMILES Cc1cc(C)n(C)c(=O)c1C(=O)N1CCC2(CC1)C[NH2+][C@@H](C(=O)NCCCNC(=O)c1ccc(-c3c4nc(c(-c5cccc(S(=O)(=O)[O-])c5F)c5ccc([nH]5)c(-c5cccc(S(=O)(=O)[O-])c5F)c5nc(c(-c6cccc(S(=O)(=O)[O-])c6F)c6ccc3[nH]6)C=C5)C=C4)cc1)C2
REMARK SMILES IDX 27 1 26 2 25 3 24 4 22 5 23 6 21 8 11 9 12 10 13 11 14 12
REMARK SMILES IDX 18 13 15 14 17 15 16 16 19 17 94 18 20 19 10 22 1 23 2 24
REMARK SMILES IDX 3 25 4 26 8 27 5 28 6 29 9 30 7 31 28 32 29 33 30 35 31 36
REMARK SMILES IDX 32 37 93 38 33 39 92 40 34 41 35 42 36 43 86 44 37 45 91 46
REMARK SMILES IDX 85 47 87 48 38 49 90 50 84 51 83 52 39 54 71 55 51 56 70 57
REMARK SMILES IDX 52 58 55 59 69 60 88 61 53 62 54 63 68 65 89 66 56 67 40 68
REMARK SMILES IDX 41 69 49 70 42 71 44 72 50 73 43 74 45 75 46 76 47 77 48 78
REMARK SMILES IDX 72 79 73 80 81 81 74 82 76 83 82 84 75 85 77 86 78 87 79 88
REMARK SMILES IDX 80 89 57 90 58 91 66 92 59 93 61 94 67 95 60 96 62 97 63 98
REMARK SMILES IDX 64 99 65 100
REMARK H PARENT 24 7 20 20 20 21 28 34 87 53 55 64
REMARK Flexibility Score: inf
ROOT
ATOM      1  C   UNL A   1      32.760  32.630  27.337  1.00  0.00     0.118 C 
ENDROOT
BRANCH   1   2
ATOM      2  C   UNL A   1      31.466  31.982  26.877  1.00  0.00     0.042 C 
BRANCH   2   3
ATOM      3  C   UNL A   1      31.666  30.889  25.838  1.00  0.00     0.118 C 
BRANCH   3   4
ATOM      4  N   UNL A   1      30.552  30.791  24.910  1.00  0.00    -0.351 N 
ATOM      5  C   UNL A   1      30.340  29.922  23.879  1.00  0.00     0.278 C 
ATOM      6  O   UNL A   1      29.272  30.009  23.263  1.00  0.00    -0.268 OA
ATOM      7  H   UNL A   1      29.837  31.455  25.047  1.00  0.00     0.163 HD
BRANCH   5   8
ATOM      8  C   UNL A   1      31.389  28.882  23.472  1.00  0.00     0.273 C 
ATOM      9  C   UNL A   1      33.394  22.862  25.179  1.00  0.00     0.259 C 
ATOM     10  O   UNL A   1      34.546  22.834  25.628  1.00  0.00    -0.269 OA
ATOM     11  N   UNL A   1      32.733  24.083  25.076  1.00  0.00    -0.338 N 
ATOM     12  C   UNL A   1      33.548  25.285  25.155  1.00  0.00     0.120 C 
ATOM     13  C   UNL A   1      31.296  24.348  25.061  1.00  0.00     0.120 C 
ATOM     14  C   UNL A   1      33.361  26.064  23.865  1.00  0.00     0.034 C 
ATOM     15  C   UNL A   1      30.884  25.355  23.961  1.00  0.00     0.034 C 
ATOM     16  C   UNL A   1      31.898  26.499  23.645  1.00  0.00     0.029 C 
ATOM     17  C   UNL A   1      31.775  26.983  22.177  1.00  0.00     0.268 C 
ATOM     18  C   UNL A   1      31.573  27.757  24.483  1.00  0.00     0.088 C 
ATOM     19  N   UNL A   1      31.023  28.224  22.209  1.00  0.00    -0.336 N 
ATOM     20  H   UNL A   1      30.022  28.034  22.185  1.00  0.00     0.346 HD
ATOM     21  H   UNL A   1      31.236  28.813  21.403  1.00  0.00     0.346 HD
BRANCH   9  22
ATOM     22  C   UNL A   1      32.845  21.583  24.597  1.00  0.00     0.108 A 
ATOM     23  C   UNL A   1      32.634  22.415  22.183  1.00  0.00     0.045 C 
ATOM     24  C   UNL A   1      32.578  21.402  23.282  1.00  0.00    -0.031 A 
ATOM     25  C   UNL A   1      32.307  20.081  22.752  1.00  0.00     0.026 A 
ATOM     26  C   UNL A   1      32.493  18.971  23.475  1.00  0.00     0.018 A 
ATOM     27  C   UNL A   1      32.926  20.334  25.463  1.00  0.00     0.263 A 
ATOM     28  C   UNL A   1      32.331  17.638  22.795  1.00  0.00     0.064 C 
ATOM     29  N   UNL A   1      32.828  19.085  24.817  1.00  0.00    -0.315 N 
ATOM     30  O   UNL A   1      33.108  20.424  26.676  1.00  0.00    -0.268 OA
ATOM     31  C   UNL A   1      33.042  17.890  25.625  1.00  0.00     0.153 C 
ENDBRANCH   9  22
ENDBRANCH   5   8
ENDBRANCH   3   4
ENDBRANCH   2   3
ENDBRANCH   1   2
BRANCH   1  32
ATOM     32  N   UNL A   1      32.590  34.040  27.666  1.00  0.00    -0.352 N 
ATOM     33  C   UNL A   1      33.185  34.787  28.648  1.00  0.00     0.251 C 
ATOM     34  H   UNL A   1      31.951  34.528  27.097  1.00  0.00     0.163 HD
ATOM     35  O   UNL A   1      32.761  35.917  28.895  1.00  0.00    -0.269 OA
BRANCH  33  36
ATOM     36  C   UNL A   1      34.318  34.235  29.418  1.00  0.00     0.039 A 
ATOM     37  C   UNL A   1      34.053  33.424  30.524  1.00  0.00     0.014 A 
ATOM     38  C   UNL A   1      35.638  34.518  29.055  1.00  0.00     0.014 A 
ATOM     39  C   UNL A   1      35.112  32.851  31.229  1.00  0.00     0.010 A 
ATOM     40  C   UNL A   1      36.687  33.874  29.700  1.00  0.00     0.010 A 
ATOM     41  C   UNL A   1      36.436  33.046  30.803  1.00  0.00    -0.014 A 
BRANCH  41  42
ATOM     42  C   UNL A   1      37.572  32.397  31.504  1.00  0.00     0.031 A 
ATOM     43  C   UNL A   1      38.297  31.245  30.865  1.00  0.00     0.074 A 
ATOM     44  C   UNL A   1      37.912  32.808  32.742  1.00  0.00     0.049 A 
ATOM     45  N   UNL A   1      39.295  30.541  31.331  1.00  0.00    -0.248 NA
ATOM     46  C   UNL A   1      37.827  30.813  29.537  1.00  0.00     0.031 C 
ATOM     47  C   UNL A   1      37.240  33.872  33.491  1.00  0.00     0.029 A 
ATOM     48  N   UNL A   1      38.895  32.372  33.593  1.00  0.00    -0.354 N 
ATOM     49  C   UNL A   1      39.557  29.573  30.370  1.00  0.00     0.074 A 
ATOM     50  C   UNL A   1      38.583  29.748  29.316  1.00  0.00     0.031 C 
ATOM     51  C   UNL A   1      37.845  34.021  34.679  1.00  0.00     0.029 A 
ATOM     52  C   UNL A   1      38.923  33.043  34.794  1.00  0.00     0.049 A 
ATOM     53  H   UNL A   1      39.522  31.647  33.366  1.00  0.00     0.167 HD
ATOM     54  C   UNL A   1      40.545  28.648  30.347  1.00  0.00     0.034 A 
ATOM     55  C   UNL A   1      39.726  32.888  35.866  1.00  0.00     0.034 A 
ATOM     56  C   UNL A   1      41.531  28.503  31.383  1.00  0.00     0.049 A 
ATOM     57  C   UNL A   1      40.818  31.854  35.816  1.00  0.00     0.074 A 
ATOM     58  C   UNL A   1      42.611  27.641  31.422  1.00  0.00     0.029 A 
ATOM     59  N   UNL A   1      41.555  29.229  32.564  1.00  0.00    -0.354 N 
ATOM     60  N   UNL A   1      41.142  31.042  34.838  1.00  0.00    -0.248 NA
ATOM     61  C   UNL A   1      41.676  31.733  37.004  1.00  0.00     0.031 C 
ATOM     62  C   UNL A   1      43.270  27.823  32.642  1.00  0.00     0.029 A 
ATOM     63  C   UNL A   1      42.621  28.825  33.347  1.00  0.00     0.049 A 
ATOM     64  H   UNL A   1      40.907  29.929  32.809  1.00  0.00     0.167 HD
ATOM     65  C   UNL A   1      42.256  30.337  35.277  1.00  0.00     0.074 A 
ATOM     66  C   UNL A   1      42.566  30.834  36.603  1.00  0.00     0.031 C 
ATOM     67  C   UNL A   1      42.949  29.358  34.646  1.00  0.00     0.034 A 
BRANCH  54  68
ATOM     68  C   UNL A   1      40.647  27.757  29.134  1.00  0.00     0.023 A 
ATOM     69  C   UNL A   1      39.758  26.671  28.995  1.00  0.00     0.012 A 
ATOM     70  C   UNL A   1      41.564  28.035  28.102  1.00  0.00     0.148 A 
ATOM     71  C   UNL A   1      39.801  25.855  27.866  1.00  0.00     0.002 A 
ATOM     72  C   UNL A   1      41.567  27.248  26.955  1.00  0.00     0.091 A 
ATOM     73  F   UNL A   1      42.416  29.058  28.259  1.00  0.00    -0.205 F 
ATOM     74  C   UNL A   1      40.695  26.151  26.842  1.00  0.00     0.022 A 
BRANCH  72  75
ATOM     75  S   UNL A   1      42.615  27.596  25.540  1.00  0.00     0.127 S 
ATOM     76  O   UNL A   1      42.377  26.422  24.700  1.00  0.00    -0.237 OA
ATOM     77  O   UNL A   1      42.036  28.839  25.028  1.00  0.00    -0.237 OA
ATOM     78  O   UNL A   1      43.969  27.723  26.061  1.00  0.00    -0.744 OA
ENDBRANCH  72  75
ENDBRANCH  54  68
BRANCH  55  79
ATOM     79  C   UNL A   1      39.572  33.798  37.036  1.00  0.00     0.023 A 
ATOM     80  C   UNL A   1      39.957  35.147  36.915  1.00  0.00     0.012 A 
ATOM     81  C   UNL A   1      38.980  33.358  38.236  1.00  0.00     0.148 A 
ATOM     82  C   UNL A   1      39.774  36.038  37.973  1.00  0.00     0.002 A 
ATOM     83  C   UNL A   1      38.743  34.265  39.263  1.00  0.00     0.091 A 
ATOM     84  F   UNL A   1      38.628  32.068  38.335  1.00  0.00    -0.205 F 
ATOM     85  C   UNL A   1      39.155  35.601  39.141  1.00  0.00     0.022 A 
BRANCH  83  86
ATOM     86  S   UNL A   1      37.813  33.835  40.739  1.00  0.00     0.127 S 
ATOM     87  O   UNL A   1      36.620  33.215  40.168  1.00  0.00    -0.237 OA
ATOM     88  O   UNL A   1      38.731  32.911  41.406  1.00  0.00    -0.237 OA
ATOM     89  O   UNL A   1      37.596  35.088  41.446  1.00  0.00    -0.744 OA
ENDBRANCH  83  86
ENDBRANCH  55  79
BRANCH  67  90
ATOM     90  C   UNL A   1      44.129  28.750  35.359  1.00  0.00     0.023 A 
ATOM     91  C   UNL A   1      45.408  29.320  35.204  1.00  0.00     0.012 A 
ATOM     92  C   UNL A   1      43.950  27.693  36.275  1.00  0.00     0.148 A 
ATOM     93  C   UNL A   1      46.493  28.837  35.934  1.00  0.00     0.002 A 
ATOM     94  C   UNL A   1      45.024  27.253  37.039  1.00  0.00     0.091 A 
ATOM     95  F   UNL A   1      42.728  27.154  36.397  1.00  0.00    -0.205 F 
ATOM     96  C   UNL A   1      46.299  27.816  36.861  1.00  0.00     0.022 A 
BRANCH  94  97
ATOM     97  S   UNL A   1      44.851  26.022  38.336  1.00  0.00     0.127 S 
ATOM     98  O   UNL A   1      43.887  26.663  39.229  1.00  0.00    -0.237 OA
ATOM     99  O   UNL A   1      44.328  24.871  37.600  1.00  0.00    -0.237 OA
ATOM    100  O   UNL A   1      46.183  25.832  38.893  1.00  0.00    -0.744 OA
ENDBRANCH  94  97
ENDBRANCH  67  90
ENDBRANCH  41  42
ENDBRANCH  33  36
ENDBRANCH   1  32
TORSDOF 14
ENDMDL
MODEL 2
REMARK VINA RESULT:     -13.4      1.476      7.577
REMARK SMILES Cc1cc(C)n(C)c(=O)c1C(=O)N1CCC2(CC1)C[NH2+][C@@H](C(=O)NCCCNC(=O)c1ccc(-c3c4nc(c(-c5cccc(S(=O)(=O)[O-])c5F)c5ccc([nH]5)c(-c5cccc(S(=O)(=O)[O-])c5F)c5nc(c(-c6cccc(S(=O)(=O)[O-])c6F)c6ccc3[nH]6)C=C5)C=C4)cc1)C2
REMARK SMILES IDX 27 1 26 2 25 3 24 4 22 5 23 6 21 8 11 9 12 10 13 11 14 12
REMARK SMILES IDX 18 13 15 14 17 15 16 16 19 17 94 18 20 19 10 22 1 23 2 24
REMARK SMILES IDX 3 25 4 26 8 27 5 28 6 29 9 30 7 31 28 32 29 33 30 35 31 36
REMARK SMILES IDX 32 37 93 38 33 39 92 40 34 41 35 42 36 43 86 44 37 45 91 46
REMARK SMILES IDX 85 47 87 48 38 49 90 50 84 51 83 52 39 54 71 55 51 56 70 57
REMARK SMILES IDX 52 58 55 59 69 60 88 61 53 62 54 63 68 65 89 66 56 67 40 68
REMARK SMILES IDX 41 69 49 70 42 71 44 72 50 73 43 74 45 75 46 76 47 77 48 78
REMARK SMILES IDX 72 79 73 80 81 81 74 82 76 83 82 84 75 85 77 86 78 87 79 88
REMARK SMILES IDX 80 89 57 90 58 91 66 92 59 93 61 94 67 95 60 96 62 97 63 98
REMARK SMILES IDX 64 99 65 100
REMARK H PARENT 24 7 20 20 20 21 28 34 87 53 55 64
REMARK Flexibility Score: inf
ROOT
ATOM      1  C   UNL A   1      32.705  32.605  26.946  1.00  0.00     0.118 C 
ENDROOT
BRANCH   1   2
ATOM      2  C   UNL A   1      31.327  32.125  26.524  1.00  0.00     0.042 C 
BRANCH   2   3
ATOM      3  C   UNL A   1      31.349  30.821  25.741  1.00  0.00     0.118 C 
BRANCH   3   4
ATOM      4  N   UNL A   1      30.295  30.753  24.742  1.00  0.00    -0.351 N 
ATOM      5  C   UNL A   1      30.150  29.918  23.673  1.00  0.00     0.278 C 
ATOM      6  O   UNL A   1      29.123  30.025  22.993  1.00  0.00    -0.268 OA
ATOM      7  H   UNL A   1      29.573  31.414  24.854  1.00  0.00     0.163 HD
BRANCH   5   8
ATOM      8  C   UNL A   1      31.223  28.889  23.302  1.00  0.00     0.273 C 
ATOM      9  C   UNL A   1      33.289  22.926  25.134  1.00  0.00     0.259 C 
ATOM     10  O   UNL A   1      34.432  22.924  25.606  1.00  0.00    -0.269 OA
ATOM     11  N   UNL A   1      32.611  24.135  25.000  1.00  0.00    -0.338 N 
ATOM     12  C   UNL A   1      33.405  25.351  25.077  1.00  0.00     0.120 C 
ATOM     13  C   UNL A   1      31.171  24.376  24.954  1.00  0.00     0.120 C 
ATOM     14  C   UNL A   1      33.232  26.108  23.773  1.00  0.00     0.034 C 
ATOM     15  C   UNL A   1      30.765  25.361  23.832  1.00  0.00     0.034 C 
ATOM     16  C   UNL A   1      31.766  26.517  23.519  1.00  0.00     0.029 C 
ATOM     17  C   UNL A   1      31.665  26.977  22.041  1.00  0.00     0.268 C 
ATOM     18  C   UNL A   1      31.405  27.781  24.332  1.00  0.00     0.088 C 
ATOM     19  N   UNL A   1      30.892  28.207  22.041  1.00  0.00    -0.336 N 
ATOM     20  H   UNL A   1      29.895  28.000  22.000  1.00  0.00     0.346 HD
ATOM     21  H   UNL A   1      31.111  28.787  21.231  1.00  0.00     0.346 HD
BRANCH   9  22
ATOM     22  C   UNL A   1      32.772  21.631  24.560  1.00  0.00     0.108 A 
ATOM     23  C   UNL A   1      32.603  22.422  22.129  1.00  0.00     0.045 C 
ATOM     24  C   UNL A   1      32.537  21.426  23.242  1.00  0.00    -0.031 A 
ATOM     25  C   UNL A   1      32.298  20.093  22.728  1.00  0.00     0.026 A 
ATOM     26  C   UNL A   1      32.484  18.997  23.472  1.00  0.00     0.018 A 
ATOM     27  C   UNL A   1      32.852  20.396  25.447  1.00  0.00     0.263 A 
ATOM     28  C   UNL A   1      32.356  17.651  22.810  1.00  0.00     0.064 C 
ATOM     29  N   UNL A   1      32.786  19.136  24.818  1.00  0.00    -0.315 N 
ATOM     30  O   UNL A   1      33.006  20.508  26.663  1.00  0.00    -0.268 OA
ATOM     31  C   UNL A   1      32.999  17.957  25.650  1.00  0.00     0.153 C 
ENDBRANCH   9  22
ENDBRANCH   5   8
ENDBRANCH   3   4
ENDBRANCH   2   3
ENDBRANCH   1   2
BRANCH   1  32
ATOM     32  N   UNL A   1      32.664  33.907  27.600  1.00  0.00    -0.352 N 
ATOM     33  C   UNL A   1      33.409  34.384  28.647  1.00  0.00     0.251 C 
ATOM     34  H   UNL A   1      32.002  34.538  27.235  1.00  0.00     0.163 HD
ATOM     35  O   UNL A   1      33.088  35.442  29.189  1.00  0.00    -0.269 OA
BRANCH  33  36
ATOM     36  C   UNL A   1      34.578  33.624  29.134  1.00  0.00     0.039 A 
ATOM     37  C   UNL A   1      35.852  34.177  28.992  1.00  0.00     0.014 A 
ATOM     38  C   UNL A   1      34.419  32.367  29.725  1.00  0.00     0.014 A 
ATOM     39  C   UNL A   1      36.960  33.494  29.495  1.00  0.00     0.010 A 
ATOM     40  C   UNL A   1      35.511  31.732  30.306  1.00  0.00     0.010 A 
ATOM     41  C   UNL A   1      36.795  32.282  30.184  1.00  0.00    -0.014 A 
BRANCH  41  42
ATOM     42  C   UNL A   1      37.954  31.571  30.778  1.00  0.00     0.031 A 
ATOM     43  C   UNL A   1      38.387  31.874  32.185  1.00  0.00     0.074 A 
ATOM     44  C   UNL A   1      38.653  30.696  30.028  1.00  0.00     0.049 A 
ATOM     45  N   UNL A   1      39.385  31.373  32.865  1.00  0.00    -0.248 NA
ATOM     46  C   UNL A   1      37.612  32.889  32.920  1.00  0.00     0.031 C 
ATOM     47  C   UNL A   1      38.367  30.368  28.630  1.00  0.00     0.029 A 
ATOM     48  N   UNL A   1      39.752  29.932  30.331  1.00  0.00    -0.354 N 
ATOM     49  C   UNL A   1      39.373  32.022  34.092  1.00  0.00     0.074 A 
ATOM     50  C   UNL A   1      38.299  32.990  34.048  1.00  0.00     0.031 C 
ATOM     51  C   UNL A   1      39.253  29.455  28.203  1.00  0.00     0.029 A 
ATOM     52  C   UNL A   1      40.191  29.157  29.282  1.00  0.00     0.049 A 
ATOM     53  H   UNL A   1      40.186  29.940  31.215  1.00  0.00     0.167 HD
ATOM     54  C   UNL A   1      40.158  31.806  35.173  1.00  0.00     0.034 A 
ATOM     55  C   UNL A   1      41.231  28.304  29.200  1.00  0.00     0.034 A 
ATOM     56  C   UNL A   1      41.201  30.818  35.221  1.00  0.00     0.049 A 
ATOM     57  C   UNL A   1      42.088  28.078  30.415  1.00  0.00     0.074 A 
ATOM     58  C   UNL A   1      42.008  30.476  36.290  1.00  0.00     0.029 A 
ATOM     59  N   UNL A   1      41.589  30.020  34.155  1.00  0.00    -0.354 N 
ATOM     60  N   UNL A   1      41.973  28.597  31.614  1.00  0.00    -0.248 NA
ATOM     61  C   UNL A   1      43.201  27.126  30.279  1.00  0.00     0.031 C 
ATOM     62  C   UNL A   1      42.906  29.494  35.862  1.00  0.00     0.029 A 
ATOM     63  C   UNL A   1      42.634  29.197  34.535  1.00  0.00     0.049 A 
ATOM     64  H   UNL A   1      41.180  30.038  33.259  1.00  0.00     0.167 HD
ATOM     65  C   UNL A   1      42.974  28.016  32.382  1.00  0.00     0.074 A 
ATOM     66  C   UNL A   1      43.675  27.086  31.518  1.00  0.00     0.031 C 
ATOM     67  C   UNL A   1      43.294  28.243  33.680  1.00  0.00     0.034 A 
BRANCH  54  68
ATOM     68  C   UNL A   1      39.880  32.611  36.418  1.00  0.00     0.023 A 
ATOM     69  C   UNL A   1      40.575  33.820  36.631  1.00  0.00     0.012 A 
ATOM     70  C   UNL A   1      38.885  32.217  37.334  1.00  0.00     0.148 A 
ATOM     71  C   UNL A   1      40.310  34.606  37.750  1.00  0.00     0.002 A 
ATOM     72  C   UNL A   1      38.590  33.032  38.421  1.00  0.00     0.091 A 
ATOM     73  F   UNL A   1      38.248  31.055  37.127  1.00  0.00    -0.205 F 
ATOM     74  C   UNL A   1      39.310  34.219  38.637  1.00  0.00     0.022 A 
BRANCH  72  75
ATOM     75  S   UNL A   1      37.260  32.673  39.573  1.00  0.00     0.127 S 
ATOM     76  O   UNL A   1      37.650  31.355  40.072  1.00  0.00    -0.237 OA
ATOM     77  O   UNL A   1      37.397  33.758  40.546  1.00  0.00    -0.237 OA
ATOM     78  O   UNL A   1      36.031  32.705  38.793  1.00  0.00    -0.744 OA
ENDBRANCH  72  75
ENDBRANCH  54  68
BRANCH  55  79
ATOM     79  C   UNL A   1      41.455  27.540  27.939  1.00  0.00     0.023 A 
ATOM     80  C   UNL A   1      41.995  28.202  26.820  1.00  0.00     0.012 A 
ATOM     81  C   UNL A   1      41.211  26.155  27.866  1.00  0.00     0.148 A 
ATOM     82  C   UNL A   1      42.270  27.504  25.643  1.00  0.00     0.002 A 
ATOM     83  C   UNL A   1      41.547  25.454  26.713  1.00  0.00     0.091 A 
ATOM     84  F   UNL A   1      40.690  25.545  28.940  1.00  0.00    -0.205 F 
ATOM     85  C   UNL A   1      42.059  26.129  25.594  1.00  0.00     0.022 A 
BRANCH  83  86
ATOM     86  S   UNL A   1      41.458  23.662  26.609  1.00  0.00     0.127 S 
ATOM     87  O   UNL A   1      42.081  23.261  27.869  1.00  0.00    -0.237 OA
ATOM     88  O   UNL A   1      40.014  23.443  26.535  1.00  0.00    -0.237 OA
ATOM     89  O   UNL A   1      42.188  23.302  25.402  1.00  0.00    -0.744 OA
ENDBRANCH  83  86
ENDBRANCH  55  79
BRANCH  67  90
ATOM     90  C   UNL A   1      44.445  27.471  34.273  1.00  0.00     0.023 A 
ATOM     91  C   UNL A   1      45.746  28.009  34.224  1.00  0.00     0.012 A 
ATOM     92  C   UNL A   1      44.218  26.275  34.986  1.00  0.00     0.148 A 
ATOM     93  C   UNL A   1      46.806  27.360  34.855  1.00  0.00     0.002 A 
ATOM     94  C   UNL A   1      45.269  25.664  35.659  1.00  0.00     0.091 A 
ATOM     95  F   UNL A   1      42.976  25.772  35.009  1.00  0.00    -0.205 F 
ATOM     96  C   UNL A   1      46.565  26.198  35.585  1.00  0.00     0.022 A 
BRANCH  94  97
ATOM     97  S   UNL A   1      45.038  24.229  36.714  1.00  0.00     0.127 S 
ATOM     98  O   UNL A   1      46.414  23.919  37.101  1.00  0.00    -0.237 OA
ATOM     99  O   UNL A   1      44.209  24.768  37.792  1.00  0.00    -0.237 OA
ATOM    100  O   UNL A   1      44.384  23.222  35.891  1.00  0.00    -0.744 OA
ENDBRANCH  94  97
ENDBRANCH  67  90
ENDBRANCH  41  42
ENDBRANCH  33  36
ENDBRANCH   1  32
TORSDOF 14
ENDMDL
MODEL 3
REMARK VINA RESULT:     -13.3      0.465      7.557
REMARK SMILES Cc1cc(C)n(C)c(=O)c1C(=O)N1CCC2(CC1)C[NH2+][C@@H](C(=O)NCCCNC(=O)c1ccc(-c3c4nc(c(-c5cccc(S(=O)(=O)[O-])c5F)c5ccc([nH]5)c(-c5cccc(S(=O)(=O)[O-])c5F)c5nc(c(-c6cccc(S(=O)(=O)[O-])c6F)c6ccc3[nH]6)C=C5)C=C4)cc1)C2
REMARK SMILES IDX 27 1 26 2 25 3 24 4 22 5 23 6 21 8 11 9 12 10 13 11 14 12
REMARK SMILES IDX 18 13 15 14 17 15 16 16 19 17 94 18 20 19 10 22 1 23 2 24
REMARK SMILES IDX 3 25 4 26 8 27 5 28 6 29 9 30 7 31 28 32 29 33 30 35 31 36
REMARK SMILES IDX 32 37 93 38 33 39 92 40 34 41 35 42 36 43 86 44 37 45 91 46
REMARK SMILES IDX 85 47 87 48 38 49 90 50 84 51 83 52 39 54 71 55 51 56 70 57
REMARK SMILES IDX 52 58 55 59 69 60 88 61 53 62 54 63 68 65 89 66 56 67 40 68
REMARK SMILES IDX 41 69 49 70 42 71 44 72 50 73 43 74 45 75 46 76 47 77 48 78
REMARK SMILES IDX 72 79 73 80 81 81 74 82 76 83 82 84 75 85 77 86 78 87 79 88
REMARK SMILES IDX 80 89 57 90 58 91 66 92 59 93 61 94 67 95 60 96 62 97 63 98
REMARK SMILES IDX 64 99 65 100
REMARK H PARENT 24 7 20 20 20 21 28 34 87 53 55 64
REMARK Flexibility Score: inf
ROOT
ATOM      1  C   UNL A   1      32.732  32.729  27.271  1.00  0.00     0.118 C 
ENDROOT
BRANCH   1   2
ATOM      2  C   UNL A   1      31.426  32.085  26.839  1.00  0.00     0.042 C 
BRANCH   2   3
ATOM      3  C   UNL A   1      31.608  30.925  25.872  1.00  0.00     0.118 C 
BRANCH   3   4
ATOM      4  N   UNL A   1      30.528  30.832  24.904  1.00  0.00    -0.351 N 
ATOM      5  C   UNL A   1      30.354  29.968  23.862  1.00  0.00     0.278 C 
ATOM      6  O   UNL A   1      29.310  30.058  23.207  1.00  0.00    -0.268 OA
ATOM      7  H   UNL A   1      29.810  31.496  25.017  1.00  0.00     0.163 HD
BRANCH   5   8
ATOM      8  C   UNL A   1      31.416  28.927  23.491  1.00  0.00     0.273 C 
ATOM      9  C   UNL A   1      33.323  22.881  25.219  1.00  0.00     0.259 C 
ATOM     10  O   UNL A   1      34.454  22.845  25.718  1.00  0.00    -0.269 OA
ATOM     11  N   UNL A   1      32.671  24.106  25.100  1.00  0.00    -0.338 N 
ATOM     12  C   UNL A   1      33.487  25.304  25.227  1.00  0.00     0.120 C 
ATOM     13  C   UNL A   1      31.238  24.377  25.026  1.00  0.00     0.120 C 
ATOM     14  C   UNL A   1      33.359  26.097  23.939  1.00  0.00     0.034 C 
ATOM     15  C   UNL A   1      30.878  25.398  23.920  1.00  0.00     0.034 C 
ATOM     16  C   UNL A   1      31.908  26.541  23.660  1.00  0.00     0.029 C 
ATOM     17  C   UNL A   1      31.851  27.039  22.193  1.00  0.00     0.268 C 
ATOM     18  C   UNL A   1      31.551  27.791  24.497  1.00  0.00     0.088 C 
ATOM     19  N   UNL A   1      31.103  28.284  22.205  1.00  0.00    -0.336 N 
ATOM     20  H   UNL A   1      30.103  28.098  22.136  1.00  0.00     0.346 HD
ATOM     21  H   UNL A   1      31.353  28.880  21.416  1.00  0.00     0.346 HD
BRANCH   9  22
ATOM     22  C   UNL A   1      32.795  21.611  24.600  1.00  0.00     0.108 A 
ATOM     23  C   UNL A   1      32.658  22.480  22.195  1.00  0.00     0.045 C 
ATOM     24  C   UNL A   1      32.570  21.450  23.275  1.00  0.00    -0.031 A 
ATOM     25  C   UNL A   1      32.319  20.137  22.717  1.00  0.00     0.026 A 
ATOM     26  C   UNL A   1      32.484  19.017  23.428  1.00  0.00     0.018 A 
ATOM     27  C   UNL A   1      32.852  20.349  25.449  1.00  0.00     0.263 A 
ATOM     28  C   UNL A   1      32.346  17.694  22.723  1.00  0.00     0.064 C 
ATOM     29  N   UNL A   1      32.776  19.109  24.781  1.00  0.00    -0.315 N 
ATOM     30  O   UNL A   1      32.996  20.420  26.669  1.00  0.00    -0.268 OA
ATOM     31  C   UNL A   1      32.967  17.903  25.577  1.00  0.00     0.153 C 
ENDBRANCH   9  22
ENDBRANCH   5   8
ENDBRANCH   3   4
ENDBRANCH   2   3
ENDBRANCH   1   2
BRANCH   1  32
ATOM     32  N   UNL A   1      32.559  34.115  27.685  1.00  0.00    -0.352 N 
ATOM     33  C   UNL A   1      33.180  34.813  28.689  1.00  0.00     0.251 C 
ATOM     34  H   UNL A   1      31.897  34.627  27.168  1.00  0.00     0.163 HD
ATOM     35  O   UNL A   1      32.752  35.921  29.015  1.00  0.00    -0.269 OA
BRANCH  33  36
ATOM     36  C   UNL A   1      34.344  34.230  29.388  1.00  0.00     0.039 A 
ATOM     37  C   UNL A   1      34.124  33.372  30.468  1.00  0.00     0.014 A 
ATOM     38  C   UNL A   1      35.647  34.533  28.984  1.00  0.00     0.014 A 
ATOM     39  C   UNL A   1      35.212  32.772  31.104  1.00  0.00     0.010 A 
ATOM     40  C   UNL A   1      36.722  33.865  29.559  1.00  0.00     0.010 A 
ATOM     41  C   UNL A   1      36.517  32.989  30.634  1.00  0.00    -0.014 A 
BRANCH  41  42
ATOM     42  C   UNL A   1      37.681  32.314  31.260  1.00  0.00     0.031 A 
ATOM     43  C   UNL A   1      38.240  32.821  32.561  1.00  0.00     0.074 A 
ATOM     44  C   UNL A   1      38.272  31.282  30.626  1.00  0.00     0.049 A 
ATOM     45  N   UNL A   1      39.261  32.377  33.246  1.00  0.00    -0.248 NA
ATOM     46  C   UNL A   1      37.579  33.993  33.162  1.00  0.00     0.031 C 
ATOM     47  C   UNL A   1      37.861  30.743  29.328  1.00  0.00     0.029 A 
ATOM     48  N   UNL A   1      39.351  30.512  30.979  1.00  0.00    -0.354 N 
ATOM     49  C   UNL A   1      39.379  33.223  34.341  1.00  0.00     0.074 A 
ATOM     50  C   UNL A   1      38.357  34.237  34.206  1.00  0.00     0.031 C 
ATOM     51  C   UNL A   1      38.662  29.717  29.005  1.00  0.00     0.029 A 
ATOM     52  C   UNL A   1      39.666  29.545  30.052  1.00  0.00     0.049 A 
ATOM     53  H   UNL A   1      39.853  30.639  31.816  1.00  0.00     0.167 HD
ATOM     54  C   UNL A   1      40.234  33.141  35.387  1.00  0.00     0.034 A 
ATOM     55  C   UNL A   1      40.650  28.624  30.046  1.00  0.00     0.034 A 
ATOM     56  C   UNL A   1      41.226  32.110  35.532  1.00  0.00     0.049 A 
ATOM     57  C   UNL A   1      41.587  28.551  31.220  1.00  0.00     0.074 A 
ATOM     58  C   UNL A   1      42.095  31.901  36.586  1.00  0.00     0.029 A 
ATOM     59  N   UNL A   1      41.486  31.122  34.595  1.00  0.00    -0.354 N 
ATOM     60  N   UNL A   1      41.594  29.270  32.317  1.00  0.00    -0.248 NA
ATOM     61  C   UNL A   1      42.635  27.520  31.174  1.00  0.00     0.031 C 
ATOM     62  C   UNL A   1      42.904  30.805  36.272  1.00  0.00     0.029 A 
ATOM     63  C   UNL A   1      42.514  30.308  35.039  1.00  0.00     0.049 A 
ATOM     64  H   UNL A   1      41.010  31.015  33.740  1.00  0.00     0.167 HD
ATOM     65  C   UNL A   1      42.621  28.762  33.103  1.00  0.00     0.074 A 
ATOM     66  C   UNL A   1      43.203  27.658  32.366  1.00  0.00     0.031 C 
ATOM     67  C   UNL A   1      43.054  29.183  34.317  1.00  0.00     0.034 A 
BRANCH  54  68
ATOM     68  C   UNL A   1      40.097  34.160  36.490  1.00  0.00     0.023 A 
ATOM     69  C   UNL A   1      40.426  35.507  36.234  1.00  0.00     0.012 A 
ATOM     70  C   UNL A   1      39.575  33.805  37.749  1.00  0.00     0.148 A 
ATOM     71  C   UNL A   1      40.271  36.479  37.221  1.00  0.00     0.002 A 
ATOM     72  C   UNL A   1      39.375  34.788  38.712  1.00  0.00     0.091 A 
ATOM     73  F   UNL A   1      39.286  32.517  37.983  1.00  0.00    -0.205 F 
ATOM     74  C   UNL A   1      39.734  36.122  38.454  1.00  0.00     0.022 A 
BRANCH  72  75
ATOM     75  S   UNL A   1      38.606  34.452  40.300  1.00  0.00     0.127 S 
ATOM     76  O   UNL A   1      37.493  33.586  39.912  1.00  0.00    -0.237 OA
ATOM     77  O   UNL A   1      39.682  33.773  41.023  1.00  0.00    -0.237 OA
ATOM     78  O   UNL A   1      38.226  35.747  40.846  1.00  0.00    -0.744 OA
ENDBRANCH  72  75
ENDBRANCH  54  68
BRANCH  55  79
ATOM     79  C   UNL A   1      40.735  27.647  28.924  1.00  0.00     0.023 A 
ATOM     80  C   UNL A   1      39.770  26.625  28.826  1.00  0.00     0.012 A 
ATOM     81  C   UNL A   1      41.712  27.766  27.917  1.00  0.00     0.148 A 
ATOM     82  C   UNL A   1      39.788  25.729  27.757  1.00  0.00     0.002 A 
ATOM     83  C   UNL A   1      41.685  26.910  26.822  1.00  0.00     0.091 A 
ATOM     84  F   UNL A   1      42.626  28.740  28.032  1.00  0.00    -0.205 F 
ATOM     85  C   UNL A   1      40.736  25.879  26.749  1.00  0.00     0.022 A 
BRANCH  83  86
ATOM     86  S   UNL A   1      42.764  27.121  25.401  1.00  0.00     0.127 S 
ATOM     87  O   UNL A   1      42.196  28.312  24.772  1.00  0.00    -0.237 OA
ATOM     88  O   UNL A   1      44.062  27.321  26.044  1.00  0.00    -0.237 OA
ATOM     89  O   UNL A   1      42.651  25.889  24.635  1.00  0.00    -0.744 OA
ENDBRANCH  83  86
ENDBRANCH  55  79
BRANCH  67  90
ATOM     90  C   UNL A   1      44.206  28.449  34.954  1.00  0.00     0.023 A 
ATOM     91  C   UNL A   1      45.528  28.848  34.674  1.00  0.00     0.012 A 
ATOM     92  C   UNL A   1      43.976  27.449  35.921  1.00  0.00     0.148 A 
ATOM     93  C   UNL A   1      46.604  28.250  35.330  1.00  0.00     0.002 A 
ATOM     94  C   UNL A   1      45.049  26.897  36.610  1.00  0.00     0.091 A 
ATOM     95  F   UNL A   1      42.712  27.073  36.162  1.00  0.00    -0.205 F 
ATOM     96  C   UNL A   1      46.364  27.287  36.307  1.00  0.00     0.022 A 
BRANCH  94  97
ATOM     97  S   UNL A   1      44.836  25.733  37.962  1.00  0.00     0.127 S 
ATOM     98  O   UNL A   1      43.970  26.485  38.869  1.00  0.00    -0.237 OA
ATOM     99  O   UNL A   1      44.187  24.603  37.297  1.00  0.00    -0.237 OA
ATOM    100  O   UNL A   1      46.172  25.453  38.469  1.00  0.00    -0.744 OA
ENDBRANCH  94  97
ENDBRANCH  67  90
ENDBRANCH  41  42
ENDBRANCH  33  36
ENDBRANCH   1  32
TORSDOF 14
ENDMDL
