MODEL 1
REMARK VINA RESULT:     -11.8      0.000      0.000
REMARK SMILES CCN(C(=O)C1(C)CCCC1)[C@@H]1COC[C@H]1C(=O)NCCCNC(=O)c1ccc(-c2c3nc(c(-c4cccc(S(=O)(=O)[O-])c4F)c4ccc([nH]4)c(-c4cccc(S(=O)(=O)[O-])c4F)c4nc(c(-c5cccc(S(=O)(=O)[O-])c5F)c5ccc2[nH]5)C=C4)C=C3)cc1
REMARK SMILES IDX 21 1 20 2 19 3 17 4 18 5 16 7 12 8 13 9 14 10 15 11 3 12
REMARK SMILES IDX 2 13 1 14 4 15 5 16 6 17 7 18 8 19 11 20 9 21 10 22 22 23
REMARK SMILES IDX 23 24 24 25 25 27 26 28 27 29 88 30 28 31 87 32 29 33 30 34
REMARK SMILES IDX 31 35 81 36 32 37 86 38 80 39 82 40 33 41 85 42 79 43 78 44
REMARK SMILES IDX 34 46 66 47 46 48 65 49 47 50 50 51 64 52 83 53 48 54 49 55
REMARK SMILES IDX 63 57 84 58 51 59 35 60 36 61 44 62 37 63 39 64 45 65 38 66
REMARK SMILES IDX 40 67 41 68 42 69 43 70 67 71 68 72 76 73 69 74 71 75 77 76
REMARK SMILES IDX 70 77 72 78 73 79 74 80 75 81 52 82 53 83 61 84 54 85 56 86
REMARK SMILES IDX 62 87 55 88 57 89 58 90 59 91 60 92
REMARK H PARENT 19 6 23 26 82 45 50 56
REMARK Flexibility Score: inf
ROOT
ATOM      1  C   UNL A   1      36.263  22.628  23.770  1.00  0.00     0.042 C 
ENDROOT
BRANCH   1   2
ATOM      2  C   UNL A   1      34.945  23.326  23.459  1.00  0.00     0.117 C 
BRANCH   2   3
ATOM      3  N   UNL A   1      33.810  22.418  23.494  1.00  0.00    -0.356 N 
ATOM      4  C   UNL A   1      32.648  22.432  24.199  1.00  0.00     0.227 C 
ATOM      5  O   UNL A   1      31.791  21.616  23.843  1.00  0.00    -0.275 OA
ATOM      6  H   UNL A   1      33.901  21.646  22.890  1.00  0.00     0.163 HD
BRANCH   4   7
ATOM      7  C   UNL A   1      32.343  23.448  25.287  1.00  0.00     0.129 C 
ATOM      8  C   UNL A   1      31.060  24.268  25.102  1.00  0.00     0.125 C 
ATOM      9  C   UNL A   1      30.564  24.363  26.548  1.00  0.00     0.186 C 
ATOM     10  O   UNL A   1      30.952  23.156  27.207  1.00  0.00    -0.378 OA
ATOM     11  C   UNL A   1      32.198  22.751  26.632  1.00  0.00     0.176 C 
BRANCH   8  12
ATOM     12  N   UNL A   1      31.100  25.619  24.483  1.00  0.00    -0.336 N 
BRANCH  12  13
ATOM     13  C   UNL A   1      29.802  26.185  24.074  1.00  0.00     0.116 C 
ATOM     14  C   UNL A   1      29.956  27.371  23.130  1.00  0.00     0.027 C 
ENDBRANCH  12  13
BRANCH  12  15
ATOM     15  C   UNL A   1      32.301  26.211  24.110  1.00  0.00     0.228 C 
ATOM     16  O   UNL A   1      32.732  26.087  22.962  1.00  0.00    -0.274 OA
BRANCH  15  17
ATOM     17  C   UNL A   1      33.138  26.960  25.185  1.00  0.00     0.047 C 
ATOM     18  C   UNL A   1      34.242  26.050  25.746  1.00  0.00     0.022 C 
ATOM     19  C   UNL A   1      33.818  28.195  24.540  1.00  0.00     0.016 C 
ATOM     20  C   UNL A   1      32.289  27.632  26.271  1.00  0.00     0.016 C 
ATOM     21  C   UNL A   1      32.788  29.319  24.583  1.00  0.00     0.001 C 
ATOM     22  C   UNL A   1      31.766  28.917  25.637  1.00  0.00     0.001 C 
ENDBRANCH  15  17
ENDBRANCH  12  15
ENDBRANCH   8  12
ENDBRANCH   4   7
ENDBRANCH   2   3
ENDBRANCH   1   2
BRANCH   1  23
ATOM     23  C   UNL A   1      36.433  22.235  25.231  1.00  0.00     0.118 C 
BRANCH  23  24
ATOM     24  N   UNL A   1      37.301  21.079  25.406  1.00  0.00    -0.352 N 
ATOM     25  C   UNL A   1      38.608  21.017  25.829  1.00  0.00     0.251 C 
ATOM     26  H   UNL A   1      36.892  20.211  25.187  1.00  0.00     0.163 HD
ATOM     27  O   UNL A   1      39.232  19.963  25.731  1.00  0.00    -0.269 OA
BRANCH  25  28
ATOM     28  C   UNL A   1      39.267  22.219  26.382  1.00  0.00     0.039 A 
ATOM     29  C   UNL A   1      40.377  22.066  27.218  1.00  0.00     0.014 A 
ATOM     30  C   UNL A   1      38.791  23.496  26.078  1.00  0.00     0.014 A 
ATOM     31  C   UNL A   1      41.056  23.196  27.685  1.00  0.00     0.010 A 
ATOM     32  C   UNL A   1      39.515  24.615  26.474  1.00  0.00     0.010 A 
ATOM     33  C   UNL A   1      40.653  24.479  27.283  1.00  0.00    -0.014 A 
BRANCH  33  34
ATOM     34  C   UNL A   1      41.389  25.706  27.686  1.00  0.00     0.031 A 
ATOM     35  C   UNL A   1      40.672  26.789  28.444  1.00  0.00     0.074 A 
ATOM     36  C   UNL A   1      42.651  25.903  27.255  1.00  0.00     0.049 A 
ATOM     37  N   UNL A   1      41.072  28.000  28.732  1.00  0.00    -0.248 NA
ATOM     38  C   UNL A   1      39.308  26.482  28.908  1.00  0.00     0.031 C 
ATOM     39  C   UNL A   1      43.433  24.956  26.456  1.00  0.00     0.029 A 
ATOM     40  N   UNL A   1      43.483  26.987  27.391  1.00  0.00    -0.354 N 
ATOM     41  C   UNL A   1      39.994  28.616  29.356  1.00  0.00     0.074 A 
ATOM     42  C   UNL A   1      38.915  27.653  29.388  1.00  0.00     0.031 C 
ATOM     43  C   UNL A   1      44.624  25.504  26.164  1.00  0.00     0.029 A 
ATOM     44  C   UNL A   1      44.677  26.853  26.719  1.00  0.00     0.049 A 
ATOM     45  H   UNL A   1      43.248  27.784  27.918  1.00  0.00     0.167 HD
ATOM     46  C   UNL A   1      39.916  29.862  29.880  1.00  0.00     0.034 A 
ATOM     47  C   UNL A   1      45.692  27.724  26.551  1.00  0.00     0.034 A 
ATOM     48  C   UNL A   1      41.013  30.791  29.906  1.00  0.00     0.049 A 
ATOM     49  C   UNL A   1      45.602  29.084  27.190  1.00  0.00     0.074 A 
ATOM     50  C   UNL A   1      41.066  32.039  30.500  1.00  0.00     0.029 A 
ATOM     51  N   UNL A   1      42.248  30.573  29.318  1.00  0.00    -0.354 N 
ATOM     52  N   UNL A   1      44.628  29.596  27.903  1.00  0.00    -0.248 NA
ATOM     53  C   UNL A   1      46.760  29.977  27.031  1.00  0.00     0.031 C 
ATOM     54  C   UNL A   1      42.332  32.582  30.258  1.00  0.00     0.029 A 
ATOM     55  C   UNL A   1      43.072  31.663  29.530  1.00  0.00     0.049 A 
ATOM     56  H   UNL A   1      42.502  29.762  28.821  1.00  0.00     0.167 HD
ATOM     57  C   UNL A   1      45.071  30.850  28.311  1.00  0.00     0.074 A 
ATOM     58  C   UNL A   1      46.406  31.016  27.776  1.00  0.00     0.031 C 
ATOM     59  C   UNL A   1      44.425  31.784  29.051  1.00  0.00     0.034 A 
BRANCH  46  60
ATOM     60  C   UNL A   1      38.618  30.274  30.521  1.00  0.00     0.023 A 
ATOM     61  C   UNL A   1      38.378  29.952  31.873  1.00  0.00     0.012 A 
ATOM     62  C   UNL A   1      37.664  31.029  29.811  1.00  0.00     0.148 A 
ATOM     63  C   UNL A   1      37.195  30.342  32.497  1.00  0.00     0.002 A 
ATOM     64  C   UNL A   1      36.507  31.453  30.453  1.00  0.00     0.091 A 
ATOM     65  F   UNL A   1      37.900  31.307  28.521  1.00  0.00    -0.205 F 
ATOM     66  C   UNL A   1      36.265  31.101  31.792  1.00  0.00     0.022 A 
BRANCH  64  67
ATOM     67  S   UNL A   1      35.287  32.501  29.654  1.00  0.00     0.127 S 
ATOM     68  O   UNL A   1      34.751  31.603  28.632  1.00  0.00    -0.237 OA
ATOM     69  O   UNL A   1      34.365  32.794  30.751  1.00  0.00    -0.237 OA
ATOM     70  O   UNL A   1      36.019  33.657  29.153  1.00  0.00    -0.744 OA
ENDBRANCH  64  67
ENDBRANCH  46  60
BRANCH  47  71
ATOM     71  C   UNL A   1      46.909  27.312  25.797  1.00  0.00     0.023 A 
ATOM     72  C   UNL A   1      47.861  26.487  26.428  1.00  0.00     0.012 A 
ATOM     73  C   UNL A   1      47.115  27.695  24.457  1.00  0.00     0.148 A 
ATOM     74  C   UNL A   1      49.010  26.075  25.749  1.00  0.00     0.002 A 
ATOM     75  C   UNL A   1      48.233  27.237  23.769  1.00  0.00     0.091 A 
ATOM     76  F   UNL A   1      46.205  28.490  23.876  1.00  0.00    -0.205 F 
ATOM     77  C   UNL A   1      49.190  26.441  24.419  1.00  0.00     0.022 A 
BRANCH  75  78
ATOM     78  S   UNL A   1      48.475  27.546  22.016  1.00  0.00     0.127 S 
ATOM     79  O   UNL A   1      49.680  28.369  22.019  1.00  0.00    -0.237 OA
ATOM     80  O   UNL A   1      48.654  26.192  21.488  1.00  0.00    -0.237 OA
ATOM     81  O   UNL A   1      47.256  28.204  21.562  1.00  0.00    -0.744 OA
ENDBRANCH  75  78
ENDBRANCH  47  71
BRANCH  59  82
ATOM     82  C   UNL A   1      45.156  33.058  29.376  1.00  0.00     0.023 A 
ATOM     83  C   UNL A   1      45.979  33.121  30.517  1.00  0.00     0.012 A 
ATOM     84  C   UNL A   1      45.113  34.152  28.490  1.00  0.00     0.148 A 
ATOM     85  C   UNL A   1      46.736  34.262  30.779  1.00  0.00     0.002 A 
ATOM     86  C   UNL A   1      45.904  35.268  28.734  1.00  0.00     0.091 A 
ATOM     87  F   UNL A   1      44.307  34.076  27.420  1.00  0.00    -0.205 F 
ATOM     88  C   UNL A   1      46.710  35.328  29.883  1.00  0.00     0.022 A 
BRANCH  86  89
ATOM     89  S   UNL A   1      46.008  36.646  27.585  1.00  0.00     0.127 S 
ATOM     90  O   UNL A   1      44.624  37.117  27.560  1.00  0.00    -0.237 OA
ATOM     91  O   UNL A   1      46.946  37.543  28.262  1.00  0.00    -0.237 OA
ATOM     92  O   UNL A   1      46.501  36.089  26.333  1.00  0.00    -0.744 OA
ENDBRANCH  86  89
ENDBRANCH  59  82
ENDBRANCH  33  34
ENDBRANCH  25  28
ENDBRANCH  23  24
ENDBRANCH   1  23
TORSDOF 17
ENDMDL
MODEL 2
REMARK VINA RESULT:     -11.6      5.186      9.872
REMARK SMILES CCN(C(=O)C1(C)CCCC1)[C@@H]1COC[C@H]1C(=O)NCCCNC(=O)c1ccc(-c2c3nc(c(-c4cccc(S(=O)(=O)[O-])c4F)c4ccc([nH]4)c(-c4cccc(S(=O)(=O)[O-])c4F)c4nc(c(-c5cccc(S(=O)(=O)[O-])c5F)c5ccc2[nH]5)C=C4)C=C3)cc1
REMARK SMILES IDX 21 1 20 2 19 3 17 4 18 5 16 7 12 8 13 9 14 10 15 11 3 12
REMARK SMILES IDX 2 13 1 14 4 15 5 16 6 17 7 18 8 19 11 20 9 21 10 22 22 23
REMARK SMILES IDX 23 24 24 25 25 27 26 28 27 29 88 30 28 31 87 32 29 33 30 34
REMARK SMILES IDX 31 35 81 36 32 37 86 38 80 39 82 40 33 41 85 42 79 43 78 44
REMARK SMILES IDX 34 46 66 47 46 48 65 49 47 50 50 51 64 52 83 53 48 54 49 55
REMARK SMILES IDX 63 57 84 58 51 59 35 60 36 61 44 62 37 63 39 64 45 65 38 66
REMARK SMILES IDX 40 67 41 68 42 69 43 70 67 71 68 72 76 73 69 74 71 75 77 76
REMARK SMILES IDX 70 77 72 78 73 79 74 80 75 81 52 82 53 83 61 84 54 85 56 86
REMARK SMILES IDX 62 87 55 88 57 89 58 90 59 91 60 92
REMARK H PARENT 19 6 23 26 82 45 50 56
REMARK Flexibility Score: inf
ROOT
ATOM      1  C   UNL A   1      32.181  28.199  25.102  1.00  0.00     0.042 C 
ENDROOT
BRANCH   1   2
ATOM      2  C   UNL A   1      31.570  28.225  23.708  1.00  0.00     0.117 C 
BRANCH   2   3
ATOM      3  N   UNL A   1      30.649  27.122  23.482  1.00  0.00    -0.356 N 
ATOM      4  C   UNL A   1      30.841  25.784  23.337  1.00  0.00     0.227 C 
ATOM      5  O   UNL A   1      29.821  25.087  23.366  1.00  0.00    -0.275 OA
ATOM      6  H   UNL A   1      29.706  27.399  23.423  1.00  0.00     0.163 HD
BRANCH   4   7
ATOM      7  C   UNL A   1      32.215  25.141  23.258  1.00  0.00     0.129 C 
ATOM      8  C   UNL A   1      32.248  23.609  23.331  1.00  0.00     0.125 C 
ATOM      9  C   UNL A   1      33.368  23.294  22.334  1.00  0.00     0.186 C 
ATOM     10  O   UNL A   1      33.321  24.296  21.316  1.00  0.00    -0.378 OA
ATOM     11  C   UNL A   1      32.893  25.508  21.945  1.00  0.00     0.176 C 
BRANCH   8  12
ATOM     12  N   UNL A   1      32.495  22.911  24.618  1.00  0.00    -0.336 N 
BRANCH  12  13
ATOM     13  C   UNL A   1      31.795  23.452  25.797  1.00  0.00     0.116 C 
ATOM     14  C   UNL A   1      30.633  22.570  26.240  1.00  0.00     0.027 C 
ENDBRANCH  12  13
BRANCH  12  15
ATOM     15  C   UNL A   1      33.494  21.952  24.744  1.00  0.00     0.228 C 
ATOM     16  O   UNL A   1      33.387  20.857  24.188  1.00  0.00    -0.274 OA
BRANCH  15  17
ATOM     17  C   UNL A   1      34.710  22.247  25.666  1.00  0.00     0.047 C 
ATOM     18  C   UNL A   1      34.386  21.891  27.125  1.00  0.00     0.022 C 
ATOM     19  C   UNL A   1      35.917  21.382  25.221  1.00  0.00     0.016 C 
ATOM     20  C   UNL A   1      35.287  23.658  25.496  1.00  0.00     0.016 C 
ATOM     21  C   UNL A   1      36.602  22.155  24.097  1.00  0.00     0.001 C 
ATOM     22  C   UNL A   1      36.134  23.597  24.228  1.00  0.00     0.001 C 
ENDBRANCH  15  17
ENDBRANCH  12  15
ENDBRANCH   8  12
ENDBRANCH   4   7
ENDBRANCH   2   3
ENDBRANCH   1   2
BRANCH   1  23
ATOM     23  C   UNL A   1      33.236  29.271  25.342  1.00  0.00     0.118 C 
BRANCH  23  24
ATOM     24  N   UNL A   1      32.679  30.490  25.915  1.00  0.00    -0.352 N 
ATOM     25  C   UNL A   1      33.128  31.250  26.969  1.00  0.00     0.251 C 
ATOM     26  H   UNL A   1      31.858  30.818  25.483  1.00  0.00     0.163 HD
ATOM     27  O   UNL A   1      32.416  32.142  27.424  1.00  0.00    -0.269 OA
BRANCH  25  28
ATOM     28  C   UNL A   1      34.454  30.984  27.565  1.00  0.00     0.039 A 
ATOM     29  C   UNL A   1      35.373  32.030  27.683  1.00  0.00     0.014 A 
ATOM     30  C   UNL A   1      34.792  29.703  28.008  1.00  0.00     0.014 A 
ATOM     31  C   UNL A   1      36.601  31.809  28.315  1.00  0.00     0.010 A 
ATOM     32  C   UNL A   1      35.975  29.504  28.710  1.00  0.00     0.010 A 
ATOM     33  C   UNL A   1      36.894  30.553  28.869  1.00  0.00    -0.014 A 
BRANCH  33  34
ATOM     34  C   UNL A   1      38.149  30.290  29.621  1.00  0.00     0.031 A 
ATOM     35  C   UNL A   1      39.173  29.346  29.052  1.00  0.00     0.074 A 
ATOM     36  C   UNL A   1      38.304  30.788  30.864  1.00  0.00     0.049 A 
ATOM     37  N   UNL A   1      40.240  28.845  29.619  1.00  0.00    -0.248 NA
ATOM     38  C   UNL A   1      38.948  28.873  27.675  1.00  0.00     0.031 C 
ATOM     39  C   UNL A   1      37.351  31.662  31.552  1.00  0.00     0.029 A 
ATOM     40  N   UNL A   1      39.300  30.592  31.788  1.00  0.00    -0.354 N 
ATOM     41  C   UNL A   1      40.778  27.958  28.695  1.00  0.00     0.074 A 
ATOM     42  C   UNL A   1      39.910  27.973  27.537  1.00  0.00     0.031 C 
ATOM     43  C   UNL A   1      37.803  31.917  32.791  1.00  0.00     0.029 A 
ATOM     44  C   UNL A   1      39.055  31.196  33.000  1.00  0.00     0.049 A 
ATOM     45  H   UNL A   1      40.113  30.069  31.602  1.00  0.00     0.167 HD
ATOM     46  C   UNL A   1      41.907  27.217  28.788  1.00  0.00     0.034 A 
ATOM     47  C   UNL A   1      39.748  31.158  34.156  1.00  0.00     0.034 A 
ATOM     48  C   UNL A   1      42.801  27.256  29.912  1.00  0.00     0.049 A 
ATOM     49  C   UNL A   1      41.029  30.369  34.216  1.00  0.00     0.074 A 
ATOM     50  C   UNL A   1      44.020  26.619  30.062  1.00  0.00     0.029 A 
ATOM     51  N   UNL A   1      42.577  27.974  31.076  1.00  0.00    -0.354 N 
ATOM     52  N   UNL A   1      41.598  29.650  33.278  1.00  0.00    -0.248 NA
ATOM     53  C   UNL A   1      41.781  30.408  35.479  1.00  0.00     0.031 C 
ATOM     54  C   UNL A   1      44.527  26.942  31.325  1.00  0.00     0.029 A 
ATOM     55  C   UNL A   1      43.632  27.795  31.952  1.00  0.00     0.049 A 
ATOM     56  H   UNL A   1      41.784  28.529  31.254  1.00  0.00     0.167 HD
ATOM     57  C   UNL A   1      42.791  29.188  33.822  1.00  0.00     0.074 A 
ATOM     58  C   UNL A   1      42.869  29.716  35.168  1.00  0.00     0.031 C 
ATOM     59  C   UNL A   1      43.730  28.386  33.262  1.00  0.00     0.034 A 
BRANCH  46  60
ATOM     60  C   UNL A   1      42.271  26.342  27.618  1.00  0.00     0.023 A 
ATOM     61  C   UNL A   1      43.057  26.871  26.574  1.00  0.00     0.012 A 
ATOM     62  C   UNL A   1      41.890  24.986  27.579  1.00  0.00     0.148 A 
ATOM     63  C   UNL A   1      43.427  26.076  25.491  1.00  0.00     0.002 A 
ATOM     64  C   UNL A   1      42.302  24.188  26.518  1.00  0.00     0.091 A 
ATOM     65  F   UNL A   1      41.125  24.507  28.570  1.00  0.00    -0.205 F 
ATOM     66  C   UNL A   1      43.060  24.733  25.468  1.00  0.00     0.022 A 
BRANCH  64  67
ATOM     67  S   UNL A   1      41.947  22.429  26.437  1.00  0.00     0.127 S 
ATOM     68  O   UNL A   1      40.485  22.424  26.399  1.00  0.00    -0.237 OA
ATOM     69  O   UNL A   1      42.590  22.040  25.182  1.00  0.00    -0.237 OA
ATOM     70  O   UNL A   1      42.545  21.845  27.631  1.00  0.00    -0.744 OA
ENDBRANCH  64  67
ENDBRANCH  46  60
BRANCH  47  71
ATOM     71  C   UNL A   1      39.278  31.944  35.332  1.00  0.00     0.023 A 
ATOM     72  C   UNL A   1      38.412  31.335  36.262  1.00  0.00     0.012 A 
ATOM     73  C   UNL A   1      39.706  33.267  35.557  1.00  0.00     0.148 A 
ATOM     74  C   UNL A   1      37.958  32.039  37.379  1.00  0.00     0.002 A 
ATOM     75  C   UNL A   1      39.294  33.943  36.700  1.00  0.00     0.091 A 
ATOM     76  F   UNL A   1      40.520  33.835  34.655  1.00  0.00    -0.205 F 
ATOM     77  C   UNL A   1      38.406  33.337  37.603  1.00  0.00     0.022 A 
BRANCH  75  78
ATOM     78  S   UNL A   1      39.929  35.566  37.137  1.00  0.00     0.127 S 
ATOM     79  O   UNL A   1      39.224  35.839  38.386  1.00  0.00    -0.237 OA
ATOM     80  O   UNL A   1      41.362  35.305  37.281  1.00  0.00    -0.237 OA
ATOM     81  O   UNL A   1      39.593  36.434  36.014  1.00  0.00    -0.744 OA
ENDBRANCH  75  78
ENDBRANCH  47  71
BRANCH  59  82
ATOM     82  C   UNL A   1      44.955  28.060  34.072  1.00  0.00     0.023 A 
ATOM     83  C   UNL A   1      46.076  28.910  34.018  1.00  0.00     0.012 A 
ATOM     84  C   UNL A   1      44.949  26.973  34.969  1.00  0.00     0.148 A 
ATOM     85  C   UNL A   1      47.182  28.673  34.834  1.00  0.00     0.002 A 
ATOM     86  C   UNL A   1      46.035  26.770  35.810  1.00  0.00     0.091 A 
ATOM     87  F   UNL A   1      43.877  26.167  34.989  1.00  0.00    -0.205 F 
ATOM     88  C   UNL A   1      47.156  27.613  35.738  1.00  0.00     0.022 A 
BRANCH  86  89
ATOM     89  S   UNL A   1      46.051  25.491  37.073  1.00  0.00     0.127 S 
ATOM     90  O   UNL A   1      45.987  24.274  36.264  1.00  0.00    -0.237 OA
ATOM     91  O   UNL A   1      47.337  25.720  37.730  1.00  0.00    -0.237 OA
ATOM     92  O   UNL A   1      44.889  25.742  37.914  1.00  0.00    -0.744 OA
ENDBRANCH  86  89
ENDBRANCH  59  82
ENDBRANCH  33  34
ENDBRANCH  25  28
ENDBRANCH  23  24
ENDBRANCH   1  23
TORSDOF 17
ENDMDL
MODEL 3
REMARK VINA RESULT:     -11.5      5.040      7.769
REMARK SMILES CCN(C(=O)C1(C)CCCC1)[C@@H]1COC[C@H]1C(=O)NCCCNC(=O)c1ccc(-c2c3nc(c(-c4cccc(S(=O)(=O)[O-])c4F)c4ccc([nH]4)c(-c4cccc(S(=O)(=O)[O-])c4F)c4nc(c(-c5cccc(S(=O)(=O)[O-])c5F)c5ccc2[nH]5)C=C4)C=C3)cc1
REMARK SMILES IDX 21 1 20 2 19 3 17 4 18 5 16 7 12 8 13 9 14 10 15 11 3 12
REMARK SMILES IDX 2 13 1 14 4 15 5 16 6 17 7 18 8 19 11 20 9 21 10 22 22 23
REMARK SMILES IDX 23 24 24 25 25 27 26 28 27 29 88 30 28 31 87 32 29 33 30 34
REMARK SMILES IDX 31 35 81 36 32 37 86 38 80 39 82 40 33 41 85 42 79 43 78 44
REMARK SMILES IDX 34 46 66 47 46 48 65 49 47 50 50 51 64 52 83 53 48 54 49 55
REMARK SMILES IDX 63 57 84 58 51 59 35 60 36 61 44 62 37 63 39 64 45 65 38 66
REMARK SMILES IDX 40 67 41 68 42 69 43 70 67 71 68 72 76 73 69 74 71 75 77 76
REMARK SMILES IDX 70 77 72 78 73 79 74 80 75 81 52 82 53 83 61 84 54 85 56 86
REMARK SMILES IDX 62 87 55 88 57 89 58 90 59 91 60 92
REMARK H PARENT 19 6 23 26 82 45 50 56
REMARK Flexibility Score: inf
ROOT
ATOM      1  C   UNL A   1      33.554  27.482  26.600  1.00  0.00     0.042 C 
ENDROOT
BRANCH   1   2
ATOM      2  C   UNL A   1      32.058  27.337  26.355  1.00  0.00     0.117 C 
BRANCH   2   3
ATOM      3  N   UNL A   1      31.515  26.113  26.924  1.00  0.00    -0.356 N 
ATOM      4  C   UNL A   1      31.413  24.846  26.441  1.00  0.00     0.227 C 
ATOM      5  O   UNL A   1      31.087  23.982  27.260  1.00  0.00    -0.275 OA
ATOM      6  H   UNL A   1      31.152  26.224  27.832  1.00  0.00     0.163 HD
BRANCH   4   7
ATOM      7  C   UNL A   1      31.781  24.463  25.017  1.00  0.00     0.129 C 
ATOM      8  C   UNL A   1      31.904  22.961  24.734  1.00  0.00     0.125 C 
ATOM      9  C   UNL A   1      31.311  22.881  23.323  1.00  0.00     0.186 C 
ATOM     10  O   UNL A   1      30.300  23.887  23.233  1.00  0.00    -0.378 OA
ATOM     11  C   UNL A   1      30.731  24.983  24.045  1.00  0.00     0.176 C 
BRANCH   8  12
ATOM     12  N   UNL A   1      33.224  22.281  24.775  1.00  0.00    -0.336 N 
BRANCH  12  13
ATOM     13  C   UNL A   1      33.249  20.879  24.322  1.00  0.00     0.116 C 
ATOM     14  C   UNL A   1      32.836  19.906  25.420  1.00  0.00     0.027 C 
ENDBRANCH  12  13
BRANCH  12  15
ATOM     15  C   UNL A   1      34.318  22.859  25.410  1.00  0.00     0.228 C 
ATOM     16  O   UNL A   1      34.381  22.899  26.640  1.00  0.00    -0.274 OA
BRANCH  15  17
ATOM     17  C   UNL A   1      35.422  23.532  24.546  1.00  0.00     0.047 C 
ATOM     18  C   UNL A   1      34.819  24.622  23.647  1.00  0.00     0.022 C 
ATOM     19  C   UNL A   1      36.465  24.203  25.475  1.00  0.00     0.016 C 
ATOM     20  C   UNL A   1      36.307  22.535  23.789  1.00  0.00     0.016 C 
ATOM     21  C   UNL A   1      37.457  23.110  25.861  1.00  0.00     0.001 C 
ATOM     22  C   UNL A   1      37.297  22.007  24.823  1.00  0.00     0.001 C 
ENDBRANCH  15  17
ENDBRANCH  12  15
ENDBRANCH   8  12
ENDBRANCH   4   7
ENDBRANCH   2   3
ENDBRANCH   1   2
BRANCH   1  23
ATOM     23  C   UNL A   1      34.208  28.614  25.819  1.00  0.00     0.118 C 
BRANCH  23  24
ATOM     24  N   UNL A   1      33.844  29.931  26.324  1.00  0.00    -0.352 N 
ATOM     25  C   UNL A   1      34.383  30.654  27.362  1.00  0.00     0.251 C 
ATOM     26  H   UNL A   1      33.099  30.369  25.853  1.00  0.00     0.163 HD
ATOM     27  O   UNL A   1      33.815  31.669  27.759  1.00  0.00    -0.269 OA
BRANCH  25  28
ATOM     28  C   UNL A   1      35.632  30.202  28.012  1.00  0.00     0.039 A 
ATOM     29  C   UNL A   1      35.578  29.682  29.309  1.00  0.00     0.014 A 
ATOM     30  C   UNL A   1      36.855  30.292  27.345  1.00  0.00     0.014 A 
ATOM     31  C   UNL A   1      36.739  29.180  29.906  1.00  0.00     0.010 A 
ATOM     32  C   UNL A   1      37.991  29.717  27.905  1.00  0.00     0.010 A 
ATOM     33  C   UNL A   1      37.947  29.158  29.192  1.00  0.00    -0.014 A 
BRANCH  33  34
ATOM     34  C   UNL A   1      39.188  28.562  29.751  1.00  0.00     0.031 A 
ATOM     35  C   UNL A   1      39.853  29.204  30.938  1.00  0.00     0.074 A 
ATOM     36  C   UNL A   1      39.787  27.536  29.113  1.00  0.00     0.049 A 
ATOM     37  N   UNL A   1      41.023  28.956  31.464  1.00  0.00    -0.248 NA
ATOM     38  C   UNL A   1      39.119  30.298  31.598  1.00  0.00     0.031 C 
ATOM     39  C   UNL A   1      39.276  26.869  27.913  1.00  0.00     0.029 A 
ATOM     40  N   UNL A   1      40.980  26.904  29.360  1.00  0.00    -0.354 N 
ATOM     41  C   UNL A   1      41.191  29.894  32.475  1.00  0.00     0.074 A 
ATOM     42  C   UNL A   1      40.011  30.731  32.476  1.00  0.00     0.031 C 
ATOM     43  C   UNL A   1      40.154  25.931  27.523  1.00  0.00     0.029 A 
ATOM     44  C   UNL A   1      41.306  25.954  28.419  1.00  0.00     0.049 A 
ATOM     45  H   UNL A   1      41.549  27.110  30.137  1.00  0.00     0.167 HD
ATOM     46  C   UNL A   1      42.221  30.032  33.342  1.00  0.00     0.034 A 
ATOM     47  C   UNL A   1      42.416  25.201  28.280  1.00  0.00     0.034 A 
ATOM     48  C   UNL A   1      43.360  29.156  33.381  1.00  0.00     0.049 A 
ATOM     49  C   UNL A   1      43.524  25.337  29.290  1.00  0.00     0.074 A 
ATOM     50  C   UNL A   1      44.408  29.151  34.283  1.00  0.00     0.029 A 
ATOM     51  N   UNL A   1      43.598  28.129  32.482  1.00  0.00    -0.354 N 
ATOM     52  N   UNL A   1      43.598  26.134  30.328  1.00  0.00    -0.248 NA
ATOM     53  C   UNL A   1      44.687  24.451  29.131  1.00  0.00     0.031 C 
ATOM     54  C   UNL A   1      45.289  28.126  33.920  1.00  0.00     0.029 A 
ATOM     55  C   UNL A   1      44.777  27.483  32.804  1.00  0.00     0.049 A 
ATOM     56  H   UNL A   1      43.013  27.893  31.725  1.00  0.00     0.167 HD
ATOM     57  C   UNL A   1      44.791  25.817  30.968  1.00  0.00     0.074 A 
ATOM     58  C   UNL A   1      45.403  24.748  30.208  1.00  0.00     0.031 C 
ATOM     59  C   UNL A   1      45.337  26.372  32.078  1.00  0.00     0.034 A 
BRANCH  46  60
ATOM     60  C   UNL A   1      42.138  31.138  34.362  1.00  0.00     0.023 A 
ATOM     61  C   UNL A   1      41.610  30.865  35.640  1.00  0.00     0.012 A 
ATOM     62  C   UNL A   1      42.634  32.425  34.079  1.00  0.00     0.148 A 
ATOM     63  C   UNL A   1      41.543  31.864  36.609  1.00  0.00     0.002 A 
ATOM     64  C   UNL A   1      42.606  33.404  35.065  1.00  0.00     0.091 A 
ATOM     65  F   UNL A   1      43.113  32.671  32.851  1.00  0.00    -0.205 F 
ATOM     66  C   UNL A   1      42.050  33.129  36.326  1.00  0.00     0.022 A 
BRANCH  64  67
ATOM     67  S   UNL A   1      43.307  35.040  34.824  1.00  0.00     0.127 S 
ATOM     68  O   UNL A   1      44.689  34.719  34.470  1.00  0.00    -0.237 OA
ATOM     69  O   UNL A   1      42.502  35.562  33.720  1.00  0.00    -0.237 OA
ATOM     70  O   UNL A   1      43.129  35.742  36.088  1.00  0.00    -0.744 OA
ENDBRANCH  64  67
ENDBRANCH  46  60
BRANCH  47  71
ATOM     71  C   UNL A   1      42.505  24.205  27.175  1.00  0.00     0.023 A 
ATOM     72  C   UNL A   1      43.213  24.540  26.004  1.00  0.00     0.012 A 
ATOM     73  C   UNL A   1      41.932  22.923  27.286  1.00  0.00     0.148 A 
ATOM     74  C   UNL A   1      43.324  23.629  24.952  1.00  0.00     0.002 A 
ATOM     75  C   UNL A   1      42.093  22.001  26.258  1.00  0.00     0.091 A 
ATOM     76  F   UNL A   1      41.251  22.625  28.402  1.00  0.00    -0.205 F 
ATOM     77  C   UNL A   1      42.773  22.358  25.083  1.00  0.00     0.022 A 
BRANCH  75  78
ATOM     78  S   UNL A   1      41.535  20.298  26.399  1.00  0.00     0.127 S 
ATOM     79  O   UNL A   1      42.257  19.654  25.307  1.00  0.00    -0.237 OA
ATOM     80  O   UNL A   1      41.994  19.936  27.741  1.00  0.00    -0.237 OA
ATOM     81  O   UNL A   1      40.085  20.349  26.261  1.00  0.00    -0.744 OA
ENDBRANCH  75  78
ENDBRANCH  47  71
BRANCH  59  82
ATOM     82  C   UNL A   1      46.641  25.812  32.580  1.00  0.00     0.023 A 
ATOM     83  C   UNL A   1      47.855  26.405  32.186  1.00  0.00     0.012 A 
ATOM     84  C   UNL A   1      46.652  24.770  33.528  1.00  0.00     0.148 A 
ATOM     85  C   UNL A   1      49.065  25.957  32.716  1.00  0.00     0.002 A 
ATOM     86  C   UNL A   1      47.856  24.360  34.086  1.00  0.00     0.091 A 
ATOM     87  F   UNL A   1      45.484  24.208  33.874  1.00  0.00    -0.205 F 
ATOM     88  C   UNL A   1      49.064  24.946  33.675  1.00  0.00     0.022 A 
BRANCH  86  89
ATOM     89  S   UNL A   1      47.944  23.133  35.397  1.00  0.00     0.127 S 
ATOM     90  O   UNL A   1      48.652  22.040  34.733  1.00  0.00    -0.237 OA
ATOM     91  O   UNL A   1      48.720  23.831  36.422  1.00  0.00    -0.237 OA
ATOM     92  O   UNL A   1      46.566  22.847  35.773  1.00  0.00    -0.744 OA
ENDBRANCH  86  89
ENDBRANCH  59  82
ENDBRANCH  33  34
ENDBRANCH  25  28
ENDBRANCH  23  24
ENDBRANCH   1  23
TORSDOF 17
ENDMDL
