MODEL 1
REMARK VINA RESULT:     -11.4      0.000      0.000
REMARK SMILES CC[C@H](C)CN(CC)c1nc(C(=O)NCCCNC(=O)c2ccc(-c3c4nc(c(-c5cccc(S(=O)(=O)[O-])c5F)c5ccc([nH]5)c(-c5cccc(S(=O)(=O)[O-])c5F)c5nc(c(-c6cccc(S(=O)(=O)[O-])c6F)c6ccc3[nH]6)C=C5)C=C4)cc2)cc2ccccc12
REMARK SMILES IDX 15 1 14 2 12 3 13 4 11 6 9 7 10 8 90 9 85 10 89 11 84 12
REMARK SMILES IDX 86 13 88 14 87 15 6 16 5 17 3 18 4 19 2 20 1 21 7 22 8 23
REMARK SMILES IDX 16 24 17 25 18 26 19 27 20 29 21 30 22 31 83 32 23 33 82 34
REMARK SMILES IDX 24 35 25 36 26 37 76 38 27 39 81 40 75 41 77 42 28 43 80 44
REMARK SMILES IDX 74 45 73 46 29 48 61 49 41 50 60 51 42 52 45 53 59 54 78 55
REMARK SMILES IDX 43 56 44 57 58 59 79 60 46 61 30 62 31 63 39 64 32 65 34 66
REMARK SMILES IDX 40 67 33 68 35 69 36 70 37 71 38 72 62 73 63 74 71 75 64 76
REMARK SMILES IDX 66 77 72 78 65 79 67 80 68 81 69 82 70 83 47 84 48 85 56 86
REMARK SMILES IDX 49 87 51 88 57 89 50 90 52 91 53 92 54 93 55 94
REMARK H PARENT 14 5 18 28 77 47 45 58
REMARK Flexibility Score: inf
ROOT
ATOM      1  C   UNL A   1      32.226  26.945  24.294  1.00  0.00     0.118 C 
ENDROOT
BRANCH   1   2
ATOM      2  N   UNL A   1      32.544  26.651  22.916  1.00  0.00    -0.351 N 
ATOM      3  C   UNL A   1      33.231  25.598  22.363  1.00  0.00     0.269 C 
ATOM      4  O   UNL A   1      33.350  25.608  21.133  1.00  0.00    -0.268 OA
ATOM      5  H   UNL A   1      32.216  27.314  22.268  1.00  0.00     0.163 HD
BRANCH   3   6
ATOM      6  C   UNL A   1      33.782  24.437  23.148  1.00  0.00     0.131 A 
ATOM      7  C   UNL A   1      33.716  22.195  23.793  1.00  0.00     0.137 A 
ATOM      8  N   UNL A   1      33.118  23.255  23.201  1.00  0.00    -0.225 NA
ATOM      9  C   UNL A   1      35.055  22.276  24.258  1.00  0.00     0.024 A 
ATOM     10  C   UNL A   1      35.653  23.548  24.338  1.00  0.00    -0.012 A 
ATOM     11  C   UNL A   1      35.819  21.170  24.691  1.00  0.00     0.012 A 
ATOM     12  C   UNL A   1      35.007  24.636  23.767  1.00  0.00     0.043 A 
ATOM     13  C   UNL A   1      36.883  23.710  24.996  1.00  0.00     0.009 A 
ATOM     14  C   UNL A   1      37.044  21.334  25.340  1.00  0.00     0.001 A 
ATOM     15  C   UNL A   1      37.557  22.610  25.524  1.00  0.00     0.001 A 
BRANCH   7  16
ATOM     16  N   UNL A   1      32.942  21.064  24.089  1.00  0.00    -0.356 N 
BRANCH  16  17
ATOM     17  C   UNL A   1      32.417  20.954  25.477  1.00  0.00     0.121 C 
BRANCH  17  18
ATOM     18  C   UNL A   1      32.119  22.342  26.101  1.00  0.00     0.005 C 
ATOM     19  C   UNL A   1      30.630  22.702  25.984  1.00  0.00     0.009 C 
BRANCH  18  20
ATOM     20  C   UNL A   1      32.584  22.490  27.564  1.00  0.00     0.002 C 
ATOM     21  C   UNL A   1      34.111  22.546  27.654  1.00  0.00     0.004 C 
ENDBRANCH  18  20
ENDBRANCH  17  18
ENDBRANCH  16  17
BRANCH  16  22
ATOM     22  C   UNL A   1      32.171  20.428  23.020  1.00  0.00     0.114 C 
ATOM     23  C   UNL A   1      32.364  18.928  22.887  1.00  0.00     0.027 C 
ENDBRANCH  16  22
ENDBRANCH   7  16
ENDBRANCH   3   6
ENDBRANCH   1   2
BRANCH   1  24
ATOM     24  C   UNL A   1      31.930  28.414  24.521  1.00  0.00     0.042 C 
BRANCH  24  25
ATOM     25  C   UNL A   1      32.927  29.079  25.452  1.00  0.00     0.118 C 
BRANCH  25  26
ATOM     26  N   UNL A   1      32.485  30.401  25.887  1.00  0.00    -0.352 N 
ATOM     27  C   UNL A   1      32.987  31.230  26.863  1.00  0.00     0.251 C 
ATOM     28  H   UNL A   1      31.704  30.757  25.405  1.00  0.00     0.163 HD
ATOM     29  O   UNL A   1      32.342  32.208  27.220  1.00  0.00    -0.269 OA
BRANCH  27  30
ATOM     30  C   UNL A   1      34.294  30.930  27.487  1.00  0.00     0.039 A 
ATOM     31  C   UNL A   1      35.203  31.968  27.697  1.00  0.00     0.014 A 
ATOM     32  C   UNL A   1      34.624  29.626  27.858  1.00  0.00     0.014 A 
ATOM     33  C   UNL A   1      36.415  31.704  28.341  1.00  0.00     0.010 A 
ATOM     34  C   UNL A   1      35.770  29.387  28.601  1.00  0.00     0.010 A 
ATOM     35  C   UNL A   1      36.692  30.418  28.832  1.00  0.00    -0.014 A 
BRANCH  35  36
ATOM     36  C   UNL A   1      37.946  30.118  29.569  1.00  0.00     0.031 A 
ATOM     37  C   UNL A   1      38.962  29.179  28.970  1.00  0.00     0.074 A 
ATOM     38  C   UNL A   1      38.128  30.614  30.808  1.00  0.00     0.049 A 
ATOM     39  N   UNL A   1      40.077  28.734  29.487  1.00  0.00    -0.248 NA
ATOM     40  C   UNL A   1      38.672  28.641  27.628  1.00  0.00     0.031 C 
ATOM     41  C   UNL A   1      37.180  31.465  31.531  1.00  0.00     0.029 A 
ATOM     42  N   UNL A   1      39.165  30.453  31.693  1.00  0.00    -0.354 N 
ATOM     43  C   UNL A   1      40.595  27.837  28.560  1.00  0.00     0.074 A 
ATOM     44  C   UNL A   1      39.655  27.768  27.464  1.00  0.00     0.031 C 
ATOM     45  C   UNL A   1      37.681  31.756  32.741  1.00  0.00     0.029 A 
ATOM     46  C   UNL A   1      38.967  31.086  32.899  1.00  0.00     0.049 A 
ATOM     47  H   UNL A   1      39.975  29.933  31.486  1.00  0.00     0.167 HD
ATOM     48  C   UNL A   1      41.762  27.154  28.600  1.00  0.00     0.034 A 
ATOM     49  C   UNL A   1      39.729  31.112  34.010  1.00  0.00     0.034 A 
ATOM     50  C   UNL A   1      42.719  27.267  29.666  1.00  0.00     0.049 A 
ATOM     51  C   UNL A   1      41.045  30.382  34.005  1.00  0.00     0.074 A 
ATOM     52  C   UNL A   1      43.974  26.693  29.757  1.00  0.00     0.029 A 
ATOM     53  N   UNL A   1      42.525  27.995  30.829  1.00  0.00    -0.354 N 
ATOM     54  N   UNL A   1      41.590  29.666  33.052  1.00  0.00    -0.248 NA
ATOM     55  C   UNL A   1      41.872  30.495  35.216  1.00  0.00     0.031 C 
ATOM     56  C   UNL A   1      44.526  27.048  30.991  1.00  0.00     0.029 A 
ATOM     57  C   UNL A   1      43.632  27.878  31.649  1.00  0.00     0.049 A 
ATOM     58  H   UNL A   1      41.718  28.518  31.040  1.00  0.00     0.167 HD
ATOM     59  C   UNL A   1      42.837  29.281  33.528  1.00  0.00     0.074 A 
ATOM     60  C   UNL A   1      42.977  29.861  34.848  1.00  0.00     0.031 C 
ATOM     61  C   UNL A   1      43.779  28.510  32.933  1.00  0.00     0.034 A 
BRANCH  48  62
ATOM     62  C   UNL A   1      42.101  26.260  27.435  1.00  0.00     0.023 A 
ATOM     63  C   UNL A   1      42.732  26.801  26.297  1.00  0.00     0.012 A 
ATOM     64  C   UNL A   1      41.865  24.872  27.501  1.00  0.00     0.148 A 
ATOM     65  C   UNL A   1      43.098  25.981  25.231  1.00  0.00     0.002 A 
ATOM     66  C   UNL A   1      42.279  24.055  26.457  1.00  0.00     0.091 A 
ATOM     67  F   UNL A   1      41.245  24.380  28.584  1.00  0.00    -0.205 F 
ATOM     68  C   UNL A   1      42.883  24.609  25.316  1.00  0.00     0.022 A 
BRANCH  66  69
ATOM     69  S   UNL A   1      42.128  22.266  26.505  1.00  0.00     0.127 S 
ATOM     70  O   UNL A   1      40.689  22.087  26.317  1.00  0.00    -0.237 OA
ATOM     71  O   UNL A   1      42.947  21.860  25.364  1.00  0.00    -0.237 OA
ATOM     72  O   UNL A   1      42.639  21.852  27.804  1.00  0.00    -0.744 OA
ENDBRANCH  66  69
ENDBRANCH  48  62
BRANCH  49  73
ATOM     73  C   UNL A   1      39.297  31.895  35.203  1.00  0.00     0.023 A 
ATOM     74  C   UNL A   1      38.435  31.304  36.147  1.00  0.00     0.012 A 
ATOM     75  C   UNL A   1      39.733  33.219  35.406  1.00  0.00     0.148 A 
ATOM     76  C   UNL A   1      37.975  32.032  37.245  1.00  0.00     0.002 A 
ATOM     77  C   UNL A   1      39.318  33.918  36.535  1.00  0.00     0.091 A 
ATOM     78  F   UNL A   1      40.547  33.768  34.494  1.00  0.00    -0.205 F 
ATOM     79  C   UNL A   1      38.423  33.334  37.444  1.00  0.00     0.022 A 
BRANCH  77  80
ATOM     80  S   UNL A   1      39.948  35.551  36.938  1.00  0.00     0.127 S 
ATOM     81  O   UNL A   1      39.441  36.350  35.827  1.00  0.00    -0.237 OA
ATOM     82  O   UNL A   1      39.309  35.812  38.228  1.00  0.00    -0.237 OA
ATOM     83  O   UNL A   1      41.396  35.407  37.006  1.00  0.00    -0.744 OA
ENDBRANCH  77  80
ENDBRANCH  49  73
BRANCH  61  84
ATOM     84  C   UNL A   1      45.075  28.291  33.671  1.00  0.00     0.023 A 
ATOM     85  C   UNL A   1      46.139  29.201  33.520  1.00  0.00     0.012 A 
ATOM     86  C   UNL A   1      45.204  27.218  34.573  1.00  0.00     0.148 A 
ATOM     87  C   UNL A   1      47.327  29.024  34.228  1.00  0.00     0.002 A 
ATOM     88  C   UNL A   1      46.369  27.078  35.317  1.00  0.00     0.091 A 
ATOM     89  F   UNL A   1      44.185  26.353  34.690  1.00  0.00    -0.205 F 
ATOM     90  C   UNL A   1      47.437  27.971  35.134  1.00  0.00     0.022 A 
BRANCH  88  91
ATOM     91  S   UNL A   1      46.560  25.816  36.579  1.00  0.00     0.127 S 
ATOM     92  O   UNL A   1      46.311  24.593  35.818  1.00  0.00    -0.237 OA
ATOM     93  O   UNL A   1      47.950  26.004  36.996  1.00  0.00    -0.237 OA
ATOM     94  O   UNL A   1      45.575  26.122  37.607  1.00  0.00    -0.744 OA
ENDBRANCH  88  91
ENDBRANCH  61  84
ENDBRANCH  35  36
ENDBRANCH  27  30
ENDBRANCH  25  26
ENDBRANCH  24  25
ENDBRANCH   1  24
TORSDOF 18
ENDMDL
MODEL 2
REMARK VINA RESULT:     -11.3      4.055      7.331
REMARK SMILES CC[C@H](C)CN(CC)c1nc(C(=O)NCCCNC(=O)c2ccc(-c3c4nc(c(-c5cccc(S(=O)(=O)[O-])c5F)c5ccc([nH]5)c(-c5cccc(S(=O)(=O)[O-])c5F)c5nc(c(-c6cccc(S(=O)(=O)[O-])c6F)c6ccc3[nH]6)C=C5)C=C4)cc2)cc2ccccc12
REMARK SMILES IDX 15 1 14 2 12 3 13 4 11 6 9 7 10 8 90 9 85 10 89 11 84 12
REMARK SMILES IDX 86 13 88 14 87 15 6 16 5 17 3 18 4 19 2 20 1 21 7 22 8 23
REMARK SMILES IDX 16 24 17 25 18 26 19 27 20 29 21 30 22 31 83 32 23 33 82 34
REMARK SMILES IDX 24 35 25 36 26 37 76 38 27 39 81 40 75 41 77 42 28 43 80 44
REMARK SMILES IDX 74 45 73 46 29 48 61 49 41 50 60 51 42 52 45 53 59 54 78 55
REMARK SMILES IDX 43 56 44 57 58 59 79 60 46 61 30 62 31 63 39 64 32 65 34 66
REMARK SMILES IDX 40 67 33 68 35 69 36 70 37 71 38 72 62 73 63 74 71 75 64 76
REMARK SMILES IDX 66 77 72 78 65 79 67 80 68 81 69 82 70 83 47 84 48 85 56 86
REMARK SMILES IDX 49 87 51 88 57 89 50 90 52 91 53 92 54 93 55 94
REMARK H PARENT 14 5 18 28 77 47 45 58
REMARK Flexibility Score: inf
ROOT
ATOM      1  C   UNL A   1      33.866  22.937  25.843  1.00  0.00     0.118 C 
ENDROOT
BRANCH   1   2
ATOM      2  N   UNL A   1      32.599  22.869  26.533  1.00  0.00    -0.351 N 
ATOM      3  C   UNL A   1      31.634  23.827  26.724  1.00  0.00     0.269 C 
ATOM      4  O   UNL A   1      30.635  23.478  27.363  1.00  0.00    -0.268 OA
ATOM      5  H   UNL A   1      32.395  21.993  26.932  1.00  0.00     0.163 HD
BRANCH   3   6
ATOM      6  C   UNL A   1      31.700  25.224  26.163  1.00  0.00     0.131 A 
ATOM      7  C   UNL A   1      30.822  26.937  24.845  1.00  0.00     0.137 A 
ATOM      8  N   UNL A   1      30.822  25.636  25.215  1.00  0.00    -0.225 NA
ATOM      9  C   UNL A   1      31.646  27.886  25.506  1.00  0.00     0.024 A 
ATOM     10  C   UNL A   1      32.655  27.404  26.363  1.00  0.00    -0.012 A 
ATOM     11  C   UNL A   1      31.556  29.285  25.330  1.00  0.00     0.012 A 
ATOM     12  C   UNL A   1      32.671  26.057  26.698  1.00  0.00     0.043 A 
ATOM     13  C   UNL A   1      33.634  28.279  26.862  1.00  0.00     0.009 A 
ATOM     14  C   UNL A   1      32.527  30.151  25.831  1.00  0.00     0.001 A 
ATOM     15  C   UNL A   1      33.588  29.640  26.568  1.00  0.00     0.001 A 
BRANCH   7  16
ATOM     16  N   UNL A   1      30.117  27.310  23.692  1.00  0.00    -0.356 N 
BRANCH  16  17
ATOM     17  C   UNL A   1      30.914  27.493  22.448  1.00  0.00     0.121 C 
BRANCH  17  18
ATOM     18  C   UNL A   1      31.991  26.391  22.275  1.00  0.00     0.005 C 
ATOM     19  C   UNL A   1      32.024  25.859  20.835  1.00  0.00     0.009 C 
BRANCH  18  20
ATOM     20  C   UNL A   1      33.406  26.818  22.713  1.00  0.00     0.002 C 
ATOM     21  C   UNL A   1      34.159  25.653  23.361  1.00  0.00     0.004 C 
ENDBRANCH  18  20
ENDBRANCH  17  18
ENDBRANCH  16  17
BRANCH  16  22
ATOM     22  C   UNL A   1      28.718  26.902  23.548  1.00  0.00     0.114 C 
ATOM     23  C   UNL A   1      27.711  28.038  23.536  1.00  0.00     0.027 C 
ENDBRANCH  16  22
ENDBRANCH   7  16
ENDBRANCH   3   6
ENDBRANCH   1   2
BRANCH   1  24
ATOM     24  C   UNL A   1      34.998  23.381  26.749  1.00  0.00     0.042 C 
BRANCH  24  25
ATOM     25  C   UNL A   1      36.244  23.784  25.983  1.00  0.00     0.118 C 
BRANCH  25  26
ATOM     26  N   UNL A   1      37.267  22.742  25.998  1.00  0.00    -0.352 N 
ATOM     27  C   UNL A   1      38.616  22.826  26.252  1.00  0.00     0.251 C 
ATOM     28  H   UNL A   1      36.940  21.836  25.795  1.00  0.00     0.163 HD
ATOM     29  O   UNL A   1      39.340  21.869  26.005  1.00  0.00    -0.269 OA
BRANCH  27  30
ATOM     30  C   UNL A   1      39.188  24.071  26.807  1.00  0.00     0.039 A 
ATOM     31  C   UNL A   1      39.883  24.938  25.960  1.00  0.00     0.014 A 
ATOM     32  C   UNL A   1      39.045  24.380  28.159  1.00  0.00     0.014 A 
ATOM     33  C   UNL A   1      40.375  26.145  26.464  1.00  0.00     0.010 A 
ATOM     34  C   UNL A   1      39.428  25.629  28.628  1.00  0.00     0.010 A 
ATOM     35  C   UNL A   1      40.118  26.518  27.793  1.00  0.00    -0.014 A 
BRANCH  35  36
ATOM     36  C   UNL A   1      40.579  27.818  28.341  1.00  0.00     0.031 A 
ATOM     37  C   UNL A   1      42.054  28.082  28.508  1.00  0.00     0.074 A 
ATOM     38  C   UNL A   1      39.675  28.721  28.771  1.00  0.00     0.049 A 
ATOM     39  N   UNL A   1      42.651  29.118  29.036  1.00  0.00    -0.248 NA
ATOM     40  C   UNL A   1      42.981  27.029  28.055  1.00  0.00     0.031 C 
ATOM     41  C   UNL A   1      38.221  28.547  28.743  1.00  0.00     0.029 A 
ATOM     42  N   UNL A   1      39.847  29.957  29.343  1.00  0.00    -0.354 N 
ATOM     43  C   UNL A   1      44.009  28.825  29.018  1.00  0.00     0.074 A 
ATOM     44  C   UNL A   1      44.150  27.497  28.465  1.00  0.00     0.031 C 
ATOM     45  C   UNL A   1      37.635  29.636  29.264  1.00  0.00     0.029 A 
ATOM     46  C   UNL A   1      38.668  30.571  29.699  1.00  0.00     0.049 A 
ATOM     47  H   UNL A   1      40.731  30.366  29.486  1.00  0.00     0.167 HD
ATOM     48  C   UNL A   1      45.050  29.601  29.400  1.00  0.00     0.034 A 
ATOM     49  C   UNL A   1      38.445  31.747  30.317  1.00  0.00     0.034 A 
ATOM     50  C   UNL A   1      44.908  30.941  29.899  1.00  0.00     0.049 A 
ATOM     51  C   UNL A   1      39.623  32.609  30.685  1.00  0.00     0.074 A 
ATOM     52  C   UNL A   1      45.903  31.846  30.223  1.00  0.00     0.029 A 
ATOM     53  N   UNL A   1      43.698  31.565  30.156  1.00  0.00    -0.354 N 
ATOM     54  N   UNL A   1      40.902  32.378  30.512  1.00  0.00    -0.248 NA
ATOM     55  C   UNL A   1      39.327  33.913  31.296  1.00  0.00     0.031 C 
ATOM     56  C   UNL A   1      45.294  33.007  30.706  1.00  0.00     0.029 A 
ATOM     57  C   UNL A   1      43.920  32.840  30.643  1.00  0.00     0.049 A 
ATOM     58  H   UNL A   1      42.812  31.161  30.013  1.00  0.00     0.167 HD
ATOM     59  C   UNL A   1      41.558  33.522  30.952  1.00  0.00     0.074 A 
ATOM     60  C   UNL A   1      40.535  34.453  31.379  1.00  0.00     0.031 C 
ATOM     61  C   UNL A   1      42.889  33.776  31.007  1.00  0.00     0.034 A 
BRANCH  48  62
ATOM     62  C   UNL A   1      46.442  29.045  29.246  1.00  0.00     0.023 A 
ATOM     63  C   UNL A   1      47.025  28.316  30.302  1.00  0.00     0.012 A 
ATOM     64  C   UNL A   1      47.139  29.177  28.029  1.00  0.00     0.148 A 
ATOM     65  C   UNL A   1      48.292  27.751  30.160  1.00  0.00     0.002 A 
ATOM     66  C   UNL A   1      48.379  28.568  27.878  1.00  0.00     0.091 A 
ATOM     67  F   UNL A   1      46.575  29.892  27.044  1.00  0.00    -0.205 F 
ATOM     68  C   UNL A   1      48.962  27.866  28.946  1.00  0.00     0.022 A 
BRANCH  66  69
ATOM     69  S   UNL A   1      49.285  28.583  26.328  1.00  0.00     0.127 S 
ATOM     70  O   UNL A   1      49.820  29.943  26.312  1.00  0.00    -0.237 OA
ATOM     71  O   UNL A   1      50.284  27.537  26.549  1.00  0.00    -0.237 OA
ATOM     72  O   UNL A   1      48.311  28.288  25.287  1.00  0.00    -0.744 OA
ENDBRANCH  66  69
ENDBRANCH  48  62
BRANCH  49  73
ATOM     73  C   UNL A   1      37.052  32.207  30.583  1.00  0.00     0.023 A 
ATOM     74  C   UNL A   1      36.494  32.027  31.864  1.00  0.00     0.012 A 
ATOM     75  C   UNL A   1      36.279  32.819  29.578  1.00  0.00     0.148 A 
ATOM     76  C   UNL A   1      35.175  32.402  32.125  1.00  0.00     0.002 A 
ATOM     77  C   UNL A   1      34.986  33.245  29.862  1.00  0.00     0.091 A 
ATOM     78  F   UNL A   1      36.823  32.975  28.363  1.00  0.00    -0.205 F 
ATOM     79  C   UNL A   1      34.425  33.019  31.128  1.00  0.00     0.022 A 
BRANCH  77  80
ATOM     80  S   UNL A   1      33.996  34.164  28.679  1.00  0.00     0.127 S 
ATOM     81  O   UNL A   1      33.682  33.137  27.689  1.00  0.00    -0.237 OA
ATOM     82  O   UNL A   1      32.864  34.594  29.501  1.00  0.00    -0.237 OA
ATOM     83  O   UNL A   1      34.846  35.252  28.216  1.00  0.00    -0.744 OA
ENDBRANCH  77  80
ENDBRANCH  49  73
BRANCH  61  84
ATOM     84  C   UNL A   1      43.323  35.135  31.491  1.00  0.00     0.023 A 
ATOM     85  C   UNL A   1      43.660  36.142  30.566  1.00  0.00     0.012 A 
ATOM     86  C   UNL A   1      43.323  35.431  32.868  1.00  0.00     0.148 A 
ATOM     87  C   UNL A   1      44.028  37.412  31.007  1.00  0.00     0.002 A 
ATOM     88  C   UNL A   1      43.636  36.714  33.297  1.00  0.00     0.091 A 
ATOM     89  F   UNL A   1      43.015  34.453  33.733  1.00  0.00    -0.205 F 
ATOM     90  C   UNL A   1      44.004  37.702  32.369  1.00  0.00     0.022 A 
BRANCH  88  91
ATOM     91  S   UNL A   1      43.532  37.204  35.022  1.00  0.00     0.127 S 
ATOM     92  O   UNL A   1      43.905  38.616  34.953  1.00  0.00    -0.237 OA
ATOM     93  O   UNL A   1      42.122  36.959  35.327  1.00  0.00    -0.237 OA
ATOM     94  O   UNL A   1      44.463  36.346  35.741  1.00  0.00    -0.744 OA
ENDBRANCH  88  91
ENDBRANCH  61  84
ENDBRANCH  35  36
ENDBRANCH  27  30
ENDBRANCH  25  26
ENDBRANCH  24  25
ENDBRANCH   1  24
TORSDOF 18
ENDMDL
MODEL 3
REMARK VINA RESULT:     -11.3      4.129      7.572
REMARK SMILES CC[C@H](C)CN(CC)c1nc(C(=O)NCCCNC(=O)c2ccc(-c3c4nc(c(-c5cccc(S(=O)(=O)[O-])c5F)c5ccc([nH]5)c(-c5cccc(S(=O)(=O)[O-])c5F)c5nc(c(-c6cccc(S(=O)(=O)[O-])c6F)c6ccc3[nH]6)C=C5)C=C4)cc2)cc2ccccc12
REMARK SMILES IDX 15 1 14 2 12 3 13 4 11 6 9 7 10 8 90 9 85 10 89 11 84 12
REMARK SMILES IDX 86 13 88 14 87 15 6 16 5 17 3 18 4 19 2 20 1 21 7 22 8 23
REMARK SMILES IDX 16 24 17 25 18 26 19 27 20 29 21 30 22 31 83 32 23 33 82 34
REMARK SMILES IDX 24 35 25 36 26 37 76 38 27 39 81 40 75 41 77 42 28 43 80 44
REMARK SMILES IDX 74 45 73 46 29 48 61 49 41 50 60 51 42 52 45 53 59 54 78 55
REMARK SMILES IDX 43 56 44 57 58 59 79 60 46 61 30 62 31 63 39 64 32 65 34 66
REMARK SMILES IDX 40 67 33 68 35 69 36 70 37 71 38 72 62 73 63 74 71 75 64 76
REMARK SMILES IDX 66 77 72 78 65 79 67 80 68 81 69 82 70 83 47 84 48 85 56 86
REMARK SMILES IDX 49 87 51 88 57 89 50 90 52 91 53 92 54 93 55 94
REMARK H PARENT 14 5 18 28 77 47 45 58
REMARK Flexibility Score: inf
ROOT
ATOM      1  C   UNL A   1      34.740  23.902  24.300  1.00  0.00     0.118 C 
ENDROOT
BRANCH   1   2
ATOM      2  N   UNL A   1      34.402  24.269  22.944  1.00  0.00    -0.351 N 
ATOM      3  C   UNL A   1      33.671  25.326  22.460  1.00  0.00     0.269 C 
ATOM      4  O   UNL A   1      33.547  25.388  21.232  1.00  0.00    -0.268 OA
ATOM      5  H   UNL A   1      34.753  23.661  22.255  1.00  0.00     0.163 HD
BRANCH   3   6
ATOM      6  C   UNL A   1      33.079  26.414  23.318  1.00  0.00     0.131 A 
ATOM      7  C   UNL A   1      31.248  27.645  24.075  1.00  0.00     0.137 A 
ATOM      8  N   UNL A   1      31.777  26.770  23.189  1.00  0.00    -0.225 NA
ATOM      9  C   UNL A   1      32.001  28.106  25.187  1.00  0.00     0.024 A 
ATOM     10  C   UNL A   1      33.386  27.851  25.201  1.00  0.00    -0.012 A 
ATOM     11  C   UNL A   1      31.466  28.846  26.265  1.00  0.00     0.012 A 
ATOM     12  C   UNL A   1      33.924  26.987  24.256  1.00  0.00     0.043 A 
ATOM     13  C   UNL A   1      34.209  28.473  26.154  1.00  0.00     0.009 A 
ATOM     14  C   UNL A   1      32.286  29.458  27.213  1.00  0.00     0.001 A 
ATOM     15  C   UNL A   1      33.663  29.299  27.133  1.00  0.00     0.001 A 
BRANCH   7  16
ATOM     16  N   UNL A   1      29.999  28.218  23.792  1.00  0.00    -0.356 N 
BRANCH  16  17
ATOM     17  C   UNL A   1      30.007  29.526  23.082  1.00  0.00     0.121 C 
BRANCH  17  18
ATOM     18  C   UNL A   1      28.755  30.378  23.412  1.00  0.00     0.005 C 
ATOM     19  C   UNL A   1      29.143  31.777  23.915  1.00  0.00     0.009 C 
BRANCH  18  20
ATOM     20  C   UNL A   1      27.748  30.496  22.249  1.00  0.00     0.002 C 
ATOM     21  C   UNL A   1      28.369  31.218  21.051  1.00  0.00     0.004 C 
ENDBRANCH  18  20
ENDBRANCH  17  18
ENDBRANCH  16  17
BRANCH  16  22
ATOM     22  C   UNL A   1      28.842  27.344  23.593  1.00  0.00     0.114 C 
ATOM     23  C   UNL A   1      28.856  26.058  24.399  1.00  0.00     0.027 C 
ENDBRANCH  16  22
ENDBRANCH   7  16
ENDBRANCH   3   6
ENDBRANCH   1   2
BRANCH   1  24
ATOM     24  C   UNL A   1      36.146  23.347  24.419  1.00  0.00     0.042 C 
BRANCH  24  25
ATOM     25  C   UNL A   1      36.671  23.370  25.842  1.00  0.00     0.118 C 
BRANCH  25  26
ATOM     26  N   UNL A   1      37.829  22.499  26.022  1.00  0.00    -0.352 N 
ATOM     27  C   UNL A   1      39.119  22.801  26.390  1.00  0.00     0.251 C 
ATOM     28  H   UNL A   1      37.659  21.544  25.854  1.00  0.00     0.163 HD
ATOM     29  O   UNL A   1      39.996  21.953  26.276  1.00  0.00    -0.269 OA
BRANCH  27  30
ATOM     30  C   UNL A   1      39.445  24.148  26.906  1.00  0.00     0.039 A 
ATOM     31  C   UNL A   1      39.205  24.438  28.250  1.00  0.00     0.014 A 
ATOM     32  C   UNL A   1      39.980  25.123  26.064  1.00  0.00     0.014 A 
ATOM     33  C   UNL A   1      39.566  25.689  28.760  1.00  0.00     0.010 A 
ATOM     34  C   UNL A   1      40.446  26.316  26.596  1.00  0.00     0.010 A 
ATOM     35  C   UNL A   1      40.225  26.624  27.945  1.00  0.00    -0.014 A 
BRANCH  35  36
ATOM     36  C   UNL A   1      40.670  27.939  28.472  1.00  0.00     0.031 A 
ATOM     37  C   UNL A   1      42.142  28.222  28.636  1.00  0.00     0.074 A 
ATOM     38  C   UNL A   1      39.756  28.839  28.884  1.00  0.00     0.049 A 
ATOM     39  N   UNL A   1      42.726  29.274  29.147  1.00  0.00    -0.248 NA
ATOM     40  C   UNL A   1      43.082  27.171  28.203  1.00  0.00     0.031 C 
ATOM     41  C   UNL A   1      38.304  28.648  28.857  1.00  0.00     0.029 A 
ATOM     42  N   UNL A   1      39.913  30.087  29.435  1.00  0.00    -0.354 N 
ATOM     43  C   UNL A   1      44.088  28.995  29.136  1.00  0.00     0.074 A 
ATOM     44  C   UNL A   1      44.245  27.660  28.607  1.00  0.00     0.031 C 
ATOM     45  C   UNL A   1      37.705  29.740  29.358  1.00  0.00     0.029 A 
ATOM     46  C   UNL A   1      38.727  30.693  29.778  1.00  0.00     0.049 A 
ATOM     47  H   UNL A   1      40.792  30.508  29.572  1.00  0.00     0.167 HD
ATOM     48  C   UNL A   1      45.119  29.790  29.506  1.00  0.00     0.034 A 
ATOM     49  C   UNL A   1      38.490  31.878  30.376  1.00  0.00     0.034 A 
ATOM     50  C   UNL A   1      44.963  31.136  29.982  1.00  0.00     0.049 A 
ATOM     51  C   UNL A   1      39.658  32.759  30.730  1.00  0.00     0.074 A 
ATOM     52  C   UNL A   1      45.946  32.057  30.291  1.00  0.00     0.029 A 
ATOM     53  N   UNL A   1      43.745  31.751  30.226  1.00  0.00    -0.354 N 
ATOM     54  N   UNL A   1      40.939  32.539  30.564  1.00  0.00    -0.248 NA
ATOM     55  C   UNL A   1      39.346  34.070  31.318  1.00  0.00     0.031 C 
ATOM     56  C   UNL A   1      45.324  33.220  30.754  1.00  0.00     0.029 A 
ATOM     57  C   UNL A   1      43.951  33.037  30.691  1.00  0.00     0.049 A 
ATOM     58  H   UNL A   1      42.864  31.334  30.089  1.00  0.00     0.167 HD
ATOM     59  C   UNL A   1      41.582  33.697  30.985  1.00  0.00     0.074 A 
ATOM     60  C   UNL A   1      40.548  34.624  31.394  1.00  0.00     0.031 C 
ATOM     61  C   UNL A   1      42.909  33.967  31.037  1.00  0.00     0.034 A 
BRANCH  48  62
ATOM     62  C   UNL A   1      46.518  29.246  29.365  1.00  0.00     0.023 A 
ATOM     63  C   UNL A   1      47.081  28.481  30.406  1.00  0.00     0.012 A 
ATOM     64  C   UNL A   1      47.242  29.426  28.169  1.00  0.00     0.148 A 
ATOM     65  C   UNL A   1      48.354  27.929  30.273  1.00  0.00     0.002 A 
ATOM     66  C   UNL A   1      48.488  28.829  28.025  1.00  0.00     0.091 A 
ATOM     67  F   UNL A   1      46.697  30.174  27.199  1.00  0.00    -0.205 F 
ATOM     68  C   UNL A   1      49.051  28.091  29.080  1.00  0.00     0.022 A 
BRANCH  66  69
ATOM     69  S   UNL A   1      49.430  28.905  26.498  1.00  0.00     0.127 S 
ATOM     70  O   UNL A   1      50.533  27.990  26.786  1.00  0.00    -0.237 OA
ATOM     71  O   UNL A   1      48.464  28.406  25.519  1.00  0.00    -0.237 OA
ATOM     72  O   UNL A   1      49.811  30.300  26.326  1.00  0.00    -0.744 OA
ENDBRANCH  66  69
ENDBRANCH  48  62
BRANCH  49  73
ATOM     73  C   UNL A   1      37.091  32.326  30.632  1.00  0.00     0.023 A 
ATOM     74  C   UNL A   1      36.545  32.196  31.923  1.00  0.00     0.012 A 
ATOM     75  C   UNL A   1      36.301  32.880  29.606  1.00  0.00     0.148 A 
ATOM     76  C   UNL A   1      35.223  32.561  32.178  1.00  0.00     0.002 A 
ATOM     77  C   UNL A   1      35.004  33.298  29.881  1.00  0.00     0.091 A 
ATOM     78  F   UNL A   1      36.834  32.990  28.381  1.00  0.00    -0.205 F 
ATOM     79  C   UNL A   1      34.455  33.120  31.160  1.00  0.00     0.022 A 
BRANCH  77  80
ATOM     80  S   UNL A   1      33.990  34.147  28.665  1.00  0.00     0.127 S 
ATOM     81  O   UNL A   1      33.693  33.073  27.721  1.00  0.00    -0.237 OA
ATOM     82  O   UNL A   1      32.853  34.588  29.474  1.00  0.00    -0.237 OA
ATOM     83  O   UNL A   1      34.817  35.231  28.153  1.00  0.00    -0.744 OA
ENDBRANCH  77  80
ENDBRANCH  49  73
BRANCH  61  84
ATOM     84  C   UNL A   1      43.328  35.339  31.498  1.00  0.00     0.023 A 
ATOM     85  C   UNL A   1      43.620  36.345  30.556  1.00  0.00     0.012 A 
ATOM     86  C   UNL A   1      43.358  35.648  32.872  1.00  0.00     0.148 A 
ATOM     87  C   UNL A   1      43.972  37.626  30.976  1.00  0.00     0.002 A 
ATOM     88  C   UNL A   1      43.656  36.940  33.282  1.00  0.00     0.091 A 
ATOM     89  F   UNL A   1      43.093  34.671  33.753  1.00  0.00    -0.205 F 
ATOM     90  C   UNL A   1      43.978  37.927  32.337  1.00  0.00     0.022 A 
BRANCH  88  91
ATOM     91  S   UNL A   1      43.586  37.443  35.005  1.00  0.00     0.127 S 
ATOM     92  O   UNL A   1      43.981  38.849  34.921  1.00  0.00    -0.237 OA
ATOM     93  O   UNL A   1      42.178  37.223  35.334  1.00  0.00    -0.237 OA
ATOM     94  O   UNL A   1      44.515  36.576  35.715  1.00  0.00    -0.744 OA
ENDBRANCH  88  91
ENDBRANCH  61  84
ENDBRANCH  35  36
ENDBRANCH  27  30
ENDBRANCH  25  26
ENDBRANCH  24  25
ENDBRANCH   1  24
TORSDOF 18
ENDMDL
