MODEL 1
REMARK VINA RESULT:     -11.4      0.000      0.000
REMARK SMILES CC[C@]1(C(=O)NCCCNC(=O)c2ccc(-c3c4nc(c(-c5cccc(S(=O)(=O)[O-])c5F)c5ccc([nH]5)c(-c5cccc(S(=O)(=O)[O-])c5F)c5nc(c(-c6cccc(S(=O)(=O)[O-])c6F)c6ccc3[nH]6)C=C5)C=C4)cc2)CCCN(S(=O)(=O)CCOC(C)C)C1
REMARK SMILES IDX 7 1 6 2 4 3 5 4 3 6 76 7 89 8 77 9 79 10 78 11 2 12 1 13
REMARK SMILES IDX 80 14 81 15 82 16 83 17 84 18 85 19 86 20 87 21 88 22 8 23
REMARK SMILES IDX 9 24 10 25 11 26 12 28 13 29 14 30 75 31 15 32 74 33 16 34
REMARK SMILES IDX 17 35 18 36 68 37 19 38 73 39 67 40 69 41 20 42 72 43 66 44
REMARK SMILES IDX 65 45 21 47 53 48 33 49 52 50 34 51 37 52 51 53 70 54 35 55
REMARK SMILES IDX 36 56 50 58 71 59 38 60 22 61 23 62 31 63 24 64 26 65 32 66
REMARK SMILES IDX 25 67 27 68 28 69 29 70 30 71 54 72 55 73 63 74 56 75 58 76
REMARK SMILES IDX 64 77 57 78 59 79 60 80 61 81 62 82 39 83 40 84 48 85 41 86
REMARK SMILES IDX 43 87 49 88 42 89 44 90 45 91 46 92 47 93
REMARK H PARENT 6 5 10 27 69 46 37 57
REMARK Flexibility Score: inf
ROOT
ATOM      1  C   UNL A   1      31.941  30.499  26.058  1.00  0.00     0.117 C 
ENDROOT
BRANCH   1   2
ATOM      2  N   UNL A   1      31.688  29.557  27.134  1.00  0.00    -0.356 N 
ATOM      3  C   UNL A   1      31.657  28.200  27.184  1.00  0.00     0.227 C 
ATOM      4  O   UNL A   1      31.472  27.732  28.312  1.00  0.00    -0.274 OA
ATOM      5  H   UNL A   1      31.503  29.988  28.000  1.00  0.00     0.163 HD
BRANCH   3   6
ATOM      6  C   UNL A   1      31.920  27.305  25.937  1.00  0.00     0.063 C 
ATOM      7  C   UNL A   1      33.216  27.746  25.214  1.00  0.00     0.019 C 
ATOM      8  C   UNL A   1      31.987  25.859  26.527  1.00  0.00     0.119 C 
ATOM      9  C   UNL A   1      33.957  26.634  24.475  1.00  0.00     0.018 C 
ATOM     10  N   UNL A   1      32.810  24.890  25.740  1.00  0.00    -0.201 NA
ATOM     11  C   UNL A   1      34.141  25.403  25.340  1.00  0.00     0.102 C 
BRANCH   6  12
ATOM     12  C   UNL A   1      30.656  27.473  24.991  1.00  0.00     0.015 C 
ATOM     13  C   UNL A   1      30.752  28.360  23.753  1.00  0.00     0.005 C 
ENDBRANCH   6  12
BRANCH  10  14
ATOM     14  S   UNL A   1      32.834  23.300  26.397  1.00  0.00     0.216 S 
ATOM     15  O   UNL A   1      34.228  22.910  26.509  1.00  0.00    -0.212 OA
ATOM     16  O   UNL A   1      31.981  23.281  27.561  1.00  0.00    -0.212 OA
BRANCH  14  17
ATOM     17  C   UNL A   1      32.072  22.333  25.082  1.00  0.00     0.182 C 
BRANCH  17  18
ATOM     18  C   UNL A   1      32.874  21.094  24.696  1.00  0.00     0.178 C 
BRANCH  18  19
ATOM     19  O   UNL A   1      32.141  20.143  23.914  1.00  0.00    -0.378 OA
BRANCH  19  20
ATOM     20  C   UNL A   1      32.592  18.788  23.888  1.00  0.00     0.112 C 
ATOM     21  C   UNL A   1      32.495  18.105  22.522  1.00  0.00     0.038 C 
ATOM     22  C   UNL A   1      33.981  18.635  24.449  1.00  0.00     0.038 C 
ENDBRANCH  19  20
ENDBRANCH  18  19
ENDBRANCH  17  18
ENDBRANCH  14  17
ENDBRANCH  10  14
ENDBRANCH   3   6
ENDBRANCH   1   2
BRANCH   1  23
ATOM     23  C   UNL A   1      31.651  31.930  26.473  1.00  0.00     0.042 C 
BRANCH  23  24
ATOM     24  C   UNL A   1      32.690  32.481  27.431  1.00  0.00     0.118 C 
BRANCH  24  25
ATOM     25  N   UNL A   1      32.531  33.913  27.639  1.00  0.00    -0.352 N 
ATOM     26  C   UNL A   1      33.107  34.723  28.585  1.00  0.00     0.251 C 
ATOM     27  H   UNL A   1      31.922  34.366  27.011  1.00  0.00     0.163 HD
ATOM     28  O   UNL A   1      32.661  35.849  28.782  1.00  0.00    -0.269 OA
BRANCH  26  29
ATOM     29  C   UNL A   1      34.255  34.222  29.368  1.00  0.00     0.039 A 
ATOM     30  C   UNL A   1      34.030  33.634  30.614  1.00  0.00     0.014 A 
ATOM     31  C   UNL A   1      35.552  34.330  28.864  1.00  0.00     0.014 A 
ATOM     32  C   UNL A   1      35.106  33.099  31.324  1.00  0.00     0.010 A 
ATOM     33  C   UNL A   1      36.601  33.696  29.515  1.00  0.00     0.010 A 
ATOM     34  C   UNL A   1      36.395  33.096  30.764  1.00  0.00    -0.014 A 
BRANCH  34  35
ATOM     35  C   UNL A   1      37.551  32.496  31.473  1.00  0.00     0.031 A 
ATOM     36  C   UNL A   1      38.303  31.351  30.845  1.00  0.00     0.074 A 
ATOM     37  C   UNL A   1      37.866  32.915  32.715  1.00  0.00     0.049 A 
ATOM     38  N   UNL A   1      39.289  30.646  31.334  1.00  0.00    -0.248 NA
ATOM     39  C   UNL A   1      37.865  30.916  29.505  1.00  0.00     0.031 C 
ATOM     40  C   UNL A   1      37.156  33.957  33.462  1.00  0.00     0.029 A 
ATOM     41  N   UNL A   1      38.848  32.500  33.577  1.00  0.00    -0.354 N 
ATOM     42  C   UNL A   1      39.558  29.665  30.387  1.00  0.00     0.074 A 
ATOM     43  C   UNL A   1      38.606  29.835  29.315  1.00  0.00     0.031 C 
ATOM     44  C   UNL A   1      37.733  34.104  34.666  1.00  0.00     0.029 A 
ATOM     45  C   UNL A   1      38.829  33.149  34.789  1.00  0.00     0.049 A 
ATOM     46  H   UNL A   1      39.504  31.802  33.350  1.00  0.00     0.167 HD
ATOM     47  C   UNL A   1      40.536  28.728  30.390  1.00  0.00     0.034 A 
ATOM     48  C   UNL A   1      39.604  32.987  35.879  1.00  0.00     0.034 A 
ATOM     49  C   UNL A   1      41.517  28.600  31.433  1.00  0.00     0.049 A 
ATOM     50  C   UNL A   1      40.715  31.973  35.837  1.00  0.00     0.074 A 
ATOM     51  C   UNL A   1      42.606  27.751  31.488  1.00  0.00     0.029 A 
ATOM     52  N   UNL A   1      41.524  29.340  32.605  1.00  0.00    -0.354 N 
ATOM     53  N   UNL A   1      41.057  31.163  34.863  1.00  0.00    -0.248 NA
ATOM     54  C   UNL A   1      41.570  31.874  37.027  1.00  0.00     0.031 C 
ATOM     55  C   UNL A   1      43.259  27.961  32.707  1.00  0.00     0.029 A 
ATOM     56  C   UNL A   1      42.593  28.960  33.397  1.00  0.00     0.049 A 
ATOM     57  H   UNL A   1      40.865  30.033  32.840  1.00  0.00     0.167 HD
ATOM     58  C   UNL A   1      42.186  30.486  35.309  1.00  0.00     0.074 A 
ATOM     59  C   UNL A   1      42.484  30.997  36.631  1.00  0.00     0.031 C 
ATOM     60  C   UNL A   1      42.904  29.519  34.687  1.00  0.00     0.034 A 
BRANCH  47  61
ATOM     61  C   UNL A   1      40.629  27.807  29.202  1.00  0.00     0.023 A 
ATOM     62  C   UNL A   1      39.799  26.670  29.134  1.00  0.00     0.012 A 
ATOM     63  C   UNL A   1      41.494  28.095  28.128  1.00  0.00     0.148 A 
ATOM     64  C   UNL A   1      39.854  25.813  28.036  1.00  0.00     0.002 A 
ATOM     65  C   UNL A   1      41.508  27.263  27.014  1.00  0.00     0.091 A 
ATOM     66  F   UNL A   1      42.292  29.168  28.219  1.00  0.00    -0.205 F 
ATOM     67  C   UNL A   1      40.698  26.116  26.973  1.00  0.00     0.022 A 
BRANCH  65  68
ATOM     68  S   UNL A   1      42.500  27.608  25.557  1.00  0.00     0.127 S 
ATOM     69  O   UNL A   1      43.850  27.631  26.119  1.00  0.00    -0.237 OA
ATOM     70  O   UNL A   1      42.213  26.450  24.710  1.00  0.00    -0.237 OA
ATOM     71  O   UNL A   1      42.020  28.879  25.035  1.00  0.00    -0.744 OA
ENDBRANCH  65  68
ENDBRANCH  47  61
BRANCH  48  72
ATOM     72  C   UNL A   1      39.399  33.850  37.076  1.00  0.00     0.023 A 
ATOM     73  C   UNL A   1      39.824  35.193  37.042  1.00  0.00     0.012 A 
ATOM     74  C   UNL A   1      38.769  33.360  38.236  1.00  0.00     0.148 A 
ATOM     75  C   UNL A   1      39.658  36.021  38.153  1.00  0.00     0.002 A 
ATOM     76  C   UNL A   1      38.555  34.206  39.319  1.00  0.00     0.091 A 
ATOM     77  F   UNL A   1      38.380  32.077  38.254  1.00  0.00    -0.205 F 
ATOM     78  C   UNL A   1      39.016  35.532  39.287  1.00  0.00     0.022 A 
BRANCH  76  79
ATOM     79  S   UNL A   1      37.618  33.699  40.765  1.00  0.00     0.127 S 
ATOM     80  O   UNL A   1      36.408  33.146  40.161  1.00  0.00    -0.237 OA
ATOM     81  O   UNL A   1      38.510  32.712  41.373  1.00  0.00    -0.237 OA
ATOM     82  O   UNL A   1      37.436  34.908  41.557  1.00  0.00    -0.744 OA
ENDBRANCH  76  79
ENDBRANCH  48  72
BRANCH  60  83
ATOM     83  C   UNL A   1      44.106  28.969  35.409  1.00  0.00     0.023 A 
ATOM     84  C   UNL A   1      45.364  29.584  35.247  1.00  0.00     0.012 A 
ATOM     85  C   UNL A   1      43.971  27.893  36.307  1.00  0.00     0.148 A 
ATOM     86  C   UNL A   1      46.475  29.114  35.944  1.00  0.00     0.002 A 
ATOM     87  C   UNL A   1      45.072  27.463  37.037  1.00  0.00     0.091 A 
ATOM     88  F   UNL A   1      42.769  27.311  36.433  1.00  0.00    -0.205 F 
ATOM     89  C   UNL A   1      46.328  28.063  36.847  1.00  0.00     0.022 A 
BRANCH  87  90
ATOM     90  S   UNL A   1      44.955  26.185  38.294  1.00  0.00     0.127 S 
ATOM     91  O   UNL A   1      44.344  25.087  37.545  1.00  0.00    -0.237 OA
ATOM     92  O   UNL A   1      46.359  25.972  38.650  1.00  0.00    -0.237 OA
ATOM     93  O   UNL A   1      44.139  26.745  39.362  1.00  0.00    -0.744 OA
ENDBRANCH  87  90
ENDBRANCH  60  83
ENDBRANCH  34  35
ENDBRANCH  26  29
ENDBRANCH  24  25
ENDBRANCH  23  24
ENDBRANCH   1  23
TORSDOF 19
ENDMDL
MODEL 2
REMARK VINA RESULT:     -11.2      1.379      2.029
REMARK SMILES CC[C@]1(C(=O)NCCCNC(=O)c2ccc(-c3c4nc(c(-c5cccc(S(=O)(=O)[O-])c5F)c5ccc([nH]5)c(-c5cccc(S(=O)(=O)[O-])c5F)c5nc(c(-c6cccc(S(=O)(=O)[O-])c6F)c6ccc3[nH]6)C=C5)C=C4)cc2)CCCN(S(=O)(=O)CCOC(C)C)C1
REMARK SMILES IDX 7 1 6 2 4 3 5 4 3 6 76 7 89 8 77 9 79 10 78 11 2 12 1 13
REMARK SMILES IDX 80 14 81 15 82 16 83 17 84 18 85 19 86 20 87 21 88 22 8 23
REMARK SMILES IDX 9 24 10 25 11 26 12 28 13 29 14 30 75 31 15 32 74 33 16 34
REMARK SMILES IDX 17 35 18 36 68 37 19 38 73 39 67 40 69 41 20 42 72 43 66 44
REMARK SMILES IDX 65 45 21 47 53 48 33 49 52 50 34 51 37 52 51 53 70 54 35 55
REMARK SMILES IDX 36 56 50 58 71 59 38 60 22 61 23 62 31 63 24 64 26 65 32 66
REMARK SMILES IDX 25 67 27 68 28 69 29 70 30 71 54 72 55 73 63 74 56 75 58 76
REMARK SMILES IDX 64 77 57 78 59 79 60 80 61 81 62 82 39 83 40 84 48 85 41 86
REMARK SMILES IDX 43 87 49 88 42 89 44 90 45 91 46 92 47 93
REMARK H PARENT 6 5 10 27 69 46 37 57
REMARK Flexibility Score: inf
ROOT
ATOM      1  C   UNL A   1      31.563  30.948  25.868  1.00  0.00     0.117 C 
ENDROOT
BRANCH   1   2
ATOM      2  N   UNL A   1      32.794  30.178  25.878  1.00  0.00    -0.356 N 
ATOM      3  C   UNL A   1      33.073  28.881  25.584  1.00  0.00     0.227 C 
ATOM      4  O   UNL A   1      34.272  28.589  25.641  1.00  0.00    -0.274 OA
ATOM      5  H   UNL A   1      33.583  30.698  26.152  1.00  0.00     0.163 HD
BRANCH   3   6
ATOM      6  C   UNL A   1      31.983  27.867  25.128  1.00  0.00     0.063 C 
ATOM      7  C   UNL A   1      30.922  28.570  24.246  1.00  0.00     0.019 C 
ATOM      8  C   UNL A   1      32.795  26.762  24.378  1.00  0.00     0.119 C 
ATOM      9  C   UNL A   1      30.251  27.678  23.203  1.00  0.00     0.018 C 
ATOM     10  N   UNL A   1      32.034  26.016  23.329  1.00  0.00    -0.201 NA
ATOM     11  C   UNL A   1      31.262  26.879  22.405  1.00  0.00     0.102 C 
BRANCH   6  12
ATOM     12  C   UNL A   1      31.327  27.288  26.453  1.00  0.00     0.015 C 
ATOM     13  C   UNL A   1      31.532  28.017  27.777  1.00  0.00     0.005 C 
ENDBRANCH   6  12
BRANCH  10  14
ATOM     14  S   UNL A   1      32.947  24.784  22.549  1.00  0.00     0.216 S 
ATOM     15  O   UNL A   1      32.132  23.581  22.564  1.00  0.00    -0.212 OA
ATOM     16  O   UNL A   1      33.436  25.311  21.298  1.00  0.00    -0.212 OA
BRANCH  14  17
ATOM     17  C   UNL A   1      34.327  24.556  23.682  1.00  0.00     0.182 C 
BRANCH  17  18
ATOM     18  C   UNL A   1      34.102  23.439  24.696  1.00  0.00     0.178 C 
BRANCH  18  19
ATOM     19  O   UNL A   1      33.970  23.894  26.049  1.00  0.00    -0.378 OA
BRANCH  19  20
ATOM     20  C   UNL A   1      33.105  23.177  26.930  1.00  0.00     0.112 C 
ATOM     21  C   UNL A   1      31.720  22.867  26.359  1.00  0.00     0.038 C 
ATOM     22  C   UNL A   1      33.743  21.920  27.461  1.00  0.00     0.038 C 
ENDBRANCH  19  20
ENDBRANCH  18  19
ENDBRANCH  17  18
ENDBRANCH  14  17
ENDBRANCH  10  14
ENDBRANCH   3   6
ENDBRANCH   1   2
BRANCH   1  23
ATOM     23  C   UNL A   1      31.504  31.941  27.015  1.00  0.00     0.042 C 
BRANCH  23  24
ATOM     24  C   UNL A   1      32.829  32.640  27.249  1.00  0.00     0.118 C 
BRANCH  24  25
ATOM     25  N   UNL A   1      32.653  34.054  27.549  1.00  0.00    -0.352 N 
ATOM     26  C   UNL A   1      33.184  34.798  28.573  1.00  0.00     0.251 C 
ATOM     27  H   UNL A   1      32.068  34.547  26.929  1.00  0.00     0.163 HD
ATOM     28  O   UNL A   1      32.723  35.906  28.828  1.00  0.00    -0.269 OA
BRANCH  26  29
ATOM     29  C   UNL A   1      34.301  34.248  29.367  1.00  0.00     0.039 A 
ATOM     30  C   UNL A   1      34.031  33.346  30.396  1.00  0.00     0.014 A 
ATOM     31  C   UNL A   1      35.617  34.622  29.085  1.00  0.00     0.014 A 
ATOM     32  C   UNL A   1      35.090  32.774  31.103  1.00  0.00     0.010 A 
ATOM     33  C   UNL A   1      36.669  33.966  29.707  1.00  0.00     0.010 A 
ATOM     34  C   UNL A   1      36.419  33.054  30.741  1.00  0.00    -0.014 A 
BRANCH  34  35
ATOM     35  C   UNL A   1      37.566  32.428  31.441  1.00  0.00     0.031 A 
ATOM     36  C   UNL A   1      38.316  31.297  30.787  1.00  0.00     0.074 A 
ATOM     37  C   UNL A   1      37.874  32.812  32.696  1.00  0.00     0.049 A 
ATOM     38  N   UNL A   1      39.295  30.573  31.264  1.00  0.00    -0.248 NA
ATOM     39  C   UNL A   1      37.887  30.902  29.433  1.00  0.00     0.031 C 
ATOM     40  C   UNL A   1      37.164  33.836  33.467  1.00  0.00     0.029 A 
ATOM     41  N   UNL A   1      38.847  32.368  33.554  1.00  0.00    -0.354 N 
ATOM     42  C   UNL A   1      39.567  29.617  30.293  1.00  0.00     0.074 A 
ATOM     43  C   UNL A   1      38.623  29.823  29.218  1.00  0.00     0.031 C 
ATOM     44  C   UNL A   1      37.732  33.947  34.679  1.00  0.00     0.029 A 
ATOM     45  C   UNL A   1      38.822  32.983  34.783  1.00  0.00     0.049 A 
ATOM     46  H   UNL A   1      39.501  31.673  33.313  1.00  0.00     0.167 HD
ATOM     47  C   UNL A   1      40.540  28.676  30.277  1.00  0.00     0.034 A 
ATOM     48  C   UNL A   1      39.588  32.786  35.875  1.00  0.00     0.034 A 
ATOM     49  C   UNL A   1      41.511  28.514  31.323  1.00  0.00     0.049 A 
ATOM     50  C   UNL A   1      40.694  31.768  35.812  1.00  0.00     0.074 A 
ATOM     51  C   UNL A   1      42.596  27.658  31.363  1.00  0.00     0.029 A 
ATOM     52  N   UNL A   1      41.513  29.221  32.515  1.00  0.00    -0.354 N 
ATOM     53  N   UNL A   1      41.039  30.984  34.819  1.00  0.00    -0.248 NA
ATOM     54  C   UNL A   1      41.540  31.631  37.006  1.00  0.00     0.031 C 
ATOM     55  C   UNL A   1      43.240  27.830  32.592  1.00  0.00     0.029 A 
ATOM     56  C   UNL A   1      42.575  28.814  33.304  1.00  0.00     0.049 A 
ATOM     57  H   UNL A   1      40.856  29.911  32.764  1.00  0.00     0.167 HD
ATOM     58  C   UNL A   1      42.161  30.288  35.254  1.00  0.00     0.074 A 
ATOM     59  C   UNL A   1      42.451  30.761  36.592  1.00  0.00     0.031 C 
ATOM     60  C   UNL A   1      42.878  29.334  34.611  1.00  0.00     0.034 A 
BRANCH  47  61
ATOM     61  C   UNL A   1      40.637  27.788  29.064  1.00  0.00     0.023 A 
ATOM     62  C   UNL A   1      39.764  26.688  28.933  1.00  0.00     0.012 A 
ATOM     63  C   UNL A   1      41.550  28.071  28.030  1.00  0.00     0.148 A 
ATOM     64  C   UNL A   1      39.822  25.863  27.811  1.00  0.00     0.002 A 
ATOM     65  C   UNL A   1      41.569  27.272  26.892  1.00  0.00     0.091 A 
ATOM     66  F   UNL A   1      42.387  29.107  28.181  1.00  0.00    -0.205 F 
ATOM     67  C   UNL A   1      40.715  26.162  26.787  1.00  0.00     0.022 A 
BRANCH  65  68
ATOM     68  S   UNL A   1      42.625  27.619  25.481  1.00  0.00     0.127 S 
ATOM     69  O   UNL A   1      42.378  26.452  24.634  1.00  0.00    -0.237 OA
ATOM     70  O   UNL A   1      42.058  28.870  24.974  1.00  0.00    -0.237 OA
ATOM     71  O   UNL A   1      43.976  27.733  26.007  1.00  0.00    -0.744 OA
ENDBRANCH  65  68
ENDBRANCH  47  61
BRANCH  48  72
ATOM     72  C   UNL A   1      39.379  33.617  37.094  1.00  0.00     0.023 A 
ATOM     73  C   UNL A   1      39.845  34.947  37.113  1.00  0.00     0.012 A 
ATOM     74  C   UNL A   1      38.703  33.111  38.220  1.00  0.00     0.148 A 
ATOM     75  C   UNL A   1      39.676  35.744  38.246  1.00  0.00     0.002 A 
ATOM     76  C   UNL A   1      38.487  33.929  39.324  1.00  0.00     0.091 A 
ATOM     77  F   UNL A   1      38.275  31.841  38.187  1.00  0.00    -0.205 F 
ATOM     78  C   UNL A   1      38.989  35.239  39.347  1.00  0.00     0.022 A 
BRANCH  76  79
ATOM     79  S   UNL A   1      37.498  33.407  40.729  1.00  0.00     0.127 S 
ATOM     80  O   UNL A   1      38.271  32.276  41.238  1.00  0.00    -0.237 OA
ATOM     81  O   UNL A   1      37.520  34.600  41.576  1.00  0.00    -0.237 OA
ATOM     82  O   UNL A   1      36.185  33.084  40.186  1.00  0.00    -0.744 OA
ENDBRANCH  76  79
ENDBRANCH  48  72
BRANCH  60  83
ATOM     83  C   UNL A   1      44.073  28.759  35.327  1.00  0.00     0.023 A 
ATOM     84  C   UNL A   1      45.349  29.321  35.127  1.00  0.00     0.012 A 
ATOM     85  C   UNL A   1      43.914  27.712  36.256  1.00  0.00     0.148 A 
ATOM     86  C   UNL A   1      46.455  28.827  35.817  1.00  0.00     0.002 A 
ATOM     87  C   UNL A   1      45.011  27.259  36.977  1.00  0.00     0.091 A 
ATOM     88  F   UNL A   1      42.693  27.179  36.418  1.00  0.00    -0.205 F 
ATOM     89  C   UNL A   1      46.284  27.806  36.750  1.00  0.00     0.022 A 
BRANCH  87  90
ATOM     90  S   UNL A   1      44.869  26.019  38.269  1.00  0.00     0.127 S 
ATOM     91  O   UNL A   1      43.944  26.664  39.200  1.00  0.00    -0.237 OA
ATOM     92  O   UNL A   1      44.308  24.879  37.543  1.00  0.00    -0.237 OA
ATOM     93  O   UNL A   1      46.219  25.809  38.774  1.00  0.00    -0.744 OA
ENDBRANCH  87  90
ENDBRANCH  60  83
ENDBRANCH  34  35
ENDBRANCH  26  29
ENDBRANCH  24  25
ENDBRANCH  23  24
ENDBRANCH   1  23
TORSDOF 19
ENDMDL
MODEL 3
REMARK VINA RESULT:     -10.9      2.305      7.891
REMARK SMILES CC[C@]1(C(=O)NCCCNC(=O)c2ccc(-c3c4nc(c(-c5cccc(S(=O)(=O)[O-])c5F)c5ccc([nH]5)c(-c5cccc(S(=O)(=O)[O-])c5F)c5nc(c(-c6cccc(S(=O)(=O)[O-])c6F)c6ccc3[nH]6)C=C5)C=C4)cc2)CCCN(S(=O)(=O)CCOC(C)C)C1
REMARK SMILES IDX 7 1 6 2 4 3 5 4 3 6 76 7 89 8 77 9 79 10 78 11 2 12 1 13
REMARK SMILES IDX 80 14 81 15 82 16 83 17 84 18 85 19 86 20 87 21 88 22 8 23
REMARK SMILES IDX 9 24 10 25 11 26 12 28 13 29 14 30 75 31 15 32 74 33 16 34
REMARK SMILES IDX 17 35 18 36 68 37 19 38 73 39 67 40 69 41 20 42 72 43 66 44
REMARK SMILES IDX 65 45 21 47 53 48 33 49 52 50 34 51 37 52 51 53 70 54 35 55
REMARK SMILES IDX 36 56 50 58 71 59 38 60 22 61 23 62 31 63 24 64 26 65 32 66
REMARK SMILES IDX 25 67 27 68 28 69 29 70 30 71 54 72 55 73 63 74 56 75 58 76
REMARK SMILES IDX 64 77 57 78 59 79 60 80 61 81 62 82 39 83 40 84 48 85 41 86
REMARK SMILES IDX 43 87 49 88 42 89 44 90 45 91 46 92 47 93
REMARK H PARENT 6 5 10 27 69 46 37 57
REMARK Flexibility Score: inf
ROOT
ATOM      1  C   UNL A   1      32.068  28.838  24.491  1.00  0.00     0.117 C 
ENDROOT
BRANCH   1   2
ATOM      2  N   UNL A   1      33.112  28.248  25.310  1.00  0.00    -0.356 N 
ATOM      3  C   UNL A   1      33.538  26.970  25.480  1.00  0.00     0.227 C 
ATOM      4  O   UNL A   1      34.517  26.850  26.223  1.00  0.00    -0.274 OA
ATOM      5  H   UNL A   1      33.610  28.905  25.847  1.00  0.00     0.163 HD
BRANCH   3   6
ATOM      6  C   UNL A   1      32.899  25.761  24.733  1.00  0.00     0.063 C 
ATOM      7  C   UNL A   1      33.374  25.720  23.260  1.00  0.00     0.019 C 
ATOM      8  C   UNL A   1      33.349  24.525  25.576  1.00  0.00     0.119 C 
ATOM      9  C   UNL A   1      33.432  24.328  22.635  1.00  0.00     0.018 C 
ATOM     10  N   UNL A   1      33.434  23.238  24.820  1.00  0.00    -0.201 NA
ATOM     11  C   UNL A   1      34.152  23.336  23.527  1.00  0.00     0.102 C 
BRANCH   6  12
ATOM     12  C   UNL A   1      31.327  25.964  24.817  1.00  0.00     0.015 C 
ATOM     13  C   UNL A   1      30.570  25.498  26.057  1.00  0.00     0.005 C 
ENDBRANCH   6  12
BRANCH  10  14
ATOM     14  S   UNL A   1      33.897  21.891  25.785  1.00  0.00     0.216 S 
ATOM     15  O   UNL A   1      35.327  22.007  26.015  1.00  0.00    -0.212 OA
ATOM     16  O   UNL A   1      32.990  21.805  26.903  1.00  0.00    -0.212 OA
BRANCH  14  17
ATOM     17  C   UNL A   1      33.607  20.506  24.671  1.00  0.00     0.182 C 
BRANCH  17  18
ATOM     18  C   UNL A   1      32.585  19.505  25.200  1.00  0.00     0.178 C 
BRANCH  18  19
ATOM     19  O   UNL A   1      32.806  18.158  24.765  1.00  0.00    -0.378 OA
BRANCH  19  20
ATOM     20  C   UNL A   1      33.366  17.941  23.469  1.00  0.00     0.112 C 
ATOM     21  C   UNL A   1      34.149  16.635  23.318  1.00  0.00     0.038 C 
ATOM     22  C   UNL A   1      32.339  18.063  22.373  1.00  0.00     0.038 C 
ENDBRANCH  19  20
ENDBRANCH  18  19
ENDBRANCH  17  18
ENDBRANCH  14  17
ENDBRANCH  10  14
ENDBRANCH   3   6
ENDBRANCH   1   2
BRANCH   1  23
ATOM     23  C   UNL A   1      31.422  30.034  25.167  1.00  0.00     0.042 C 
BRANCH  23  24
ATOM     24  C   UNL A   1      32.161  30.465  26.420  1.00  0.00     0.118 C 
BRANCH  24  25
ATOM     25  N   UNL A   1      32.126  31.909  26.602  1.00  0.00    -0.352 N 
ATOM     26  C   UNL A   1      32.912  32.704  27.398  1.00  0.00     0.251 C 
ATOM     27  H   UNL A   1      31.441  32.384  26.077  1.00  0.00     0.163 HD
ATOM     28  O   UNL A   1      32.576  33.860  27.631  1.00  0.00    -0.269 OA
BRANCH  26  29
ATOM     29  C   UNL A   1      34.152  32.150  27.979  1.00  0.00     0.039 A 
ATOM     30  C   UNL A   1      35.256  32.984  28.160  1.00  0.00     0.014 A 
ATOM     31  C   UNL A   1      34.216  30.805  28.350  1.00  0.00     0.014 A 
ATOM     32  C   UNL A   1      36.405  32.478  28.771  1.00  0.00     0.010 A 
ATOM     33  C   UNL A   1      35.312  30.337  29.060  1.00  0.00     0.010 A 
ATOM     34  C   UNL A   1      36.429  31.159  29.257  1.00  0.00    -0.014 A 
BRANCH  34  35
ATOM     35  C   UNL A   1      37.617  30.606  29.950  1.00  0.00     0.031 A 
ATOM     36  C   UNL A   1      37.949  31.063  31.347  1.00  0.00     0.074 A 
ATOM     37  C   UNL A   1      38.444  29.768  29.294  1.00  0.00     0.049 A 
ATOM     38  N   UNL A   1      38.979  30.756  32.091  1.00  0.00    -0.248 NA
ATOM     39  C   UNL A   1      37.022  32.020  31.978  1.00  0.00     0.031 C 
ATOM     40  C   UNL A   1      38.275  29.322  27.909  1.00  0.00     0.029 A 
ATOM     41  N   UNL A   1      39.607  29.162  29.697  1.00  0.00    -0.354 N 
ATOM     42  C   UNL A   1      38.846  31.510  33.251  1.00  0.00     0.074 A 
ATOM     43  C   UNL A   1      37.662  32.322  33.097  1.00  0.00     0.031 C 
ATOM     44  C   UNL A   1      39.290  28.506  27.582  1.00  0.00     0.029 A 
ATOM     45  C   UNL A   1      40.198  28.397  28.720  1.00  0.00     0.049 A 
ATOM     46  H   UNL A   1      39.983  29.265  30.601  1.00  0.00     0.167 HD
ATOM     47  C   UNL A   1      39.618  31.499  34.363  1.00  0.00     0.034 A 
ATOM     48  C   UNL A   1      41.347  27.693  28.736  1.00  0.00     0.034 A 
ATOM     49  C   UNL A   1      40.763  30.647  34.533  1.00  0.00     0.049 A 
ATOM     50  C   UNL A   1      42.160  27.660  30.002  1.00  0.00     0.074 A 
ATOM     51  C   UNL A   1      41.556  30.487  35.654  1.00  0.00     0.029 A 
ATOM     52  N   UNL A   1      41.279  29.813  33.554  1.00  0.00    -0.354 N 
ATOM     53  N   UNL A   1      41.929  28.254  31.148  1.00  0.00    -0.248 NA
ATOM     54  C   UNL A   1      43.374  26.831  29.990  1.00  0.00     0.031 C 
ATOM     55  C   UNL A   1      42.568  29.574  35.343  1.00  0.00     0.029 A 
ATOM     56  C   UNL A   1      42.387  29.143  34.040  1.00  0.00     0.049 A 
ATOM     57  H   UNL A   1      40.910  29.713  32.646  1.00  0.00     0.167 HD
ATOM     58  C   UNL A   1      42.945  27.843  32.003  1.00  0.00     0.074 A 
ATOM     59  C   UNL A   1      43.781  26.931  31.249  1.00  0.00     0.031 C 
ATOM     60  C   UNL A   1      43.175  28.199  33.291  1.00  0.00     0.034 A 
BRANCH  47  61
ATOM     61  C   UNL A   1      39.216  32.396  35.505  1.00  0.00     0.023 A 
ATOM     62  C   UNL A   1      38.342  31.909  36.499  1.00  0.00     0.012 A 
ATOM     63  C   UNL A   1      39.744  33.696  35.627  1.00  0.00     0.148 A 
ATOM     64  C   UNL A   1      37.970  32.713  37.575  1.00  0.00     0.002 A 
ATOM     65  C   UNL A   1      39.406  34.474  36.728  1.00  0.00     0.091 A 
ATOM     66  F   UNL A   1      40.555  34.150  34.661  1.00  0.00    -0.205 F 
ATOM     67  C   UNL A   1      38.510  33.989  37.695  1.00  0.00     0.022 A 
BRANCH  65  68
ATOM     68  S   UNL A   1      40.111  36.101  37.019  1.00  0.00     0.127 S 
ATOM     69  O   UNL A   1      39.786  36.790  35.770  1.00  0.00    -0.237 OA
ATOM     70  O   UNL A   1      39.352  36.559  38.183  1.00  0.00    -0.237 OA
ATOM     71  O   UNL A   1      41.529  35.888  37.262  1.00  0.00    -0.744 OA
ENDBRANCH  65  68
ENDBRANCH  47  61
BRANCH  48  72
ATOM     72  C   UNL A   1      41.760  26.909  27.538  1.00  0.00     0.023 A 
ATOM     73  C   UNL A   1      42.358  27.574  26.449  1.00  0.00     0.012 A 
ATOM     74  C   UNL A   1      41.588  25.513  27.479  1.00  0.00     0.148 A 
ATOM     75  C   UNL A   1      42.742  26.868  25.308  1.00  0.00     0.002 A 
ATOM     76  C   UNL A   1      42.026  24.808  26.364  1.00  0.00     0.091 A 
ATOM     77  F   UNL A   1      41.009  24.899  28.521  1.00  0.00    -0.205 F 
ATOM     78  C   UNL A   1      42.586  25.485  25.269  1.00  0.00     0.022 A 
BRANCH  76  79
ATOM     79  S   UNL A   1      41.987  23.014  26.284  1.00  0.00     0.127 S 
ATOM     80  O   UNL A   1      42.609  22.758  24.987  1.00  0.00    -0.237 OA
ATOM     81  O   UNL A   1      42.800  22.641  27.442  1.00  0.00    -0.237 OA
ATOM     82  O   UNL A   1      40.581  22.646  26.397  1.00  0.00    -0.744 OA
ENDBRANCH  76  79
ENDBRANCH  48  72
BRANCH  60  83
ATOM     83  C   UNL A   1      44.357  27.575  33.986  1.00  0.00     0.023 A 
ATOM     84  C   UNL A   1      45.605  28.229  33.972  1.00  0.00     0.012 A 
ATOM     85  C   UNL A   1      44.208  26.382  34.719  1.00  0.00     0.148 A 
ATOM     86  C   UNL A   1      46.695  27.686  34.649  1.00  0.00     0.002 A 
ATOM     87  C   UNL A   1      45.285  25.874  35.434  1.00  0.00     0.091 A 
ATOM     88  F   UNL A   1      43.016  25.767  34.705  1.00  0.00    -0.205 F 
ATOM     89  C   UNL A   1      46.533  26.517  35.389  1.00  0.00     0.022 A 
BRANCH  87  90
ATOM     90  S   UNL A   1      45.143  24.431  36.494  1.00  0.00     0.127 S 
ATOM     91  O   UNL A   1      44.637  23.425  35.561  1.00  0.00    -0.237 OA
ATOM     92  O   UNL A   1      46.527  24.224  36.922  1.00  0.00    -0.237 OA
ATOM     93  O   UNL A   1      44.230  24.807  37.564  1.00  0.00    -0.744 OA
ENDBRANCH  87  90
ENDBRANCH  60  83
ENDBRANCH  34  35
ENDBRANCH  26  29
ENDBRANCH  24  25
ENDBRANCH  23  24
ENDBRANCH   1  23
TORSDOF 19
ENDMDL
