MODEL 1
REMARK VINA RESULT:     -11.5      0.000      0.000
REMARK SMILES NNS(=O)(=O)c1ccc(O)c(C(=O)NCCCNC(=O)c2ccc(-c3c4nc(c(-c5cccc(S(=O)(=O)[O-])c5F)c5ccc([nH]5)c(-c5cccc(S(=O)(=O)[O-])c5F)c5nc(c(-c6cccc(S(=O)(=O)[O-])c6F)c6ccc3[nH]6)C=C5)C=C4)cc2)c1
REMARK SMILES IDX 16 1 15 2 14 3 12 4 13 5 11 7 6 8 7 9 84 10 8 11 9 12 3 13
REMARK SMILES IDX 4 14 5 15 2 16 1 18 10 21 17 23 18 24 19 25 20 27 21 28
REMARK SMILES IDX 22 29 83 30 23 31 82 32 24 33 25 34 26 35 76 36 27 37 81 38
REMARK SMILES IDX 75 39 77 40 28 41 80 42 74 43 73 44 29 46 61 47 41 48 60 49
REMARK SMILES IDX 42 50 45 51 59 52 78 53 43 54 44 55 58 57 79 58 46 59 30 60
REMARK SMILES IDX 31 61 39 62 32 63 34 64 40 65 33 66 35 67 36 68 37 69 38 70
REMARK SMILES IDX 62 71 63 72 71 73 64 74 66 75 72 76 65 77 67 78 68 79 69 80
REMARK SMILES IDX 70 81 47 82 48 83 56 84 49 85 51 86 57 87 50 88 52 89 53 90
REMARK SMILES IDX 54 91 55 92
REMARK H PARENT 14 6 2 17 1 19 1 20 10 22 18 26 77 45 45 56
REMARK Flexibility Score: inf
ROOT
ATOM      1  C   UNL A   1      31.383  32.193  26.792  1.00  0.00     0.042 C 
ENDROOT
BRANCH   1   2
ATOM      2  C   UNL A   1      31.521  30.861  26.054  1.00  0.00     0.118 C 
BRANCH   2   3
ATOM      3  N   UNL A   1      32.810  30.264  26.321  1.00  0.00    -0.352 N 
ATOM      4  C   UNL A   1      33.269  28.980  26.230  1.00  0.00     0.255 C 
ATOM      5  O   UNL A   1      34.430  28.795  26.615  1.00  0.00    -0.269 OA
ATOM      6  H   UNL A   1      33.488  30.907  26.629  1.00  0.00     0.163 HD
BRANCH   4   7
ATOM      7  C   UNL A   1      32.534  27.816  25.646  1.00  0.00     0.082 A 
ATOM      8  C   UNL A   1      32.578  26.239  23.777  1.00  0.00     0.084 A 
ATOM      9  C   UNL A   1      31.501  25.534  24.301  1.00  0.00     0.025 A 
ATOM     10  C   UNL A   1      33.053  27.391  24.408  1.00  0.00     0.039 A 
ATOM     11  C   UNL A   1      30.960  25.946  25.516  1.00  0.00     0.048 A 
ATOM     12  C   UNL A   1      31.500  27.048  26.203  1.00  0.00     0.128 A 
BRANCH   8  13
ATOM     13  S   UNL A   1      33.438  25.639  22.347  1.00  0.00     0.253 S 
ATOM     14  O   UNL A   1      34.320  24.567  22.755  1.00  0.00    -0.206 OA
ATOM     15  O   UNL A   1      33.934  26.784  21.611  1.00  0.00    -0.206 OA
BRANCH  13  16
ATOM     16  N   UNL A   1      32.104  25.014  21.433  1.00  0.00    -0.150 NA
ATOM     17  H   UNL A   1      32.423  24.199  20.908  1.00  0.00     0.160 HD
BRANCH  16  18
ATOM     18  N   UNL A   1      31.569  25.952  20.524  1.00  0.00    -0.257 NA
ATOM     19  H   UNL A   1      31.353  26.818  21.017  1.00  0.00     0.138 HD
ATOM     20  H   UNL A   1      30.717  25.575  20.109  1.00  0.00     0.138 HD
ENDBRANCH  16  18
ENDBRANCH  13  16
ENDBRANCH   8  13
BRANCH  12  21
ATOM     21  O   UNL A   1      31.014  27.280  27.454  1.00  0.00    -0.507 OA
ATOM     22  H   UNL A   1      31.300  26.752  28.174  1.00  0.00     0.293 HD
ENDBRANCH  12  21
ENDBRANCH   4   7
ENDBRANCH   2   3
ENDBRANCH   1   2
BRANCH   1  23
ATOM     23  C   UNL A   1      32.721  32.808  27.184  1.00  0.00     0.118 C 
BRANCH  23  24
ATOM     24  N   UNL A   1      32.569  34.189  27.620  1.00  0.00    -0.352 N 
ATOM     25  C   UNL A   1      33.140  34.845  28.680  1.00  0.00     0.251 C 
ATOM     26  H   UNL A   1      31.963  34.736  27.069  1.00  0.00     0.163 HD
ATOM     27  O   UNL A   1      32.683  35.929  29.032  1.00  0.00    -0.269 OA
BRANCH  25  28
ATOM     28  C   UNL A   1      34.293  34.260  29.399  1.00  0.00     0.039 A 
ATOM     29  C   UNL A   1      34.055  33.485  30.538  1.00  0.00     0.014 A 
ATOM     30  C   UNL A   1      35.605  34.510  28.987  1.00  0.00     0.014 A 
ATOM     31  C   UNL A   1      35.129  32.929  31.236  1.00  0.00     0.010 A 
ATOM     32  C   UNL A   1      36.670  33.890  29.638  1.00  0.00     0.010 A 
ATOM     33  C   UNL A   1      36.444  33.106  30.777  1.00  0.00    -0.014 A 
BRANCH  33  34
ATOM     34  C   UNL A   1      37.593  32.476  31.474  1.00  0.00     0.031 A 
ATOM     35  C   UNL A   1      38.342  31.339  30.831  1.00  0.00     0.074 A 
ATOM     36  C   UNL A   1      37.911  32.875  32.721  1.00  0.00     0.049 A 
ATOM     37  N   UNL A   1      39.336  30.635  31.305  1.00  0.00    -0.248 NA
ATOM     38  C   UNL A   1      37.900  30.922  29.490  1.00  0.00     0.031 C 
ATOM     39  C   UNL A   1      37.212  33.917  33.478  1.00  0.00     0.029 A 
ATOM     40  N   UNL A   1      38.885  32.437  33.583  1.00  0.00    -0.354 N 
ATOM     41  C   UNL A   1      39.612  29.669  30.344  1.00  0.00     0.074 A 
ATOM     42  C   UNL A   1      38.661  29.858  29.271  1.00  0.00     0.031 C 
ATOM     43  C   UNL A   1      37.786  34.044  34.685  1.00  0.00     0.029 A 
ATOM     44  C   UNL A   1      38.866  33.071  34.804  1.00  0.00     0.049 A 
ATOM     45  H   UNL A   1      39.534  31.736  33.350  1.00  0.00     0.167 HD
ATOM     46  C   UNL A   1      40.584  28.726  30.343  1.00  0.00     0.034 A 
ATOM     47  C   UNL A   1      39.627  32.883  35.899  1.00  0.00     0.034 A 
ATOM     48  C   UNL A   1      41.551  28.569  31.396  1.00  0.00     0.049 A 
ATOM     49  C   UNL A   1      40.722  31.852  35.858  1.00  0.00     0.074 A 
ATOM     50  C   UNL A   1      42.631  27.706  31.449  1.00  0.00     0.029 A 
ATOM     51  N   UNL A   1      41.548  29.280  32.586  1.00  0.00    -0.354 N 
ATOM     52  N   UNL A   1      41.067  31.054  34.876  1.00  0.00    -0.248 NA
ATOM     53  C   UNL A   1      41.553  31.717  37.061  1.00  0.00     0.031 C 
ATOM     54  C   UNL A   1      43.261  27.872  32.687  1.00  0.00     0.029 A 
ATOM     55  C   UNL A   1      42.597  28.865  33.388  1.00  0.00     0.049 A 
ATOM     56  H   UNL A   1      40.895  29.976  32.826  1.00  0.00     0.167 HD
ATOM     57  C   UNL A   1      42.178  30.352  35.327  1.00  0.00     0.074 A 
ATOM     58  C   UNL A   1      42.459  30.833  36.665  1.00  0.00     0.031 C 
ATOM     59  C   UNL A   1      42.895  29.388  34.697  1.00  0.00     0.034 A 
BRANCH  46  60
ATOM     60  C   UNL A   1      40.678  27.813  29.147  1.00  0.00     0.023 A 
ATOM     61  C   UNL A   1      39.840  26.681  29.064  1.00  0.00     0.012 A 
ATOM     62  C   UNL A   1      41.547  28.107  28.079  1.00  0.00     0.148 A 
ATOM     63  C   UNL A   1      39.894  25.836  27.956  1.00  0.00     0.002 A 
ATOM     64  C   UNL A   1      41.560  27.287  26.956  1.00  0.00     0.091 A 
ATOM     65  F   UNL A   1      42.350  29.175  28.182  1.00  0.00    -0.205 F 
ATOM     66  C   UNL A   1      40.744  26.145  26.898  1.00  0.00     0.022 A 
BRANCH  64  67
ATOM     67  S   UNL A   1      42.558  27.644  25.506  1.00  0.00     0.127 S 
ATOM     68  O   UNL A   1      42.298  26.469  24.673  1.00  0.00    -0.237 OA
ATOM     69  O   UNL A   1      41.955  28.884  25.015  1.00  0.00    -0.237 OA
ATOM     70  O   UNL A   1      43.927  27.780  25.981  1.00  0.00    -0.744 OA
ENDBRANCH  64  67
ENDBRANCH  46  60
BRANCH  47  71
ATOM     71  C   UNL A   1      39.425  33.737  37.104  1.00  0.00     0.023 A 
ATOM     72  C   UNL A   1      39.897  35.064  37.098  1.00  0.00     0.012 A 
ATOM     73  C   UNL A   1      38.745  33.256  38.240  1.00  0.00     0.148 A 
ATOM     74  C   UNL A   1      39.728  35.884  38.213  1.00  0.00     0.002 A 
ATOM     75  C   UNL A   1      38.529  34.095  39.325  1.00  0.00     0.091 A 
ATOM     76  F   UNL A   1      38.308  31.988  38.229  1.00  0.00    -0.205 F 
ATOM     77  C   UNL A   1      39.037  35.405  39.323  1.00  0.00     0.022 A 
BRANCH  75  78
ATOM     78  S   UNL A   1      37.536  33.609  40.741  1.00  0.00     0.127 S 
ATOM     79  O   UNL A   1      38.388  32.608  41.376  1.00  0.00    -0.237 OA
ATOM     80  O   UNL A   1      37.416  34.871  41.472  1.00  0.00    -0.237 OA
ATOM     81  O   UNL A   1      36.282  33.114  40.191  1.00  0.00    -0.744 OA
ENDBRANCH  75  78
ENDBRANCH  47  71
BRANCH  59  82
ATOM     82  C   UNL A   1      44.083  28.814  35.423  1.00  0.00     0.023 A 
ATOM     83  C   UNL A   1      45.354  29.402  35.270  1.00  0.00     0.012 A 
ATOM     84  C   UNL A   1      43.923  27.735  36.315  1.00  0.00     0.148 A 
ATOM     85  C   UNL A   1      46.454  28.903  35.967  1.00  0.00     0.002 A 
ATOM     86  C   UNL A   1      45.011  27.278  37.046  1.00  0.00     0.091 A 
ATOM     87  F   UNL A   1      42.709  27.178  36.432  1.00  0.00    -0.205 F 
ATOM     88  C   UNL A   1      46.281  27.851  36.863  1.00  0.00     0.022 A 
BRANCH  86  89
ATOM     89  S   UNL A   1      44.863  25.996  38.295  1.00  0.00     0.127 S 
ATOM     90  O   UNL A   1      46.251  25.838  38.726  1.00  0.00    -0.237 OA
ATOM     91  O   UNL A   1      43.985  26.626  39.282  1.00  0.00    -0.237 OA
ATOM     92  O   UNL A   1      44.285  24.842  37.622  1.00  0.00    -0.744 OA
ENDBRANCH  86  89
ENDBRANCH  59  82
ENDBRANCH  33  34
ENDBRANCH  25  28
ENDBRANCH  23  24
ENDBRANCH   1  23
TORSDOF 17
ENDMDL
MODEL 2
REMARK VINA RESULT:     -11.4      7.064     12.183
REMARK SMILES NNS(=O)(=O)c1ccc(O)c(C(=O)NCCCNC(=O)c2ccc(-c3c4nc(c(-c5cccc(S(=O)(=O)[O-])c5F)c5ccc([nH]5)c(-c5cccc(S(=O)(=O)[O-])c5F)c5nc(c(-c6cccc(S(=O)(=O)[O-])c6F)c6ccc3[nH]6)C=C5)C=C4)cc2)c1
REMARK SMILES IDX 16 1 15 2 14 3 12 4 13 5 11 7 6 8 7 9 84 10 8 11 9 12 3 13
REMARK SMILES IDX 4 14 5 15 2 16 1 18 10 21 17 23 18 24 19 25 20 27 21 28
REMARK SMILES IDX 22 29 83 30 23 31 82 32 24 33 25 34 26 35 76 36 27 37 81 38
REMARK SMILES IDX 75 39 77 40 28 41 80 42 74 43 73 44 29 46 61 47 41 48 60 49
REMARK SMILES IDX 42 50 45 51 59 52 78 53 43 54 44 55 58 57 79 58 46 59 30 60
REMARK SMILES IDX 31 61 39 62 32 63 34 64 40 65 33 66 35 67 36 68 37 69 38 70
REMARK SMILES IDX 62 71 63 72 71 73 64 74 66 75 72 76 65 77 67 78 68 79 69 80
REMARK SMILES IDX 70 81 47 82 48 83 56 84 49 85 51 86 57 87 50 88 52 89 53 90
REMARK SMILES IDX 54 91 55 92
REMARK H PARENT 14 6 2 17 1 19 1 20 10 22 18 26 77 45 45 56
REMARK Flexibility Score: inf
ROOT
ATOM      1  C   UNL A   1      38.225  19.643  24.981  1.00  0.00     0.042 C 
ENDROOT
BRANCH   1   2
ATOM      2  C   UNL A   1      37.393  20.843  24.527  1.00  0.00     0.118 C 
BRANCH   2   3
ATOM      3  N   UNL A   1      36.507  21.276  25.585  1.00  0.00    -0.352 N 
ATOM      4  C   UNL A   1      35.150  21.220  25.734  1.00  0.00     0.255 C 
ATOM      5  O   UNL A   1      34.697  21.762  26.748  1.00  0.00    -0.269 OA
ATOM      6  H   UNL A   1      36.972  21.694  26.345  1.00  0.00     0.163 HD
BRANCH   4   7
ATOM      7  C   UNL A   1      34.189  20.509  24.834  1.00  0.00     0.082 A 
ATOM      8  C   UNL A   1      33.577  18.281  24.030  1.00  0.00     0.084 A 
ATOM      9  C   UNL A   1      32.485  18.793  23.339  1.00  0.00     0.025 A 
ATOM     10  C   UNL A   1      34.446  19.129  24.722  1.00  0.00     0.039 A 
ATOM     11  C   UNL A   1      32.221  20.157  23.422  1.00  0.00     0.048 A 
ATOM     12  C   UNL A   1      33.039  20.999  24.198  1.00  0.00     0.128 A 
BRANCH   8  13
ATOM     13  S   UNL A   1      33.840  16.531  24.132  1.00  0.00     0.253 S 
ATOM     14  O   UNL A   1      34.284  16.055  22.839  1.00  0.00    -0.206 OA
ATOM     15  O   UNL A   1      32.694  15.945  24.797  1.00  0.00    -0.206 OA
BRANCH  13  16
ATOM     16  N   UNL A   1      35.141  16.487  25.276  1.00  0.00    -0.150 NA
ATOM     17  H   UNL A   1      35.827  17.195  25.014  1.00  0.00     0.160 HD
BRANCH  16  18
ATOM     18  N   UNL A   1      35.788  15.234  25.330  1.00  0.00    -0.257 NA
ATOM     19  H   UNL A   1      36.774  15.370  25.551  1.00  0.00     0.138 HD
ATOM     20  H   UNL A   1      35.703  14.768  24.427  1.00  0.00     0.138 HD
ENDBRANCH  16  18
ENDBRANCH  13  16
ENDBRANCH   8  13
BRANCH  12  21
ATOM     21  O   UNL A   1      32.614  22.284  24.351  1.00  0.00    -0.507 OA
ATOM     22  H   UNL A   1      33.170  22.917  24.762  1.00  0.00     0.293 HD
ENDBRANCH  12  21
ENDBRANCH   4   7
ENDBRANCH   2   3
ENDBRANCH   1   2
BRANCH   1  23
ATOM     23  C   UNL A   1      39.131  19.951  26.168  1.00  0.00     0.118 C 
BRANCH  23  24
ATOM     24  N   UNL A   1      40.353  19.160  26.127  1.00  0.00    -0.352 N 
ATOM     25  C   UNL A   1      41.662  19.566  26.088  1.00  0.00     0.251 C 
ATOM     26  H   UNL A   1      40.219  18.184  26.129  1.00  0.00     0.163 HD
ATOM     27  O   UNL A   1      42.534  18.752  25.793  1.00  0.00    -0.269 OA
BRANCH  25  28
ATOM     28  C   UNL A   1      42.029  20.965  26.394  1.00  0.00     0.039 A 
ATOM     29  C   UNL A   1      42.254  21.327  27.725  1.00  0.00     0.014 A 
ATOM     30  C   UNL A   1      42.104  21.931  25.386  1.00  0.00     0.014 A 
ATOM     31  C   UNL A   1      42.595  22.644  28.039  1.00  0.00     0.010 A 
ATOM     32  C   UNL A   1      42.520  23.225  25.692  1.00  0.00     0.010 A 
ATOM     33  C   UNL A   1      42.755  23.599  27.022  1.00  0.00    -0.014 A 
BRANCH  33  34
ATOM     34  C   UNL A   1      43.172  24.989  27.331  1.00  0.00     0.031 A 
ATOM     35  C   UNL A   1      42.207  25.946  27.979  1.00  0.00     0.074 A 
ATOM     36  C   UNL A   1      44.394  25.414  26.953  1.00  0.00     0.049 A 
ATOM     37  N   UNL A   1      42.374  27.208  28.279  1.00  0.00    -0.248 NA
ATOM     38  C   UNL A   1      40.871  25.424  28.312  1.00  0.00     0.031 C 
ATOM     39  C   UNL A   1      45.390  24.601  26.252  1.00  0.00     0.029 A 
ATOM     40  N   UNL A   1      44.997  26.639  27.082  1.00  0.00    -0.354 N 
ATOM     41  C   UNL A   1      41.158  27.641  28.795  1.00  0.00     0.074 A 
ATOM     42  C   UNL A   1      40.251  26.515  28.741  1.00  0.00     0.031 C 
ATOM     43  C   UNL A   1      46.483  25.345  26.022  1.00  0.00     0.029 A 
ATOM     44  C   UNL A   1      46.253  26.696  26.523  1.00  0.00     0.049 A 
ATOM     45  H   UNL A   1      44.572  27.405  27.530  1.00  0.00     0.167 HD
ATOM     46  C   UNL A   1      40.832  28.858  29.292  1.00  0.00     0.034 A 
ATOM     47  C   UNL A   1      47.119  27.723  26.419  1.00  0.00     0.034 A 
ATOM     48  C   UNL A   1      41.751  29.962  29.378  1.00  0.00     0.049 A 
ATOM     49  C   UNL A   1      46.744  29.055  27.009  1.00  0.00     0.074 A 
ATOM     50  C   UNL A   1      41.548  31.206  29.948  1.00  0.00     0.029 A 
ATOM     51  N   UNL A   1      43.041  29.960  28.870  1.00  0.00    -0.354 N 
ATOM     52  N   UNL A   1      45.645  29.400  27.636  1.00  0.00    -0.248 NA
ATOM     53  C   UNL A   1      47.741  30.130  26.910  1.00  0.00     0.031 C 
ATOM     54  C   UNL A   1      42.704  31.969  29.753  1.00  0.00     0.029 A 
ATOM     55  C   UNL A   1      43.641  31.186  29.097  1.00  0.00     0.049 A 
ATOM     56  H   UNL A   1      43.466  29.199  28.414  1.00  0.00     0.167 HD
ATOM     57  C   UNL A   1      45.833  30.716  28.039  1.00  0.00     0.074 A 
ATOM     58  C   UNL A   1      47.160  31.101  27.602  1.00  0.00     0.031 C 
ATOM     59  C   UNL A   1      44.981  31.538  28.701  1.00  0.00     0.034 A 
BRANCH  46  60
ATOM     60  C   UNL A   1      39.433  29.052  29.820  1.00  0.00     0.023 A 
ATOM     61  C   UNL A   1      39.117  28.639  31.131  1.00  0.00     0.012 A 
ATOM     62  C   UNL A   1      38.451  29.698  29.045  1.00  0.00     0.148 A 
ATOM     63  C   UNL A   1      37.835  28.830  31.647  1.00  0.00     0.002 A 
ATOM     64  C   UNL A   1      37.190  29.930  29.584  1.00  0.00     0.091 A 
ATOM     65  F   UNL A   1      38.764  30.068  27.795  1.00  0.00    -0.205 F 
ATOM     66  C   UNL A   1      36.877  29.486  30.879  1.00  0.00     0.022 A 
BRANCH  64  67
ATOM     67  S   UNL A   1      35.913  30.839  28.708  1.00  0.00     0.127 S 
ATOM     68  O   UNL A   1      36.678  31.949  28.140  1.00  0.00    -0.237 OA
ATOM     69  O   UNL A   1      35.451  29.854  27.729  1.00  0.00    -0.237 OA
ATOM     70  O   UNL A   1      34.924  31.211  29.709  1.00  0.00    -0.744 OA
ENDBRANCH  64  67
ENDBRANCH  46  60
BRANCH  47  71
ATOM     71  C   UNL A   1      48.453  27.513  25.787  1.00  0.00     0.023 A 
ATOM     72  C   UNL A   1      49.556  27.179  26.596  1.00  0.00     0.012 A 
ATOM     73  C   UNL A   1      48.629  27.613  24.393  1.00  0.00     0.148 A 
ATOM     74  C   UNL A   1      50.817  26.984  26.034  1.00  0.00     0.002 A 
ATOM     75  C   UNL A   1      49.875  27.361  23.833  1.00  0.00     0.091 A 
ATOM     76  F   UNL A   1      47.568  27.938  23.640  1.00  0.00    -0.205 F 
ATOM     77  C   UNL A   1      50.976  27.065  24.653  1.00  0.00     0.022 A 
BRANCH  75  78
ATOM     78  S   UNL A   1      50.144  27.311  22.058  1.00  0.00     0.127 S 
ATOM     79  O   UNL A   1      49.098  26.391  21.621  1.00  0.00    -0.237 OA
ATOM     80  O   UNL A   1      49.932  28.710  21.682  1.00  0.00    -0.237 OA
ATOM     81  O   UNL A   1      51.512  26.845  21.879  1.00  0.00    -0.744 OA
ENDBRANCH  75  78
ENDBRANCH  47  71
BRANCH  59  82
ATOM     82  C   UNL A   1      45.466  32.924  29.038  1.00  0.00     0.023 A 
ATOM     83  C   UNL A   1      46.173  33.151  30.235  1.00  0.00     0.012 A 
ATOM     84  C   UNL A   1      45.283  33.984  28.129  1.00  0.00     0.148 A 
ATOM     85  C   UNL A   1      46.661  34.423  30.538  1.00  0.00     0.002 A 
ATOM     86  C   UNL A   1      45.817  35.235  28.413  1.00  0.00     0.091 A 
ATOM     87  F   UNL A   1      44.591  33.752  27.005  1.00  0.00    -0.205 F 
ATOM     88  C   UNL A   1      46.494  35.459  29.623  1.00  0.00     0.022 A 
BRANCH  86  89
ATOM     89  S   UNL A   1      45.740  36.602  27.251  1.00  0.00     0.127 S 
ATOM     90  O   UNL A   1      46.458  37.649  27.976  1.00  0.00    -0.237 OA
ATOM     91  O   UNL A   1      46.452  36.064  26.092  1.00  0.00    -0.237 OA
ATOM     92  O   UNL A   1      44.325  36.859  27.026  1.00  0.00    -0.744 OA
ENDBRANCH  86  89
ENDBRANCH  59  82
ENDBRANCH  33  34
ENDBRANCH  25  28
ENDBRANCH  23  24
ENDBRANCH   1  23
TORSDOF 17
ENDMDL
MODEL 3
REMARK VINA RESULT:     -11.3      4.241      9.368
REMARK SMILES NNS(=O)(=O)c1ccc(O)c(C(=O)NCCCNC(=O)c2ccc(-c3c4nc(c(-c5cccc(S(=O)(=O)[O-])c5F)c5ccc([nH]5)c(-c5cccc(S(=O)(=O)[O-])c5F)c5nc(c(-c6cccc(S(=O)(=O)[O-])c6F)c6ccc3[nH]6)C=C5)C=C4)cc2)c1
REMARK SMILES IDX 16 1 15 2 14 3 12 4 13 5 11 7 6 8 7 9 84 10 8 11 9 12 3 13
REMARK SMILES IDX 4 14 5 15 2 16 1 18 10 21 17 23 18 24 19 25 20 27 21 28
REMARK SMILES IDX 22 29 83 30 23 31 82 32 24 33 25 34 26 35 76 36 27 37 81 38
REMARK SMILES IDX 75 39 77 40 28 41 80 42 74 43 73 44 29 46 61 47 41 48 60 49
REMARK SMILES IDX 42 50 45 51 59 52 78 53 43 54 44 55 58 57 79 58 46 59 30 60
REMARK SMILES IDX 31 61 39 62 32 63 34 64 40 65 33 66 35 67 36 68 37 69 38 70
REMARK SMILES IDX 62 71 63 72 71 73 64 74 66 75 72 76 65 77 67 78 68 79 69 80
REMARK SMILES IDX 70 81 47 82 48 83 56 84 49 85 51 86 57 87 50 88 52 89 53 90
REMARK SMILES IDX 54 91 55 92
REMARK H PARENT 14 6 2 17 1 19 1 20 10 22 18 26 77 45 45 56
REMARK Flexibility Score: inf
ROOT
ATOM      1  C   UNL A   1      32.773  28.417  25.817  1.00  0.00     0.042 C 
ENDROOT
BRANCH   1   2
ATOM      2  C   UNL A   1      32.909  26.970  25.342  1.00  0.00     0.118 C 
BRANCH   2   3
ATOM      3  N   UNL A   1      32.895  26.906  23.897  1.00  0.00    -0.352 N 
ATOM      4  C   UNL A   1      31.881  26.925  22.982  1.00  0.00     0.255 C 
ATOM      5  O   UNL A   1      32.218  26.772  21.802  1.00  0.00    -0.269 OA
ATOM      6  H   UNL A   1      33.791  26.834  23.495  1.00  0.00     0.163 HD
BRANCH   4   7
ATOM      7  C   UNL A   1      30.435  27.184  23.267  1.00  0.00     0.082 A 
ATOM      8  C   UNL A   1      28.657  28.826  22.915  1.00  0.00     0.084 A 
ATOM      9  C   UNL A   1      27.717  27.984  23.496  1.00  0.00     0.025 A 
ATOM     10  C   UNL A   1      30.004  28.457  22.849  1.00  0.00     0.039 A 
ATOM     11  C   UNL A   1      28.125  26.726  23.931  1.00  0.00     0.048 A 
ATOM     12  C   UNL A   1      29.461  26.313  23.777  1.00  0.00     0.128 A 
BRANCH   8  13
ATOM     13  S   UNL A   1      28.157  30.349  22.155  1.00  0.00     0.253 S 
ATOM     14  O   UNL A   1      27.181  30.991  23.008  1.00  0.00    -0.206 OA
ATOM     15  O   UNL A   1      27.877  30.080  20.760  1.00  0.00    -0.206 OA
BRANCH  13  16
ATOM     16  N   UNL A   1      29.660  31.212  22.192  1.00  0.00    -0.150 NA
ATOM     17  H   UNL A   1      30.262  30.786  22.897  1.00  0.00     0.160 HD
BRANCH  16  18
ATOM     18  N   UNL A   1      29.504  32.580  22.503  1.00  0.00    -0.257 NA
ATOM     19  H   UNL A   1      30.097  32.818  23.298  1.00  0.00     0.138 HD
ATOM     20  H   UNL A   1      28.529  32.766  22.737  1.00  0.00     0.138 HD
ENDBRANCH  16  18
ENDBRANCH  13  16
ENDBRANCH   8  13
BRANCH  12  21
ATOM     21  O   UNL A   1      29.733  25.014  24.083  1.00  0.00    -0.507 OA
ATOM     22  H   UNL A   1      29.849  24.385  23.398  1.00  0.00     0.293 HD
ENDBRANCH  12  21
ENDBRANCH   4   7
ENDBRANCH   2   3
ENDBRANCH   1   2
BRANCH   1  23
ATOM     23  C   UNL A   1      34.111  29.076  26.137  1.00  0.00     0.118 C 
BRANCH  23  24
ATOM     24  N   UNL A   1      33.929  30.372  26.776  1.00  0.00    -0.352 N 
ATOM     25  C   UNL A   1      34.606  30.936  27.827  1.00  0.00     0.251 C 
ATOM     26  H   UNL A   1      33.213  30.929  26.394  1.00  0.00     0.163 HD
ATOM     27  O   UNL A   1      34.131  31.923  28.385  1.00  0.00    -0.269 OA
BRANCH  25  28
ATOM     28  C   UNL A   1      35.890  30.369  28.292  1.00  0.00     0.039 A 
ATOM     29  C   UNL A   1      37.033  30.558  27.509  1.00  0.00     0.014 A 
ATOM     30  C   UNL A   1      35.965  29.612  29.465  1.00  0.00     0.014 A 
ATOM     31  C   UNL A   1      38.255  30.025  27.924  1.00  0.00     0.010 A 
ATOM     32  C   UNL A   1      37.199  29.149  29.917  1.00  0.00     0.010 A 
ATOM     33  C   UNL A   1      38.353  29.337  29.144  1.00  0.00    -0.014 A 
BRANCH  33  34
ATOM     34  C   UNL A   1      39.654  28.813  29.629  1.00  0.00     0.031 A 
ATOM     35  C   UNL A   1      40.387  29.509  30.744  1.00  0.00     0.074 A 
ATOM     36  C   UNL A   1      40.214  27.755  29.010  1.00  0.00     0.049 A 
ATOM     37  N   UNL A   1      41.553  29.229  31.266  1.00  0.00    -0.248 NA
ATOM     38  C   UNL A   1      39.738  30.693  31.334  1.00  0.00     0.031 C 
ATOM     39  C   UNL A   1      39.634  27.041  27.870  1.00  0.00     0.029 A 
ATOM     40  N   UNL A   1      41.405  27.111  29.232  1.00  0.00    -0.354 N 
ATOM     41  C   UNL A   1      41.796  30.218  32.212  1.00  0.00     0.074 A 
ATOM     42  C   UNL A   1      40.669  31.124  32.173  1.00  0.00     0.031 C 
ATOM     43  C   UNL A   1      40.464  26.053  27.501  1.00  0.00     0.029 A 
ATOM     44  C   UNL A   1      41.650  26.085  28.350  1.00  0.00     0.049 A 
ATOM     45  H   UNL A   1      42.025  27.360  29.955  1.00  0.00     0.167 HD
ATOM     46  C   UNL A   1      42.848  30.346  33.055  1.00  0.00     0.034 A 
ATOM     47  C   UNL A   1      42.715  25.268  28.232  1.00  0.00     0.034 A 
ATOM     48  C   UNL A   1      43.946  29.419  33.114  1.00  0.00     0.049 A 
ATOM     49  C   UNL A   1      43.855  25.412  29.203  1.00  0.00     0.074 A 
ATOM     50  C   UNL A   1      45.014  29.408  33.994  1.00  0.00     0.029 A 
ATOM     51  N   UNL A   1      44.124  28.347  32.254  1.00  0.00    -0.354 N 
ATOM     52  N   UNL A   1      43.992  26.258  30.195  1.00  0.00    -0.248 NA
ATOM     53  C   UNL A   1      44.971  24.468  29.061  1.00  0.00     0.031 C 
ATOM     54  C   UNL A   1      45.857  28.348  33.643  1.00  0.00     0.029 A 
ATOM     55  C   UNL A   1      45.293  27.676  32.570  1.00  0.00     0.049 A 
ATOM     56  H   UNL A   1      43.511  28.100  31.526  1.00  0.00     0.167 HD
ATOM     57  C   UNL A   1      45.188  25.925  30.819  1.00  0.00     0.074 A 
ATOM     58  C   UNL A   1      45.727  24.785  30.104  1.00  0.00     0.031 C 
ATOM     59  C   UNL A   1      45.792  26.513  31.880  1.00  0.00     0.034 A 
BRANCH  46  60
ATOM     60  C   UNL A   1      42.846  31.512  34.011  1.00  0.00     0.023 A 
ATOM     61  C   UNL A   1      43.390  32.749  33.606  1.00  0.00     0.012 A 
ATOM     62  C   UNL A   1      42.253  31.403  35.283  1.00  0.00     0.148 A 
ATOM     63  C   UNL A   1      43.378  33.847  34.466  1.00  0.00     0.002 A 
ATOM     64  C   UNL A   1      42.201  32.515  36.117  1.00  0.00     0.091 A 
ATOM     65  F   UNL A   1      41.758  30.215  35.659  1.00  0.00    -0.205 F 
ATOM     66  C   UNL A   1      42.773  33.734  35.715  1.00  0.00     0.022 A 
BRANCH  64  67
ATOM     67  S   UNL A   1      41.372  32.496  37.709  1.00  0.00     0.127 S 
ATOM     68  O   UNL A   1      42.165  31.509  38.443  1.00  0.00    -0.237 OA
ATOM     69  O   UNL A   1      41.546  33.876  38.163  1.00  0.00    -0.237 OA
ATOM     70  O   UNL A   1      39.993  32.113  37.442  1.00  0.00    -0.744 OA
ENDBRANCH  64  67
ENDBRANCH  46  60
BRANCH  47  71
ATOM     71  C   UNL A   1      42.722  24.197  27.195  1.00  0.00     0.023 A 
ATOM     72  C   UNL A   1      43.402  24.415  25.981  1.00  0.00     0.012 A 
ATOM     73  C   UNL A   1      42.087  22.959  27.413  1.00  0.00     0.148 A 
ATOM     74  C   UNL A   1      43.421  23.434  24.990  1.00  0.00     0.002 A 
ATOM     75  C   UNL A   1      42.157  21.965  26.445  1.00  0.00     0.091 A 
ATOM     76  F   UNL A   1      41.438  22.773  28.572  1.00  0.00    -0.205 F 
ATOM     77  C   UNL A   1      42.807  22.206  25.224  1.00  0.00     0.022 A 
BRANCH  75  78
ATOM     78  S   UNL A   1      41.512  20.309  26.712  1.00  0.00     0.127 S 
ATOM     79  O   UNL A   1      40.084  20.566  26.874  1.00  0.00    -0.237 OA
ATOM     80  O   UNL A   1      41.881  19.638  25.465  1.00  0.00    -0.237 OA
ATOM     81  O   UNL A   1      42.201  19.803  27.891  1.00  0.00    -0.744 OA
ENDBRANCH  75  78
ENDBRANCH  47  71
BRANCH  59  82
ATOM     82  C   UNL A   1      47.085  25.915  32.369  1.00  0.00     0.023 A 
ATOM     83  C   UNL A   1      47.082  25.028  33.464  1.00  0.00     0.012 A 
ATOM     84  C   UNL A   1      48.293  26.177  31.694  1.00  0.00     0.148 A 
ATOM     85  C   UNL A   1      48.268  24.438  33.901  1.00  0.00     0.002 A 
ATOM     86  C   UNL A   1      49.461  25.544  32.100  1.00  0.00     0.091 A 
ATOM     87  F   UNL A   1      48.278  27.037  30.666  1.00  0.00    -0.205 F 
ATOM     88  C   UNL A   1      49.453  24.686  33.212  1.00  0.00     0.022 A 
BRANCH  86  89
ATOM     89  S   UNL A   1      51.013  25.723  31.214  1.00  0.00     0.127 S 
ATOM     90  O   UNL A   1      51.313  27.139  31.422  1.00  0.00    -0.237 OA
ATOM     91  O   UNL A   1      51.890  24.800  31.935  1.00  0.00    -0.237 OA
ATOM     92  O   UNL A   1      50.736  25.342  29.836  1.00  0.00    -0.744 OA
ENDBRANCH  86  89
ENDBRANCH  59  82
ENDBRANCH  33  34
ENDBRANCH  25  28
ENDBRANCH  23  24
ENDBRANCH   1  23
TORSDOF 17
ENDMDL
