MODEL 1
REMARK VINA RESULT:     -13.9      0.000      0.000
REMARK SMILES COc1cc([C@@H]2CC(=O)Nc3c(C(=O)NCCCNC(=O)c4ccc(-c5c6nc(c(-c7cccc(S(=O)(=O)[O-])c7F)c7ccc([nH]7)c(-c7cccc(S(=O)(=O)[O-])c7F)c7nc(c(-c8cccc(S(=O)(=O)[O-])c8F)c8ccc5[nH]8)C=C7)C=C6)cc4)cn(-c4ccccc4)c32)ccc1O
REMARK SMILES IDX 17 1 16 2 15 3 13 4 14 5 12 7 6 8 7 9 93 10 8 11 11 12 86 13
REMARK SMILES IDX 9 14 10 15 85 16 5 18 3 19 4 20 96 21 95 22 94 23 2 24 1 25
REMARK SMILES IDX 97 26 87 28 88 29 92 30 89 31 91 32 90 33 18 34 19 35 20 36
REMARK SMILES IDX 21 38 22 39 23 40 84 41 24 42 83 43 25 44 26 45 27 46 77 47
REMARK SMILES IDX 28 48 82 49 76 50 78 51 29 52 81 53 75 54 74 55 30 57 62 58
REMARK SMILES IDX 42 59 61 60 43 61 46 62 60 63 79 64 44 65 45 66 59 68 80 69
REMARK SMILES IDX 47 70 31 71 32 72 40 73 33 74 35 75 41 76 34 77 36 78 37 79
REMARK SMILES IDX 38 80 39 81 63 82 64 83 72 84 65 85 67 86 73 87 66 88 68 89
REMARK SMILES IDX 69 90 70 91 71 92 48 93 49 94 57 95 50 96 52 97 58 98 51 99
REMARK SMILES IDX 53 100 54 101 55 102 56 103
REMARK H PARENT 15 6 10 17 97 27 19 37 78 56 46 67
REMARK Flexibility Score: inf
ROOT
ATOM      1  C   UNL A   1      36.979  21.751  24.246  1.00  0.00     0.042 C 
ENDROOT
BRANCH   1   2
ATOM      2  C   UNL A   1      35.573  22.261  23.882  1.00  0.00     0.118 C 
BRANCH   2   3
ATOM      3  N   UNL A   1      34.648  22.150  24.982  1.00  0.00    -0.352 N 
ATOM      4  C   UNL A   1      33.697  22.989  25.492  1.00  0.00     0.254 C 
ATOM      5  O   UNL A   1      32.964  22.490  26.349  1.00  0.00    -0.269 OA
ATOM      6  H   UNL A   1      34.717  21.295  25.467  1.00  0.00     0.163 HD
BRANCH   4   7
ATOM      7  C   UNL A   1      33.483  24.379  25.067  1.00  0.00     0.081 A 
ATOM      8  C   UNL A   1      32.776  27.492  23.139  1.00  0.00     0.078 C 
ATOM      9  C   UNL A   1      33.334  27.046  21.782  1.00  0.00     0.115 C 
ATOM     10  C   UNL A   1      33.072  26.431  24.157  1.00  0.00     0.055 A 
ATOM     11  C   UNL A   1      32.982  25.608  21.494  1.00  0.00     0.225 C 
ATOM     12  C   UNL A   1      33.210  25.094  23.862  1.00  0.00     0.076 A 
ATOM     13  N   UNL A   1      33.278  26.607  25.501  1.00  0.00    -0.317 N 
ATOM     14  O   UNL A   1      32.745  25.197  20.358  1.00  0.00    -0.275 OA
ATOM     15  N   UNL A   1      33.020  24.737  22.550  1.00  0.00    -0.324 N 
ATOM     16  C   UNL A   1      33.614  25.390  26.027  1.00  0.00     0.107 A 
ATOM     17  H   UNL A   1      32.903  23.780  22.353  1.00  0.00     0.170 HD
BRANCH   8  18
ATOM     18  C   UNL A   1      31.288  27.808  23.029  1.00  0.00    -0.034 A 
ATOM     19  C   UNL A   1      29.554  29.369  22.304  1.00  0.00     0.160 A 
ATOM     20  C   UNL A   1      30.897  28.986  22.374  1.00  0.00     0.054 A 
ATOM     21  C   UNL A   1      28.585  28.528  22.855  1.00  0.00     0.157 A 
ATOM     22  C   UNL A   1      28.949  27.353  23.505  1.00  0.00     0.050 A 
ATOM     23  C   UNL A   1      30.292  26.991  23.587  1.00  0.00     0.008 A 
BRANCH  19  24
ATOM     24  O   UNL A   1      29.357  30.554  21.652  1.00  0.00    -0.493 OA
ATOM     25  C   UNL A   1      28.970  31.676  22.432  1.00  0.00     0.278 C 
ENDBRANCH  19  24
BRANCH  21  26
ATOM     26  O   UNL A   1      27.244  28.753  22.747  1.00  0.00    -0.504 OA
ATOM     27  H   UNL A   1      26.808  29.301  23.371  1.00  0.00     0.293 HD
ENDBRANCH  21  26
ENDBRANCH   8  18
BRANCH  13  28
ATOM     28  C   UNL A   1      33.175  27.812  26.220  1.00  0.00     0.045 A 
ATOM     29  C   UNL A   1      31.917  28.252  26.640  1.00  0.00     0.026 A 
ATOM     30  C   UNL A   1      34.315  28.577  26.458  1.00  0.00     0.026 A 
ATOM     31  C   UNL A   1      31.779  29.509  27.219  1.00  0.00     0.002 A 
ATOM     32  C   UNL A   1      34.171  29.839  27.034  1.00  0.00     0.002 A 
ATOM     33  C   UNL A   1      32.905  30.310  27.397  1.00  0.00     0.000 A 
ENDBRANCH  13  28
ENDBRANCH   4   7
ENDBRANCH   2   3
ENDBRANCH   1   2
BRANCH   1  34
ATOM     34  C   UNL A   1      37.614  22.567  25.342  1.00  0.00     0.118 C 
BRANCH  34  35
ATOM     35  N   UNL A   1      38.517  21.726  26.157  1.00  0.00    -0.352 N 
ATOM     36  C   UNL A   1      39.701  22.073  26.791  1.00  0.00     0.251 C 
ATOM     37  H   UNL A   1      38.239  20.787  26.264  1.00  0.00     0.163 HD
ATOM     38  O   UNL A   1      40.507  21.230  27.139  1.00  0.00    -0.269 OA
BRANCH  36  39
ATOM     39  C   UNL A   1      39.931  23.503  27.039  1.00  0.00     0.039 A 
ATOM     40  C   UNL A   1      38.956  24.487  26.868  1.00  0.00     0.014 A 
ATOM     41  C   UNL A   1      41.163  23.805  27.588  1.00  0.00     0.014 A 
ATOM     42  C   UNL A   1      39.253  25.774  27.311  1.00  0.00     0.010 A 
ATOM     43  C   UNL A   1      41.249  24.902  28.375  1.00  0.00     0.010 A 
ATOM     44  C   UNL A   1      40.418  25.957  28.066  1.00  0.00    -0.014 A 
BRANCH  44  45
ATOM     45  C   UNL A   1      40.849  27.221  28.621  1.00  0.00     0.031 A 
ATOM     46  C   UNL A   1      42.114  27.718  28.038  1.00  0.00     0.074 A 
ATOM     47  C   UNL A   1      39.994  27.987  29.341  1.00  0.00     0.049 A 
ATOM     48  N   UNL A   1      43.278  27.731  28.594  1.00  0.00    -0.248 NA
ATOM     49  C   UNL A   1      42.138  28.027  26.598  1.00  0.00     0.031 C 
ATOM     50  C   UNL A   1      38.563  27.762  29.623  1.00  0.00     0.029 A 
ATOM     51  N   UNL A   1      40.188  29.229  29.841  1.00  0.00    -0.354 N 
ATOM     52  C   UNL A   1      44.124  28.314  27.655  1.00  0.00     0.074 A 
ATOM     53  C   UNL A   1      43.446  28.194  26.395  1.00  0.00     0.031 C 
ATOM     54  C   UNL A   1      37.986  28.927  29.996  1.00  0.00     0.029 A 
ATOM     55  C   UNL A   1      39.023  29.928  30.145  1.00  0.00     0.049 A 
ATOM     56  H   UNL A   1      41.084  29.610  29.978  1.00  0.00     0.167 HD
ATOM     57  C   UNL A   1      45.159  29.111  28.048  1.00  0.00     0.034 A 
ATOM     58  C   UNL A   1      38.934  31.252  30.430  1.00  0.00     0.034 A 
ATOM     59  C   UNL A   1      45.356  29.006  29.478  1.00  0.00     0.049 A 
ATOM     60  C   UNL A   1      40.300  31.700  30.798  1.00  0.00     0.074 A 
ATOM     61  C   UNL A   1      45.641  27.976  30.353  1.00  0.00     0.029 A 
ATOM     62  N   UNL A   1      44.824  30.017  30.246  1.00  0.00    -0.354 N 
ATOM     63  N   UNL A   1      40.937  31.264  31.850  1.00  0.00    -0.248 NA
ATOM     64  C   UNL A   1      41.138  32.230  29.732  1.00  0.00     0.031 C 
ATOM     65  C   UNL A   1      44.826  28.233  31.497  1.00  0.00     0.029 A 
ATOM     66  C   UNL A   1      44.160  29.445  31.298  1.00  0.00     0.049 A 
ATOM     67  H   UNL A   1      44.907  30.982  30.070  1.00  0.00     0.167 HD
ATOM     68  C   UNL A   1      42.231  31.029  31.399  1.00  0.00     0.074 A 
ATOM     69  C   UNL A   1      42.318  31.731  30.115  1.00  0.00     0.031 C 
ATOM     70  C   UNL A   1      43.002  30.036  31.937  1.00  0.00     0.034 A 
BRANCH  57  71
ATOM     71  C   UNL A   1      45.730  30.287  27.276  1.00  0.00     0.023 A 
ATOM     72  C   UNL A   1      47.117  30.521  27.437  1.00  0.00     0.012 A 
ATOM     73  C   UNL A   1      44.990  31.309  26.639  1.00  0.00     0.148 A 
ATOM     74  C   UNL A   1      47.709  31.740  27.091  1.00  0.00     0.002 A 
ATOM     75  C   UNL A   1      45.594  32.499  26.241  1.00  0.00     0.091 A 
ATOM     76  F   UNL A   1      43.670  31.205  26.496  1.00  0.00    -0.205 F 
ATOM     77  C   UNL A   1      46.944  32.734  26.499  1.00  0.00     0.022 A 
BRANCH  75  78
ATOM     78  S   UNL A   1      44.662  33.812  25.436  1.00  0.00     0.127 S 
ATOM     79  O   UNL A   1      45.735  34.703  25.001  1.00  0.00    -0.237 OA
ATOM     80  O   UNL A   1      43.988  33.083  24.362  1.00  0.00    -0.237 OA
ATOM     81  O   UNL A   1      43.764  34.345  26.452  1.00  0.00    -0.744 OA
ENDBRANCH  75  78
ENDBRANCH  57  71
BRANCH  58  82
ATOM     82  C   UNL A   1      37.848  32.211  30.107  1.00  0.00     0.023 A 
ATOM     83  C   UNL A   1      37.490  32.450  28.763  1.00  0.00     0.012 A 
ATOM     84  C   UNL A   1      36.977  32.678  31.116  1.00  0.00     0.148 A 
ATOM     85  C   UNL A   1      36.295  33.109  28.438  1.00  0.00     0.002 A 
ATOM     86  C   UNL A   1      35.794  33.338  30.788  1.00  0.00     0.091 A 
ATOM     87  F   UNL A   1      37.261  32.392  32.393  1.00  0.00    -0.205 F 
ATOM     88  C   UNL A   1      35.444  33.547  29.450  1.00  0.00     0.022 A 
BRANCH  86  89
ATOM     89  S   UNL A   1      34.636  33.903  32.043  1.00  0.00     0.127 S 
ATOM     90  O   UNL A   1      33.678  34.669  31.246  1.00  0.00    -0.237 OA
ATOM     91  O   UNL A   1      34.125  32.640  32.570  1.00  0.00    -0.237 OA
ATOM     92  O   UNL A   1      35.424  34.704  32.970  1.00  0.00    -0.744 OA
ENDBRANCH  86  89
ENDBRANCH  58  82
BRANCH  70  93
ATOM     93  C   UNL A   1      42.498  29.330  33.173  1.00  0.00     0.023 A 
ATOM     94  C   UNL A   1      41.457  28.377  33.140  1.00  0.00     0.012 A 
ATOM     95  C   UNL A   1      43.228  29.486  34.362  1.00  0.00     0.148 A 
ATOM     96  C   UNL A   1      41.145  27.609  34.267  1.00  0.00     0.002 A 
ATOM     97  C   UNL A   1      42.948  28.690  35.465  1.00  0.00     0.091 A 
ATOM     98  F   UNL A   1      44.219  30.391  34.378  1.00  0.00    -0.205 F 
ATOM     99  C   UNL A   1      41.901  27.756  35.426  1.00  0.00     0.022 A 
BRANCH  97 100
ATOM    100  S   UNL A   1      43.971  28.743  36.937  1.00  0.00     0.127 S 
ATOM    101  O   UNL A   1      45.318  28.731  36.371  1.00  0.00    -0.237 OA
ATOM    102  O   UNL A   1      43.574  30.013  37.549  1.00  0.00    -0.237 OA
ATOM    103  O   UNL A   1      43.608  27.567  37.720  1.00  0.00    -0.744 OA
ENDBRANCH  97 100
ENDBRANCH  70  93
ENDBRANCH  44  45
ENDBRANCH  36  39
ENDBRANCH  34  35
ENDBRANCH   1  34
TORSDOF 17
ENDMDL
MODEL 2
REMARK VINA RESULT:     -13.8      3.032      9.069
REMARK SMILES COc1cc([C@@H]2CC(=O)Nc3c(C(=O)NCCCNC(=O)c4ccc(-c5c6nc(c(-c7cccc(S(=O)(=O)[O-])c7F)c7ccc([nH]7)c(-c7cccc(S(=O)(=O)[O-])c7F)c7nc(c(-c8cccc(S(=O)(=O)[O-])c8F)c8ccc5[nH]8)C=C7)C=C6)cc4)cn(-c4ccccc4)c32)ccc1O
REMARK SMILES IDX 17 1 16 2 15 3 13 4 14 5 12 7 6 8 7 9 93 10 8 11 11 12 86 13
REMARK SMILES IDX 9 14 10 15 85 16 5 18 3 19 4 20 96 21 95 22 94 23 2 24 1 25
REMARK SMILES IDX 97 26 87 28 88 29 92 30 89 31 91 32 90 33 18 34 19 35 20 36
REMARK SMILES IDX 21 38 22 39 23 40 84 41 24 42 83 43 25 44 26 45 27 46 77 47
REMARK SMILES IDX 28 48 82 49 76 50 78 51 29 52 81 53 75 54 74 55 30 57 62 58
REMARK SMILES IDX 42 59 61 60 43 61 46 62 60 63 79 64 44 65 45 66 59 68 80 69
REMARK SMILES IDX 47 70 31 71 32 72 40 73 33 74 35 75 41 76 34 77 36 78 37 79
REMARK SMILES IDX 38 80 39 81 63 82 64 83 72 84 65 85 67 86 73 87 66 88 68 89
REMARK SMILES IDX 69 90 70 91 71 92 48 93 49 94 57 95 50 96 52 97 58 98 51 99
REMARK SMILES IDX 53 100 54 101 55 102 56 103
REMARK H PARENT 15 6 10 17 97 27 19 37 78 56 46 67
REMARK Flexibility Score: inf
ROOT
ATOM      1  C   UNL A   1      32.028  29.481  27.240  1.00  0.00     0.042 C 
ENDROOT
BRANCH   1   2
ATOM      2  C   UNL A   1      31.533  28.258  26.445  1.00  0.00     0.118 C 
BRANCH   2   3
ATOM      3  N   UNL A   1      32.067  28.222  25.107  1.00  0.00    -0.352 N 
ATOM      4  C   UNL A   1      32.683  27.247  24.373  1.00  0.00     0.254 C 
ATOM      5  O   UNL A   1      32.860  27.519  23.183  1.00  0.00    -0.269 OA
ATOM      6  H   UNL A   1      31.970  29.074  24.622  1.00  0.00     0.163 HD
BRANCH   4   7
ATOM      7  C   UNL A   1      33.094  25.934  24.890  1.00  0.00     0.081 A 
ATOM      8  C   UNL A   1      33.202  22.529  26.408  1.00  0.00     0.078 C 
ATOM      9  C   UNL A   1      32.080  22.708  27.438  1.00  0.00     0.115 C 
ATOM     10  C   UNL A   1      33.457  23.846  25.735  1.00  0.00     0.055 A 
ATOM     11  C   UNL A   1      30.929  23.493  26.860  1.00  0.00     0.225 C 
ATOM     12  C   UNL A   1      32.506  24.827  25.571  1.00  0.00     0.076 A 
ATOM     13  N   UNL A   1      34.642  24.294  25.214  1.00  0.00    -0.317 N 
ATOM     14  O   UNL A   1      29.758  23.276  27.167  1.00  0.00    -0.275 OA
ATOM     15  N   UNL A   1      31.244  24.534  26.029  1.00  0.00    -0.324 N 
ATOM     16  C   UNL A   1      34.445  25.580  24.791  1.00  0.00     0.107 A 
ATOM     17  H   UNL A   1      30.509  25.121  25.737  1.00  0.00     0.170 HD
BRANCH   8  18
ATOM     18  C   UNL A   1      32.853  21.419  25.423  1.00  0.00    -0.034 A 
ATOM     19  C   UNL A   1      32.612  19.024  25.008  1.00  0.00     0.160 A 
ATOM     20  C   UNL A   1      32.852  20.092  25.878  1.00  0.00     0.054 A 
ATOM     21  C   UNL A   1      32.316  19.299  23.671  1.00  0.00     0.157 A 
ATOM     22  C   UNL A   1      32.306  20.607  23.199  1.00  0.00     0.050 A 
ATOM     23  C   UNL A   1      32.567  21.662  24.070  1.00  0.00     0.008 A 
BRANCH  19  24
ATOM     24  O   UNL A   1      32.674  17.800  25.614  1.00  0.00    -0.493 OA
ATOM     25  C   UNL A   1      33.750  16.944  25.256  1.00  0.00     0.278 C 
ENDBRANCH  19  24
BRANCH  21  26
ATOM     26  O   UNL A   1      31.962  18.340  22.767  1.00  0.00    -0.504 OA
ATOM     27  H   UNL A   1      32.520  17.599  22.626  1.00  0.00     0.293 HD
ENDBRANCH  21  26
ENDBRANCH   8  18
BRANCH  13  28
ATOM     28  C   UNL A   1      35.852  23.579  25.130  1.00  0.00     0.045 A 
ATOM     29  C   UNL A   1      36.015  22.630  24.117  1.00  0.00     0.026 A 
ATOM     30  C   UNL A   1      36.846  23.784  26.084  1.00  0.00     0.026 A 
ATOM     31  C   UNL A   1      37.139  21.811  24.108  1.00  0.00     0.002 A 
ATOM     32  C   UNL A   1      37.969  22.957  26.073  1.00  0.00     0.002 A 
ATOM     33  C   UNL A   1      38.106  21.962  25.099  1.00  0.00     0.000 A 
ENDBRANCH  13  28
ENDBRANCH   4   7
ENDBRANCH   2   3
ENDBRANCH   1   2
BRANCH   1  34
ATOM     34  C   UNL A   1      33.530  29.600  27.222  1.00  0.00     0.118 C 
BRANCH  34  35
ATOM     35  N   UNL A   1      33.936  31.015  27.087  1.00  0.00    -0.352 N 
ATOM     36  C   UNL A   1      35.011  31.676  27.663  1.00  0.00     0.251 C 
ATOM     37  H   UNL A   1      33.362  31.566  26.507  1.00  0.00     0.163 HD
ATOM     38  O   UNL A   1      35.042  32.890  27.744  1.00  0.00    -0.269 OA
BRANCH  36  39
ATOM     39  C   UNL A   1      36.118  30.846  28.157  1.00  0.00     0.039 A 
ATOM     40  C   UNL A   1      36.239  29.479  27.899  1.00  0.00     0.014 A 
ATOM     41  C   UNL A   1      37.123  31.543  28.801  1.00  0.00     0.014 A 
ATOM     42  C   UNL A   1      37.426  28.855  28.273  1.00  0.00     0.010 A 
ATOM     43  C   UNL A   1      38.375  31.033  28.749  1.00  0.00     0.010 A 
ATOM     44  C   UNL A   1      38.487  29.661  28.702  1.00  0.00    -0.014 A 
BRANCH  44  45
ATOM     45  C   UNL A   1      39.789  29.168  29.095  1.00  0.00     0.031 A 
ATOM     46  C   UNL A   1      40.030  29.242  30.552  1.00  0.00     0.074 A 
ATOM     47  C   UNL A   1      40.533  28.425  28.240  1.00  0.00     0.049 A 
ATOM     48  N   UNL A   1      40.792  30.075  31.175  1.00  0.00    -0.248 NA
ATOM     49  C   UNL A   1      39.158  28.453  31.438  1.00  0.00     0.031 C 
ATOM     50  C   UNL A   1      40.184  27.940  26.891  1.00  0.00     0.029 A 
ATOM     51  N   UNL A   1      41.710  27.800  28.468  1.00  0.00    -0.354 N 
ATOM     52  C   UNL A   1      40.698  29.720  32.518  1.00  0.00     0.074 A 
ATOM     53  C   UNL A   1      39.494  28.947  32.631  1.00  0.00     0.031 C 
ATOM     54  C   UNL A   1      40.995  26.910  26.555  1.00  0.00     0.029 A 
ATOM     55  C   UNL A   1      42.015  26.776  27.576  1.00  0.00     0.049 A 
ATOM     56  H   UNL A   1      42.306  28.049  29.211  1.00  0.00     0.167 HD
ATOM     57  C   UNL A   1      41.776  29.834  33.346  1.00  0.00     0.034 A 
ATOM     58  C   UNL A   1      43.001  25.854  27.719  1.00  0.00     0.034 A 
ATOM     59  C   UNL A   1      42.829  30.585  32.697  1.00  0.00     0.049 A 
ATOM     60  C   UNL A   1      43.946  26.396  28.728  1.00  0.00     0.074 A 
ATOM     61  C   UNL A   1      42.938  31.853  32.162  1.00  0.00     0.029 A 
ATOM     62  N   UNL A   1      43.852  29.851  32.142  1.00  0.00    -0.354 N 
ATOM     63  N   UNL A   1      44.648  27.479  28.539  1.00  0.00    -0.248 NA
ATOM     64  C   UNL A   1      43.724  26.026  30.117  1.00  0.00     0.031 C 
ATOM     65  C   UNL A   1      43.700  31.679  30.967  1.00  0.00     0.029 A 
ATOM     66  C   UNL A   1      44.089  30.340  30.885  1.00  0.00     0.049 A 
ATOM     67  H   UNL A   1      44.329  29.105  32.571  1.00  0.00     0.167 HD
ATOM     68  C   UNL A   1      44.554  28.166  29.744  1.00  0.00     0.074 A 
ATOM     69  C   UNL A   1      44.053  27.180  30.705  1.00  0.00     0.031 C 
ATOM     70  C   UNL A   1      44.578  29.533  29.785  1.00  0.00     0.034 A 
BRANCH  57  71
ATOM     71  C   UNL A   1      42.083  28.955  34.547  1.00  0.00     0.023 A 
ATOM     72  C   UNL A   1      42.525  29.627  35.712  1.00  0.00     0.012 A 
ATOM     73  C   UNL A   1      42.227  27.549  34.539  1.00  0.00     0.148 A 
ATOM     74  C   UNL A   1      43.173  28.957  36.754  1.00  0.00     0.002 A 
ATOM     75  C   UNL A   1      42.818  26.877  35.605  1.00  0.00     0.091 A 
ATOM     76  F   UNL A   1      41.894  26.837  33.465  1.00  0.00    -0.205 F 
ATOM     77  C   UNL A   1      43.327  27.580  36.697  1.00  0.00     0.022 A 
BRANCH  75  78
ATOM     78  S   UNL A   1      43.014  25.088  35.607  1.00  0.00     0.127 S 
ATOM     79  O   UNL A   1      43.872  24.890  34.441  1.00  0.00    -0.237 OA
ATOM     80  O   UNL A   1      43.662  24.861  36.898  1.00  0.00    -0.237 OA
ATOM     81  O   UNL A   1      41.669  24.539  35.508  1.00  0.00    -0.744 OA
ENDBRANCH  75  78
ENDBRANCH  57  71
BRANCH  58  82
ATOM     82  C   UNL A   1      43.021  24.429  27.302  1.00  0.00     0.023 A 
ATOM     83  C   UNL A   1      41.904  23.603  27.544  1.00  0.00     0.012 A 
ATOM     84  C   UNL A   1      44.017  23.952  26.421  1.00  0.00     0.148 A 
ATOM     85  C   UNL A   1      41.772  22.358  26.912  1.00  0.00     0.002 A 
ATOM     86  C   UNL A   1      43.885  22.713  25.800  1.00  0.00     0.091 A 
ATOM     87  F   UNL A   1      45.045  24.755  26.119  1.00  0.00    -0.205 F 
ATOM     88  C   UNL A   1      42.759  21.916  26.034  1.00  0.00     0.022 A 
BRANCH  86  89
ATOM     89  S   UNL A   1      45.107  22.094  24.634  1.00  0.00     0.127 S 
ATOM     90  O   UNL A   1      44.512  20.822  24.221  1.00  0.00    -0.237 OA
ATOM     91  O   UNL A   1      45.099  23.135  23.610  1.00  0.00    -0.237 OA
ATOM     92  O   UNL A   1      46.342  21.962  25.394  1.00  0.00    -0.744 OA
ENDBRANCH  86  89
ENDBRANCH  58  82
BRANCH  70  93
ATOM     93  C   UNL A   1      44.919  30.281  28.518  1.00  0.00     0.023 A 
ATOM     94  C   UNL A   1      43.936  30.808  27.653  1.00  0.00     0.012 A 
ATOM     95  C   UNL A   1      46.261  30.633  28.304  1.00  0.00     0.148 A 
ATOM     96  C   UNL A   1      44.284  31.653  26.593  1.00  0.00     0.002 A 
ATOM     97  C   UNL A   1      46.600  31.509  27.281  1.00  0.00     0.091 A 
ATOM     98  F   UNL A   1      47.185  30.131  29.138  1.00  0.00    -0.205 F 
ATOM     99  C   UNL A   1      45.616  32.015  26.416  1.00  0.00     0.022 A 
BRANCH  97 100
ATOM    100  S   UNL A   1      48.278  32.113  27.087  1.00  0.00     0.127 S 
ATOM    101  O   UNL A   1      48.555  32.665  28.411  1.00  0.00    -0.237 OA
ATOM    102  O   UNL A   1      49.016  30.890  26.765  1.00  0.00    -0.237 OA
ATOM    103  O   UNL A   1      48.231  33.083  26.000  1.00  0.00    -0.744 OA
ENDBRANCH  97 100
ENDBRANCH  70  93
ENDBRANCH  44  45
ENDBRANCH  36  39
ENDBRANCH  34  35
ENDBRANCH   1  34
TORSDOF 17
ENDMDL
MODEL 3
REMARK VINA RESULT:     -13.7      3.156      7.362
REMARK SMILES COc1cc([C@@H]2CC(=O)Nc3c(C(=O)NCCCNC(=O)c4ccc(-c5c6nc(c(-c7cccc(S(=O)(=O)[O-])c7F)c7ccc([nH]7)c(-c7cccc(S(=O)(=O)[O-])c7F)c7nc(c(-c8cccc(S(=O)(=O)[O-])c8F)c8ccc5[nH]8)C=C7)C=C6)cc4)cn(-c4ccccc4)c32)ccc1O
REMARK SMILES IDX 17 1 16 2 15 3 13 4 14 5 12 7 6 8 7 9 93 10 8 11 11 12 86 13
REMARK SMILES IDX 9 14 10 15 85 16 5 18 3 19 4 20 96 21 95 22 94 23 2 24 1 25
REMARK SMILES IDX 97 26 87 28 88 29 92 30 89 31 91 32 90 33 18 34 19 35 20 36
REMARK SMILES IDX 21 38 22 39 23 40 84 41 24 42 83 43 25 44 26 45 27 46 77 47
REMARK SMILES IDX 28 48 82 49 76 50 78 51 29 52 81 53 75 54 74 55 30 57 62 58
REMARK SMILES IDX 42 59 61 60 43 61 46 62 60 63 79 64 44 65 45 66 59 68 80 69
REMARK SMILES IDX 47 70 31 71 32 72 40 73 33 74 35 75 41 76 34 77 36 78 37 79
REMARK SMILES IDX 38 80 39 81 63 82 64 83 72 84 65 85 67 86 73 87 66 88 68 89
REMARK SMILES IDX 69 90 70 91 71 92 48 93 49 94 57 95 50 96 52 97 58 98 51 99
REMARK SMILES IDX 53 100 54 101 55 102 56 103
REMARK H PARENT 15 6 10 17 97 27 19 37 78 56 46 67
REMARK Flexibility Score: inf
ROOT
ATOM      1  C   UNL A   1      36.743  21.068  25.521  1.00  0.00     0.042 C 
ENDROOT
BRANCH   1   2
ATOM      2  C   UNL A   1      35.840  22.073  24.783  1.00  0.00     0.118 C 
BRANCH   2   3
ATOM      3  N   UNL A   1      34.493  21.586  24.624  1.00  0.00    -0.352 N 
ATOM      4  C   UNL A   1      33.309  22.195  24.313  1.00  0.00     0.254 C 
ATOM      5  O   UNL A   1      32.368  21.430  24.095  1.00  0.00    -0.269 OA
ATOM      6  H   UNL A   1      34.407  20.616  24.771  1.00  0.00     0.163 HD
BRANCH   4   7
ATOM      7  C   UNL A   1      33.114  23.647  24.193  1.00  0.00     0.081 A 
ATOM      8  C   UNL A   1      32.416  27.103  22.978  1.00  0.00     0.078 C 
ATOM      9  C   UNL A   1      32.917  26.939  21.537  1.00  0.00     0.115 C 
ATOM     10  C   UNL A   1      32.721  25.849  23.742  1.00  0.00     0.055 A 
ATOM     11  C   UNL A   1      32.522  25.597  20.972  1.00  0.00     0.225 C 
ATOM     12  C   UNL A   1      32.818  24.600  23.173  1.00  0.00     0.076 A 
ATOM     13  N   UNL A   1      32.976  25.739  25.085  1.00  0.00    -0.317 N 
ATOM     14  O   UNL A   1      32.238  25.435  19.786  1.00  0.00    -0.275 OA
ATOM     15  N   UNL A   1      32.576  24.526  21.823  1.00  0.00    -0.324 N 
ATOM     16  C   UNL A   1      33.301  24.434  25.336  1.00  0.00     0.107 A 
ATOM     17  H   UNL A   1      32.430  23.633  21.437  1.00  0.00     0.170 HD
BRANCH   8  18
ATOM     18  C   UNL A   1      30.933  27.459  22.991  1.00  0.00    -0.034 A 
ATOM     19  C   UNL A   1      29.208  29.145  22.606  1.00  0.00     0.160 A 
ATOM     20  C   UNL A   1      30.542  28.732  22.549  1.00  0.00     0.054 A 
ATOM     21  C   UNL A   1      28.244  28.244  23.064  1.00  0.00     0.157 A 
ATOM     22  C   UNL A   1      28.607  26.975  23.502  1.00  0.00     0.050 A 
ATOM     23  C   UNL A   1      29.943  26.581  23.461  1.00  0.00     0.008 A 
BRANCH  19  24
ATOM     24  O   UNL A   1      29.011  30.421  22.160  1.00  0.00    -0.493 OA
ATOM     25  C   UNL A   1      28.179  30.598  21.022  1.00  0.00     0.278 C 
ENDBRANCH  19  24
BRANCH  21  26
ATOM     26  O   UNL A   1      26.905  28.507  23.058  1.00  0.00    -0.504 OA
ATOM     27  H   UNL A   1      26.601  29.391  22.975  1.00  0.00     0.293 HD
ENDBRANCH  21  26
ENDBRANCH   8  18
BRANCH  13  28
ATOM     28  C   UNL A   1      32.925  26.771  26.041  1.00  0.00     0.045 A 
ATOM     29  C   UNL A   1      31.754  26.962  26.779  1.00  0.00     0.026 A 
ATOM     30  C   UNL A   1      34.018  27.620  26.202  1.00  0.00     0.026 A 
ATOM     31  C   UNL A   1      31.635  28.065  27.617  1.00  0.00     0.002 A 
ATOM     32  C   UNL A   1      33.891  28.728  27.041  1.00  0.00     0.002 A 
ATOM     33  C   UNL A   1      32.697  28.958  27.733  1.00  0.00     0.000 A 
ENDBRANCH  13  28
ENDBRANCH   4   7
ENDBRANCH   2   3
ENDBRANCH   1   2
BRANCH   1  34
ATOM     34  C   UNL A   1      38.185  21.183  25.101  1.00  0.00     0.118 C 
BRANCH  34  35
ATOM     35  N   UNL A   1      38.909  19.924  25.382  1.00  0.00    -0.352 N 
ATOM     36  C   UNL A   1      40.232  19.740  25.757  1.00  0.00     0.251 C 
ATOM     37  H   UNL A   1      38.377  19.101  25.289  1.00  0.00     0.163 HD
ATOM     38  O   UNL A   1      40.784  18.663  25.631  1.00  0.00    -0.269 OA
BRANCH  36  39
ATOM     39  C   UNL A   1      40.931  20.899  26.328  1.00  0.00     0.039 A 
ATOM     40  C   UNL A   1      41.682  21.802  25.574  1.00  0.00     0.014 A 
ATOM     41  C   UNL A   1      40.688  21.118  27.671  1.00  0.00     0.014 A 
ATOM     42  C   UNL A   1      42.139  22.952  26.213  1.00  0.00     0.010 A 
ATOM     43  C   UNL A   1      40.759  22.390  28.124  1.00  0.00     0.010 A 
ATOM     44  C   UNL A   1      41.662  23.224  27.500  1.00  0.00    -0.014 A 
BRANCH  44  45
ATOM     45  C   UNL A   1      42.017  24.388  28.281  1.00  0.00     0.031 A 
ATOM     46  C   UNL A   1      40.990  25.451  28.251  1.00  0.00     0.074 A 
ATOM     47  C   UNL A   1      43.024  24.331  29.187  1.00  0.00     0.049 A 
ATOM     48  N   UNL A   1      41.046  26.572  27.614  1.00  0.00    -0.248 NA
ATOM     49  C   UNL A   1      39.661  25.145  28.804  1.00  0.00     0.031 C 
ATOM     50  C   UNL A   1      43.842  23.171  29.590  1.00  0.00     0.029 A 
ATOM     51  N   UNL A   1      43.422  25.277  30.068  1.00  0.00    -0.354 N 
ATOM     52  C   UNL A   1      39.857  27.226  27.924  1.00  0.00     0.074 A 
ATOM     53  C   UNL A   1      38.962  26.204  28.392  1.00  0.00     0.031 C 
ATOM     54  C   UNL A   1      44.426  23.421  30.785  1.00  0.00     0.029 A 
ATOM     55  C   UNL A   1      44.166  24.801  31.144  1.00  0.00     0.049 A 
ATOM     56  H   UNL A   1      43.200  26.229  29.959  1.00  0.00     0.167 HD
ATOM     57  C   UNL A   1      39.821  28.583  28.058  1.00  0.00     0.034 A 
ATOM     58  C   UNL A   1      44.479  25.490  32.270  1.00  0.00     0.034 A 
ATOM     59  C   UNL A   1      41.058  29.165  27.582  1.00  0.00     0.049 A 
ATOM     60  C   UNL A   1      44.286  26.928  31.956  1.00  0.00     0.074 A 
ATOM     61  C   UNL A   1      41.739  29.168  26.380  1.00  0.00     0.029 A 
ATOM     62  N   UNL A   1      41.984  29.506  28.541  1.00  0.00    -0.354 N 
ATOM     63  N   UNL A   1      44.999  27.568  31.070  1.00  0.00    -0.248 NA
ATOM     64  C   UNL A   1      42.984  27.506  32.250  1.00  0.00     0.031 C 
ATOM     65  C   UNL A   1      43.113  29.028  26.740  1.00  0.00     0.029 A 
ATOM     66  C   UNL A   1      43.205  29.040  28.135  1.00  0.00     0.049 A 
ATOM     67  H   UNL A   1      41.801  29.998  29.374  1.00  0.00     0.167 HD
ATOM     68  C   UNL A   1      44.074  28.331  30.368  1.00  0.00     0.074 A 
ATOM     69  C   UNL A   1      42.867  28.325  31.199  1.00  0.00     0.031 C 
ATOM     70  C   UNL A   1      44.254  28.627  29.045  1.00  0.00     0.034 A 
BRANCH  57  71
ATOM     71  C   UNL A   1      38.900  29.372  28.972  1.00  0.00     0.023 A 
ATOM     72  C   UNL A   1      38.322  30.539  28.416  1.00  0.00     0.012 A 
ATOM     73  C   UNL A   1      38.773  29.213  30.371  1.00  0.00     0.148 A 
ATOM     74  C   UNL A   1      37.756  31.539  29.213  1.00  0.00     0.002 A 
ATOM     75  C   UNL A   1      38.155  30.183  31.156  1.00  0.00     0.091 A 
ATOM     76  F   UNL A   1      39.334  28.178  30.992  1.00  0.00    -0.205 F 
ATOM     77  C   UNL A   1      37.679  31.364  30.586  1.00  0.00     0.022 A 
BRANCH  75  78
ATOM     78  S   UNL A   1      37.992  29.998  32.939  1.00  0.00     0.127 S 
ATOM     79  O   UNL A   1      37.206  31.180  33.282  1.00  0.00    -0.237 OA
ATOM     80  O   UNL A   1      37.277  28.726  33.042  1.00  0.00    -0.237 OA
ATOM     81  O   UNL A   1      39.351  29.963  33.462  1.00  0.00    -0.744 OA
ENDBRANCH  75  78
ENDBRANCH  57  71
BRANCH  58  82
ATOM     82  C   UNL A   1      44.618  24.998  33.664  1.00  0.00     0.023 A 
ATOM     83  C   UNL A   1      43.471  24.747  34.446  1.00  0.00     0.012 A 
ATOM     84  C   UNL A   1      45.858  24.509  34.134  1.00  0.00     0.148 A 
ATOM     85  C   UNL A   1      43.553  24.013  35.638  1.00  0.00     0.002 A 
ATOM     86  C   UNL A   1      45.936  23.786  35.322  1.00  0.00     0.091 A 
ATOM     87  F   UNL A   1      46.944  24.670  33.367  1.00  0.00    -0.205 F 
ATOM     88  C   UNL A   1      44.784  23.527  36.073  1.00  0.00     0.022 A 
BRANCH  86  89
ATOM     89  S   UNL A   1      47.487  23.105  35.926  1.00  0.00     0.127 S 
ATOM     90  O   UNL A   1      48.260  24.316  36.202  1.00  0.00    -0.237 OA
ATOM     91  O   UNL A   1      47.051  22.372  37.111  1.00  0.00    -0.237 OA
ATOM     92  O   UNL A   1      48.009  22.292  34.835  1.00  0.00    -0.744 OA
ENDBRANCH  86  89
ENDBRANCH  58  82
BRANCH  70  93
ATOM     93  C   UNL A   1      45.581  28.283  28.410  1.00  0.00     0.023 A 
ATOM     94  C   UNL A   1      46.744  29.061  28.598  1.00  0.00     0.012 A 
ATOM     95  C   UNL A   1      45.702  27.037  27.775  1.00  0.00     0.148 A 
ATOM     96  C   UNL A   1      47.993  28.614  28.151  1.00  0.00     0.002 A 
ATOM     97  C   UNL A   1      46.949  26.574  27.375  1.00  0.00     0.091 A 
ATOM     98  F   UNL A   1      44.590  26.304  27.609  1.00  0.00    -0.205 F 
ATOM     99  C   UNL A   1      48.097  27.362  27.553  1.00  0.00     0.022 A 
BRANCH  97 100
ATOM    100  S   UNL A   1      47.162  24.918  26.719  1.00  0.00     0.127 S 
ATOM    101  O   UNL A   1      48.615  24.821  26.607  1.00  0.00    -0.237 OA
ATOM    102  O   UNL A   1      46.570  24.086  27.769  1.00  0.00    -0.237 OA
ATOM    103  O   UNL A   1      46.432  24.890  25.457  1.00  0.00    -0.744 OA
ENDBRANCH  97 100
ENDBRANCH  70  93
ENDBRANCH  44  45
ENDBRANCH  36  39
ENDBRANCH  34  35
ENDBRANCH   1  34
TORSDOF 17
ENDMDL
