MODEL 1
REMARK VINA RESULT:     -11.7      0.000      0.000
REMARK SMILES Cc1[nH]c(=O)sc1S(=O)(=O)NC1(CC(=O)NCCCNC(=O)c2ccc(-c3c4nc(c(-c5cccc(S(=O)(=O)[O-])c5F)c5ccc([nH]5)c(-c5cccc(S(=O)(=O)[O-])c5F)c5nc(c(-c6cccc(S(=O)(=O)[O-])c6F)c6ccc3[nH]6)C=C5)C=C4)cc2)CCC1
REMARK SMILES IDX 17 1 16 2 14 3 15 4 13 6 12 7 86 8 88 9 87 10 11 11 8 13
REMARK SMILES IDX 9 14 10 15 7 16 1 17 2 18 3 19 4 20 6 22 5 23 18 24 19 25
REMARK SMILES IDX 20 26 21 27 22 29 23 30 24 31 85 32 25 33 84 34 26 35 27 36
REMARK SMILES IDX 28 37 78 38 29 39 83 40 77 41 79 42 30 43 82 44 76 45 75 46
REMARK SMILES IDX 31 48 63 49 43 50 62 51 44 52 47 53 61 54 80 55 45 56 46 57
REMARK SMILES IDX 60 59 81 60 48 61 32 62 33 63 41 64 34 65 36 66 42 67 35 68
REMARK SMILES IDX 37 69 38 70 39 71 40 72 64 73 65 74 73 75 66 76 68 77 74 78
REMARK SMILES IDX 67 79 69 80 70 81 71 82 72 83 49 84 50 85 58 86 51 87 53 88
REMARK SMILES IDX 59 89 52 90 54 91 55 92 56 93 57 94
REMARK H PARENT 16 5 11 12 3 21 20 28 79 47 47 58
REMARK Flexibility Score: inf
ROOT
ATOM      1  C   UNL A   1      36.560  20.695  24.977  1.00  0.00     0.117 C 
ENDROOT
BRANCH   1   2
ATOM      2  N   UNL A   1      36.645  21.672  23.909  1.00  0.00    -0.356 N 
ATOM      3  C   UNL A   1      35.908  22.794  23.691  1.00  0.00     0.221 C 
ATOM      4  O   UNL A   1      36.205  23.539  22.758  1.00  0.00    -0.275 OA
ATOM      5  H   UNL A   1      37.344  21.496  23.239  1.00  0.00     0.163 HD
BRANCH   3   6
ATOM      6  C   UNL A   1      34.796  23.179  24.626  1.00  0.00     0.123 C 
BRANCH   6   7
ATOM      7  C   UNL A   1      33.343  22.986  24.161  1.00  0.00     0.042 C 
ATOM      8  C   UNL A   1      32.678  21.909  25.094  1.00  0.00     0.024 C 
ATOM      9  C   UNL A   1      33.101  21.985  22.993  1.00  0.00     0.024 C 
ATOM     10  C   UNL A   1      32.729  20.881  23.969  1.00  0.00     0.004 C 
BRANCH   7  11
ATOM     11  N   UNL A   1      32.543  24.272  24.190  1.00  0.00    -0.204 NA
ATOM     12  H   UNL A   1      31.595  23.975  23.960  1.00  0.00     0.142 HD
BRANCH  11  13
ATOM     13  S   UNL A   1      32.735  25.732  23.322  1.00  0.00     0.252 S 
ATOM     14  O   UNL A   1      31.408  26.079  22.864  1.00  0.00    -0.206 OA
ATOM     15  O   UNL A   1      33.798  25.416  22.392  1.00  0.00    -0.206 OA
BRANCH  13  16
ATOM     16  C   UNL A   1      33.291  26.985  24.383  1.00  0.00     0.158 A 
ATOM     17  C   UNL A   1      33.773  28.754  22.580  1.00  0.00     0.067 C 
ATOM     18  C   UNL A   1      33.708  28.194  23.960  1.00  0.00     0.046 A 
ATOM     19  N   UNL A   1      34.154  28.987  24.994  1.00  0.00    -0.315 N 
ATOM     20  C   UNL A   1      34.089  28.457  26.263  1.00  0.00     0.305 A 
ATOM     21  H   UNL A   1      34.504  29.893  24.833  1.00  0.00     0.170 HD
ATOM     22  S   UNL A   1      33.409  26.844  26.130  1.00  0.00    -0.061 S 
ATOM     23  O   UNL A   1      34.478  28.985  27.278  1.00  0.00    -0.257 OA
ENDBRANCH  13  16
ENDBRANCH  11  13
ENDBRANCH   7  11
ENDBRANCH   6   7
ENDBRANCH   3   6
ENDBRANCH   1   2
BRANCH   1  24
ATOM     24  C   UNL A   1      37.710  19.681  24.963  1.00  0.00     0.042 C 
BRANCH  24  25
ATOM     25  C   UNL A   1      38.892  20.141  25.769  1.00  0.00     0.118 C 
BRANCH  25  26
ATOM     26  N   UNL A   1      39.974  19.146  25.799  1.00  0.00    -0.352 N 
ATOM     27  C   UNL A   1      41.336  19.379  25.918  1.00  0.00     0.251 C 
ATOM     28  H   UNL A   1      39.699  18.205  25.724  1.00  0.00     0.163 HD
ATOM     29  O   UNL A   1      42.153  18.524  25.597  1.00  0.00    -0.269 OA
BRANCH  27  30
ATOM     30  C   UNL A   1      41.765  20.681  26.454  1.00  0.00     0.039 A 
ATOM     31  C   UNL A   1      42.409  21.666  25.703  1.00  0.00     0.014 A 
ATOM     32  C   UNL A   1      41.426  20.923  27.774  1.00  0.00     0.014 A 
ATOM     33  C   UNL A   1      42.676  22.884  26.326  1.00  0.00     0.010 A 
ATOM     34  C   UNL A   1      41.293  22.202  28.192  1.00  0.00     0.010 A 
ATOM     35  C   UNL A   1      42.117  23.122  27.590  1.00  0.00    -0.014 A 
BRANCH  35  36
ATOM     36  C   UNL A   1      42.308  24.336  28.357  1.00  0.00     0.031 A 
ATOM     37  C   UNL A   1      41.202  25.297  28.192  1.00  0.00     0.074 A 
ATOM     38  C   UNL A   1      43.251  24.424  29.324  1.00  0.00     0.049 A 
ATOM     39  N   UNL A   1      41.222  26.391  27.509  1.00  0.00    -0.248 NA
ATOM     40  C   UNL A   1      39.863  24.895  28.649  1.00  0.00     0.031 C 
ATOM     41  C   UNL A   1      44.167  23.381  29.825  1.00  0.00     0.029 A 
ATOM     42  N   UNL A   1      43.492  25.447  30.181  1.00  0.00    -0.354 N 
ATOM     43  C   UNL A   1      39.965  26.951  27.701  1.00  0.00     0.074 A 
ATOM     44  C   UNL A   1      39.116  25.883  28.153  1.00  0.00     0.031 C 
ATOM     45  C   UNL A   1      44.660  23.747  31.031  1.00  0.00     0.029 A 
ATOM     46  C   UNL A   1      44.242  25.106  31.304  1.00  0.00     0.049 A 
ATOM     47  H   UNL A   1      43.163  26.360  30.022  1.00  0.00     0.167 HD
ATOM     48  C   UNL A   1      39.815  28.302  27.779  1.00  0.00     0.034 A 
ATOM     49  C   UNL A   1      44.450  25.883  32.398  1.00  0.00     0.034 A 
ATOM     50  C   UNL A   1      41.012  28.981  27.338  1.00  0.00     0.049 A 
ATOM     51  C   UNL A   1      44.180  27.280  31.978  1.00  0.00     0.074 A 
ATOM     52  C   UNL A   1      41.752  29.002  26.171  1.00  0.00     0.029 A 
ATOM     53  N   UNL A   1      41.851  29.449  28.323  1.00  0.00    -0.354 N 
ATOM     54  N   UNL A   1      44.888  27.908  31.080  1.00  0.00    -0.248 NA
ATOM     55  C   UNL A   1      42.837  27.795  32.192  1.00  0.00     0.031 C 
ATOM     56  C   UNL A   1      43.113  29.022  26.600  1.00  0.00     0.029 A 
ATOM     57  C   UNL A   1      43.132  29.093  27.995  1.00  0.00     0.049 A 
ATOM     58  H   UNL A   1      41.577  29.954  29.124  1.00  0.00     0.167 HD
ATOM     59  C   UNL A   1      43.948  28.569  30.300  1.00  0.00     0.074 A 
ATOM     60  C   UNL A   1      42.716  28.547  31.093  1.00  0.00     0.031 C 
ATOM     61  C   UNL A   1      44.165  28.798  28.970  1.00  0.00     0.034 A 
BRANCH  48  62
ATOM     62  C   UNL A   1      38.775  29.011  28.616  1.00  0.00     0.023 A 
ATOM     63  C   UNL A   1      38.010  30.003  27.965  1.00  0.00     0.012 A 
ATOM     64  C   UNL A   1      38.687  28.960  30.027  1.00  0.00     0.148 A 
ATOM     65  C   UNL A   1      37.251  30.935  28.681  1.00  0.00     0.002 A 
ATOM     66  C   UNL A   1      37.870  29.839  30.731  1.00  0.00     0.091 A 
ATOM     67  F   UNL A   1      39.487  28.155  30.727  1.00  0.00    -0.205 F 
ATOM     68  C   UNL A   1      37.178  30.850  30.065  1.00  0.00     0.022 A 
BRANCH  66  69
ATOM     69  S   UNL A   1      37.703  29.749  32.519  1.00  0.00     0.127 S 
ATOM     70  O   UNL A   1      39.016  30.214  32.957  1.00  0.00    -0.237 OA
ATOM     71  O   UNL A   1      36.603  30.683  32.762  1.00  0.00    -0.237 OA
ATOM     72  O   UNL A   1      37.381  28.359  32.816  1.00  0.00    -0.744 OA
ENDBRANCH  66  69
ENDBRANCH  48  62
BRANCH  49  73
ATOM     73  C   UNL A   1      44.557  25.493  33.826  1.00  0.00     0.023 A 
ATOM     74  C   UNL A   1      43.403  25.448  34.635  1.00  0.00     0.012 A 
ATOM     75  C   UNL A   1      45.735  24.889  34.322  1.00  0.00     0.148 A 
ATOM     76  C   UNL A   1      43.412  24.799  35.878  1.00  0.00     0.002 A 
ATOM     77  C   UNL A   1      45.741  24.249  35.560  1.00  0.00     0.091 A 
ATOM     78  F   UNL A   1      46.820  24.860  33.538  1.00  0.00    -0.205 F 
ATOM     79  C   UNL A   1      44.578  24.192  36.336  1.00  0.00     0.022 A 
BRANCH  77  80
ATOM     80  S   UNL A   1      47.198  23.418  36.208  1.00  0.00     0.127 S 
ATOM     81  O   UNL A   1      48.150  24.525  36.321  1.00  0.00    -0.237 OA
ATOM     82  O   UNL A   1      46.709  22.902  37.483  1.00  0.00    -0.237 OA
ATOM     83  O   UNL A   1      47.556  22.419  35.211  1.00  0.00    -0.744 OA
ENDBRANCH  77  80
ENDBRANCH  49  73
BRANCH  61  84
ATOM     84  C   UNL A   1      45.536  28.487  28.410  1.00  0.00     0.023 A 
ATOM     85  C   UNL A   1      46.659  29.309  28.655  1.00  0.00     0.012 A 
ATOM     86  C   UNL A   1      45.737  27.244  27.790  1.00  0.00     0.148 A 
ATOM     87  C   UNL A   1      47.945  28.909  28.277  1.00  0.00     0.002 A 
ATOM     88  C   UNL A   1      47.022  26.831  27.452  1.00  0.00     0.091 A 
ATOM     89  F   UNL A   1      44.666  26.466  27.576  1.00  0.00    -0.205 F 
ATOM     90  C   UNL A   1      48.128  27.663  27.686  1.00  0.00     0.022 A 
BRANCH  88  91
ATOM     91  S   UNL A   1      47.346  25.190  26.803  1.00  0.00     0.127 S 
ATOM     92  O   UNL A   1      46.780  25.278  25.457  1.00  0.00    -0.237 OA
ATOM     93  O   UNL A   1      48.806  25.119  26.848  1.00  0.00    -0.237 OA
ATOM     94  O   UNL A   1      46.674  24.259  27.700  1.00  0.00    -0.744 OA
ENDBRANCH  88  91
ENDBRANCH  61  84
ENDBRANCH  35  36
ENDBRANCH  27  30
ENDBRANCH  25  26
ENDBRANCH  24  25
ENDBRANCH   1  24
TORSDOF 17
ENDMDL
MODEL 2
REMARK VINA RESULT:     -11.7      4.853      9.987
REMARK SMILES Cc1[nH]c(=O)sc1S(=O)(=O)NC1(CC(=O)NCCCNC(=O)c2ccc(-c3c4nc(c(-c5cccc(S(=O)(=O)[O-])c5F)c5ccc([nH]5)c(-c5cccc(S(=O)(=O)[O-])c5F)c5nc(c(-c6cccc(S(=O)(=O)[O-])c6F)c6ccc3[nH]6)C=C5)C=C4)cc2)CCC1
REMARK SMILES IDX 17 1 16 2 14 3 15 4 13 6 12 7 86 8 88 9 87 10 11 11 8 13
REMARK SMILES IDX 9 14 10 15 7 16 1 17 2 18 3 19 4 20 6 22 5 23 18 24 19 25
REMARK SMILES IDX 20 26 21 27 22 29 23 30 24 31 85 32 25 33 84 34 26 35 27 36
REMARK SMILES IDX 28 37 78 38 29 39 83 40 77 41 79 42 30 43 82 44 76 45 75 46
REMARK SMILES IDX 31 48 63 49 43 50 62 51 44 52 47 53 61 54 80 55 45 56 46 57
REMARK SMILES IDX 60 59 81 60 48 61 32 62 33 63 41 64 34 65 36 66 42 67 35 68
REMARK SMILES IDX 37 69 38 70 39 71 40 72 64 73 65 74 73 75 66 76 68 77 74 78
REMARK SMILES IDX 67 79 69 80 70 81 71 82 72 83 49 84 50 85 58 86 51 87 53 88
REMARK SMILES IDX 59 89 52 90 54 91 55 92 56 93 57 94
REMARK H PARENT 16 5 11 12 3 21 20 28 79 47 47 58
REMARK Flexibility Score: inf
ROOT
ATOM      1  C   UNL A   1      31.522  30.623  26.226  1.00  0.00     0.117 C 
ENDROOT
BRANCH   1   2
ATOM      2  N   UNL A   1      32.897  30.167  26.282  1.00  0.00    -0.356 N 
ATOM      3  C   UNL A   1      33.399  28.943  26.597  1.00  0.00     0.221 C 
ATOM      4  O   UNL A   1      34.609  28.743  26.500  1.00  0.00    -0.275 OA
ATOM      5  H   UNL A   1      33.571  30.848  26.058  1.00  0.00     0.163 HD
BRANCH   3   6
ATOM      6  C   UNL A   1      32.486  27.809  26.974  1.00  0.00     0.123 C 
BRANCH   6   7
ATOM      7  C   UNL A   1      31.978  26.873  25.865  1.00  0.00     0.042 C 
ATOM      8  C   UNL A   1      31.847  25.430  26.477  1.00  0.00     0.024 C 
ATOM      9  C   UNL A   1      33.045  26.267  24.907  1.00  0.00     0.024 C 
ATOM     10  C   UNL A   1      33.083  24.976  25.709  1.00  0.00     0.004 C 
BRANCH   7  11
ATOM     11  N   UNL A   1      30.653  27.320  25.284  1.00  0.00    -0.204 NA
ATOM     12  H   UNL A   1      29.967  27.006  25.971  1.00  0.00     0.142 HD
BRANCH  11  13
ATOM     13  S   UNL A   1      29.913  26.975  23.782  1.00  0.00     0.252 S 
ATOM     14  O   UNL A   1      28.580  26.520  24.110  1.00  0.00    -0.206 OA
ATOM     15  O   UNL A   1      30.874  26.103  23.142  1.00  0.00    -0.206 OA
BRANCH  13  16
ATOM     16  C   UNL A   1      29.778  28.424  22.840  1.00  0.00     0.158 A 
ATOM     17  C   UNL A   1      32.294  28.863  22.543  1.00  0.00     0.067 C 
ATOM     18  C   UNL A   1      30.834  29.128  22.392  1.00  0.00     0.046 A 
ATOM     19  N   UNL A   1      30.459  30.270  21.719  1.00  0.00    -0.315 N 
ATOM     20  C   UNL A   1      29.108  30.502  21.587  1.00  0.00     0.305 A 
ATOM     21  H   UNL A   1      31.126  30.891  21.349  1.00  0.00     0.170 HD
ATOM     22  S   UNL A   1      28.262  29.177  22.367  1.00  0.00    -0.061 S 
ATOM     23  O   UNL A   1      28.597  31.470  21.074  1.00  0.00    -0.257 OA
ENDBRANCH  13  16
ENDBRANCH  11  13
ENDBRANCH   7  11
ENDBRANCH   6   7
ENDBRANCH   3   6
ENDBRANCH   1   2
BRANCH   1  24
ATOM     24  C   UNL A   1      31.365  32.113  26.552  1.00  0.00     0.042 C 
BRANCH  24  25
ATOM     25  C   UNL A   1      32.606  32.704  27.158  1.00  0.00     0.118 C 
BRANCH  25  26
ATOM     26  N   UNL A   1      32.395  34.073  27.651  1.00  0.00    -0.352 N 
ATOM     27  C   UNL A   1      33.025  34.697  28.717  1.00  0.00     0.251 C 
ATOM     28  H   UNL A   1      31.727  34.609  27.167  1.00  0.00     0.163 HD
ATOM     29  O   UNL A   1      32.542  35.694  29.240  1.00  0.00    -0.269 OA
BRANCH  27  30
ATOM     30  C   UNL A   1      34.298  34.128  29.190  1.00  0.00     0.039 A 
ATOM     31  C   UNL A   1      34.462  33.480  30.415  1.00  0.00     0.014 A 
ATOM     32  C   UNL A   1      35.354  34.206  28.297  1.00  0.00     0.014 A 
ATOM     33  C   UNL A   1      35.707  32.915  30.688  1.00  0.00     0.010 A 
ATOM     34  C   UNL A   1      36.356  33.303  28.388  1.00  0.00     0.010 A 
ATOM     35  C   UNL A   1      36.651  32.855  29.653  1.00  0.00    -0.014 A 
BRANCH  35  36
ATOM     36  C   UNL A   1      37.982  32.300  29.788  1.00  0.00     0.031 A 
ATOM     37  C   UNL A   1      38.073  30.909  29.307  1.00  0.00     0.074 A 
ATOM     38  C   UNL A   1      39.055  33.082  30.054  1.00  0.00     0.049 A 
ATOM     39  N   UNL A   1      38.164  29.844  30.028  1.00  0.00    -0.248 NA
ATOM     40  C   UNL A   1      37.815  30.653  27.882  1.00  0.00     0.031 C 
ATOM     41  C   UNL A   1      39.123  34.551  30.182  1.00  0.00     0.029 A 
ATOM     42  N   UNL A   1      40.363  32.731  30.119  1.00  0.00    -0.354 N 
ATOM     43  C   UNL A   1      38.263  28.803  29.114  1.00  0.00     0.074 A 
ATOM     44  C   UNL A   1      37.769  29.319  27.866  1.00  0.00     0.031 C 
ATOM     45  C   UNL A   1      40.406  34.961  30.055  1.00  0.00     0.029 A 
ATOM     46  C   UNL A   1      41.260  33.792  30.014  1.00  0.00     0.049 A 
ATOM     47  H   UNL A   1      40.656  31.799  30.233  1.00  0.00     0.167 HD
ATOM     48  C   UNL A   1      39.038  27.717  29.383  1.00  0.00     0.034 A 
ATOM     49  C   UNL A   1      42.604  33.695  29.852  1.00  0.00     0.034 A 
ATOM     50  C   UNL A   1      39.423  27.691  30.777  1.00  0.00     0.049 A 
ATOM     51  C   UNL A   1      42.984  32.334  30.303  1.00  0.00     0.074 A 
ATOM     52  C   UNL A   1      38.744  27.666  31.979  1.00  0.00     0.029 A 
ATOM     53  N   UNL A   1      40.692  28.133  31.071  1.00  0.00    -0.354 N 
ATOM     54  N   UNL A   1      42.845  31.922  31.533  1.00  0.00    -0.248 NA
ATOM     55  C   UNL A   1      43.051  31.289  29.294  1.00  0.00     0.031 C 
ATOM     56  C   UNL A   1      39.482  28.538  32.836  1.00  0.00     0.029 A 
ATOM     57  C   UNL A   1      40.609  28.983  32.142  1.00  0.00     0.049 A 
ATOM     58  H   UNL A   1      41.517  27.880  30.595  1.00  0.00     0.167 HD
ATOM     59  C   UNL A   1      42.338  30.634  31.410  1.00  0.00     0.074 A 
ATOM     60  C   UNL A   1      42.585  30.263  30.014  1.00  0.00     0.031 C 
ATOM     61  C   UNL A   1      41.498  30.109  32.352  1.00  0.00     0.034 A 
BRANCH  48  62
ATOM     62  C   UNL A   1      39.785  26.907  28.349  1.00  0.00     0.023 A 
ATOM     63  C   UNL A   1      39.641  25.504  28.422  1.00  0.00     0.012 A 
ATOM     64  C   UNL A   1      40.805  27.401  27.502  1.00  0.00     0.148 A 
ATOM     65  C   UNL A   1      40.505  24.639  27.743  1.00  0.00     0.002 A 
ATOM     66  C   UNL A   1      41.612  26.539  26.767  1.00  0.00     0.091 A 
ATOM     67  F   UNL A   1      41.104  28.701  27.490  1.00  0.00    -0.205 F 
ATOM     68  C   UNL A   1      41.489  25.158  26.911  1.00  0.00     0.022 A 
BRANCH  66  69
ATOM     69  S   UNL A   1      42.874  27.153  25.643  1.00  0.00     0.127 S 
ATOM     70  O   UNL A   1      43.825  27.753  26.574  1.00  0.00    -0.237 OA
ATOM     71  O   UNL A   1      43.328  25.918  25.003  1.00  0.00    -0.237 OA
ATOM     72  O   UNL A   1      42.187  28.073  24.744  1.00  0.00    -0.744 OA
ENDBRANCH  66  69
ENDBRANCH  48  62
BRANCH  49  73
ATOM     73  C   UNL A   1      43.524  34.552  29.063  1.00  0.00     0.023 A 
ATOM     74  C   UNL A   1      43.834  34.216  27.729  1.00  0.00     0.012 A 
ATOM     75  C   UNL A   1      43.869  35.846  29.515  1.00  0.00     0.148 A 
ATOM     76  C   UNL A   1      44.436  35.145  26.868  1.00  0.00     0.002 A 
ATOM     77  C   UNL A   1      44.472  36.764  28.658  1.00  0.00     0.091 A 
ATOM     78  F   UNL A   1      43.520  36.206  30.757  1.00  0.00    -0.205 F 
ATOM     79  C   UNL A   1      44.747  36.421  27.329  1.00  0.00     0.022 A 
BRANCH  77  80
ATOM     80  S   UNL A   1      44.879  38.439  29.170  1.00  0.00     0.127 S 
ATOM     81  O   UNL A   1      45.838  38.199  30.249  1.00  0.00    -0.237 OA
ATOM     82  O   UNL A   1      45.458  38.995  27.951  1.00  0.00    -0.237 OA
ATOM     83  O   UNL A   1      43.622  39.032  29.606  1.00  0.00    -0.744 OA
ENDBRANCH  77  80
ENDBRANCH  49  73
BRANCH  61  84
ATOM     84  C   UNL A   1      41.286  30.893  33.630  1.00  0.00     0.023 A 
ATOM     85  C   UNL A   1      42.248  30.931  34.663  1.00  0.00     0.012 A 
ATOM     86  C   UNL A   1      40.185  31.759  33.706  1.00  0.00     0.148 A 
ATOM     87  C   UNL A   1      42.108  31.799  35.751  1.00  0.00     0.002 A 
ATOM     88  C   UNL A   1      40.068  32.650  34.768  1.00  0.00     0.091 A 
ATOM     89  F   UNL A   1      39.285  31.724  32.711  1.00  0.00    -0.205 F 
ATOM     90  C   UNL A   1      41.023  32.668  35.797  1.00  0.00     0.022 A 
BRANCH  88  91
ATOM     91  S   UNL A   1      38.766  33.882  34.828  1.00  0.00     0.127 S 
ATOM     92  O   UNL A   1      38.601  34.082  36.267  1.00  0.00    -0.237 OA
ATOM     93  O   UNL A   1      39.371  35.011  34.120  1.00  0.00    -0.237 OA
ATOM     94  O   UNL A   1      37.619  33.294  34.146  1.00  0.00    -0.744 OA
ENDBRANCH  88  91
ENDBRANCH  61  84
ENDBRANCH  35  36
ENDBRANCH  27  30
ENDBRANCH  25  26
ENDBRANCH  24  25
ENDBRANCH   1  24
TORSDOF 17
ENDMDL
MODEL 3
REMARK VINA RESULT:     -11.7      4.722     10.118
REMARK SMILES Cc1[nH]c(=O)sc1S(=O)(=O)NC1(CC(=O)NCCCNC(=O)c2ccc(-c3c4nc(c(-c5cccc(S(=O)(=O)[O-])c5F)c5ccc([nH]5)c(-c5cccc(S(=O)(=O)[O-])c5F)c5nc(c(-c6cccc(S(=O)(=O)[O-])c6F)c6ccc3[nH]6)C=C5)C=C4)cc2)CCC1
REMARK SMILES IDX 17 1 16 2 14 3 15 4 13 6 12 7 86 8 88 9 87 10 11 11 8 13
REMARK SMILES IDX 9 14 10 15 7 16 1 17 2 18 3 19 4 20 6 22 5 23 18 24 19 25
REMARK SMILES IDX 20 26 21 27 22 29 23 30 24 31 85 32 25 33 84 34 26 35 27 36
REMARK SMILES IDX 28 37 78 38 29 39 83 40 77 41 79 42 30 43 82 44 76 45 75 46
REMARK SMILES IDX 31 48 63 49 43 50 62 51 44 52 47 53 61 54 80 55 45 56 46 57
REMARK SMILES IDX 60 59 81 60 48 61 32 62 33 63 41 64 34 65 36 66 42 67 35 68
REMARK SMILES IDX 37 69 38 70 39 71 40 72 64 73 65 74 73 75 66 76 68 77 74 78
REMARK SMILES IDX 67 79 69 80 70 81 71 82 72 83 49 84 50 85 58 86 51 87 53 88
REMARK SMILES IDX 59 89 52 90 54 91 55 92 56 93 57 94
REMARK H PARENT 16 5 11 12 3 21 20 28 79 47 47 58
REMARK Flexibility Score: inf
ROOT
ATOM      1  C   UNL A   1      31.582  30.629  25.773  1.00  0.00     0.117 C 
ENDROOT
BRANCH   1   2
ATOM      2  N   UNL A   1      32.690  29.915  26.377  1.00  0.00    -0.356 N 
ATOM      3  C   UNL A   1      32.764  28.631  26.820  1.00  0.00     0.221 C 
ATOM      4  O   UNL A   1      33.840  28.194  27.227  1.00  0.00    -0.275 OA
ATOM      5  H   UNL A   1      33.516  30.440  26.483  1.00  0.00     0.163 HD
BRANCH   3   6
ATOM      6  C   UNL A   1      31.574  27.717  26.736  1.00  0.00     0.123 C 
BRANCH   6   7
ATOM      7  C   UNL A   1      31.630  26.522  25.768  1.00  0.00     0.042 C 
ATOM      8  C   UNL A   1      30.985  26.975  24.407  1.00  0.00     0.024 C 
ATOM      9  C   UNL A   1      30.475  25.483  25.860  1.00  0.00     0.024 C 
ATOM     10  C   UNL A   1      29.745  26.137  24.699  1.00  0.00     0.004 C 
BRANCH   7  11
ATOM     11  N   UNL A   1      33.040  26.020  25.540  1.00  0.00    -0.204 NA
ATOM     12  H   UNL A   1      33.258  26.327  24.592  1.00  0.00     0.142 HD
BRANCH  11  13
ATOM     13  S   UNL A   1      33.696  24.444  25.620  1.00  0.00     0.252 S 
ATOM     14  O   UNL A   1      33.122  23.853  26.809  1.00  0.00    -0.206 OA
ATOM     15  O   UNL A   1      35.119  24.681  25.504  1.00  0.00    -0.206 OA
BRANCH  13  16
ATOM     16  C   UNL A   1      33.183  23.516  24.248  1.00  0.00     0.158 A 
ATOM     17  C   UNL A   1      33.641  25.297  22.453  1.00  0.00     0.067 C 
ATOM     18  C   UNL A   1      33.194  23.978  22.984  1.00  0.00     0.046 A 
ATOM     19  N   UNL A   1      32.681  23.068  22.086  1.00  0.00    -0.315 N 
ATOM     20  C   UNL A   1      32.272  21.854  22.591  1.00  0.00     0.305 A 
ATOM     21  H   UNL A   1      32.612  23.276  21.127  1.00  0.00     0.170 HD
ATOM     22  S   UNL A   1      32.563  21.873  24.322  1.00  0.00    -0.061 S 
ATOM     23  O   UNL A   1      31.756  20.958  21.965  1.00  0.00    -0.257 OA
ENDBRANCH  13  16
ENDBRANCH  11  13
ENDBRANCH   7  11
ENDBRANCH   6   7
ENDBRANCH   3   6
ENDBRANCH   1   2
BRANCH   1  24
ATOM     24  C   UNL A   1      31.243  31.939  26.493  1.00  0.00     0.042 C 
BRANCH  24  25
ATOM     25  C   UNL A   1      32.420  32.512  27.232  1.00  0.00     0.118 C 
BRANCH  25  26
ATOM     26  N   UNL A   1      32.248  33.939  27.544  1.00  0.00    -0.352 N 
ATOM     27  C   UNL A   1      32.929  34.687  28.492  1.00  0.00     0.251 C 
ATOM     28  H   UNL A   1      31.568  34.418  27.019  1.00  0.00     0.163 HD
ATOM     29  O   UNL A   1      32.482  35.754  28.894  1.00  0.00    -0.269 OA
BRANCH  27  30
ATOM     30  C   UNL A   1      34.212  34.161  28.988  1.00  0.00     0.039 A 
ATOM     31  C   UNL A   1      34.392  33.587  30.247  1.00  0.00     0.014 A 
ATOM     32  C   UNL A   1      35.261  34.201  28.085  1.00  0.00     0.014 A 
ATOM     33  C   UNL A   1      35.645  33.054  30.543  1.00  0.00     0.010 A 
ATOM     34  C   UNL A   1      36.275  33.317  28.220  1.00  0.00     0.010 A 
ATOM     35  C   UNL A   1      36.584  32.946  29.507  1.00  0.00    -0.014 A 
BRANCH  35  36
ATOM     36  C   UNL A   1      37.922  32.416  29.664  1.00  0.00     0.031 A 
ATOM     37  C   UNL A   1      38.034  31.009  29.236  1.00  0.00     0.074 A 
ATOM     38  C   UNL A   1      38.983  33.223  29.901  1.00  0.00     0.049 A 
ATOM     39  N   UNL A   1      38.139  29.974  29.998  1.00  0.00    -0.248 NA
ATOM     40  C   UNL A   1      37.782  30.695  27.822  1.00  0.00     0.031 C 
ATOM     41  C   UNL A   1      39.030  34.697  29.974  1.00  0.00     0.029 A 
ATOM     42  N   UNL A   1      40.297  32.894  29.982  1.00  0.00    -0.354 N 
ATOM     43  C   UNL A   1      38.255  28.901  29.124  1.00  0.00     0.074 A 
ATOM     44  C   UNL A   1      37.755  29.362  27.857  1.00  0.00     0.031 C 
ATOM     45  C   UNL A   1      40.307  35.120  29.833  1.00  0.00     0.029 A 
ATOM     46  C   UNL A   1      41.178  33.963  29.837  1.00  0.00     0.049 A 
ATOM     47  H   UNL A   1      40.603  31.972  30.132  1.00  0.00     0.167 HD
ATOM     48  C   UNL A   1      39.045  27.837  29.435  1.00  0.00     0.034 A 
ATOM     49  C   UNL A   1      42.524  33.879  29.681  1.00  0.00     0.034 A 
ATOM     50  C   UNL A   1      39.428  27.869  30.829  1.00  0.00     0.049 A 
ATOM     51  C   UNL A   1      42.922  32.542  30.183  1.00  0.00     0.074 A 
ATOM     52  C   UNL A   1      38.748  27.880  32.031  1.00  0.00     0.029 A 
ATOM     53  N   UNL A   1      40.691  28.340  31.108  1.00  0.00    -0.354 N 
ATOM     54  N   UNL A   1      42.787  32.175  31.428  1.00  0.00    -0.248 NA
ATOM     55  C   UNL A   1      43.006  31.461  29.215  1.00  0.00     0.031 C 
ATOM     56  C   UNL A   1      39.471  28.794  32.855  1.00  0.00     0.029 A 
ATOM     57  C   UNL A   1      40.593  29.229  32.145  1.00  0.00     0.049 A 
ATOM     58  H   UNL A   1      41.520  28.082  30.643  1.00  0.00     0.167 HD
ATOM     59  C   UNL A   1      42.300  30.876  31.353  1.00  0.00     0.074 A 
ATOM     60  C   UNL A   1      42.554  30.457  29.973  1.00  0.00     0.031 C 
ATOM     61  C   UNL A   1      41.465  30.376  32.313  1.00  0.00     0.034 A 
BRANCH  48  62
ATOM     62  C   UNL A   1      39.805  26.999  28.433  1.00  0.00     0.023 A 
ATOM     63  C   UNL A   1      39.662  25.599  28.544  1.00  0.00     0.012 A 
ATOM     64  C   UNL A   1      40.835  27.470  27.585  1.00  0.00     0.148 A 
ATOM     65  C   UNL A   1      40.536  24.716  27.900  1.00  0.00     0.002 A 
ATOM     66  C   UNL A   1      41.652  26.590  26.885  1.00  0.00     0.091 A 
ATOM     67  F   UNL A   1      41.132  28.770  27.539  1.00  0.00    -0.205 F 
ATOM     68  C   UNL A   1      41.529  25.213  27.066  1.00  0.00     0.022 A 
BRANCH  66  69
ATOM     69  S   UNL A   1      42.926  27.174  25.758  1.00  0.00     0.127 S 
ATOM     70  O   UNL A   1      43.857  27.816  26.682  1.00  0.00    -0.237 OA
ATOM     71  O   UNL A   1      43.400  25.921  25.171  1.00  0.00    -0.237 OA
ATOM     72  O   UNL A   1      42.246  28.054  24.816  1.00  0.00    -0.744 OA
ENDBRANCH  66  69
ENDBRANCH  48  62
BRANCH  49  73
ATOM     73  C   UNL A   1      43.433  34.719  28.861  1.00  0.00     0.023 A 
ATOM     74  C   UNL A   1      43.720  34.357  27.529  1.00  0.00     0.012 A 
ATOM     75  C   UNL A   1      43.787  36.021  29.282  1.00  0.00     0.148 A 
ATOM     76  C   UNL A   1      44.310  35.268  26.640  1.00  0.00     0.002 A 
ATOM     77  C   UNL A   1      44.378  36.921  28.398  1.00  0.00     0.091 A 
ATOM     78  F   UNL A   1      43.458  36.406  30.523  1.00  0.00    -0.205 F 
ATOM     79  C   UNL A   1      44.631  36.552  27.072  1.00  0.00     0.022 A 
BRANCH  77  80
ATOM     80  S   UNL A   1      44.795  38.605  28.871  1.00  0.00     0.127 S 
ATOM     81  O   UNL A   1      43.474  39.183  29.124  1.00  0.00    -0.237 OA
ATOM     82  O   UNL A   1      45.606  38.390  30.066  1.00  0.00    -0.237 OA
ATOM     83  O   UNL A   1      45.489  39.174  27.725  1.00  0.00    -0.744 OA
ENDBRANCH  77  80
ENDBRANCH  49  73
BRANCH  61  84
ATOM     84  C   UNL A   1      41.240  31.204  33.561  1.00  0.00     0.023 A 
ATOM     85  C   UNL A   1      42.201  31.299  34.591  1.00  0.00     0.012 A 
ATOM     86  C   UNL A   1      40.124  32.053  33.605  1.00  0.00     0.148 A 
ATOM     87  C   UNL A   1      42.046  32.205  35.645  1.00  0.00     0.002 A 
ATOM     88  C   UNL A   1      39.992  32.982  34.631  1.00  0.00     0.091 A 
ATOM     89  F   UNL A   1      39.225  31.964  32.612  1.00  0.00    -0.205 F 
ATOM     90  C   UNL A   1      40.946  33.056  35.658  1.00  0.00     0.022 A 
BRANCH  88  91
ATOM     91  S   UNL A   1      38.668  34.192  34.645  1.00  0.00     0.127 S 
ATOM     92  O   UNL A   1      37.677  33.550  35.507  1.00  0.00    -0.237 OA
ATOM     93  O   UNL A   1      39.321  35.363  35.232  1.00  0.00    -0.237 OA
ATOM     94  O   UNL A   1      38.263  34.367  33.256  1.00  0.00    -0.744 OA
ENDBRANCH  88  91
ENDBRANCH  61  84
ENDBRANCH  35  36
ENDBRANCH  27  30
ENDBRANCH  25  26
ENDBRANCH  24  25
ENDBRANCH   1  24
TORSDOF 17
ENDMDL
