MODEL 1
REMARK VINA RESULT:     -12.9      0.000      0.000
REMARK SMILES C[NH+]1CCC2(CC1)OC[C@H](C(=O)NCCCNC(=O)c1ccc(-c3c4nc(c(-c5cccc(S(=O)(=O)[O-])c5F)c5ccc([nH]5)c(-c5cccc(S(=O)(=O)[O-])c5F)c5nc(c(-c6cccc(S(=O)(=O)[O-])c6F)c6ccc3[nH]6)C=C5)C=C4)cc1)N2C(=O)c1cc(C(F)(F)F)cc(C(F)(F)F)c1
REMARK SMILES IDX 15 1 14 2 13 3 11 4 12 5 10 7 1 8 2 9 3 10 7 11 4 13 6 14
REMARK SMILES IDX 5 15 8 16 83 17 9 18 84 19 85 20 86 21 87 22 99 23 88 24
REMARK SMILES IDX 94 25 93 26 89 27 90 28 91 29 92 30 95 31 96 32 97 33 98 34
REMARK SMILES IDX 16 35 17 36 18 37 19 39 20 40 21 41 82 42 22 43 81 44 23 45
REMARK SMILES IDX 24 46 25 47 75 48 26 49 80 50 74 51 76 52 27 53 79 54 73 55
REMARK SMILES IDX 72 56 28 58 60 59 40 60 59 61 41 62 44 63 58 64 77 65 42 66
REMARK SMILES IDX 43 67 57 69 78 70 45 71 29 72 30 73 38 74 31 75 33 76 39 77
REMARK SMILES IDX 32 78 34 79 35 80 36 81 37 82 61 83 62 84 70 85 63 86 65 87
REMARK SMILES IDX 71 88 64 89 66 90 67 91 68 92 69 93 46 94 47 95 55 96 48 97
REMARK SMILES IDX 50 98 56 99 49 100 51 101 52 102 53 103 54 104
REMARK H PARENT 13 6 2 12 17 38 76 57 44 68
REMARK Flexibility Score: inf
ROOT
ATOM      1  C   UNL A   1      32.327  27.948  26.536  1.00  0.00     0.042 C 
ENDROOT
BRANCH   1   2
ATOM      2  C   UNL A   1      31.893  26.873  25.539  1.00  0.00     0.117 C 
BRANCH   2   3
ATOM      3  N   UNL A   1      31.099  27.427  24.461  1.00  0.00    -0.354 N 
ATOM      4  C   UNL A   1      30.882  27.059  23.174  1.00  0.00     0.245 C 
ATOM      5  O   UNL A   1      30.088  27.786  22.555  1.00  0.00    -0.273 OA
ATOM      6  H   UNL A   1      30.615  28.245  24.716  1.00  0.00     0.163 HD
BRANCH   4   7
ATOM      7  C   UNL A   1      31.569  25.899  22.403  1.00  0.00     0.203 C 
ATOM      8  C   UNL A   1      36.944  23.707  25.053  1.00  0.00     0.332 C 
ATOM      9  N   UNL A   1      35.524  23.567  24.734  1.00  0.00    -0.337 N 
ATOM     10  C   UNL A   1      34.793  24.782  25.057  1.00  0.00     0.267 C 
ATOM     11  C   UNL A   1      35.257  22.941  23.441  1.00  0.00     0.267 C 
ATOM     12  H   UNL A   1      35.124  22.862  25.355  1.00  0.00     0.347 HD
ATOM     13  C   UNL A   1      34.516  25.673  23.869  1.00  0.00     0.120 C 
ATOM     14  C   UNL A   1      34.589  23.750  22.329  1.00  0.00     0.120 C 
ATOM     15  C   UNL A   1      33.746  24.944  22.773  1.00  0.00     0.155 C 
ATOM     16  O   UNL A   1      33.815  25.846  21.633  1.00  0.00    -0.352 OA
ATOM     17  N   UNL A   1      32.289  24.784  23.003  1.00  0.00    -0.295 N 
ATOM     18  C   UNL A   1      32.565  26.506  21.437  1.00  0.00     0.198 C 
BRANCH  17  19
ATOM     19  C   UNL A   1      31.483  23.742  23.459  1.00  0.00     0.256 C 
ATOM     20  O   UNL A   1      30.261  23.732  23.300  1.00  0.00    -0.269 OA
BRANCH  19  21
ATOM     21  C   UNL A   1      32.009  22.592  24.202  1.00  0.00     0.041 A 
ATOM     22  C   UNL A   1      32.060  21.316  23.630  1.00  0.00     0.027 A 
ATOM     23  C   UNL A   1      32.323  22.764  25.549  1.00  0.00     0.027 A 
ATOM     24  C   UNL A   1      32.567  20.234  24.377  1.00  0.00     0.057 A 
ATOM     25  C   UNL A   1      32.930  21.736  26.275  1.00  0.00     0.057 A 
ATOM     26  C   UNL A   1      33.032  20.466  25.686  1.00  0.00     0.026 A 
BRANCH  24  27
ATOM     27  C   UNL A   1      32.638  18.851  23.771  1.00  0.00     0.416 C 
ATOM     28  F   UNL A   1      31.874  17.950  24.449  1.00  0.00    -0.166 F 
ATOM     29  F   UNL A   1      32.200  18.820  22.483  1.00  0.00    -0.166 F 
ATOM     30  F   UNL A   1      33.896  18.330  23.752  1.00  0.00    -0.166 F 
ENDBRANCH  24  27
BRANCH  25  31
ATOM     31  C   UNL A   1      33.524  22.017  27.636  1.00  0.00     0.416 C 
ATOM     32  F   UNL A   1      34.475  21.105  27.980  1.00  0.00    -0.166 F 
ATOM     33  F   UNL A   1      34.131  23.233  27.697  1.00  0.00    -0.166 F 
ATOM     34  F   UNL A   1      32.603  22.000  28.638  1.00  0.00    -0.166 F 
ENDBRANCH  25  31
ENDBRANCH  19  21
ENDBRANCH  17  19
ENDBRANCH   4   7
ENDBRANCH   2   3
ENDBRANCH   1   2
BRANCH   1  35
ATOM     35  C   UNL A   1      33.617  28.673  26.190  1.00  0.00     0.118 C 
BRANCH  35  36
ATOM     36  N   UNL A   1      33.619  30.053  26.658  1.00  0.00    -0.352 N 
ATOM     37  C   UNL A   1      34.423  30.755  27.527  1.00  0.00     0.251 C 
ATOM     38  H   UNL A   1      32.894  30.598  26.273  1.00  0.00     0.163 HD
ATOM     39  O   UNL A   1      34.046  31.878  27.865  1.00  0.00    -0.269 OA
BRANCH  37  40
ATOM     40  C   UNL A   1      35.701  30.226  28.075  1.00  0.00     0.039 A 
ATOM     41  C   UNL A   1      36.843  30.254  27.259  1.00  0.00     0.014 A 
ATOM     42  C   UNL A   1      35.798  29.620  29.326  1.00  0.00     0.014 A 
ATOM     43  C   UNL A   1      38.060  29.725  27.711  1.00  0.00     0.010 A 
ATOM     44  C   UNL A   1      37.035  29.211  29.825  1.00  0.00     0.010 A 
ATOM     45  C   UNL A   1      38.178  29.226  29.017  1.00  0.00    -0.014 A 
BRANCH  45  46
ATOM     46  C   UNL A   1      39.462  28.684  29.549  1.00  0.00     0.031 A 
ATOM     47  C   UNL A   1      40.177  29.390  30.681  1.00  0.00     0.074 A 
ATOM     48  C   UNL A   1      40.043  27.620  28.957  1.00  0.00     0.049 A 
ATOM     49  N   UNL A   1      41.353  29.144  31.197  1.00  0.00    -0.248 NA
ATOM     50  C   UNL A   1      39.496  30.549  31.285  1.00  0.00     0.031 C 
ATOM     51  C   UNL A   1      39.506  26.894  27.805  1.00  0.00     0.029 A 
ATOM     52  N   UNL A   1      41.233  26.984  29.221  1.00  0.00    -0.354 N 
ATOM     53  C   UNL A   1      41.578  30.147  32.136  1.00  0.00     0.074 A 
ATOM     54  C   UNL A   1      40.430  31.025  32.094  1.00  0.00     0.031 C 
ATOM     55  C   UNL A   1      40.356  25.913  27.464  1.00  0.00     0.029 A 
ATOM     56  C   UNL A   1      41.519  25.963  28.343  1.00  0.00     0.049 A 
ATOM     57  H   UNL A   1      41.824  27.235  29.967  1.00  0.00     0.167 HD
ATOM     58  C   UNL A   1      42.626  30.309  32.978  1.00  0.00     0.034 A 
ATOM     59  C   UNL A   1      42.603  25.167  28.243  1.00  0.00     0.034 A 
ATOM     60  C   UNL A   1      43.731  29.395  33.070  1.00  0.00     0.049 A 
ATOM     61  C   UNL A   1      43.723  25.327  29.235  1.00  0.00     0.074 A 
ATOM     62  C   UNL A   1      44.785  29.406  33.968  1.00  0.00     0.029 A 
ATOM     63  N   UNL A   1      43.930  28.308  32.234  1.00  0.00    -0.354 N 
ATOM     64  N   UNL A   1      43.839  26.187  30.217  1.00  0.00    -0.248 NA
ATOM     65  C   UNL A   1      44.846  24.384  29.129  1.00  0.00     0.031 C 
ATOM     66  C   UNL A   1      45.636  28.344  33.655  1.00  0.00     0.029 A 
ATOM     67  C   UNL A   1      45.095  27.648  32.585  1.00  0.00     0.049 A 
ATOM     68  H   UNL A   1      43.331  28.045  31.499  1.00  0.00     0.167 HD
ATOM     69  C   UNL A   1      45.025  25.867  30.868  1.00  0.00     0.074 A 
ATOM     70  C   UNL A   1      45.580  24.719  30.181  1.00  0.00     0.031 C 
ATOM     71  C   UNL A   1      45.609  26.475  31.929  1.00  0.00     0.034 A 
BRANCH  58  72
ATOM     72  C   UNL A   1      42.610  31.495  33.913  1.00  0.00     0.023 A 
ATOM     73  C   UNL A   1      43.150  32.728  33.493  1.00  0.00     0.012 A 
ATOM     74  C   UNL A   1      41.995  31.407  35.177  1.00  0.00     0.148 A 
ATOM     75  C   UNL A   1      43.113  33.843  34.329  1.00  0.00     0.002 A 
ATOM     76  C   UNL A   1      41.917  32.536  35.985  1.00  0.00     0.091 A 
ATOM     77  F   UNL A   1      41.501  30.224  35.569  1.00  0.00    -0.205 F 
ATOM     78  C   UNL A   1      42.487  33.750  35.568  1.00  0.00     0.022 A 
BRANCH  76  79
ATOM     79  S   UNL A   1      41.057  32.544  37.562  1.00  0.00     0.127 S 
ATOM     80  O   UNL A   1      39.751  31.996  37.187  1.00  0.00    -0.237 OA
ATOM     81  O   UNL A   1      41.884  31.641  38.366  1.00  0.00    -0.237 OA
ATOM     82  O   UNL A   1      41.046  33.924  38.012  1.00  0.00    -0.744 OA
ENDBRANCH  76  79
ENDBRANCH  58  72
BRANCH  59  83
ATOM     83  C   UNL A   1      42.657  24.110  27.192  1.00  0.00     0.023 A 
ATOM     84  C   UNL A   1      43.354  24.357  25.992  1.00  0.00     0.012 A 
ATOM     85  C   UNL A   1      42.044  22.856  27.382  1.00  0.00     0.148 A 
ATOM     86  C   UNL A   1      43.407  23.391  24.988  1.00  0.00     0.002 A 
ATOM     87  C   UNL A   1      42.153  21.876  26.402  1.00  0.00     0.091 A 
ATOM     88  F   UNL A   1      41.377  22.642  28.525  1.00  0.00    -0.205 F 
ATOM     89  C   UNL A   1      42.816  22.148  25.196  1.00  0.00     0.022 A 
BRANCH  87  90
ATOM     90  S   UNL A   1      41.547  20.203  26.645  1.00  0.00     0.127 S 
ATOM     91  O   UNL A   1      41.951  19.553  25.402  1.00  0.00    -0.237 OA
ATOM     92  O   UNL A   1      42.291  19.781  27.833  1.00  0.00    -0.237 OA
ATOM     93  O   UNL A   1      40.111  20.332  26.856  1.00  0.00    -0.744 OA
ENDBRANCH  87  90
ENDBRANCH  59  83
BRANCH  71  94
ATOM     94  C   UNL A   1      46.895  25.892  32.451  1.00  0.00     0.023 A 
ATOM     95  C   UNL A   1      48.131  26.376  31.981  1.00  0.00     0.012 A 
ATOM     96  C   UNL A   1      46.875  24.917  33.469  1.00  0.00     0.148 A 
ATOM     97  C   UNL A   1      49.328  25.875  32.491  1.00  0.00     0.002 A 
ATOM     98  C   UNL A   1      48.070  24.462  34.009  1.00  0.00     0.091 A 
ATOM     99  F   UNL A   1      45.687  24.458  33.890  1.00  0.00    -0.205 F 
ATOM    100  C   UNL A   1      49.298  24.928  33.513  1.00  0.00     0.022 A 
BRANCH  98 101
ATOM    101  S   UNL A   1      48.127  23.320  35.394  1.00  0.00     0.127 S 
ATOM    102  O   UNL A   1      47.467  22.140  34.836  1.00  0.00    -0.237 OA
ATOM    103  O   UNL A   1      49.565  23.169  35.613  1.00  0.00    -0.237 OA
ATOM    104  O   UNL A   1      47.415  23.974  36.485  1.00  0.00    -0.744 OA
ENDBRANCH  98 101
ENDBRANCH  71  94
ENDBRANCH  45  46
ENDBRANCH  37  40
ENDBRANCH  35  36
ENDBRANCH   1  35
TORSDOF 17
ENDMDL
MODEL 2
REMARK VINA RESULT:     -12.9      1.983      7.368
REMARK SMILES C[NH+]1CCC2(CC1)OC[C@H](C(=O)NCCCNC(=O)c1ccc(-c3c4nc(c(-c5cccc(S(=O)(=O)[O-])c5F)c5ccc([nH]5)c(-c5cccc(S(=O)(=O)[O-])c5F)c5nc(c(-c6cccc(S(=O)(=O)[O-])c6F)c6ccc3[nH]6)C=C5)C=C4)cc1)N2C(=O)c1cc(C(F)(F)F)cc(C(F)(F)F)c1
REMARK SMILES IDX 15 1 14 2 13 3 11 4 12 5 10 7 1 8 2 9 3 10 7 11 4 13 6 14
REMARK SMILES IDX 5 15 8 16 83 17 9 18 84 19 85 20 86 21 87 22 99 23 88 24
REMARK SMILES IDX 94 25 93 26 89 27 90 28 91 29 92 30 95 31 96 32 97 33 98 34
REMARK SMILES IDX 16 35 17 36 18 37 19 39 20 40 21 41 82 42 22 43 81 44 23 45
REMARK SMILES IDX 24 46 25 47 75 48 26 49 80 50 74 51 76 52 27 53 79 54 73 55
REMARK SMILES IDX 72 56 28 58 60 59 40 60 59 61 41 62 44 63 58 64 77 65 42 66
REMARK SMILES IDX 43 67 57 69 78 70 45 71 29 72 30 73 38 74 31 75 33 76 39 77
REMARK SMILES IDX 32 78 34 79 35 80 36 81 37 82 61 83 62 84 70 85 63 86 65 87
REMARK SMILES IDX 71 88 64 89 66 90 67 91 68 92 69 93 46 94 47 95 55 96 48 97
REMARK SMILES IDX 50 98 56 99 49 100 51 101 52 102 53 103 54 104
REMARK H PARENT 13 6 2 12 17 38 76 57 44 68
REMARK Flexibility Score: inf
ROOT
ATOM      1  C   UNL A   1      32.098  27.707  26.327  1.00  0.00     0.042 C 
ENDROOT
BRANCH   1   2
ATOM      2  C   UNL A   1      31.417  26.671  25.432  1.00  0.00     0.117 C 
BRANCH   2   3
ATOM      3  N   UNL A   1      30.816  27.281  24.263  1.00  0.00    -0.354 N 
ATOM      4  C   UNL A   1      30.791  26.956  22.947  1.00  0.00     0.245 C 
ATOM      5  O   UNL A   1      30.123  27.727  22.237  1.00  0.00    -0.273 OA
ATOM      6  H   UNL A   1      30.322  28.107  24.468  1.00  0.00     0.163 HD
BRANCH   4   7
ATOM      7  C   UNL A   1      31.556  25.797  22.253  1.00  0.00     0.203 C 
ATOM      8  C   UNL A   1      36.825  23.850  25.280  1.00  0.00     0.332 C 
ATOM      9  N   UNL A   1      35.432  23.656  24.883  1.00  0.00    -0.337 N 
ATOM     10  C   UNL A   1      34.647  24.857  25.126  1.00  0.00     0.267 C 
ATOM     11  C   UNL A   1      35.261  22.986  23.597  1.00  0.00     0.267 C 
ATOM     12  H   UNL A   1      35.016  22.958  25.501  1.00  0.00     0.347 HD
ATOM     13  C   UNL A   1      34.415  25.705  23.896  1.00  0.00     0.120 C 
ATOM     14  C   UNL A   1      34.636  23.741  22.423  1.00  0.00     0.120 C 
ATOM     15  C   UNL A   1      33.734  24.920  22.780  1.00  0.00     0.155 C 
ATOM     16  O   UNL A   1      33.844  25.791  21.619  1.00  0.00    -0.352 OA
ATOM     17  N   UNL A   1      32.271  24.722  22.928  1.00  0.00    -0.295 N 
ATOM     18  C   UNL A   1      32.590  26.406  21.329  1.00  0.00     0.198 C 
BRANCH  17  19
ATOM     19  C   UNL A   1      31.470  23.669  23.369  1.00  0.00     0.256 C 
ATOM     20  O   UNL A   1      30.256  23.632  23.166  1.00  0.00    -0.269 OA
BRANCH  19  21
ATOM     21  C   UNL A   1      31.992  22.540  24.146  1.00  0.00     0.041 A 
ATOM     22  C   UNL A   1      32.072  21.254  23.599  1.00  0.00     0.027 A 
ATOM     23  C   UNL A   1      32.271  22.741  25.496  1.00  0.00     0.027 A 
ATOM     24  C   UNL A   1      32.573  20.192  24.378  1.00  0.00     0.057 A 
ATOM     25  C   UNL A   1      32.872  21.733  26.256  1.00  0.00     0.057 A 
ATOM     26  C   UNL A   1      33.004  20.454  25.693  1.00  0.00     0.026 A 
BRANCH  24  27
ATOM     27  C   UNL A   1      32.675  18.800  23.800  1.00  0.00     0.416 C 
ATOM     28  F   UNL A   1      33.953  18.328  23.810  1.00  0.00    -0.166 F 
ATOM     29  F   UNL A   1      31.935  17.890  24.490  1.00  0.00    -0.166 F 
ATOM     30  F   UNL A   1      32.261  18.716  22.505  1.00  0.00    -0.166 F 
ENDBRANCH  24  27
BRANCH  25  31
ATOM     31  C   UNL A   1      33.430  22.047  27.625  1.00  0.00     0.416 C 
ATOM     32  F   UNL A   1      33.828  23.345  27.733  1.00  0.00    -0.166 F 
ATOM     33  F   UNL A   1      32.518  21.851  28.615  1.00  0.00    -0.166 F 
ATOM     34  F   UNL A   1      34.513  21.291  27.950  1.00  0.00    -0.166 F 
ENDBRANCH  25  31
ENDBRANCH  19  21
ENDBRANCH  17  19
ENDBRANCH   4   7
ENDBRANCH   2   3
ENDBRANCH   1   2
BRANCH   1  35
ATOM     35  C   UNL A   1      32.894  28.775  25.595  1.00  0.00     0.118 C 
BRANCH  35  36
ATOM     36  N   UNL A   1      32.486  30.124  25.969  1.00  0.00    -0.352 N 
ATOM     37  C   UNL A   1      32.992  31.054  26.848  1.00  0.00     0.251 C 
ATOM     38  H   UNL A   1      31.680  30.434  25.496  1.00  0.00     0.163 HD
ATOM     39  O   UNL A   1      32.301  32.046  27.081  1.00  0.00    -0.269 OA
BRANCH  37  40
ATOM     40  C   UNL A   1      34.311  30.916  27.523  1.00  0.00     0.039 A 
ATOM     41  C   UNL A   1      34.658  29.670  28.068  1.00  0.00     0.014 A 
ATOM     42  C   UNL A   1      35.178  31.988  27.721  1.00  0.00     0.014 A 
ATOM     43  C   UNL A   1      35.869  29.501  28.755  1.00  0.00     0.010 A 
ATOM     44  C   UNL A   1      36.437  31.792  28.290  1.00  0.00     0.010 A 
ATOM     45  C   UNL A   1      36.790  30.556  28.846  1.00  0.00    -0.014 A 
BRANCH  45  46
ATOM     46  C   UNL A   1      38.102  30.410  29.539  1.00  0.00     0.031 A 
ATOM     47  C   UNL A   1      39.194  29.556  28.933  1.00  0.00     0.074 A 
ATOM     48  C   UNL A   1      38.286  30.956  30.759  1.00  0.00     0.049 A 
ATOM     49  N   UNL A   1      40.351  29.212  29.437  1.00  0.00    -0.248 NA
ATOM     50  C   UNL A   1      38.934  28.981  27.601  1.00  0.00     0.031 C 
ATOM     51  C   UNL A   1      37.289  31.733  31.498  1.00  0.00     0.029 A 
ATOM     52  N   UNL A   1      39.364  30.911  31.610  1.00  0.00    -0.354 N 
ATOM     53  C   UNL A   1      40.926  28.337  28.518  1.00  0.00     0.074 A 
ATOM     54  C   UNL A   1      39.975  28.178  27.441  1.00  0.00     0.031 C 
ATOM     55  C   UNL A   1      37.800  32.096  32.684  1.00  0.00     0.029 A 
ATOM     56  C   UNL A   1      39.145  31.543  32.813  1.00  0.00     0.049 A 
ATOM     57  H   UNL A   1      40.214  30.468  31.381  1.00  0.00     0.167 HD
ATOM     58  C   UNL A   1      42.144  27.745  28.549  1.00  0.00     0.034 A 
ATOM     59  C   UNL A   1      39.928  31.653  33.905  1.00  0.00     0.034 A 
ATOM     60  C   UNL A   1      43.116  27.963  29.584  1.00  0.00     0.049 A 
ATOM     61  C   UNL A   1      41.302  31.040  33.886  1.00  0.00     0.074 A 
ATOM     62  C   UNL A   1      44.420  27.502  29.650  1.00  0.00     0.029 A 
ATOM     63  N   UNL A   1      42.894  28.701  30.736  1.00  0.00    -0.354 N 
ATOM     64  N   UNL A   1      41.883  30.348  32.936  1.00  0.00    -0.248 NA
ATOM     65  C   UNL A   1      42.144  31.254  35.072  1.00  0.00     0.031 C 
ATOM     66  C   UNL A   1      44.975  27.936  30.857  1.00  0.00     0.029 A 
ATOM     67  C   UNL A   1      44.030  28.698  31.525  1.00  0.00     0.049 A 
ATOM     68  H   UNL A   1      42.052  29.159  30.959  1.00  0.00     0.167 HD
ATOM     69  C   UNL A   1      43.167  30.076  33.393  1.00  0.00     0.074 A 
ATOM     70  C   UNL A   1      43.287  30.697  34.696  1.00  0.00     0.031 C 
ATOM     71  C   UNL A   1      44.155  29.366  32.795  1.00  0.00     0.034 A 
BRANCH  58  72
ATOM     72  C   UNL A   1      42.522  26.840  27.402  1.00  0.00     0.023 A 
ATOM     73  C   UNL A   1      43.334  27.330  26.359  1.00  0.00     0.012 A 
ATOM     74  C   UNL A   1      42.134  25.485  27.394  1.00  0.00     0.148 A 
ATOM     75  C   UNL A   1      43.722  26.499  25.308  1.00  0.00     0.002 A 
ATOM     76  C   UNL A   1      42.566  24.650  26.370  1.00  0.00     0.091 A 
ATOM     77  F   UNL A   1      41.348  25.039  28.385  1.00  0.00    -0.205 F 
ATOM     78  C   UNL A   1      43.348  25.159  25.320  1.00  0.00     0.022 A 
BRANCH  76  79
ATOM     79  S   UNL A   1      42.211  22.889  26.338  1.00  0.00     0.127 S 
ATOM     80  O   UNL A   1      40.747  22.884  26.393  1.00  0.00    -0.237 OA
ATOM     81  O   UNL A   1      42.771  22.489  25.046  1.00  0.00    -0.237 OA
ATOM     82  O   UNL A   1      42.878  22.321  27.495  1.00  0.00    -0.744 OA
ENDBRANCH  76  79
ENDBRANCH  58  72
BRANCH  59  83
ATOM     83  C   UNL A   1      39.449  32.418  35.093  1.00  0.00     0.023 A 
ATOM     84  C   UNL A   1      39.624  33.816  35.137  1.00  0.00     0.012 A 
ATOM     85  C   UNL A   1      38.801  31.774  36.165  1.00  0.00     0.148 A 
ATOM     86  C   UNL A   1      39.199  34.552  36.243  1.00  0.00     0.002 A 
ATOM     87  C   UNL A   1      38.325  32.522  37.237  1.00  0.00     0.091 A 
ATOM     88  F   UNL A   1      38.652  30.443  36.111  1.00  0.00    -0.205 F 
ATOM     89  C   UNL A   1      38.541  33.907  37.287  1.00  0.00     0.022 A 
BRANCH  87  90
ATOM     90  S   UNL A   1      37.342  31.796  38.553  1.00  0.00     0.127 S 
ATOM     91  O   UNL A   1      38.230  31.939  39.704  1.00  0.00    -0.237 OA
ATOM     92  O   UNL A   1      36.166  32.667  38.568  1.00  0.00    -0.237 OA
ATOM     93  O   UNL A   1      37.067  30.429  38.130  1.00  0.00    -0.744 OA
ENDBRANCH  87  90
ENDBRANCH  59  83
BRANCH  71  94
ATOM     94  C   UNL A   1      45.472  29.252  33.515  1.00  0.00     0.023 A 
ATOM     95  C   UNL A   1      46.451  30.251  33.355  1.00  0.00     0.012 A 
ATOM     96  C   UNL A   1      45.706  28.191  34.413  1.00  0.00     0.148 A 
ATOM     97  C   UNL A   1      47.657  30.179  34.052  1.00  0.00     0.002 A 
ATOM     98  C   UNL A   1      46.887  28.154  35.142  1.00  0.00     0.091 A 
ATOM     99  F   UNL A   1      44.767  27.241  34.537  1.00  0.00    -0.205 F 
ATOM    100  C   UNL A   1      47.870  29.138  34.954  1.00  0.00     0.022 A 
BRANCH  98 101
ATOM    101  S   UNL A   1      47.203  26.909  36.398  1.00  0.00     0.127 S 
ATOM    102  O   UNL A   1      46.074  27.108  37.306  1.00  0.00    -0.237 OA
ATOM    103  O   UNL A   1      47.152  25.668  35.625  1.00  0.00    -0.237 OA
ATOM    104  O   UNL A   1      48.513  27.221  36.955  1.00  0.00    -0.744 OA
ENDBRANCH  98 101
ENDBRANCH  71  94
ENDBRANCH  45  46
ENDBRANCH  37  40
ENDBRANCH  35  36
ENDBRANCH   1  35
TORSDOF 17
ENDMDL
MODEL 3
REMARK VINA RESULT:     -12.9      5.160      7.629
REMARK SMILES C[NH+]1CCC2(CC1)OC[C@H](C(=O)NCCCNC(=O)c1ccc(-c3c4nc(c(-c5cccc(S(=O)(=O)[O-])c5F)c5ccc([nH]5)c(-c5cccc(S(=O)(=O)[O-])c5F)c5nc(c(-c6cccc(S(=O)(=O)[O-])c6F)c6ccc3[nH]6)C=C5)C=C4)cc1)N2C(=O)c1cc(C(F)(F)F)cc(C(F)(F)F)c1
REMARK SMILES IDX 15 1 14 2 13 3 11 4 12 5 10 7 1 8 2 9 3 10 7 11 4 13 6 14
REMARK SMILES IDX 5 15 8 16 83 17 9 18 84 19 85 20 86 21 87 22 99 23 88 24
REMARK SMILES IDX 94 25 93 26 89 27 90 28 91 29 92 30 95 31 96 32 97 33 98 34
REMARK SMILES IDX 16 35 17 36 18 37 19 39 20 40 21 41 82 42 22 43 81 44 23 45
REMARK SMILES IDX 24 46 25 47 75 48 26 49 80 50 74 51 76 52 27 53 79 54 73 55
REMARK SMILES IDX 72 56 28 58 60 59 40 60 59 61 41 62 44 63 58 64 77 65 42 66
REMARK SMILES IDX 43 67 57 69 78 70 45 71 29 72 30 73 38 74 31 75 33 76 39 77
REMARK SMILES IDX 32 78 34 79 35 80 36 81 37 82 61 83 62 84 70 85 63 86 65 87
REMARK SMILES IDX 71 88 64 89 66 90 67 91 68 92 69 93 46 94 47 95 55 96 48 97
REMARK SMILES IDX 50 98 56 99 49 100 51 101 52 102 53 103 54 104
REMARK H PARENT 13 6 2 12 17 38 76 57 44 68
REMARK Flexibility Score: inf
ROOT
ATOM      1  C   UNL A   1      35.462  22.948  24.108  1.00  0.00     0.042 C 
ENDROOT
BRANCH   1   2
ATOM      2  C   UNL A   1      33.993  22.994  23.686  1.00  0.00     0.117 C 
BRANCH   2   3
ATOM      3  N   UNL A   1      33.262  21.833  24.153  1.00  0.00    -0.354 N 
ATOM      4  C   UNL A   1      32.072  21.667  24.782  1.00  0.00     0.245 C 
ATOM      5  O   UNL A   1      31.759  20.483  24.991  1.00  0.00    -0.273 OA
ATOM      6  H   UNL A   1      33.729  20.984  23.977  1.00  0.00     0.163 HD
BRANCH   4   7
ATOM      7  C   UNL A   1      31.132  22.780  25.317  1.00  0.00     0.203 C 
ATOM      8  C   UNL A   1      34.029  28.259  26.836  1.00  0.00     0.332 C 
ATOM      9  N   UNL A   1      33.183  27.461  25.950  1.00  0.00    -0.337 N 
ATOM     10  C   UNL A   1      33.792  26.170  25.668  1.00  0.00     0.267 C 
ATOM     11  C   UNL A   1      31.765  27.478  26.298  1.00  0.00     0.267 C 
ATOM     12  H   UNL A   1      33.145  27.923  25.041  1.00  0.00     0.347 HD
ATOM     13  C   UNL A   1      33.238  25.031  26.492  1.00  0.00     0.120 C 
ATOM     14  C   UNL A   1      31.081  26.193  26.765  1.00  0.00     0.120 C 
ATOM     15  C   UNL A   1      31.729  24.882  26.324  1.00  0.00     0.155 C 
ATOM     16  O   UNL A   1      31.348  23.948  27.373  1.00  0.00    -0.352 OA
ATOM     17  N   UNL A   1      31.281  24.210  25.079  1.00  0.00    -0.295 N 
ATOM     18  C   UNL A   1      31.075  22.659  26.825  1.00  0.00     0.198 C 
BRANCH  17  19
ATOM     19  C   UNL A   1      30.790  24.656  23.853  1.00  0.00     0.256 C 
ATOM     20  O   UNL A   1      30.276  23.897  23.030  1.00  0.00    -0.269 OA
BRANCH  19  21
ATOM     21  C   UNL A   1      30.881  26.055  23.418  1.00  0.00     0.041 A 
ATOM     22  C   UNL A   1      29.742  26.861  23.316  1.00  0.00     0.027 A 
ATOM     23  C   UNL A   1      32.111  26.526  22.963  1.00  0.00     0.027 A 
ATOM     24  C   UNL A   1      29.867  28.198  22.889  1.00  0.00     0.057 A 
ATOM     25  C   UNL A   1      32.281  27.876  22.642  1.00  0.00     0.057 A 
ATOM     26  C   UNL A   1      31.147  28.702  22.590  1.00  0.00     0.026 A 
BRANCH  24  27
ATOM     27  C   UNL A   1      28.648  29.085  22.782  1.00  0.00     0.416 C 
ATOM     28  F   UNL A   1      27.499  28.426  23.096  1.00  0.00    -0.166 F 
ATOM     29  F   UNL A   1      28.706  30.157  23.618  1.00  0.00    -0.166 F 
ATOM     30  F   UNL A   1      28.454  29.594  21.533  1.00  0.00    -0.166 F 
ENDBRANCH  24  27
BRANCH  25  31
ATOM     31  C   UNL A   1      33.668  28.435  22.429  1.00  0.00     0.416 C 
ATOM     32  F   UNL A   1      33.804  29.685  22.951  1.00  0.00    -0.166 F 
ATOM     33  F   UNL A   1      34.631  27.676  23.018  1.00  0.00    -0.166 F 
ATOM     34  F   UNL A   1      34.011  28.534  21.116  1.00  0.00    -0.166 F 
ENDBRANCH  25  31
ENDBRANCH  19  21
ENDBRANCH  17  19
ENDBRANCH   4   7
ENDBRANCH   2   3
ENDBRANCH   1   2
BRANCH   1  35
ATOM     35  C   UNL A   1      35.724  22.375  25.492  1.00  0.00     0.118 C 
BRANCH  35  36
ATOM     36  N   UNL A   1      36.703  21.295  25.468  1.00  0.00    -0.352 N 
ATOM     37  C   UNL A   1      38.064  21.250  25.660  1.00  0.00     0.251 C 
ATOM     38  H   UNL A   1      36.308  20.414  25.273  1.00  0.00     0.163 HD
ATOM     39  O   UNL A   1      38.640  20.197  25.384  1.00  0.00    -0.269 OA
BRANCH  37  40
ATOM     40  C   UNL A   1      38.862  22.398  26.171  1.00  0.00     0.039 A 
ATOM     41  C   UNL A   1      40.004  22.131  26.942  1.00  0.00     0.014 A 
ATOM     42  C   UNL A   1      38.478  23.726  25.998  1.00  0.00     0.014 A 
ATOM     43  C   UNL A   1      40.763  23.177  27.485  1.00  0.00     0.010 A 
ATOM     44  C   UNL A   1      39.300  24.767  26.428  1.00  0.00     0.010 A 
ATOM     45  C   UNL A   1      40.436  24.513  27.206  1.00  0.00    -0.014 A 
BRANCH  45  46
ATOM     46  C   UNL A   1      41.235  25.656  27.737  1.00  0.00     0.031 A 
ATOM     47  C   UNL A   1      40.579  26.706  28.606  1.00  0.00     0.074 A 
ATOM     48  C   UNL A   1      42.522  25.812  27.362  1.00  0.00     0.049 A 
ATOM     49  N   UNL A   1      41.072  27.829  29.061  1.00  0.00    -0.248 NA
ATOM     50  C   UNL A   1      39.170  26.484  28.978  1.00  0.00     0.031 C 
ATOM     51  C   UNL A   1      43.256  24.920  26.463  1.00  0.00     0.029 A 
ATOM     52  N   UNL A   1      43.432  26.797  27.663  1.00  0.00    -0.354 N 
ATOM     53  C   UNL A   1      40.024  28.471  29.716  1.00  0.00     0.074 A 
ATOM     54  C   UNL A   1      38.859  27.628  29.570  1.00  0.00     0.031 C 
ATOM     55  C   UNL A   1      44.500  25.393  26.289  1.00  0.00     0.029 A 
ATOM     56  C   UNL A   1      44.643  26.643  27.028  1.00  0.00     0.049 A 
ATOM     57  H   UNL A   1      43.235  27.543  28.275  1.00  0.00     0.167 HD
ATOM     58  C   UNL A   1      40.034  29.638  30.403  1.00  0.00     0.034 A 
ATOM     59  C   UNL A   1      45.740  27.427  27.023  1.00  0.00     0.034 A 
ATOM     60  C   UNL A   1      41.210  30.438  30.609  1.00  0.00     0.049 A 
ATOM     61  C   UNL A   1      45.745  28.685  27.848  1.00  0.00     0.074 A 
ATOM     62  C   UNL A   1      41.350  31.576  31.385  1.00  0.00     0.029 A 
ATOM     63  N   UNL A   1      42.447  30.189  30.037  1.00  0.00    -0.354 N 
ATOM     64  N   UNL A   1      44.787  29.190  28.589  1.00  0.00    -0.248 NA
ATOM     65  C   UNL A   1      46.992  29.463  27.870  1.00  0.00     0.031 C 
ATOM     66  C   UNL A   1      42.665  32.032  31.257  1.00  0.00     0.029 A 
ATOM     67  C   UNL A   1      43.354  31.157  30.431  1.00  0.00     0.049 A 
ATOM     68  H   UNL A   1      42.650  29.434  29.439  1.00  0.00     0.167 HD
ATOM     69  C   UNL A   1      45.326  30.321  29.190  1.00  0.00     0.074 A 
ATOM     70  C   UNL A   1      46.702  30.415  28.746  1.00  0.00     0.031 C 
ATOM     71  C   UNL A   1      44.734  31.209  30.025  1.00  0.00     0.034 A 
BRANCH  58  72
ATOM     72  C   UNL A   1      38.743  30.103  31.031  1.00  0.00     0.023 A 
ATOM     73  C   UNL A   1      38.507  29.873  32.402  1.00  0.00     0.012 A 
ATOM     74  C   UNL A   1      37.796  30.829  30.282  1.00  0.00     0.148 A 
ATOM     75  C   UNL A   1      37.335  30.325  33.008  1.00  0.00     0.002 A 
ATOM     76  C   UNL A   1      36.654  31.320  30.904  1.00  0.00     0.091 A 
ATOM     77  F   UNL A   1      38.028  31.025  28.975  1.00  0.00    -0.205 F 
ATOM     78  C   UNL A   1      36.416  31.057  32.263  1.00  0.00     0.022 A 
BRANCH  76  79
ATOM     79  S   UNL A   1      35.451  32.348  30.053  1.00  0.00     0.127 S 
ATOM     80  O   UNL A   1      36.268  33.501  29.670  1.00  0.00    -0.237 OA
ATOM     81  O   UNL A   1      35.052  31.489  28.936  1.00  0.00    -0.237 OA
ATOM     82  O   UNL A   1      34.400  32.623  31.017  1.00  0.00    -0.744 OA
ENDBRANCH  76  79
ENDBRANCH  58  72
BRANCH  59  83
ATOM     83  C   UNL A   1      46.947  27.016  26.248  1.00  0.00     0.023 A 
ATOM     84  C   UNL A   1      47.869  26.117  26.821  1.00  0.00     0.012 A 
ATOM     85  C   UNL A   1      47.174  27.492  24.942  1.00  0.00     0.148 A 
ATOM     86  C   UNL A   1      49.012  25.729  26.122  1.00  0.00     0.002 A 
ATOM     87  C   UNL A   1      48.284  27.054  24.229  1.00  0.00     0.091 A 
ATOM     88  F   UNL A   1      46.292  28.354  24.417  1.00  0.00    -0.205 F 
ATOM     89  C   UNL A   1      49.215  26.189  24.824  1.00  0.00     0.022 A 
BRANCH  87  90
ATOM     90  S   UNL A   1      48.547  27.480  22.504  1.00  0.00     0.127 S 
ATOM     91  O   UNL A   1      47.358  28.274  22.207  1.00  0.00    -0.237 OA
ATOM     92  O   UNL A   1      49.797  28.239  22.567  1.00  0.00    -0.237 OA
ATOM     93  O   UNL A   1      48.655  26.210  21.798  1.00  0.00    -0.744 OA
ENDBRANCH  87  90
ENDBRANCH  59  83
BRANCH  71  94
ATOM     94  C   UNL A   1      45.573  32.341  30.555  1.00  0.00     0.023 A 
ATOM     95  C   UNL A   1      46.285  32.186  31.760  1.00  0.00     0.012 A 
ATOM     96  C   UNL A   1      45.716  33.532  29.814  1.00  0.00     0.148 A 
ATOM     97  C   UNL A   1      47.101  33.212  32.238  1.00  0.00     0.002 A 
ATOM     98  C   UNL A   1      46.571  34.527  30.270  1.00  0.00     0.091 A 
ATOM     99  F   UNL A   1      45.016  33.665  28.679  1.00  0.00    -0.205 F 
ATOM    100  C   UNL A   1      47.253  34.376  31.487  1.00  0.00     0.022 A 
BRANCH  98 101
ATOM    101  S   UNL A   1      46.907  36.014  29.321  1.00  0.00     0.127 S 
ATOM    102  O   UNL A   1      45.591  36.651  29.288  1.00  0.00    -0.237 OA
ATOM    103  O   UNL A   1      47.896  36.698  30.155  1.00  0.00    -0.237 OA
ATOM    104  O   UNL A   1      47.414  35.564  28.031  1.00  0.00    -0.744 OA
ENDBRANCH  98 101
ENDBRANCH  71  94
ENDBRANCH  45  46
ENDBRANCH  37  40
ENDBRANCH  35  36
ENDBRANCH   1  35
TORSDOF 17
ENDMDL
