MODEL 1
REMARK VINA RESULT:     -13.6      0.000      0.000
REMARK SMILES Cc1ccc(CCC(=O)N2CCC3(CC2)[C@H](C(=O)NCCCNC(=O)c2ccc(-c4c5nc(c(-c6cccc(S(=O)(=O)[O-])c6F)c6ccc([nH]6)c(-c6cccc(S(=O)(=O)[O-])c6F)c6nc(c(-c7cccc(S(=O)(=O)[O-])c7F)c7ccc4[nH]7)C=C6)C=C5)cc2)CC(=O)N3C)cc1
REMARK SMILES IDX 21 1 20 2 19 3 17 4 18 5 16 7 8 8 9 9 10 10 11 11 15 12
REMARK SMILES IDX 12 13 14 14 13 15 92 16 89 17 90 18 93 19 91 20 7 21 6 22
REMARK SMILES IDX 5 23 1 24 2 25 3 26 95 27 4 28 94 29 22 30 23 31 24 32 25 34
REMARK SMILES IDX 26 35 27 36 88 37 28 38 87 39 29 40 30 41 31 42 81 43 32 44
REMARK SMILES IDX 86 45 80 46 82 47 33 48 85 49 79 50 78 51 34 53 66 54 46 55
REMARK SMILES IDX 65 56 47 57 50 58 64 59 83 60 48 61 49 62 63 64 84 65 51 66
REMARK SMILES IDX 35 67 36 68 44 69 37 70 39 71 45 72 38 73 40 74 41 75 42 76
REMARK SMILES IDX 43 77 67 78 68 79 76 80 69 81 71 82 77 83 70 84 72 85 73 86
REMARK SMILES IDX 74 87 75 88 52 89 53 90 61 91 54 92 56 93 62 94 55 95 57 96
REMARK SMILES IDX 58 97 59 98 60 99
REMARK H PARENT 19 6 23 33 82 52 50 63
REMARK Flexibility Score: inf
ROOT
ATOM      1  C   UNL A   1      37.574  23.880  26.430  1.00  0.00     0.042 C 
ENDROOT
BRANCH   1   2
ATOM      2  C   UNL A   1      36.256  23.144  26.237  1.00  0.00     0.117 C 
BRANCH   2   3
ATOM      3  N   UNL A   1      36.347  21.748  25.841  1.00  0.00    -0.356 N 
ATOM      4  C   UNL A   1      35.457  20.845  25.361  1.00  0.00     0.226 C 
ATOM      5  O   UNL A   1      35.930  19.822  24.852  1.00  0.00    -0.275 OA
ATOM      6  H   UNL A   1      37.254  21.378  25.942  1.00  0.00     0.163 HD
BRANCH   4   7
ATOM      7  C   UNL A   1      33.934  20.964  25.444  1.00  0.00     0.113 C 
ATOM      8  C   UNL A   1      32.335  25.406  22.954  1.00  0.00     0.222 C 
ATOM      9  O   UNL A   1      32.820  26.098  22.057  1.00  0.00    -0.275 OA
ATOM     10  N   UNL A   1      32.420  24.026  22.922  1.00  0.00    -0.343 N 
ATOM     11  C   UNL A   1      33.528  23.333  22.293  1.00  0.00     0.122 C 
ATOM     12  C   UNL A   1      31.421  23.138  23.436  1.00  0.00     0.122 C 
ATOM     13  C   UNL A   1      34.159  22.363  23.306  1.00  0.00     0.051 C 
ATOM     14  C   UNL A   1      31.980  22.354  24.609  1.00  0.00     0.051 C 
ATOM     15  C   UNL A   1      33.193  21.491  24.179  1.00  0.00     0.058 C 
ATOM     16  N   UNL A   1      32.670  20.223  23.629  1.00  0.00    -0.339 N 
ATOM     17  C   UNL A   1      33.235  19.682  25.857  1.00  0.00     0.116 C 
ATOM     18  C   UNL A   1      32.568  19.221  24.594  1.00  0.00     0.223 C 
ATOM     19  C   UNL A   1      31.966  20.068  22.370  1.00  0.00     0.147 C 
ATOM     20  O   UNL A   1      32.001  18.146  24.472  1.00  0.00    -0.275 OA
BRANCH   8  21
ATOM     21  C   UNL A   1      31.819  26.077  24.239  1.00  0.00     0.105 C 
BRANCH  21  22
ATOM     22  C   UNL A   1      32.573  25.897  25.571  1.00  0.00     0.045 C 
BRANCH  22  23
ATOM     23  C   UNL A   1      32.782  27.183  26.357  1.00  0.00    -0.047 A 
ATOM     24  C   UNL A   1      33.089  31.359  27.303  1.00  0.00     0.044 C 
ATOM     25  C   UNL A   1      33.040  29.867  27.158  1.00  0.00    -0.051 A 
ATOM     26  C   UNL A   1      34.163  29.145  26.740  1.00  0.00     0.004 A 
ATOM     27  C   UNL A   1      31.827  29.190  27.332  1.00  0.00     0.004 A 
ATOM     28  C   UNL A   1      34.043  27.801  26.378  1.00  0.00     0.004 A 
ATOM     29  C   UNL A   1      31.700  27.854  26.941  1.00  0.00     0.004 A 
ENDBRANCH  22  23
ENDBRANCH  21  22
ENDBRANCH   8  21
ENDBRANCH   4   7
ENDBRANCH   2   3
ENDBRANCH   1   2
BRANCH   1  30
ATOM     30  C   UNL A   1      38.789  23.226  25.790  1.00  0.00     0.118 C 
BRANCH  30  31
ATOM     31  N   UNL A   1      39.861  23.050  26.764  1.00  0.00    -0.352 N 
ATOM     32  C   UNL A   1      40.464  23.991  27.581  1.00  0.00     0.251 C 
ATOM     33  H   UNL A   1      40.203  22.132  26.852  1.00  0.00     0.163 HD
ATOM     34  O   UNL A   1      41.441  23.705  28.250  1.00  0.00    -0.269 OA
BRANCH  32  35
ATOM     35  C   UNL A   1      39.795  25.298  27.698  1.00  0.00     0.039 A 
ATOM     36  C   UNL A   1      40.278  26.319  26.872  1.00  0.00     0.014 A 
ATOM     37  C   UNL A   1      39.001  25.570  28.809  1.00  0.00     0.014 A 
ATOM     38  C   UNL A   1      40.163  27.638  27.292  1.00  0.00     0.010 A 
ATOM     39  C   UNL A   1      38.941  26.873  29.257  1.00  0.00     0.010 A 
ATOM     40  C   UNL A   1      39.584  27.889  28.533  1.00  0.00    -0.014 A 
BRANCH  40  41
ATOM     41  C   UNL A   1      39.654  29.180  29.194  1.00  0.00     0.031 A 
ATOM     42  C   UNL A   1      38.663  30.222  28.880  1.00  0.00     0.074 A 
ATOM     43  C   UNL A   1      40.577  29.387  30.159  1.00  0.00     0.049 A 
ATOM     44  N   UNL A   1      38.861  31.483  29.061  1.00  0.00    -0.248 NA
ATOM     45  C   UNL A   1      37.368  29.905  28.291  1.00  0.00     0.031 C 
ATOM     46  C   UNL A   1      40.571  30.449  31.156  1.00  0.00     0.029 A 
ATOM     47  N   UNL A   1      41.840  28.794  30.284  1.00  0.00    -0.354 N 
ATOM     48  C   UNL A   1      37.650  32.113  28.875  1.00  0.00     0.074 A 
ATOM     49  C   UNL A   1      36.774  31.101  28.329  1.00  0.00     0.031 C 
ATOM     50  C   UNL A   1      41.823  30.626  31.601  1.00  0.00     0.029 A 
ATOM     51  C   UNL A   1      42.691  29.794  30.787  1.00  0.00     0.049 A 
ATOM     52  H   UNL A   1      42.081  27.866  30.066  1.00  0.00     0.167 HD
ATOM     53  C   UNL A   1      37.465  33.373  29.356  1.00  0.00     0.034 A 
ATOM     54  C   UNL A   1      43.840  30.207  30.180  1.00  0.00     0.034 A 
ATOM     55  C   UNL A   1      38.679  33.887  29.996  1.00  0.00     0.049 A 
ATOM     56  C   UNL A   1      43.876  31.698  29.904  1.00  0.00     0.074 A 
ATOM     57  C   UNL A   1      39.106  33.903  31.316  1.00  0.00     0.029 A 
ATOM     58  N   UNL A   1      39.782  34.221  29.223  1.00  0.00    -0.354 N 
ATOM     59  N   UNL A   1      42.857  32.497  30.061  1.00  0.00    -0.248 NA
ATOM     60  C   UNL A   1      45.050  32.402  29.396  1.00  0.00     0.031 C 
ATOM     61  C   UNL A   1      40.493  34.200  31.327  1.00  0.00     0.029 A 
ATOM     62  C   UNL A   1      40.906  34.382  30.019  1.00  0.00     0.049 A 
ATOM     63  H   UNL A   1      39.768  34.331  28.245  1.00  0.00     0.167 HD
ATOM     64  C   UNL A   1      43.159  33.743  29.570  1.00  0.00     0.074 A 
ATOM     65  C   UNL A   1      44.572  33.650  29.246  1.00  0.00     0.031 C 
ATOM     66  C   UNL A   1      42.196  34.709  29.422  1.00  0.00     0.034 A 
BRANCH  53  67
ATOM     67  C   UNL A   1      36.088  33.966  29.578  1.00  0.00     0.023 A 
ATOM     68  C   UNL A   1      35.428  34.528  28.463  1.00  0.00     0.012 A 
ATOM     69  C   UNL A   1      35.431  34.088  30.821  1.00  0.00     0.148 A 
ATOM     70  C   UNL A   1      34.259  35.282  28.587  1.00  0.00     0.002 A 
ATOM     71  C   UNL A   1      34.310  34.912  30.960  1.00  0.00     0.091 A 
ATOM     72  F   UNL A   1      35.846  33.354  31.862  1.00  0.00    -0.205 F 
ATOM     73  C   UNL A   1      33.725  35.515  29.844  1.00  0.00     0.022 A 
BRANCH  71  74
ATOM     74  S   UNL A   1      33.652  35.364  32.576  1.00  0.00     0.127 S 
ATOM     75  O   UNL A   1      34.831  35.907  33.254  1.00  0.00    -0.237 OA
ATOM     76  O   UNL A   1      32.635  36.356  32.238  1.00  0.00    -0.237 OA
ATOM     77  O   UNL A   1      33.161  34.120  33.158  1.00  0.00    -0.744 OA
ENDBRANCH  71  74
ENDBRANCH  53  67
BRANCH  54  78
ATOM     78  C   UNL A   1      44.505  29.157  29.359  1.00  0.00     0.023 A 
ATOM     79  C   UNL A   1      45.064  28.060  30.055  1.00  0.00     0.012 A 
ATOM     80  C   UNL A   1      44.261  29.037  27.981  1.00  0.00     0.148 A 
ATOM     81  C   UNL A   1      45.265  26.833  29.421  1.00  0.00     0.002 A 
ATOM     82  C   UNL A   1      44.455  27.806  27.357  1.00  0.00     0.091 A 
ATOM     83  F   UNL A   1      43.769  30.094  27.323  1.00  0.00    -0.205 F 
ATOM     84  C   UNL A   1      44.928  26.698  28.080  1.00  0.00     0.022 A 
BRANCH  82  85
ATOM     85  S   UNL A   1      43.966  27.525  25.650  1.00  0.00     0.127 S 
ATOM     86  O   UNL A   1      42.878  28.486  25.496  1.00  0.00    -0.237 OA
ATOM     87  O   UNL A   1      45.189  27.858  24.921  1.00  0.00    -0.237 OA
ATOM     88  O   UNL A   1      43.604  26.117  25.594  1.00  0.00    -0.744 OA
ENDBRANCH  82  85
ENDBRANCH  54  78
BRANCH  66  89
ATOM     89  C   UNL A   1      42.348  36.043  28.699  1.00  0.00     0.023 A 
ATOM     90  C   UNL A   1      41.672  36.343  27.501  1.00  0.00     0.012 A 
ATOM     91  C   UNL A   1      43.086  37.109  29.284  1.00  0.00     0.148 A 
ATOM     92  C   UNL A   1      41.752  37.604  26.894  1.00  0.00     0.002 A 
ATOM     93  C   UNL A   1      43.070  38.392  28.737  1.00  0.00     0.091 A 
ATOM     94  F   UNL A   1      43.837  36.889  30.373  1.00  0.00    -0.205 F 
ATOM     95  C   UNL A   1      42.428  38.637  27.524  1.00  0.00     0.022 A 
BRANCH  93  96
ATOM     96  S   UNL A   1      43.738  39.791  29.649  1.00  0.00     0.127 S 
ATOM     97  O   UNL A   1      45.178  39.572  29.538  1.00  0.00    -0.237 OA
ATOM     98  O   UNL A   1      43.237  40.937  28.887  1.00  0.00    -0.237 OA
ATOM     99  O   UNL A   1      43.165  39.670  30.984  1.00  0.00    -0.744 OA
ENDBRANCH  93  96
ENDBRANCH  66  89
ENDBRANCH  40  41
ENDBRANCH  32  35
ENDBRANCH  30  31
ENDBRANCH   1  30
TORSDOF 16
ENDMDL
MODEL 2
REMARK VINA RESULT:     -13.3      3.968     10.358
REMARK SMILES Cc1ccc(CCC(=O)N2CCC3(CC2)[C@H](C(=O)NCCCNC(=O)c2ccc(-c4c5nc(c(-c6cccc(S(=O)(=O)[O-])c6F)c6ccc([nH]6)c(-c6cccc(S(=O)(=O)[O-])c6F)c6nc(c(-c7cccc(S(=O)(=O)[O-])c7F)c7ccc4[nH]7)C=C6)C=C5)cc2)CC(=O)N3C)cc1
REMARK SMILES IDX 21 1 20 2 19 3 17 4 18 5 16 7 8 8 9 9 10 10 11 11 15 12
REMARK SMILES IDX 12 13 14 14 13 15 92 16 89 17 90 18 93 19 91 20 7 21 6 22
REMARK SMILES IDX 5 23 1 24 2 25 3 26 95 27 4 28 94 29 22 30 23 31 24 32 25 34
REMARK SMILES IDX 26 35 27 36 88 37 28 38 87 39 29 40 30 41 31 42 81 43 32 44
REMARK SMILES IDX 86 45 80 46 82 47 33 48 85 49 79 50 78 51 34 53 66 54 46 55
REMARK SMILES IDX 65 56 47 57 50 58 64 59 83 60 48 61 49 62 63 64 84 65 51 66
REMARK SMILES IDX 35 67 36 68 44 69 37 70 39 71 45 72 38 73 40 74 41 75 42 76
REMARK SMILES IDX 43 77 67 78 68 79 76 80 69 81 71 82 77 83 70 84 72 85 73 86
REMARK SMILES IDX 74 87 75 88 52 89 53 90 61 91 54 92 56 93 62 94 55 95 57 96
REMARK SMILES IDX 58 97 59 98 60 99
REMARK H PARENT 19 6 23 33 82 52 50 63
REMARK Flexibility Score: inf
ROOT
ATOM      1  C   UNL A   1      32.372  30.871  26.787  1.00  0.00     0.042 C 
ENDROOT
BRANCH   1   2
ATOM      2  C   UNL A   1      31.870  29.920  25.709  1.00  0.00     0.117 C 
BRANCH   2   3
ATOM      3  N   UNL A   1      31.362  28.636  26.166  1.00  0.00    -0.356 N 
ATOM      4  C   UNL A   1      31.904  27.400  26.291  1.00  0.00     0.226 C 
ATOM      5  O   UNL A   1      31.278  26.592  26.988  1.00  0.00    -0.275 OA
ATOM      6  H   UNL A   1      30.419  28.674  26.447  1.00  0.00     0.163 HD
BRANCH   4   7
ATOM      7  C   UNL A   1      33.184  26.914  25.609  1.00  0.00     0.113 C 
ATOM      8  C   UNL A   1      32.639  21.798  24.188  1.00  0.00     0.222 C 
ATOM      9  O   UNL A   1      31.665  21.086  23.939  1.00  0.00    -0.275 OA
ATOM     10  N   UNL A   1      32.688  23.118  23.775  1.00  0.00    -0.343 N 
ATOM     11  C   UNL A   1      31.494  23.928  23.628  1.00  0.00     0.122 C 
ATOM     12  C   UNL A   1      33.884  23.806  23.391  1.00  0.00     0.122 C 
ATOM     13  C   UNL A   1      31.649  25.213  24.458  1.00  0.00     0.051 C 
ATOM     14  C   UNL A   1      34.170  24.930  24.370  1.00  0.00     0.051 C 
ATOM     15  C   UNL A   1      33.020  25.968  24.383  1.00  0.00     0.058 C 
ATOM     16  N   UNL A   1      33.261  26.919  23.278  1.00  0.00    -0.339 N 
ATOM     17  C   UNL A   1      34.117  28.031  25.177  1.00  0.00     0.116 C 
ATOM     18  C   UNL A   1      33.991  28.037  23.682  1.00  0.00     0.223 C 
ATOM     19  C   UNL A   1      33.138  26.628  21.862  1.00  0.00     0.147 C 
ATOM     20  O   UNL A   1      34.492  28.882  22.955  1.00  0.00    -0.275 OA
BRANCH   8  21
ATOM     21  C   UNL A   1      33.723  21.296  25.156  1.00  0.00     0.105 C 
BRANCH  21  22
ATOM     22  C   UNL A   1      34.698  20.182  24.729  1.00  0.00     0.045 C 
BRANCH  22  23
ATOM     23  C   UNL A   1      34.069  18.801  24.616  1.00  0.00    -0.047 A 
ATOM     24  C   UNL A   1      32.877  14.790  25.578  1.00  0.00     0.044 C 
ATOM     25  C   UNL A   1      33.211  16.160  25.065  1.00  0.00    -0.051 A 
ATOM     26  C   UNL A   1      34.415  16.406  24.397  1.00  0.00     0.004 A 
ATOM     27  C   UNL A   1      32.365  17.237  25.354  1.00  0.00     0.004 A 
ATOM     28  C   UNL A   1      34.824  17.717  24.139  1.00  0.00     0.004 A 
ATOM     29  C   UNL A   1      32.788  18.549  25.123  1.00  0.00     0.004 A 
ENDBRANCH  22  23
ENDBRANCH  21  22
ENDBRANCH   8  21
ENDBRANCH   4   7
ENDBRANCH   2   3
ENDBRANCH   1   2
BRANCH   1  30
ATOM     30  C   UNL A   1      33.457  30.316  27.696  1.00  0.00     0.118 C 
BRANCH  30  31
ATOM     31  N   UNL A   1      34.168  31.393  28.378  1.00  0.00    -0.352 N 
ATOM     32  C   UNL A   1      35.377  31.355  29.051  1.00  0.00     0.251 C 
ATOM     33  H   UNL A   1      33.723  32.271  28.356  1.00  0.00     0.163 HD
ATOM     34  O   UNL A   1      35.772  32.319  29.683  1.00  0.00    -0.269 OA
BRANCH  32  35
ATOM     35  C   UNL A   1      36.209  30.155  28.859  1.00  0.00     0.039 A 
ATOM     36  C   UNL A   1      36.655  29.515  30.020  1.00  0.00     0.014 A 
ATOM     37  C   UNL A   1      36.797  29.913  27.620  1.00  0.00     0.014 A 
ATOM     38  C   UNL A   1      37.849  28.808  29.986  1.00  0.00     0.010 A 
ATOM     39  C   UNL A   1      38.013  29.264  27.598  1.00  0.00     0.010 A 
ATOM     40  C   UNL A   1      38.566  28.778  28.793  1.00  0.00    -0.014 A 
BRANCH  40  41
ATOM     41  C   UNL A   1      39.938  28.313  28.704  1.00  0.00     0.031 A 
ATOM     42  C   UNL A   1      40.219  26.874  28.562  1.00  0.00     0.074 A 
ATOM     43  C   UNL A   1      40.947  29.210  28.663  1.00  0.00     0.049 A 
ATOM     44  N   UNL A   1      41.337  26.323  28.892  1.00  0.00    -0.248 NA
ATOM     45  C   UNL A   1      39.221  25.937  28.064  1.00  0.00     0.031 C 
ATOM     46  C   UNL A   1      42.314  28.965  28.224  1.00  0.00     0.029 A 
ATOM     47  N   UNL A   1      40.985  30.489  29.233  1.00  0.00    -0.354 N 
ATOM     48  C   UNL A   1      41.309  25.033  28.408  1.00  0.00     0.074 A 
ATOM     49  C   UNL A   1      39.949  24.821  27.967  1.00  0.00     0.031 C 
ATOM     50  C   UNL A   1      43.110  29.900  28.761  1.00  0.00     0.029 A 
ATOM     51  C   UNL A   1      42.303  30.675  29.686  1.00  0.00     0.049 A 
ATOM     52  H   UNL A   1      40.240  31.128  29.302  1.00  0.00     0.167 HD
ATOM     53  C   UNL A   1      42.472  24.338  28.275  1.00  0.00     0.034 A 
ATOM     54  C   UNL A   1      42.643  30.974  30.972  1.00  0.00     0.034 A 
ATOM     55  C   UNL A   1      43.622  25.122  28.736  1.00  0.00     0.049 A 
ATOM     56  C   UNL A   1      43.620  29.989  31.584  1.00  0.00     0.074 A 
ATOM     57  C   UNL A   1      44.527  25.935  28.071  1.00  0.00     0.029 A 
ATOM     58  N   UNL A   1      43.792  25.371  30.091  1.00  0.00    -0.354 N 
ATOM     59  N   UNL A   1      43.978  28.868  31.023  1.00  0.00    -0.248 NA
ATOM     60  C   UNL A   1      44.244  30.171  32.892  1.00  0.00     0.031 C 
ATOM     61  C   UNL A   1      45.210  26.717  29.037  1.00  0.00     0.029 A 
ATOM     62  C   UNL A   1      44.735  26.368  30.289  1.00  0.00     0.049 A 
ATOM     63  H   UNL A   1      43.312  24.903  30.811  1.00  0.00     0.167 HD
ATOM     64  C   UNL A   1      44.734  28.127  31.898  1.00  0.00     0.074 A 
ATOM     65  C   UNL A   1      44.941  29.028  33.019  1.00  0.00     0.031 C 
ATOM     66  C   UNL A   1      45.063  26.821  31.636  1.00  0.00     0.034 A 
BRANCH  53  67
ATOM     67  C   UNL A   1      42.595  23.120  27.382  1.00  0.00     0.023 A 
ATOM     68  C   UNL A   1      41.938  21.938  27.791  1.00  0.00     0.012 A 
ATOM     69  C   UNL A   1      43.380  23.027  26.213  1.00  0.00     0.148 A 
ATOM     70  C   UNL A   1      42.151  20.708  27.163  1.00  0.00     0.002 A 
ATOM     71  C   UNL A   1      43.662  21.785  25.636  1.00  0.00     0.091 A 
ATOM     72  F   UNL A   1      43.805  24.147  25.613  1.00  0.00    -0.205 F 
ATOM     73  C   UNL A   1      43.052  20.622  26.114  1.00  0.00     0.022 A 
BRANCH  71  74
ATOM     74  S   UNL A   1      44.922  21.587  24.364  1.00  0.00     0.127 S 
ATOM     75  O   UNL A   1      44.472  22.521  23.329  1.00  0.00    -0.237 OA
ATOM     76  O   UNL A   1      46.141  21.993  25.058  1.00  0.00    -0.237 OA
ATOM     77  O   UNL A   1      44.853  20.186  23.962  1.00  0.00    -0.744 OA
ENDBRANCH  71  74
ENDBRANCH  53  67
BRANCH  54  78
ATOM     78  C   UNL A   1      41.601  31.737  31.714  1.00  0.00     0.023 A 
ATOM     79  C   UNL A   1      41.333  33.053  31.268  1.00  0.00     0.012 A 
ATOM     80  C   UNL A   1      40.663  31.092  32.536  1.00  0.00     0.148 A 
ATOM     81  C   UNL A   1      40.109  33.667  31.535  1.00  0.00     0.002 A 
ATOM     82  C   UNL A   1      39.438  31.708  32.789  1.00  0.00     0.091 A 
ATOM     83  F   UNL A   1      40.943  29.862  32.985  1.00  0.00    -0.205 F 
ATOM     84  C   UNL A   1      39.149  32.979  32.267  1.00  0.00     0.022 A 
BRANCH  82  85
ATOM     85  S   UNL A   1      38.113  30.854  33.655  1.00  0.00     0.127 S 
ATOM     86  O   UNL A   1      38.287  31.350  35.016  1.00  0.00    -0.237 OA
ATOM     87  O   UNL A   1      36.925  31.353  32.964  1.00  0.00    -0.237 OA
ATOM     88  O   UNL A   1      38.379  29.440  33.438  1.00  0.00    -0.744 OA
ENDBRANCH  82  85
ENDBRANCH  54  78
BRANCH  66  89
ATOM     89  C   UNL A   1      45.703  25.832  32.603  1.00  0.00     0.023 A 
ATOM     90  C   UNL A   1      47.097  25.700  32.748  1.00  0.00     0.012 A 
ATOM     91  C   UNL A   1      44.907  25.083  33.514  1.00  0.00     0.148 A 
ATOM     92  C   UNL A   1      47.673  24.850  33.703  1.00  0.00     0.002 A 
ATOM     93  C   UNL A   1      45.484  24.327  34.534  1.00  0.00     0.091 A 
ATOM     94  F   UNL A   1      43.572  25.073  33.389  1.00  0.00    -0.205 F 
ATOM     95  C   UNL A   1      46.868  24.184  34.615  1.00  0.00     0.022 A 
BRANCH  93  96
ATOM     96  S   UNL A   1      44.475  23.648  35.861  1.00  0.00     0.127 S 
ATOM     97  O   UNL A   1      43.670  22.653  35.157  1.00  0.00    -0.237 OA
ATOM     98  O   UNL A   1      45.478  23.087  36.768  1.00  0.00    -0.237 OA
ATOM     99  O   UNL A   1      43.759  24.795  36.404  1.00  0.00    -0.744 OA
ENDBRANCH  93  96
ENDBRANCH  66  89
ENDBRANCH  40  41
ENDBRANCH  32  35
ENDBRANCH  30  31
ENDBRANCH   1  30
TORSDOF 16
ENDMDL
MODEL 3
REMARK VINA RESULT:     -13.3      1.745      2.245
REMARK SMILES Cc1ccc(CCC(=O)N2CCC3(CC2)[C@H](C(=O)NCCCNC(=O)c2ccc(-c4c5nc(c(-c6cccc(S(=O)(=O)[O-])c6F)c6ccc([nH]6)c(-c6cccc(S(=O)(=O)[O-])c6F)c6nc(c(-c7cccc(S(=O)(=O)[O-])c7F)c7ccc4[nH]7)C=C6)C=C5)cc2)CC(=O)N3C)cc1
REMARK SMILES IDX 21 1 20 2 19 3 17 4 18 5 16 7 8 8 9 9 10 10 11 11 15 12
REMARK SMILES IDX 12 13 14 14 13 15 92 16 89 17 90 18 93 19 91 20 7 21 6 22
REMARK SMILES IDX 5 23 1 24 2 25 3 26 95 27 4 28 94 29 22 30 23 31 24 32 25 34
REMARK SMILES IDX 26 35 27 36 88 37 28 38 87 39 29 40 30 41 31 42 81 43 32 44
REMARK SMILES IDX 86 45 80 46 82 47 33 48 85 49 79 50 78 51 34 53 66 54 46 55
REMARK SMILES IDX 65 56 47 57 50 58 64 59 83 60 48 61 49 62 63 64 84 65 51 66
REMARK SMILES IDX 35 67 36 68 44 69 37 70 39 71 45 72 38 73 40 74 41 75 42 76
REMARK SMILES IDX 43 77 67 78 68 79 76 80 69 81 71 82 77 83 70 84 72 85 73 86
REMARK SMILES IDX 74 87 75 88 52 89 53 90 61 91 54 92 56 93 62 94 55 95 57 96
REMARK SMILES IDX 58 97 59 98 60 99
REMARK H PARENT 19 6 23 33 82 52 50 63
REMARK Flexibility Score: inf
ROOT
ATOM      1  C   UNL A   1      38.775  20.896  25.723  1.00  0.00     0.042 C 
ENDROOT
BRANCH   1   2
ATOM      2  C   UNL A   1      37.401  20.742  25.086  1.00  0.00     0.117 C 
BRANCH   2   3
ATOM      3  N   UNL A   1      37.127  21.584  23.932  1.00  0.00    -0.356 N 
ATOM      4  C   UNL A   1      36.515  22.782  23.765  1.00  0.00     0.226 C 
ATOM      5  O   UNL A   1      36.708  23.354  22.685  1.00  0.00    -0.275 OA
ATOM      6  H   UNL A   1      37.459  21.200  23.088  1.00  0.00     0.163 HD
BRANCH   4   7
ATOM      7  C   UNL A   1      35.577  23.451  24.770  1.00  0.00     0.113 C 
ATOM      8  C   UNL A   1      31.868  26.275  22.169  1.00  0.00     0.222 C 
ATOM      9  O   UNL A   1      31.384  26.201  21.038  1.00  0.00    -0.275 OA
ATOM     10  N   UNL A   1      32.157  25.138  22.902  1.00  0.00    -0.343 N 
ATOM     11  C   UNL A   1      32.531  23.885  22.273  1.00  0.00     0.122 C 
ATOM     12  C   UNL A   1      32.064  25.044  24.328  1.00  0.00     0.122 C 
ATOM     13  C   UNL A   1      33.871  23.406  22.856  1.00  0.00     0.051 C 
ATOM     14  C   UNL A   1      33.441  24.817  24.922  1.00  0.00     0.051 C 
ATOM     15  C   UNL A   1      34.062  23.493  24.409  1.00  0.00     0.058 C 
ATOM     16  N   UNL A   1      33.554  22.399  25.262  1.00  0.00    -0.339 N 
ATOM     17  C   UNL A   1      35.674  22.890  26.177  1.00  0.00     0.116 C 
ATOM     18  C   UNL A   1      34.394  22.126  26.342  1.00  0.00     0.223 C 
ATOM     19  C   UNL A   1      32.195  21.891  25.276  1.00  0.00     0.147 C 
ATOM     20  O   UNL A   1      34.139  21.415  27.302  1.00  0.00    -0.275 OA
BRANCH   8  21
ATOM     21  C   UNL A   1      32.367  27.631  22.697  1.00  0.00     0.105 C 
BRANCH  21  22
ATOM     22  C   UNL A   1      31.397  28.602  23.397  1.00  0.00     0.045 C 
BRANCH  22  23
ATOM     23  C   UNL A   1      31.857  29.076  24.768  1.00  0.00    -0.047 A 
ATOM     24  C   UNL A   1      33.984  31.218  27.821  1.00  0.00     0.044 C 
ATOM     25  C   UNL A   1      33.158  30.368  26.901  1.00  0.00    -0.051 A 
ATOM     26  C   UNL A   1      33.643  29.150  26.414  1.00  0.00     0.004 A 
ATOM     27  C   UNL A   1      31.929  30.845  26.429  1.00  0.00     0.004 A 
ATOM     28  C   UNL A   1      32.976  28.488  25.379  1.00  0.00     0.004 A 
ATOM     29  C   UNL A   1      31.279  30.199  25.374  1.00  0.00     0.004 A 
ENDBRANCH  22  23
ENDBRANCH  21  22
ENDBRANCH   8  21
ENDBRANCH   4   7
ENDBRANCH   2   3
ENDBRANCH   1   2
BRANCH   1  30
ATOM     30  C   UNL A   1      39.120  22.297  26.206  1.00  0.00     0.118 C 
BRANCH  30  31
ATOM     31  N   UNL A   1      40.564  22.506  26.209  1.00  0.00    -0.352 N 
ATOM     32  C   UNL A   1      41.278  23.688  26.313  1.00  0.00     0.251 C 
ATOM     33  H   UNL A   1      41.109  21.689  26.125  1.00  0.00     0.163 HD
ATOM     34  O   UNL A   1      42.487  23.704  26.167  1.00  0.00    -0.269 OA
BRANCH  32  35
ATOM     35  C   UNL A   1      40.527  24.883  26.733  1.00  0.00     0.039 A 
ATOM     36  C   UNL A   1      40.919  26.097  26.157  1.00  0.00     0.014 A 
ATOM     37  C   UNL A   1      39.745  24.839  27.885  1.00  0.00     0.014 A 
ATOM     38  C   UNL A   1      40.729  27.274  26.868  1.00  0.00     0.010 A 
ATOM     39  C   UNL A   1      39.612  25.999  28.619  1.00  0.00     0.010 A 
ATOM     40  C   UNL A   1      40.166  27.196  28.140  1.00  0.00    -0.014 A 
BRANCH  40  41
ATOM     41  C   UNL A   1      40.169  28.304  29.078  1.00  0.00     0.031 A 
ATOM     42  C   UNL A   1      39.260  29.444  28.870  1.00  0.00     0.074 A 
ATOM     43  C   UNL A   1      40.943  28.242  30.183  1.00  0.00     0.049 A 
ATOM     44  N   UNL A   1      39.460  30.621  29.357  1.00  0.00    -0.248 NA
ATOM     45  C   UNL A   1      38.061  29.338  28.051  1.00  0.00     0.031 C 
ATOM     46  C   UNL A   1      40.814  29.058  31.383  1.00  0.00     0.029 A 
ATOM     47  N   UNL A   1      42.158  27.566  30.347  1.00  0.00    -0.354 N 
ATOM     48  C   UNL A   1      38.305  31.344  29.150  1.00  0.00     0.074 A 
ATOM     49  C   UNL A   1      37.496  30.527  28.274  1.00  0.00     0.031 C 
ATOM     50  C   UNL A   1      41.990  29.062  32.026  1.00  0.00     0.029 A 
ATOM     51  C   UNL A   1      42.949  28.381  31.176  1.00  0.00     0.049 A 
ATOM     52  H   UNL A   1      42.407  26.696  29.961  1.00  0.00     0.167 HD
ATOM     53  C   UNL A   1      38.081  32.477  29.872  1.00  0.00     0.034 A 
ATOM     54  C   UNL A   1      44.185  28.851  30.844  1.00  0.00     0.034 A 
ATOM     55  C   UNL A   1      39.199  32.768  30.774  1.00  0.00     0.049 A 
ATOM     56  C   UNL A   1      44.297  30.362  30.918  1.00  0.00     0.074 A 
ATOM     57  C   UNL A   1      39.425  32.471  32.110  1.00  0.00     0.029 A 
ATOM     58  N   UNL A   1      40.412  33.201  30.258  1.00  0.00    -0.354 N 
ATOM     59  N   UNL A   1      43.285  31.163  31.107  1.00  0.00    -0.248 NA
ATOM     60  C   UNL A   1      45.550  31.092  30.751  1.00  0.00     0.031 C 
ATOM     61  C   UNL A   1      40.801  32.679  32.381  1.00  0.00     0.029 A 
ATOM     62  C   UNL A   1      41.409  33.119  31.218  1.00  0.00     0.049 A 
ATOM     63  H   UNL A   1      40.546  33.523  29.337  1.00  0.00     0.167 HD
ATOM     64  C   UNL A   1      43.687  32.468  30.955  1.00  0.00     0.074 A 
ATOM     65  C   UNL A   1      45.130  32.368  30.820  1.00  0.00     0.031 C 
ATOM     66  C   UNL A   1      42.781  33.496  30.896  1.00  0.00     0.034 A 
BRANCH  53  67
ATOM     67  C   UNL A   1      36.701  33.083  30.027  1.00  0.00     0.023 A 
ATOM     68  C   UNL A   1      36.168  33.790  28.927  1.00  0.00     0.012 A 
ATOM     69  C   UNL A   1      35.925  33.083  31.206  1.00  0.00     0.148 A 
ATOM     70  C   UNL A   1      35.007  34.561  29.024  1.00  0.00     0.002 A 
ATOM     71  C   UNL A   1      34.813  33.921  31.332  1.00  0.00     0.091 A 
ATOM     72  F   UNL A   1      36.220  32.223  32.190  1.00  0.00    -0.205 F 
ATOM     73  C   UNL A   1      34.355  34.666  30.242  1.00  0.00     0.022 A 
BRANCH  71  74
ATOM     74  S   UNL A   1      34.006  34.205  32.917  1.00  0.00     0.127 S 
ATOM     75  O   UNL A   1      35.141  34.489  33.800  1.00  0.00    -0.237 OA
ATOM     76  O   UNL A   1      33.153  35.357  32.638  1.00  0.00    -0.237 OA
ATOM     77  O   UNL A   1      33.314  32.960  33.231  1.00  0.00    -0.744 OA
ENDBRANCH  71  74
ENDBRANCH  53  67
BRANCH  54  78
ATOM     78  C   UNL A   1      44.939  27.971  29.908  1.00  0.00     0.023 A 
ATOM     79  C   UNL A   1      45.232  26.662  30.359  1.00  0.00     0.012 A 
ATOM     80  C   UNL A   1      45.016  28.252  28.534  1.00  0.00     0.148 A 
ATOM     81  C   UNL A   1      45.480  25.630  29.454  1.00  0.00     0.002 A 
ATOM     82  C   UNL A   1      45.253  27.213  27.636  1.00  0.00     0.091 A 
ATOM     83  F   UNL A   1      44.775  29.503  28.122  1.00  0.00    -0.205 F 
ATOM     84  C   UNL A   1      45.456  25.899  28.091  1.00  0.00     0.022 A 
BRANCH  82  85
ATOM     85  S   UNL A   1      45.156  27.461  25.858  1.00  0.00     0.127 S 
ATOM     86  O   UNL A   1      45.211  26.088  25.369  1.00  0.00    -0.237 OA
ATOM     87  O   UNL A   1      43.857  28.116  25.710  1.00  0.00    -0.237 OA
ATOM     88  O   UNL A   1      46.293  28.312  25.539  1.00  0.00    -0.744 OA
ENDBRANCH  82  85
ENDBRANCH  54  78
BRANCH  66  89
ATOM     89  C   UNL A   1      43.070  34.945  30.520  1.00  0.00     0.023 A 
ATOM     90  C   UNL A   1      43.490  35.907  31.458  1.00  0.00     0.012 A 
ATOM     91  C   UNL A   1      43.060  35.360  29.159  1.00  0.00     0.148 A 
ATOM     92  C   UNL A   1      43.838  37.213  31.083  1.00  0.00     0.002 A 
ATOM     93  C   UNL A   1      43.514  36.623  28.781  1.00  0.00     0.091 A 
ATOM     94  F   UNL A   1      42.584  34.542  28.209  1.00  0.00    -0.205 F 
ATOM     95  C   UNL A   1      43.877  37.564  29.743  1.00  0.00     0.022 A 
BRANCH  93  96
ATOM     96  S   UNL A   1      43.794  37.021  27.048  1.00  0.00     0.127 S 
ATOM     97  O   UNL A   1      44.599  35.887  26.599  1.00  0.00    -0.237 OA
ATOM     98  O   UNL A   1      42.435  37.053  26.505  1.00  0.00    -0.237 OA
ATOM     99  O   UNL A   1      44.456  38.319  27.068  1.00  0.00    -0.744 OA
ENDBRANCH  93  96
ENDBRANCH  66  89
ENDBRANCH  40  41
ENDBRANCH  32  35
ENDBRANCH  30  31
ENDBRANCH   1  30
TORSDOF 16
ENDMDL
