MODEL 1
REMARK VINA RESULT:     -10.8      0.000      0.000
REMARK SMILES [NH3+][C@H](CCC(=O)NCCCNC(=O)c1ccc(-c2c3nc(c(-c4cccc(S(=O)(=O)[O-])c4F)c4ccc([nH]4)c(-c4cccc(S(=O)(=O)[O-])c4F)c4nc(c(-c5cccc(S(=O)(=O)[O-])c5F)c5ccc2[nH]5)C=C4)C=C3)cc1)Cc1c[nH]c2ccccc12
REMARK SMILES IDX 8 1 7 2 5 3 6 4 4 6 3 7 2 8 1 9 77 13 78 14 79 15 86 16
REMARK SMILES IDX 80 17 81 18 85 19 82 21 84 22 83 23 9 24 10 25 11 26 12 27
REMARK SMILES IDX 13 29 14 30 15 31 76 32 16 33 75 34 17 35 18 36 19 37 69 38
REMARK SMILES IDX 20 39 74 40 68 41 70 42 21 43 73 44 67 45 66 46 22 48 54 49
REMARK SMILES IDX 34 50 53 51 35 52 38 53 52 54 71 55 36 56 37 57 51 59 72 60
REMARK SMILES IDX 39 61 23 62 24 63 32 64 25 65 27 66 33 67 26 68 28 69 29 70
REMARK SMILES IDX 30 71 31 72 55 73 56 74 64 75 57 76 59 77 65 78 58 79 60 80
REMARK SMILES IDX 61 81 62 82 63 83 40 84 41 85 49 86 42 87 44 88 50 89 43 90
REMARK SMILES IDX 45 91 46 92 47 93 48 94
REMARK H PARENT 7 5 1 10 1 11 1 12 80 20 11 28 70 47 38 58
REMARK Flexibility Score: inf
ROOT
ATOM      1  C   UNL A   1      33.435  34.786  29.228  1.00  0.00     0.117 C 
ENDROOT
BRANCH   1   2
ATOM      2  N   UNL A   1      33.390  36.150  29.738  1.00  0.00    -0.356 N 
ATOM      3  C   UNL A   1      33.088  36.616  30.985  1.00  0.00     0.220 C 
ATOM      4  O   UNL A   1      32.956  37.835  31.128  1.00  0.00    -0.275 OA
ATOM      5  H   UNL A   1      33.611  36.847  29.079  1.00  0.00     0.163 HD
BRANCH   3   6
ATOM      6  C   UNL A   1      32.945  35.667  32.167  1.00  0.00     0.106 C 
BRANCH   6   7
ATOM      7  C   UNL A   1      34.283  35.126  32.710  1.00  0.00     0.075 C 
BRANCH   7   8
ATOM      8  C   UNL A   1      34.258  33.606  33.005  1.00  0.00     0.185 C 
BRANCH   8   9
ATOM      9  N   UNL A   1      32.936  33.236  33.534  1.00  0.00    -0.355 N 
ATOM     10  H   UNL A   1      32.701  33.846  34.317  1.00  0.00     0.344 HD
ATOM     11  H   UNL A   1      32.956  32.267  33.852  1.00  0.00     0.344 HD
ATOM     12  H   UNL A   1      32.234  33.340  32.801  1.00  0.00     0.344 HD
ENDBRANCH   8   9
BRANCH   8  13
ATOM     13  C   UNL A   1      34.750  32.639  31.872  1.00  0.00     0.102 C 
BRANCH  13  14
ATOM     14  C   UNL A   1      36.135  32.107  32.163  1.00  0.00    -0.017 A 
ATOM     15  C   UNL A   1      36.508  30.956  32.834  1.00  0.00     0.087 A 
ATOM     16  C   UNL A   1      37.333  32.856  32.198  1.00  0.00     0.003 A 
ATOM     17  N   UNL A   1      37.199  31.479  33.910  1.00  0.00    -0.361 N 
ATOM     18  C   UNL A   1      37.777  32.660  33.503  1.00  0.00     0.046 A 
ATOM     19  C   UNL A   1      37.989  33.787  31.382  1.00  0.00     0.010 A 
ATOM     20  H   UNL A   1      37.266  31.079  34.807  1.00  0.00     0.166 HD
ATOM     21  C   UNL A   1      38.637  33.544  34.144  1.00  0.00     0.026 A 
ATOM     22  C   UNL A   1      39.019  34.540  31.951  1.00  0.00     0.001 A 
ATOM     23  C   UNL A   1      39.272  34.481  33.324  1.00  0.00     0.002 A 
ENDBRANCH  13  14
ENDBRANCH   8  13
ENDBRANCH   7   8
ENDBRANCH   6   7
ENDBRANCH   3   6
ENDBRANCH   1   2
BRANCH   1  24
ATOM     24  C   UNL A   1      34.602  34.588  28.260  1.00  0.00     0.042 C 
BRANCH  24  25
ATOM     25  C   UNL A   1      35.266  33.228  28.357  1.00  0.00     0.118 C 
BRANCH  25  26
ATOM     26  N   UNL A   1      34.391  32.167  27.886  1.00  0.00    -0.352 N 
ATOM     27  C   UNL A   1      34.686  30.854  27.628  1.00  0.00     0.251 C 
ATOM     28  H   UNL A   1      33.454  32.429  27.730  1.00  0.00     0.163 HD
ATOM     29  O   UNL A   1      33.875  30.168  26.989  1.00  0.00    -0.269 OA
BRANCH  27  30
ATOM     30  C   UNL A   1      35.956  30.253  28.092  1.00  0.00     0.039 A 
ATOM     31  C   UNL A   1      37.077  30.283  27.257  1.00  0.00     0.014 A 
ATOM     32  C   UNL A   1      36.041  29.630  29.340  1.00  0.00     0.014 A 
ATOM     33  C   UNL A   1      38.290  29.738  27.693  1.00  0.00     0.010 A 
ATOM     34  C   UNL A   1      37.269  29.176  29.810  1.00  0.00     0.010 A 
ATOM     35  C   UNL A   1      38.404  29.206  28.987  1.00  0.00    -0.014 A 
BRANCH  35  36
ATOM     36  C   UNL A   1      39.682  28.652  29.506  1.00  0.00     0.031 A 
ATOM     37  C   UNL A   1      40.407  29.364  30.619  1.00  0.00     0.074 A 
ATOM     38  C   UNL A   1      40.248  27.585  28.907  1.00  0.00     0.049 A 
ATOM     39  N   UNL A   1      41.597  29.139  31.109  1.00  0.00    -0.248 NA
ATOM     40  C   UNL A   1      39.711  30.504  31.242  1.00  0.00     0.031 C 
ATOM     41  C   UNL A   1      39.677  26.844  27.781  1.00  0.00     0.029 A 
ATOM     42  N   UNL A   1      41.452  26.964  29.135  1.00  0.00    -0.354 N 
ATOM     43  C   UNL A   1      41.815  30.135  32.055  1.00  0.00     0.074 A 
ATOM     44  C   UNL A   1      40.644  30.983  32.050  1.00  0.00     0.031 C 
ATOM     45  C   UNL A   1      40.530  25.875  27.412  1.00  0.00     0.029 A 
ATOM     46  C   UNL A   1      41.727  25.951  28.243  1.00  0.00     0.049 A 
ATOM     47  H   UNL A   1      42.060  27.218  29.866  1.00  0.00     0.167 HD
ATOM     48  C   UNL A   1      42.882  30.315  32.869  1.00  0.00     0.034 A 
ATOM     49  C   UNL A   1      42.828  25.188  28.096  1.00  0.00     0.034 A 
ATOM     50  C   UNL A   1      44.022  29.441  32.900  1.00  0.00     0.049 A 
ATOM     51  C   UNL A   1      43.989  25.390  29.032  1.00  0.00     0.074 A 
ATOM     52  C   UNL A   1      45.115  29.485  33.746  1.00  0.00     0.029 A 
ATOM     53  N   UNL A   1      44.219  28.367  32.044  1.00  0.00    -0.354 N 
ATOM     54  N   UNL A   1      44.120  26.256  30.008  1.00  0.00    -0.248 NA
ATOM     55  C   UNL A   1      45.141  24.489  28.872  1.00  0.00     0.031 C 
ATOM     56  C   UNL A   1      45.990  28.458  33.380  1.00  0.00     0.029 A 
ATOM     57  C   UNL A   1      45.419  27.747  32.337  1.00  0.00     0.049 A 
ATOM     58  H   UNL A   1      43.596  28.090  31.335  1.00  0.00     0.167 HD
ATOM     59  C   UNL A   1      45.343  25.973  30.607  1.00  0.00     0.074 A 
ATOM     60  C   UNL A   1      45.911  24.851  29.889  1.00  0.00     0.031 C 
ATOM     61  C   UNL A   1      45.941  26.589  31.657  1.00  0.00     0.034 A 
BRANCH  48  62
ATOM     62  C   UNL A   1      42.851  31.481  33.824  1.00  0.00     0.023 A 
ATOM     63  C   UNL A   1      43.364  32.731  33.421  1.00  0.00     0.012 A 
ATOM     64  C   UNL A   1      42.262  31.357  35.097  1.00  0.00     0.148 A 
ATOM     65  C   UNL A   1      43.328  33.827  34.281  1.00  0.00     0.002 A 
ATOM     66  C   UNL A   1      42.182  32.466  35.931  1.00  0.00     0.091 A 
ATOM     67  F   UNL A   1      41.794  30.158  35.472  1.00  0.00    -0.205 F 
ATOM     68  C   UNL A   1      42.728  33.697  35.531  1.00  0.00     0.022 A 
BRANCH  66  69
ATOM     69  S   UNL A   1      41.353  32.426  37.524  1.00  0.00     0.127 S 
ATOM     70  O   UNL A   1      40.030  31.922  37.156  1.00  0.00    -0.237 OA
ATOM     71  O   UNL A   1      42.179  31.478  38.275  1.00  0.00    -0.237 OA
ATOM     72  O   UNL A   1      41.384  33.790  38.029  1.00  0.00    -0.744 OA
ENDBRANCH  66  69
ENDBRANCH  48  62
BRANCH  49  73
ATOM     73  C   UNL A   1      42.866  24.125  27.050  1.00  0.00     0.023 A 
ATOM     74  C   UNL A   1      43.573  24.359  25.854  1.00  0.00     0.012 A 
ATOM     75  C   UNL A   1      42.229  22.884  27.240  1.00  0.00     0.148 A 
ATOM     76  C   UNL A   1      43.614  23.390  24.851  1.00  0.00     0.002 A 
ATOM     77  C   UNL A   1      42.321  21.902  26.259  1.00  0.00     0.091 A 
ATOM     78  F   UNL A   1      41.557  22.683  28.381  1.00  0.00    -0.205 F 
ATOM     79  C   UNL A   1      42.997  22.160  25.057  1.00  0.00     0.022 A 
BRANCH  77  80
ATOM     80  S   UNL A   1      41.666  20.245  26.486  1.00  0.00     0.127 S 
ATOM     81  O   UNL A   1      42.219  19.545  25.327  1.00  0.00    -0.237 OA
ATOM     82  O   UNL A   1      42.253  19.863  27.771  1.00  0.00    -0.237 OA
ATOM     83  O   UNL A   1      40.219  20.389  26.504  1.00  0.00    -0.744 OA
ENDBRANCH  77  80
ENDBRANCH  49  73
BRANCH  61  84
ATOM     84  C   UNL A   1      47.247  26.031  32.156  1.00  0.00     0.023 A 
ATOM     85  C   UNL A   1      48.468  26.529  31.662  1.00  0.00     0.012 A 
ATOM     86  C   UNL A   1      47.255  25.085  33.200  1.00  0.00     0.148 A 
ATOM     87  C   UNL A   1      49.678  26.075  32.186  1.00  0.00     0.002 A 
ATOM     88  C   UNL A   1      48.461  24.677  33.753  1.00  0.00     0.091 A 
ATOM     89  F   UNL A   1      46.080  24.612  33.642  1.00  0.00    -0.205 F 
ATOM     90  C   UNL A   1      49.675  25.162  33.240  1.00  0.00     0.022 A 
BRANCH  88  91
ATOM     91  S   UNL A   1      48.551  23.590  35.179  1.00  0.00     0.127 S 
ATOM     92  O   UNL A   1      48.819  22.296  34.551  1.00  0.00    -0.237 OA
ATOM     93  O   UNL A   1      49.677  24.151  35.925  1.00  0.00    -0.237 OA
ATOM     94  O   UNL A   1      47.263  23.697  35.852  1.00  0.00    -0.744 OA
ENDBRANCH  88  91
ENDBRANCH  61  84
ENDBRANCH  35  36
ENDBRANCH  27  30
ENDBRANCH  25  26
ENDBRANCH  24  25
ENDBRANCH   1  24
TORSDOF 18
ENDMDL
MODEL 2
REMARK VINA RESULT:     -10.4      4.213     10.351
REMARK SMILES [NH3+][C@H](CCC(=O)NCCCNC(=O)c1ccc(-c2c3nc(c(-c4cccc(S(=O)(=O)[O-])c4F)c4ccc([nH]4)c(-c4cccc(S(=O)(=O)[O-])c4F)c4nc(c(-c5cccc(S(=O)(=O)[O-])c5F)c5ccc2[nH]5)C=C4)C=C3)cc1)Cc1c[nH]c2ccccc12
REMARK SMILES IDX 8 1 7 2 5 3 6 4 4 6 3 7 2 8 1 9 77 13 78 14 79 15 86 16
REMARK SMILES IDX 80 17 81 18 85 19 82 21 84 22 83 23 9 24 10 25 11 26 12 27
REMARK SMILES IDX 13 29 14 30 15 31 76 32 16 33 75 34 17 35 18 36 19 37 69 38
REMARK SMILES IDX 20 39 74 40 68 41 70 42 21 43 73 44 67 45 66 46 22 48 54 49
REMARK SMILES IDX 34 50 53 51 35 52 38 53 52 54 71 55 36 56 37 57 51 59 72 60
REMARK SMILES IDX 39 61 23 62 24 63 32 64 25 65 27 66 33 67 26 68 28 69 29 70
REMARK SMILES IDX 30 71 31 72 55 73 56 74 64 75 57 76 59 77 65 78 58 79 60 80
REMARK SMILES IDX 61 81 62 82 63 83 40 84 41 85 49 86 42 87 44 88 50 89 43 90
REMARK SMILES IDX 45 91 46 92 47 93 48 94
REMARK H PARENT 7 5 1 10 1 11 1 12 80 20 11 28 70 47 38 58
REMARK Flexibility Score: inf
ROOT
ATOM      1  C   UNL A   1      31.710  30.597  25.893  1.00  0.00     0.117 C 
ENDROOT
BRANCH   1   2
ATOM      2  N   UNL A   1      33.087  30.125  25.965  1.00  0.00    -0.356 N 
ATOM      3  C   UNL A   1      33.599  28.977  26.496  1.00  0.00     0.220 C 
ATOM      4  O   UNL A   1      34.826  28.880  26.583  1.00  0.00    -0.275 OA
ATOM      5  H   UNL A   1      33.754  30.730  25.569  1.00  0.00     0.163 HD
BRANCH   3   6
ATOM      6  C   UNL A   1      32.688  27.841  26.942  1.00  0.00     0.106 C 
BRANCH   6   7
ATOM      7  C   UNL A   1      32.928  26.509  26.200  1.00  0.00     0.075 C 
BRANCH   7   8
ATOM      8  C   UNL A   1      32.198  26.424  24.837  1.00  0.00     0.185 C 
BRANCH   8   9
ATOM      9  N   UNL A   1      32.327  25.059  24.303  1.00  0.00    -0.355 N 
ATOM     10  H   UNL A   1      32.061  25.053  23.318  1.00  0.00     0.344 HD
ATOM     11  H   UNL A   1      31.715  24.431  24.824  1.00  0.00     0.344 HD
ATOM     12  H   UNL A   1      33.293  24.747  24.395  1.00  0.00     0.344 HD
ENDBRANCH   8   9
BRANCH   8  13
ATOM     13  C   UNL A   1      30.728  26.967  24.766  1.00  0.00     0.102 C 
BRANCH  13  14
ATOM     14  C   UNL A   1      30.449  27.633  23.439  1.00  0.00    -0.017 A 
ATOM     15  C   UNL A   1      31.334  28.005  22.442  1.00  0.00     0.087 A 
ATOM     16  C   UNL A   1      29.310  28.401  23.105  1.00  0.00     0.003 A 
ATOM     17  N   UNL A   1      31.161  29.375  22.419  1.00  0.00    -0.361 N 
ATOM     18  C   UNL A   1      29.860  29.639  22.784  1.00  0.00     0.046 A 
ATOM     19  C   UNL A   1      27.919  28.272  23.200  1.00  0.00     0.010 A 
ATOM     20  H   UNL A   1      31.845  30.043  22.184  1.00  0.00     0.166 HD
ATOM     21  C   UNL A   1      29.134  30.823  22.846  1.00  0.00     0.026 A 
ATOM     22  C   UNL A   1      27.145  29.425  23.044  1.00  0.00     0.001 A 
ATOM     23  C   UNL A   1      27.748  30.683  22.960  1.00  0.00     0.002 A 
ENDBRANCH  13  14
ENDBRANCH   8  13
ENDBRANCH   7   8
ENDBRANCH   6   7
ENDBRANCH   3   6
ENDBRANCH   1   2
BRANCH   1  24
ATOM     24  C   UNL A   1      31.503  31.853  26.741  1.00  0.00     0.042 C 
BRANCH  24  25
ATOM     25  C   UNL A   1      32.789  32.523  27.185  1.00  0.00     0.118 C 
BRANCH  25  26
ATOM     26  N   UNL A   1      32.571  33.912  27.554  1.00  0.00    -0.352 N 
ATOM     27  C   UNL A   1      33.124  34.629  28.584  1.00  0.00     0.251 C 
ATOM     28  H   UNL A   1      31.938  34.407  26.985  1.00  0.00     0.163 HD
ATOM     29  O   UNL A   1      32.623  35.719  28.895  1.00  0.00    -0.269 OA
BRANCH  27  30
ATOM     30  C   UNL A   1      34.296  34.116  29.327  1.00  0.00     0.039 A 
ATOM     31  C   UNL A   1      34.097  33.309  30.452  1.00  0.00     0.014 A 
ATOM     32  C   UNL A   1      35.595  34.453  28.939  1.00  0.00     0.014 A 
ATOM     33  C   UNL A   1      35.197  32.799  31.149  1.00  0.00     0.010 A 
ATOM     34  C   UNL A   1      36.686  33.869  29.574  1.00  0.00     0.010 A 
ATOM     35  C   UNL A   1      36.502  33.050  30.698  1.00  0.00    -0.014 A 
BRANCH  35  36
ATOM     36  C   UNL A   1      37.699  32.498  31.386  1.00  0.00     0.031 A 
ATOM     37  C   UNL A   1      38.461  31.358  30.759  1.00  0.00     0.074 A 
ATOM     38  C   UNL A   1      38.032  32.934  32.618  1.00  0.00     0.049 A 
ATOM     39  N   UNL A   1      39.429  30.636  31.258  1.00  0.00    -0.248 NA
ATOM     40  C   UNL A   1      38.055  30.957  29.400  1.00  0.00     0.031 C 
ATOM     41  C   UNL A   1      37.338  33.989  33.358  1.00  0.00     0.029 A 
ATOM     42  N   UNL A   1      39.014  32.515  33.482  1.00  0.00    -0.354 N 
ATOM     43  C   UNL A   1      39.711  29.665  30.303  1.00  0.00     0.074 A 
ATOM     44  C   UNL A   1      38.793  29.874  29.205  1.00  0.00     0.031 C 
ATOM     45  C   UNL A   1      37.910  34.131  34.565  1.00  0.00     0.029 A 
ATOM     46  C   UNL A   1      38.981  33.149  34.703  1.00  0.00     0.049 A 
ATOM     47  H   UNL A   1      39.679  31.827  33.249  1.00  0.00     0.167 HD
ATOM     48  C   UNL A   1      40.663  28.702  30.324  1.00  0.00     0.034 A 
ATOM     49  C   UNL A   1      39.713  32.946  35.817  1.00  0.00     0.034 A 
ATOM     50  C   UNL A   1      41.602  28.530  31.398  1.00  0.00     0.049 A 
ATOM     51  C   UNL A   1      40.783  31.887  35.805  1.00  0.00     0.074 A 
ATOM     52  C   UNL A   1      42.659  27.641  31.481  1.00  0.00     0.029 A 
ATOM     53  N   UNL A   1      41.596  29.257  32.579  1.00  0.00    -0.354 N 
ATOM     54  N   UNL A   1      41.121  31.066  34.841  1.00  0.00    -0.248 NA
ATOM     55  C   UNL A   1      41.597  31.748  37.023  1.00  0.00     0.031 C 
ATOM     56  C   UNL A   1      43.272  27.808  32.726  1.00  0.00     0.029 A 
ATOM     57  C   UNL A   1      42.625  28.832  33.399  1.00  0.00     0.049 A 
ATOM     58  H   UNL A   1      40.954  29.970  32.800  1.00  0.00     0.167 HD
ATOM     59  C   UNL A   1      42.214  30.350  35.315  1.00  0.00     0.074 A 
ATOM     60  C   UNL A   1      42.487  30.838  36.651  1.00  0.00     0.031 C 
ATOM     61  C   UNL A   1      42.926  29.373  34.699  1.00  0.00     0.034 A 
BRANCH  48  62
ATOM     62  C   UNL A   1      40.763  27.782  29.135  1.00  0.00     0.023 A 
ATOM     63  C   UNL A   1      39.922  26.654  29.048  1.00  0.00     0.012 A 
ATOM     64  C   UNL A   1      41.646  28.066  28.075  1.00  0.00     0.148 A 
ATOM     65  C   UNL A   1      39.985  25.801  27.947  1.00  0.00     0.002 A 
ATOM     66  C   UNL A   1      41.668  27.240  26.956  1.00  0.00     0.091 A 
ATOM     67  F   UNL A   1      42.451  29.133  28.180  1.00  0.00    -0.205 F 
ATOM     68  C   UNL A   1      40.850  26.100  26.898  1.00  0.00     0.022 A 
BRANCH  66  69
ATOM     69  S   UNL A   1      42.683  27.585  25.515  1.00  0.00     0.127 S 
ATOM     70  O   UNL A   1      42.450  26.394  24.698  1.00  0.00    -0.237 OA
ATOM     71  O   UNL A   1      42.071  28.809  24.995  1.00  0.00    -0.237 OA
ATOM     72  O   UNL A   1      44.042  27.748  26.007  1.00  0.00    -0.744 OA
ENDBRANCH  66  69
ENDBRANCH  48  62
BRANCH  49  73
ATOM     73  C   UNL A   1      39.493  33.798  37.021  1.00  0.00     0.023 A 
ATOM     74  C   UNL A   1      39.932  35.137  37.008  1.00  0.00     0.012 A 
ATOM     75  C   UNL A   1      38.837  33.302  38.164  1.00  0.00     0.148 A 
ATOM     76  C   UNL A   1      39.756  35.955  38.124  1.00  0.00     0.002 A 
ATOM     77  C   UNL A   1      38.614  34.139  39.252  1.00  0.00     0.091 A 
ATOM     78  F   UNL A   1      38.432  32.025  38.159  1.00  0.00    -0.205 F 
ATOM     79  C   UNL A   1      39.088  35.460  39.241  1.00  0.00     0.022 A 
BRANCH  77  80
ATOM     80  S   UNL A   1      37.657  33.629  40.684  1.00  0.00     0.127 S 
ATOM     81  O   UNL A   1      37.524  34.888  41.417  1.00  0.00    -0.237 OA
ATOM     82  O   UNL A   1      36.421  33.148  40.062  1.00  0.00    -0.237 OA
ATOM     83  O   UNL A   1      38.443  32.596  41.339  1.00  0.00    -0.744 OA
ENDBRANCH  77  80
ENDBRANCH  49  73
BRANCH  61  84
ATOM     84  C   UNL A   1      44.121  28.807  35.419  1.00  0.00     0.023 A 
ATOM     85  C   UNL A   1      45.389  29.399  35.268  1.00  0.00     0.012 A 
ATOM     86  C   UNL A   1      43.954  27.747  36.333  1.00  0.00     0.148 A 
ATOM     87  C   UNL A   1      46.479  28.928  36.000  1.00  0.00     0.002 A 
ATOM     88  C   UNL A   1      45.031  27.320  37.098  1.00  0.00     0.091 A 
ATOM     89  F   UNL A   1      42.740  27.187  36.447  1.00  0.00    -0.205 F 
ATOM     90  C   UNL A   1      46.297  27.902  36.924  1.00  0.00     0.022 A 
BRANCH  88  91
ATOM     91  S   UNL A   1      44.868  26.079  38.386  1.00  0.00     0.127 S 
ATOM     92  O   UNL A   1      44.138  26.814  39.417  1.00  0.00    -0.237 OA
ATOM     93  O   UNL A   1      44.092  25.037  37.713  1.00  0.00    -0.237 OA
ATOM     94  O   UNL A   1      46.224  25.688  38.746  1.00  0.00    -0.744 OA
ENDBRANCH  88  91
ENDBRANCH  61  84
ENDBRANCH  35  36
ENDBRANCH  27  30
ENDBRANCH  25  26
ENDBRANCH  24  25
ENDBRANCH   1  24
TORSDOF 18
ENDMDL
MODEL 3
REMARK VINA RESULT:     -10.2      3.898     10.102
REMARK SMILES [NH3+][C@H](CCC(=O)NCCCNC(=O)c1ccc(-c2c3nc(c(-c4cccc(S(=O)(=O)[O-])c4F)c4ccc([nH]4)c(-c4cccc(S(=O)(=O)[O-])c4F)c4nc(c(-c5cccc(S(=O)(=O)[O-])c5F)c5ccc2[nH]5)C=C4)C=C3)cc1)Cc1c[nH]c2ccccc12
REMARK SMILES IDX 8 1 7 2 5 3 6 4 4 6 3 7 2 8 1 9 77 13 78 14 79 15 86 16
REMARK SMILES IDX 80 17 81 18 85 19 82 21 84 22 83 23 9 24 10 25 11 26 12 27
REMARK SMILES IDX 13 29 14 30 15 31 76 32 16 33 75 34 17 35 18 36 19 37 69 38
REMARK SMILES IDX 20 39 74 40 68 41 70 42 21 43 73 44 67 45 66 46 22 48 54 49
REMARK SMILES IDX 34 50 53 51 35 52 38 53 52 54 71 55 36 56 37 57 51 59 72 60
REMARK SMILES IDX 39 61 23 62 24 63 32 64 25 65 27 66 33 67 26 68 28 69 29 70
REMARK SMILES IDX 30 71 31 72 55 73 56 74 64 75 57 76 59 77 65 78 58 79 60 80
REMARK SMILES IDX 61 81 62 82 63 83 40 84 41 85 49 86 42 87 44 88 50 89 43 90
REMARK SMILES IDX 45 91 46 92 47 93 48 94
REMARK H PARENT 7 5 1 10 1 11 1 12 80 20 11 28 70 47 38 58
REMARK Flexibility Score: inf
ROOT
ATOM      1  C   UNL A   1      33.831  28.589  22.820  1.00  0.00     0.117 C 
ENDROOT
BRANCH   1   2
ATOM      2  N   UNL A   1      33.417  27.567  21.868  1.00  0.00    -0.356 N 
ATOM      3  C   UNL A   1      33.554  26.210  21.915  1.00  0.00     0.220 C 
ATOM      4  O   UNL A   1      33.268  25.567  20.901  1.00  0.00    -0.275 OA
ATOM      5  H   UNL A   1      32.967  27.909  21.062  1.00  0.00     0.163 HD
BRANCH   3   6
ATOM      6  C   UNL A   1      34.021  25.509  23.184  1.00  0.00     0.106 C 
BRANCH   6   7
ATOM      7  C   UNL A   1      33.966  23.970  23.112  1.00  0.00     0.075 C 
BRANCH   7   8
ATOM      8  C   UNL A   1      34.949  23.273  24.086  1.00  0.00     0.185 C 
BRANCH   8   9
ATOM      9  N   UNL A   1      36.184  22.929  23.364  1.00  0.00    -0.355 N 
ATOM     10  H   UNL A   1      36.954  22.849  24.027  1.00  0.00     0.344 HD
ATOM     11  H   UNL A   1      36.395  23.660  22.684  1.00  0.00     0.344 HD
ATOM     12  H   UNL A   1      36.059  22.040  22.880  1.00  0.00     0.344 HD
ENDBRANCH   8   9
BRANCH   8  13
ATOM     13  C   UNL A   1      35.225  23.972  25.462  1.00  0.00     0.102 C 
BRANCH  13  14
ATOM     14  C   UNL A   1      34.088  23.750  26.432  1.00  0.00    -0.017 A 
ATOM     15  C   UNL A   1      33.793  22.635  27.196  1.00  0.00     0.087 A 
ATOM     16  C   UNL A   1      32.856  24.443  26.457  1.00  0.00     0.003 A 
ATOM     17  N   UNL A   1      32.560  22.274  26.690  1.00  0.00    -0.361 N 
ATOM     18  C   UNL A   1      31.928  23.422  26.268  1.00  0.00     0.046 A 
ATOM     19  C   UNL A   1      32.424  25.775  26.437  1.00  0.00     0.010 A 
ATOM     20  H   UNL A   1      32.198  21.360  26.639  1.00  0.00     0.166 HD
ATOM     21  C   UNL A   1      30.653  23.649  25.761  1.00  0.00     0.026 A 
ATOM     22  C   UNL A   1      31.079  26.020  26.145  1.00  0.00     0.001 A 
ATOM     23  C   UNL A   1      30.239  24.984  25.728  1.00  0.00     0.002 A 
ENDBRANCH  13  14
ENDBRANCH   8  13
ENDBRANCH   7   8
ENDBRANCH   6   7
ENDBRANCH   3   6
ENDBRANCH   1   2
BRANCH   1  24
ATOM     24  C   UNL A   1      32.720  28.907  23.821  1.00  0.00     0.042 C 
BRANCH  24  25
ATOM     25  C   UNL A   1      33.212  29.206  25.224  1.00  0.00     0.118 C 
BRANCH  25  26
ATOM     26  N   UNL A   1      32.660  30.451  25.733  1.00  0.00    -0.352 N 
ATOM     27  C   UNL A   1      33.044  31.182  26.827  1.00  0.00     0.251 C 
ATOM     28  H   UNL A   1      31.905  30.820  25.221  1.00  0.00     0.163 HD
ATOM     29  O   UNL A   1      32.293  32.072  27.250  1.00  0.00    -0.269 OA
BRANCH  27  30
ATOM     30  C   UNL A   1      34.331  30.917  27.508  1.00  0.00     0.039 A 
ATOM     31  C   UNL A   1      35.268  31.947  27.632  1.00  0.00     0.014 A 
ATOM     32  C   UNL A   1      34.633  29.645  28.002  1.00  0.00     0.014 A 
ATOM     33  C   UNL A   1      36.478  31.717  28.295  1.00  0.00     0.010 A 
ATOM     34  C   UNL A   1      35.792  29.443  28.744  1.00  0.00     0.010 A 
ATOM     35  C   UNL A   1      36.738  30.469  28.883  1.00  0.00    -0.014 A 
BRANCH  35  36
ATOM     36  C   UNL A   1      37.994  30.191  29.629  1.00  0.00     0.031 A 
ATOM     37  C   UNL A   1      38.999  29.220  29.062  1.00  0.00     0.074 A 
ATOM     38  C   UNL A   1      38.179  30.712  30.858  1.00  0.00     0.049 A 
ATOM     39  N   UNL A   1      40.074  28.724  29.616  1.00  0.00    -0.248 NA
ATOM     40  C   UNL A   1      38.740  28.716  27.702  1.00  0.00     0.031 C 
ATOM     41  C   UNL A   1      37.253  31.616  31.543  1.00  0.00     0.029 A 
ATOM     42  N   UNL A   1      39.191  30.523  31.768  1.00  0.00    -0.354 N 
ATOM     43  C   UNL A   1      40.588  27.813  28.700  1.00  0.00     0.074 A 
ATOM     44  C   UNL A   1      39.692  27.805  27.565  1.00  0.00     0.031 C 
ATOM     45  C   UNL A   1      37.735  31.898  32.764  1.00  0.00     0.029 A 
ATOM     46  C   UNL A   1      38.978  31.162  32.969  1.00  0.00     0.049 A 
ATOM     47  H   UNL A   1      39.992  29.982  31.579  1.00  0.00     0.167 HD
ATOM     48  C   UNL A   1      41.716  27.068  28.783  1.00  0.00     0.034 A 
ATOM     49  C   UNL A   1      39.690  31.137  34.113  1.00  0.00     0.034 A 
ATOM     50  C   UNL A   1      42.626  27.117  29.894  1.00  0.00     0.049 A 
ATOM     51  C   UNL A   1      40.955  30.323  34.171  1.00  0.00     0.074 A 
ATOM     52  C   UNL A   1      43.839  26.467  30.040  1.00  0.00     0.029 A 
ATOM     53  N   UNL A   1      42.422  27.851  31.053  1.00  0.00    -0.354 N 
ATOM     54  N   UNL A   1      41.493  29.570  33.243  1.00  0.00    -0.248 NA
ATOM     55  C   UNL A   1      41.730  30.381  35.420  1.00  0.00     0.031 C 
ATOM     56  C   UNL A   1      44.353  26.783  31.301  1.00  0.00     0.029 A 
ATOM     57  C   UNL A   1      43.483  27.666  31.921  1.00  0.00     0.049 A 
ATOM     58  H   UNL A   1      41.639  28.420  31.230  1.00  0.00     0.167 HD
ATOM     59  C   UNL A   1      42.690  29.105  33.776  1.00  0.00     0.074 A 
ATOM     60  C   UNL A   1      42.802  29.666  35.107  1.00  0.00     0.031 C 
ATOM     61  C   UNL A   1      43.612  28.284  33.215  1.00  0.00     0.034 A 
BRANCH  48  62
ATOM     62  C   UNL A   1      42.052  26.164  27.625  1.00  0.00     0.023 A 
ATOM     63  C   UNL A   1      42.796  26.665  26.537  1.00  0.00     0.012 A 
ATOM     64  C   UNL A   1      41.684  24.804  27.640  1.00  0.00     0.148 A 
ATOM     65  C   UNL A   1      43.133  25.841  25.465  1.00  0.00     0.002 A 
ATOM     66  C   UNL A   1      42.068  23.975  26.593  1.00  0.00     0.091 A 
ATOM     67  F   UNL A   1      40.963  24.347  28.674  1.00  0.00    -0.205 F 
ATOM     68  C   UNL A   1      42.779  24.494  25.498  1.00  0.00     0.022 A 
BRANCH  66  69
ATOM     69  S   UNL A   1      41.736  22.210  26.580  1.00  0.00     0.127 S 
ATOM     70  O   UNL A   1      40.278  22.184  26.470  1.00  0.00    -0.237 OA
ATOM     71  O   UNL A   1      42.446  21.774  25.376  1.00  0.00    -0.237 OA
ATOM     72  O   UNL A   1      42.278  21.689  27.826  1.00  0.00    -0.744 OA
ENDBRANCH  66  69
ENDBRANCH  48  62
BRANCH  49  73
ATOM     73  C   UNL A   1      39.251  31.951  35.284  1.00  0.00     0.023 A 
ATOM     74  C   UNL A   1      38.368  31.385  36.225  1.00  0.00     0.012 A 
ATOM     75  C   UNL A   1      39.716  33.265  35.482  1.00  0.00     0.148 A 
ATOM     76  C   UNL A   1      37.928  32.126  37.322  1.00  0.00     0.002 A 
ATOM     77  C   UNL A   1      39.316  33.978  36.607  1.00  0.00     0.091 A 
ATOM     78  F   UNL A   1      40.550  33.788  34.572  1.00  0.00    -0.205 F 
ATOM     79  C   UNL A   1      38.409  33.417  37.518  1.00  0.00     0.022 A 
BRANCH  77  80
ATOM     80  S   UNL A   1      39.978  35.599  37.010  1.00  0.00     0.127 S 
ATOM     81  O   UNL A   1      39.278  35.905  38.257  1.00  0.00    -0.237 OA
ATOM     82  O   UNL A   1      41.405  35.311  37.162  1.00  0.00    -0.237 OA
ATOM     83  O   UNL A   1      39.653  36.453  35.878  1.00  0.00    -0.744 OA
ENDBRANCH  77  80
ENDBRANCH  49  73
BRANCH  61  84
ATOM     84  C   UNL A   1      44.868  27.992  33.992  1.00  0.00     0.023 A 
ATOM     85  C   UNL A   1      45.959  28.879  33.941  1.00  0.00     0.012 A 
ATOM     86  C   UNL A   1      44.915  26.883  34.861  1.00  0.00     0.148 A 
ATOM     87  C   UNL A   1      47.089  28.655  34.728  1.00  0.00     0.002 A 
ATOM     88  C   UNL A   1      46.020  26.696  35.681  1.00  0.00     0.091 A 
ATOM     89  F   UNL A   1      43.870  26.042  34.881  1.00  0.00    -0.205 F 
ATOM     90  C   UNL A   1      47.113  27.574  35.607  1.00  0.00     0.022 A 
BRANCH  88  91
ATOM     91  S   UNL A   1      46.094  25.396  36.918  1.00  0.00     0.127 S 
ATOM     92  O   UNL A   1      47.396  25.647  37.535  1.00  0.00    -0.237 OA
ATOM     93  O   UNL A   1      44.945  25.711  37.766  1.00  0.00    -0.237 OA
ATOM     94  O   UNL A   1      45.985  24.138  36.191  1.00  0.00    -0.744 OA
ENDBRANCH  88  91
ENDBRANCH  61  84
ENDBRANCH  35  36
ENDBRANCH  27  30
ENDBRANCH  25  26
ENDBRANCH  24  25
ENDBRANCH   1  24
TORSDOF 18
ENDMDL
