MODEL 1
REMARK VINA RESULT:     -12.5      0.000      0.000
REMARK SMILES O=C(NCCCNC(=O)[C@H]1CCCCN1C(=O)c1cc([N+](=O)[O-])c[nH]c1=O)c1ccc(-c2c3nc(c(-c4cccc(S(=O)(=O)[O-])c4F)c4ccc([nH]4)c(-c4cccc(S(=O)(=O)[O-])c4F)c4nc(c(-c5cccc(S(=O)(=O)[O-])c5F)c5ccc2[nH]5)C=C4)C=C3)cc1
REMARK SMILES IDX 5 1 4 2 3 3 1 4 2 5 28 7 29 8 90 9 30 10 89 11 31 12 32 13
REMARK SMILES IDX 33 14 83 15 34 16 88 17 82 18 84 19 35 20 87 21 81 22 80 23
REMARK SMILES IDX 36 25 68 26 48 27 67 28 49 29 52 30 66 31 85 32 50 33 51 34
REMARK SMILES IDX 65 36 86 37 53 38 37 39 38 40 46 41 39 42 41 43 47 44 40 45
REMARK SMILES IDX 42 46 43 47 44 48 45 49 69 50 70 51 78 52 71 53 73 54 79 55
REMARK SMILES IDX 72 56 74 57 75 58 76 59 77 60 54 61 55 62 63 63 56 64 58 65
REMARK SMILES IDX 64 66 57 67 59 68 60 69 61 70 62 71 6 72 7 73 8 74 9 76
REMARK SMILES IDX 10 77 11 78 15 79 12 80 14 81 13 82 16 83 17 84 18 85 19 86
REMARK SMILES IDX 26 87 20 88 25 89 27 90 24 91 21 93 22 94 23 95
REMARK H PARENT 3 6 84 24 52 35 7 75 25 92
REMARK Flexibility Score: inf
ROOT
ATOM      1  C   UNL A   1      32.978  28.656  23.979  1.00  0.00     0.042 C 
ENDROOT
BRANCH   1   2
ATOM      2  C   UNL A   1      33.132  28.915  25.469  1.00  0.00     0.118 C 
BRANCH   2   3
ATOM      3  N   UNL A   1      32.652  30.244  25.841  1.00  0.00    -0.352 N 
ATOM      4  O   UNL A   1      32.355  32.064  27.124  1.00  0.00    -0.269 OA
ATOM      5  C   UNL A   1      33.077  31.119  26.818  1.00  0.00     0.251 C 
ATOM      6  H   UNL A   1      31.896  30.570  25.304  1.00  0.00     0.163 HD
BRANCH   5   7
ATOM      7  C   UNL A   1      34.371  30.913  27.510  1.00  0.00     0.039 A 
ATOM      8  C   UNL A   1      34.719  29.655  27.988  1.00  0.00     0.014 A 
ATOM      9  C   UNL A   1      35.274  31.973  27.656  1.00  0.00     0.014 A 
ATOM     10  C   UNL A   1      35.827  29.505  28.805  1.00  0.00     0.010 A 
ATOM     11  C   UNL A   1      36.483  31.777  28.340  1.00  0.00     0.010 A 
ATOM     12  C   UNL A   1      36.754  30.548  28.957  1.00  0.00    -0.014 A 
BRANCH  12  13
ATOM     13  C   UNL A   1      38.018  30.246  29.687  1.00  0.00     0.031 A 
ATOM     14  C   UNL A   1      38.249  30.688  31.105  1.00  0.00     0.074 A 
ATOM     15  C   UNL A   1      38.934  29.476  29.063  1.00  0.00     0.049 A 
ATOM     16  N   UNL A   1      39.246  30.390  31.899  1.00  0.00    -0.248 NA
ATOM     17  C   UNL A   1      37.254  31.588  31.712  1.00  0.00     0.031 C 
ATOM     18  C   UNL A   1      38.852  29.043  27.663  1.00  0.00     0.029 A 
ATOM     19  N   UNL A   1      40.081  28.878  29.520  1.00  0.00    -0.354 N 
ATOM     20  C   UNL A   1      39.026  31.094  33.076  1.00  0.00     0.074 A 
ATOM     21  C   UNL A   1      37.800  31.842  32.894  1.00  0.00     0.031 C 
ATOM     22  C   UNL A   1      39.840  28.178  27.406  1.00  0.00     0.029 A 
ATOM     23  C   UNL A   1      40.679  28.057  28.591  1.00  0.00     0.049 A 
ATOM     24  H   UNL A   1      40.440  29.021  30.426  1.00  0.00     0.167 HD
ATOM     25  C   UNL A   1      39.770  31.103  34.209  1.00  0.00     0.034 A 
ATOM     26  C   UNL A   1      41.784  27.290  28.673  1.00  0.00     0.034 A 
ATOM     27  C   UNL A   1      40.964  30.321  34.399  1.00  0.00     0.049 A 
ATOM     28  C   UNL A   1      42.536  27.257  29.969  1.00  0.00     0.074 A 
ATOM     29  C   UNL A   1      41.774  30.244  35.519  1.00  0.00     0.029 A 
ATOM     30  N   UNL A   1      41.516  29.471  33.451  1.00  0.00    -0.354 N 
ATOM     31  N   UNL A   1      42.256  27.862  31.097  1.00  0.00    -0.248 NA
ATOM     32  C   UNL A   1      43.748  26.429  30.010  1.00  0.00     0.031 C 
ATOM     33  C   UNL A   1      42.816  29.350  35.247  1.00  0.00     0.029 A 
ATOM     34  C   UNL A   1      42.650  28.862  33.962  1.00  0.00     0.049 A 
ATOM     35  H   UNL A   1      41.154  29.323  32.548  1.00  0.00     0.167 HD
ATOM     36  C   UNL A   1      43.259  27.495  31.982  1.00  0.00     0.074 A 
ATOM     37  C   UNL A   1      44.121  26.568  31.275  1.00  0.00     0.031 C 
ATOM     38  C   UNL A   1      43.473  27.916  33.253  1.00  0.00     0.034 A 
BRANCH  25  39
ATOM     39  C   UNL A   1      39.292  31.951  35.361  1.00  0.00     0.023 A 
ATOM     40  C   UNL A   1      38.425  31.388  36.319  1.00  0.00     0.012 A 
ATOM     41  C   UNL A   1      39.760  33.268  35.540  1.00  0.00     0.148 A 
ATOM     42  C   UNL A   1      38.017  32.127  37.429  1.00  0.00     0.002 A 
ATOM     43  C   UNL A   1      39.376  33.986  36.668  1.00  0.00     0.091 A 
ATOM     44  F   UNL A   1      40.566  33.792  34.608  1.00  0.00    -0.205 F 
ATOM     45  C   UNL A   1      38.500  33.421  37.609  1.00  0.00     0.022 A 
BRANCH  43  46
ATOM     46  S   UNL A   1      39.997  35.634  37.028  1.00  0.00     0.127 S 
ATOM     47  O   UNL A   1      39.282  35.955  38.263  1.00  0.00    -0.237 OA
ATOM     48  O   UNL A   1      41.430  35.394  37.199  1.00  0.00    -0.237 OA
ATOM     49  O   UNL A   1      39.653  36.453  35.875  1.00  0.00    -0.744 OA
ENDBRANCH  43  46
ENDBRANCH  25  39
BRANCH  26  50
ATOM     50  C   UNL A   1      42.207  26.476  27.499  1.00  0.00     0.023 A 
ATOM     51  C   UNL A   1      43.089  27.022  26.547  1.00  0.00     0.012 A 
ATOM     52  C   UNL A   1      41.795  25.137  27.359  1.00  0.00     0.148 A 
ATOM     53  C   UNL A   1      43.538  26.254  25.471  1.00  0.00     0.002 A 
ATOM     54  C   UNL A   1      42.304  24.356  26.328  1.00  0.00     0.091 A 
ATOM     55  F   UNL A   1      40.932  24.635  28.255  1.00  0.00    -0.205 F 
ATOM     56  C   UNL A   1      43.161  24.917  25.371  1.00  0.00     0.022 A 
BRANCH  54  57
ATOM     57  S   UNL A   1      41.998  22.587  26.267  1.00  0.00     0.127 S 
ATOM     58  O   UNL A   1      40.540  22.532  26.241  1.00  0.00    -0.237 OA
ATOM     59  O   UNL A   1      42.653  22.197  25.017  1.00  0.00    -0.237 OA
ATOM     60  O   UNL A   1      42.646  22.057  27.461  1.00  0.00    -0.744 OA
ENDBRANCH  54  57
ENDBRANCH  26  50
BRANCH  38  61
ATOM     61  C   UNL A   1      44.697  27.384  33.945  1.00  0.00     0.023 A 
ATOM     62  C   UNL A   1      45.908  28.098  33.848  1.00  0.00     0.012 A 
ATOM     63  C   UNL A   1      44.645  26.205  34.712  1.00  0.00     0.148 A 
ATOM     64  C   UNL A   1      47.060  27.626  34.472  1.00  0.00     0.002 A 
ATOM     65  C   UNL A   1      45.789  25.764  35.367  1.00  0.00     0.091 A 
ATOM     66  F   UNL A   1      43.491  25.528  34.772  1.00  0.00    -0.205 F 
ATOM     67  C   UNL A   1      46.999  26.465  35.239  1.00  0.00     0.022 A 
BRANCH  65  68
ATOM     68  S   UNL A   1      45.773  24.321  36.436  1.00  0.00     0.127 S 
ATOM     69  O   UNL A   1      44.735  24.677  37.402  1.00  0.00    -0.237 OA
ATOM     70  O   UNL A   1      45.404  23.247  35.513  1.00  0.00    -0.237 OA
ATOM     71  O   UNL A   1      47.124  24.214  36.969  1.00  0.00    -0.744 OA
ENDBRANCH  65  68
ENDBRANCH  38  61
ENDBRANCH  12  13
ENDBRANCH   5   7
ENDBRANCH   2   3
ENDBRANCH   1   2
BRANCH   1  72
ATOM     72  C   UNL A   1      31.691  27.910  23.686  1.00  0.00     0.117 C 
BRANCH  72  73
ATOM     73  N   UNL A   1      31.053  27.448  24.896  1.00  0.00    -0.354 N 
ATOM     74  C   UNL A   1      30.822  26.207  25.392  1.00  0.00     0.242 C 
ATOM     75  H   UNL A   1      30.722  28.174  25.473  1.00  0.00     0.163 HD
ATOM     76  O   UNL A   1      30.271  26.186  26.501  1.00  0.00    -0.273 OA
BRANCH  74  77
ATOM     77  C   UNL A   1      31.342  24.887  24.759  1.00  0.00     0.174 C 
ATOM     78  C   UNL A   1      31.365  24.647  23.241  1.00  0.00     0.035 C 
ATOM     79  N   UNL A   1      32.621  24.502  25.363  1.00  0.00    -0.326 N 
ATOM     80  C   UNL A   1      32.722  24.778  22.512  1.00  0.00     0.004 C 
ATOM     81  C   UNL A   1      33.780  25.171  24.792  1.00  0.00     0.120 C 
ATOM     82  C   UNL A   1      33.976  24.651  23.378  1.00  0.00     0.022 C 
BRANCH  79  83
ATOM     83  C   UNL A   1      32.649  23.447  26.260  1.00  0.00     0.260 C 
ATOM     84  O   UNL A   1      31.997  23.411  27.302  1.00  0.00    -0.269 OA
BRANCH  83  85
ATOM     85  C   UNL A   1      33.361  22.222  25.845  1.00  0.00     0.111 A 
ATOM     86  C   UNL A   1      32.615  21.246  25.290  1.00  0.00     0.107 A 
ATOM     87  C   UNL A   1      34.826  22.032  26.029  1.00  0.00     0.261 A 
ATOM     88  C   UNL A   1      33.237  20.015  24.847  1.00  0.00     0.286 A 
ATOM     89  N   UNL A   1      35.327  20.824  25.580  1.00  0.00    -0.322 N 
ATOM     90  O   UNL A   1      35.560  22.882  26.513  1.00  0.00    -0.269 OA
ATOM     91  C   UNL A   1      34.560  19.836  25.000  1.00  0.00     0.172 A 
ATOM     92  H   UNL A   1      36.292  20.659  25.680  1.00  0.00     0.169 HD
BRANCH  88  93
ATOM     93  N   UNL A   1      32.463  18.949  24.211  1.00  0.00     0.064 N 
ATOM     94  O   UNL A   1      32.157  19.078  23.018  1.00  0.00    -0.258 OA
ATOM     95  O   UNL A   1      32.152  17.979  24.915  1.00  0.00    -0.258 OA
ENDBRANCH  88  93
ENDBRANCH  83  85
ENDBRANCH  79  83
ENDBRANCH  74  77
ENDBRANCH  72  73
ENDBRANCH   1  72
TORSDOF 16
ENDMDL
MODEL 2
REMARK VINA RESULT:     -12.4      4.738      9.980
REMARK SMILES O=C(NCCCNC(=O)[C@H]1CCCCN1C(=O)c1cc([N+](=O)[O-])c[nH]c1=O)c1ccc(-c2c3nc(c(-c4cccc(S(=O)(=O)[O-])c4F)c4ccc([nH]4)c(-c4cccc(S(=O)(=O)[O-])c4F)c4nc(c(-c5cccc(S(=O)(=O)[O-])c5F)c5ccc2[nH]5)C=C4)C=C3)cc1
REMARK SMILES IDX 5 1 4 2 3 3 1 4 2 5 28 7 29 8 90 9 30 10 89 11 31 12 32 13
REMARK SMILES IDX 33 14 83 15 34 16 88 17 82 18 84 19 35 20 87 21 81 22 80 23
REMARK SMILES IDX 36 25 68 26 48 27 67 28 49 29 52 30 66 31 85 32 50 33 51 34
REMARK SMILES IDX 65 36 86 37 53 38 37 39 38 40 46 41 39 42 41 43 47 44 40 45
REMARK SMILES IDX 42 46 43 47 44 48 45 49 69 50 70 51 78 52 71 53 73 54 79 55
REMARK SMILES IDX 72 56 74 57 75 58 76 59 77 60 54 61 55 62 63 63 56 64 58 65
REMARK SMILES IDX 64 66 57 67 59 68 60 69 61 70 62 71 6 72 7 73 8 74 9 76
REMARK SMILES IDX 10 77 11 78 15 79 12 80 14 81 13 82 16 83 17 84 18 85 19 86
REMARK SMILES IDX 26 87 20 88 25 89 27 90 24 91 21 93 22 94 23 95
REMARK H PARENT 3 6 84 24 52 35 7 75 25 92
REMARK Flexibility Score: inf
ROOT
ATOM      1  C   UNL A   1      34.980  22.112  26.401  1.00  0.00     0.042 C 
ENDROOT
BRANCH   1   2
ATOM      2  C   UNL A   1      36.114  22.206  25.394  1.00  0.00     0.118 C 
BRANCH   2   3
ATOM      3  N   UNL A   1      36.998  21.044  25.461  1.00  0.00    -0.352 N 
ATOM      4  O   UNL A   1      38.929  19.897  25.453  1.00  0.00    -0.269 OA
ATOM      5  C   UNL A   1      38.351  20.949  25.711  1.00  0.00     0.251 C 
ATOM      6  H   UNL A   1      36.552  20.182  25.301  1.00  0.00     0.163 HD
BRANCH   5   7
ATOM      7  C   UNL A   1      39.105  22.103  26.254  1.00  0.00     0.039 A 
ATOM      8  C   UNL A   1      38.722  23.402  25.941  1.00  0.00     0.014 A 
ATOM      9  C   UNL A   1      40.186  21.899  27.121  1.00  0.00     0.014 A 
ATOM     10  C   UNL A   1      39.539  24.467  26.282  1.00  0.00     0.010 A 
ATOM     11  C   UNL A   1      40.914  22.996  27.606  1.00  0.00     0.010 A 
ATOM     12  C   UNL A   1      40.621  24.292  27.159  1.00  0.00    -0.014 A 
BRANCH  12  13
ATOM     13  C   UNL A   1      41.329  25.513  27.635  1.00  0.00     0.031 A 
ATOM     14  C   UNL A   1      42.737  25.836  27.220  1.00  0.00     0.074 A 
ATOM     15  C   UNL A   1      40.633  26.388  28.392  1.00  0.00     0.049 A 
ATOM     16  N   UNL A   1      43.429  26.921  27.458  1.00  0.00    -0.248 NA
ATOM     17  C   UNL A   1      43.477  24.815  26.459  1.00  0.00     0.031 C 
ATOM     18  C   UNL A   1      39.282  26.152  28.914  1.00  0.00     0.029 A 
ATOM     19  N   UNL A   1      40.927  27.658  28.815  1.00  0.00    -0.354 N 
ATOM     20  C   UNL A   1      44.691  26.702  26.919  1.00  0.00     0.074 A 
ATOM     21  C   UNL A   1      44.675  25.374  26.343  1.00  0.00     0.031 C 
ATOM     22  C   UNL A   1      38.830  27.269  29.498  1.00  0.00     0.029 A 
ATOM     23  C   UNL A   1      39.885  28.273  29.471  1.00  0.00     0.049 A 
ATOM     24  H   UNL A   1      41.800  28.089  28.663  1.00  0.00     0.167 HD
ATOM     25  C   UNL A   1      45.758  27.537  26.894  1.00  0.00     0.034 A 
ATOM     26  C   UNL A   1      39.781  29.508  30.000  1.00  0.00     0.034 A 
ATOM     27  C   UNL A   1      45.751  28.874  27.429  1.00  0.00     0.049 A 
ATOM     28  C   UNL A   1      40.951  30.437  29.881  1.00  0.00     0.074 A 
ATOM     29  C   UNL A   1      46.774  29.806  27.430  1.00  0.00     0.029 A 
ATOM     30  N   UNL A   1      44.665  29.476  28.049  1.00  0.00    -0.354 N 
ATOM     31  N   UNL A   1      42.102  30.237  29.285  1.00  0.00    -0.248 NA
ATOM     32  C   UNL A   1      40.808  31.765  30.491  1.00  0.00     0.031 C 
ATOM     33  C   UNL A   1      46.308  30.970  28.053  1.00  0.00     0.029 A 
ATOM     34  C   UNL A   1      44.991  30.767  28.430  1.00  0.00     0.049 A 
ATOM     35  H   UNL A   1      43.791  29.048  28.197  1.00  0.00     0.167 HD
ATOM     36  C   UNL A   1      42.824  31.408  29.455  1.00  0.00     0.074 A 
ATOM     37  C   UNL A   1      41.958  32.335  30.158  1.00  0.00     0.031 C 
ATOM     38  C   UNL A   1      44.102  31.683  29.098  1.00  0.00     0.034 A 
BRANCH  25  39
ATOM     39  C   UNL A   1      47.017  27.053  26.221  1.00  0.00     0.023 A 
ATOM     40  C   UNL A   1      47.219  27.328  24.854  1.00  0.00     0.012 A 
ATOM     41  C   UNL A   1      48.031  26.404  26.954  1.00  0.00     0.148 A 
ATOM     42  C   UNL A   1      48.403  26.948  24.220  1.00  0.00     0.002 A 
ATOM     43  C   UNL A   1      49.222  26.061  26.323  1.00  0.00     0.091 A 
ATOM     44  F   UNL A   1      47.812  26.133  28.247  1.00  0.00    -0.205 F 
ATOM     45  C   UNL A   1      49.407  26.325  24.956  1.00  0.00     0.022 A 
BRANCH  43  46
ATOM     46  S   UNL A   1      50.606  25.317  27.198  1.00  0.00     0.127 S 
ATOM     47  O   UNL A   1      51.003  26.401  28.096  1.00  0.00    -0.237 OA
ATOM     48  O   UNL A   1      49.974  24.176  27.862  1.00  0.00    -0.237 OA
ATOM     49  O   UNL A   1      51.581  24.961  26.178  1.00  0.00    -0.744 OA
ENDBRANCH  43  46
ENDBRANCH  25  39
BRANCH  26  50
ATOM     50  C   UNL A   1      38.510  29.927  30.655  1.00  0.00     0.023 A 
ATOM     51  C   UNL A   1      38.303  29.663  32.022  1.00  0.00     0.012 A 
ATOM     52  C   UNL A   1      37.533  30.651  29.944  1.00  0.00     0.148 A 
ATOM     53  C   UNL A   1      37.141  30.098  32.662  1.00  0.00     0.002 A 
ATOM     54  C   UNL A   1      36.415  31.145  30.604  1.00  0.00     0.091 A 
ATOM     55  F   UNL A   1      37.728  30.873  28.635  1.00  0.00    -0.205 F 
ATOM     56  C   UNL A   1      36.206  30.854  31.959  1.00  0.00     0.022 A 
BRANCH  54  57
ATOM     57  S   UNL A   1      35.284  32.279  29.790  1.00  0.00     0.127 S 
ATOM     58  O   UNL A   1      34.341  32.586  30.860  1.00  0.00    -0.237 OA
ATOM     59  O   UNL A   1      36.166  33.383  29.407  1.00  0.00    -0.237 OA
ATOM     60  O   UNL A   1      34.756  31.527  28.658  1.00  0.00    -0.744 OA
ENDBRANCH  54  57
ENDBRANCH  26  50
BRANCH  38  61
ATOM     61  C   UNL A   1      44.637  33.036  29.479  1.00  0.00     0.023 A 
ATOM     62  C   UNL A   1      45.296  33.192  30.715  1.00  0.00     0.012 A 
ATOM     63  C   UNL A   1      44.517  34.137  28.613  1.00  0.00     0.148 A 
ATOM     64  C   UNL A   1      45.794  34.434  31.100  1.00  0.00     0.002 A 
ATOM     65  C   UNL A   1      45.055  35.364  28.985  1.00  0.00     0.091 A 
ATOM     66  F   UNL A   1      43.866  33.975  27.452  1.00  0.00    -0.205 F 
ATOM     67  C   UNL A   1      45.683  35.517  30.232  1.00  0.00     0.022 A 
BRANCH  65  68
ATOM     68  S   UNL A   1      45.021  36.787  27.889  1.00  0.00     0.127 S 
ATOM     69  O   UNL A   1      43.599  37.124  27.882  1.00  0.00    -0.237 OA
ATOM     70  O   UNL A   1      45.872  37.748  28.592  1.00  0.00    -0.237 OA
ATOM     71  O   UNL A   1      45.568  36.319  26.623  1.00  0.00    -0.744 OA
ENDBRANCH  65  68
ENDBRANCH  38  61
ENDBRANCH  12  13
ENDBRANCH   5   7
ENDBRANCH   2   3
ENDBRANCH   1   2
BRANCH   1  72
ATOM     72  C   UNL A   1      33.634  22.056  25.703  1.00  0.00     0.117 C 
BRANCH  72  73
ATOM     73  N   UNL A   1      32.608  22.730  26.463  1.00  0.00    -0.354 N 
ATOM     74  C   UNL A   1      32.162  24.010  26.464  1.00  0.00     0.242 C 
ATOM     75  H   UNL A   1      32.143  22.146  27.106  1.00  0.00     0.163 HD
ATOM     76  O   UNL A   1      31.221  24.231  27.238  1.00  0.00    -0.273 OA
BRANCH  74  77
ATOM     77  C   UNL A   1      32.626  25.112  25.472  1.00  0.00     0.174 C 
ATOM     78  C   UNL A   1      33.820  24.925  24.522  1.00  0.00     0.035 C 
ATOM     79  N   UNL A   1      31.476  25.668  24.754  1.00  0.00    -0.326 N 
ATOM     80  C   UNL A   1      33.518  24.618  23.038  1.00  0.00     0.004 C 
ATOM     81  C   UNL A   1      31.051  24.885  23.603  1.00  0.00     0.120 C 
ATOM     82  C   UNL A   1      32.124  24.998  22.534  1.00  0.00     0.022 C 
BRANCH  79  83
ATOM     83  C   UNL A   1      31.016  26.929  25.095  1.00  0.00     0.260 C 
ATOM     84  O   UNL A   1      30.863  27.318  26.251  1.00  0.00    -0.269 OA
BRANCH  83  85
ATOM     85  C   UNL A   1      30.882  27.919  24.007  1.00  0.00     0.111 A 
ATOM     86  C   UNL A   1      29.628  28.237  23.628  1.00  0.00     0.107 A 
ATOM     87  C   UNL A   1      32.051  28.543  23.328  1.00  0.00     0.261 A 
ATOM     88  C   UNL A   1      29.409  29.205  22.574  1.00  0.00     0.286 A 
ATOM     89  N   UNL A   1      31.742  29.451  22.333  1.00  0.00    -0.322 N 
ATOM     90  O   UNL A   1      33.212  28.308  23.633  1.00  0.00    -0.269 OA
ATOM     91  C   UNL A   1      30.456  29.782  21.959  1.00  0.00     0.172 A 
ATOM     92  H   UNL A   1      32.486  29.889  21.860  1.00  0.00     0.169 HD
BRANCH  88  93
ATOM     93  N   UNL A   1      28.062  29.599  22.159  1.00  0.00     0.064 N 
ATOM     94  O   UNL A   1      27.138  29.477  22.975  1.00  0.00    -0.258 OA
ATOM     95  O   UNL A   1      27.928  30.025  21.004  1.00  0.00    -0.258 OA
ENDBRANCH  88  93
ENDBRANCH  83  85
ENDBRANCH  79  83
ENDBRANCH  74  77
ENDBRANCH  72  73
ENDBRANCH   1  72
TORSDOF 16
ENDMDL
MODEL 3
REMARK VINA RESULT:     -12.3      4.933      9.533
REMARK SMILES O=C(NCCCNC(=O)[C@H]1CCCCN1C(=O)c1cc([N+](=O)[O-])c[nH]c1=O)c1ccc(-c2c3nc(c(-c4cccc(S(=O)(=O)[O-])c4F)c4ccc([nH]4)c(-c4cccc(S(=O)(=O)[O-])c4F)c4nc(c(-c5cccc(S(=O)(=O)[O-])c5F)c5ccc2[nH]5)C=C4)C=C3)cc1
REMARK SMILES IDX 5 1 4 2 3 3 1 4 2 5 28 7 29 8 90 9 30 10 89 11 31 12 32 13
REMARK SMILES IDX 33 14 83 15 34 16 88 17 82 18 84 19 35 20 87 21 81 22 80 23
REMARK SMILES IDX 36 25 68 26 48 27 67 28 49 29 52 30 66 31 85 32 50 33 51 34
REMARK SMILES IDX 65 36 86 37 53 38 37 39 38 40 46 41 39 42 41 43 47 44 40 45
REMARK SMILES IDX 42 46 43 47 44 48 45 49 69 50 70 51 78 52 71 53 73 54 79 55
REMARK SMILES IDX 72 56 74 57 75 58 76 59 77 60 54 61 55 62 63 63 56 64 58 65
REMARK SMILES IDX 64 66 57 67 59 68 60 69 61 70 62 71 6 72 7 73 8 74 9 76
REMARK SMILES IDX 10 77 11 78 15 79 12 80 14 81 13 82 16 83 17 84 18 85 19 86
REMARK SMILES IDX 26 87 20 88 25 89 27 90 24 91 21 93 22 94 23 95
REMARK H PARENT 3 6 84 24 52 35 7 75 25 92
REMARK Flexibility Score: inf
ROOT
ATOM      1  C   UNL A   1      36.330  23.431  24.404  1.00  0.00     0.042 C 
ENDROOT
BRANCH   1   2
ATOM      2  C   UNL A   1      36.506  22.903  25.819  1.00  0.00     0.118 C 
BRANCH   2   3
ATOM      3  N   UNL A   1      37.460  21.798  25.871  1.00  0.00    -0.352 N 
ATOM      4  O   UNL A   1      39.457  20.772  25.848  1.00  0.00    -0.269 OA
ATOM      5  C   UNL A   1      38.816  21.783  26.119  1.00  0.00     0.251 C 
ATOM      6  H   UNL A   1      37.067  20.912  25.701  1.00  0.00     0.163 HD
BRANCH   5   7
ATOM      7  C   UNL A   1      39.498  22.974  26.676  1.00  0.00     0.039 A 
ATOM      8  C   UNL A   1      39.190  24.245  26.204  1.00  0.00     0.014 A 
ATOM      9  C   UNL A   1      40.432  22.838  27.710  1.00  0.00     0.014 A 
ATOM     10  C   UNL A   1      39.963  25.331  26.578  1.00  0.00     0.010 A 
ATOM     11  C   UNL A   1      41.096  23.968  28.211  1.00  0.00     0.010 A 
ATOM     12  C   UNL A   1      40.897  25.223  27.621  1.00  0.00    -0.014 A 
BRANCH  12  13
ATOM     13  C   UNL A   1      41.545  26.477  28.099  1.00  0.00     0.031 A 
ATOM     14  C   UNL A   1      42.956  26.840  27.730  1.00  0.00     0.074 A 
ATOM     15  C   UNL A   1      40.791  27.341  28.812  1.00  0.00     0.049 A 
ATOM     16  N   UNL A   1      43.602  27.953  27.972  1.00  0.00    -0.248 NA
ATOM     17  C   UNL A   1      43.757  25.832  27.016  1.00  0.00     0.031 C 
ATOM     18  C   UNL A   1      39.431  27.069  29.289  1.00  0.00     0.029 A 
ATOM     19  N   UNL A   1      41.027  28.628  29.221  1.00  0.00    -0.354 N 
ATOM     20  C   UNL A   1      44.889  27.767  27.485  1.00  0.00     0.074 A 
ATOM     21  C   UNL A   1      44.939  26.430  26.934  1.00  0.00     0.031 C 
ATOM     22  C   UNL A   1      38.920  28.179  29.835  1.00  0.00     0.029 A 
ATOM     23  C   UNL A   1      39.941  29.218  29.827  1.00  0.00     0.049 A 
ATOM     24  H   UNL A   1      41.890  29.086  29.094  1.00  0.00     0.167 HD
ATOM     25  C   UNL A   1      45.928  28.638  27.483  1.00  0.00     0.034 A 
ATOM     26  C   UNL A   1      39.776  30.458  30.328  1.00  0.00     0.034 A 
ATOM     27  C   UNL A   1      45.856  29.983  27.991  1.00  0.00     0.049 A 
ATOM     28  C   UNL A   1      40.918  31.425  30.233  1.00  0.00     0.074 A 
ATOM     29  C   UNL A   1      46.846  30.950  28.011  1.00  0.00     0.029 A 
ATOM     30  N   UNL A   1      44.728  30.559  28.559  1.00  0.00    -0.354 N 
ATOM     31  N   UNL A   1      42.096  31.253  29.685  1.00  0.00    -0.248 NA
ATOM     32  C   UNL A   1      40.707  32.758  30.812  1.00  0.00     0.031 C 
ATOM     33  C   UNL A   1      46.319  32.108  28.594  1.00  0.00     0.029 A 
ATOM     34  C   UNL A   1      44.996  31.867  28.927  1.00  0.00     0.049 A 
ATOM     35  H   UNL A   1      43.864  30.104  28.682  1.00  0.00     0.167 HD
ATOM     36  C   UNL A   1      42.772  32.452  29.858  1.00  0.00     0.074 A 
ATOM     37  C   UNL A   1      41.849  33.361  30.510  1.00  0.00     0.031 C 
ATOM     38  C   UNL A   1      44.053  32.764  29.543  1.00  0.00     0.034 A 
BRANCH  25  39
ATOM     39  C   UNL A   1      47.227  28.185  26.866  1.00  0.00     0.023 A 
ATOM     40  C   UNL A   1      48.298  27.818  27.705  1.00  0.00     0.012 A 
ATOM     41  C   UNL A   1      47.361  28.045  25.471  1.00  0.00     0.148 A 
ATOM     42  C   UNL A   1      49.490  27.334  27.165  1.00  0.00     0.002 A 
ATOM     43  C   UNL A   1      48.540  27.529  24.942  1.00  0.00     0.091 A 
ATOM     44  F   UNL A   1      46.340  28.419  24.689  1.00  0.00    -0.205 F 
ATOM     45  C   UNL A   1      49.607  27.180  25.786  1.00  0.00     0.022 A 
BRANCH  43  46
ATOM     46  S   UNL A   1      48.766  27.226  23.184  1.00  0.00     0.127 S 
ATOM     47  O   UNL A   1      48.047  28.356  22.597  1.00  0.00    -0.237 OA
ATOM     48  O   UNL A   1      50.221  27.290  23.044  1.00  0.00    -0.237 OA
ATOM     49  O   UNL A   1      48.190  25.915  22.926  1.00  0.00    -0.744 OA
ENDBRANCH  43  46
ENDBRANCH  25  39
BRANCH  26  50
ATOM     50  C   UNL A   1      38.468  30.846  30.927  1.00  0.00     0.023 A 
ATOM     51  C   UNL A   1      38.249  30.673  32.307  1.00  0.00     0.012 A 
ATOM     52  C   UNL A   1      37.464  31.451  30.146  1.00  0.00     0.148 A 
ATOM     53  C   UNL A   1      37.048  31.082  32.892  1.00  0.00     0.002 A 
ATOM     54  C   UNL A   1      36.304  31.923  30.747  1.00  0.00     0.091 A 
ATOM     55  F   UNL A   1      37.673  31.585  28.827  1.00  0.00    -0.205 F 
ATOM     56  C   UNL A   1      36.084  31.723  32.117  1.00  0.00     0.022 A 
BRANCH  54  57
ATOM     57  S   UNL A   1      35.123  32.918  29.830  1.00  0.00     0.127 S 
ATOM     58  O   UNL A   1      35.981  33.943  29.245  1.00  0.00    -0.237 OA
ATOM     59  O   UNL A   1      34.572  31.954  28.875  1.00  0.00    -0.237 OA
ATOM     60  O   UNL A   1      34.163  33.369  30.830  1.00  0.00    -0.744 OA
ENDBRANCH  54  57
ENDBRANCH  26  50
BRANCH  38  61
ATOM     61  C   UNL A   1      44.527  34.141  29.918  1.00  0.00     0.023 A 
ATOM     62  C   UNL A   1      45.141  34.340  31.171  1.00  0.00     0.012 A 
ATOM     63  C   UNL A   1      44.395  35.223  29.029  1.00  0.00     0.148 A 
ATOM     64  C   UNL A   1      45.583  35.605  31.549  1.00  0.00     0.002 A 
ATOM     65  C   UNL A   1      44.877  36.474  29.397  1.00  0.00     0.091 A 
ATOM     66  F   UNL A   1      43.786  35.019  27.853  1.00  0.00    -0.205 F 
ATOM     67  C   UNL A   1      45.460  36.670  30.660  1.00  0.00     0.022 A 
BRANCH  65  68
ATOM     68  S   UNL A   1      44.827  37.878  28.277  1.00  0.00     0.127 S 
ATOM     69  O   UNL A   1      45.594  37.378  27.138  1.00  0.00    -0.237 OA
ATOM     70  O   UNL A   1      43.393  38.032  28.027  1.00  0.00    -0.237 OA
ATOM     71  O   UNL A   1      45.428  38.984  29.010  1.00  0.00    -0.744 OA
ENDBRANCH  65  68
ENDBRANCH  38  61
ENDBRANCH  12  13
ENDBRANCH   5   7
ENDBRANCH   2   3
ENDBRANCH   1   2
BRANCH   1  72
ATOM     72  C   UNL A   1      35.201  22.713  23.691  1.00  0.00     0.117 C 
BRANCH  72  73
ATOM     73  N   UNL A   1      34.246  23.640  23.131  1.00  0.00    -0.354 N 
ATOM     74  C   UNL A   1      33.373  24.509  23.699  1.00  0.00     0.242 C 
ATOM     75  H   UNL A   1      34.224  23.641  22.146  1.00  0.00     0.163 HD
ATOM     76  O   UNL A   1      32.722  25.189  22.895  1.00  0.00    -0.273 OA
BRANCH  74  77
ATOM     77  C   UNL A   1      33.280  24.806  25.222  1.00  0.00     0.174 C 
ATOM     78  C   UNL A   1      33.855  26.083  25.855  1.00  0.00     0.035 C 
ATOM     79  N   UNL A   1      31.920  24.555  25.707  1.00  0.00    -0.326 N 
ATOM     80  C   UNL A   1      32.866  27.210  26.228  1.00  0.00     0.004 C 
ATOM     81  C   UNL A   1      30.993  25.655  25.490  1.00  0.00     0.120 C 
ATOM     82  C   UNL A   1      31.401  26.803  26.396  1.00  0.00     0.022 C 
BRANCH  79  83
ATOM     83  C   UNL A   1      31.676  23.421  26.465  1.00  0.00     0.260 C 
ATOM     84  O   UNL A   1      30.833  23.357  27.358  1.00  0.00    -0.269 OA
BRANCH  83  85
ATOM     85  C   UNL A   1      32.338  22.170  26.045  1.00  0.00     0.111 A 
ATOM     86  C   UNL A   1      31.946  21.641  24.869  1.00  0.00     0.107 A 
ATOM     87  C   UNL A   1      33.379  21.489  26.862  1.00  0.00     0.261 A 
ATOM     88  C   UNL A   1      32.551  20.419  24.381  1.00  0.00     0.286 A 
ATOM     89  N   UNL A   1      33.895  20.328  26.316  1.00  0.00    -0.322 N 
ATOM     90  O   UNL A   1      33.789  21.923  27.930  1.00  0.00    -0.269 OA
ATOM     91  C   UNL A   1      33.498  19.800  25.106  1.00  0.00     0.172 A 
ATOM     92  H   UNL A   1      34.588  19.848  26.823  1.00  0.00     0.169 HD
BRANCH  88  93
ATOM     93  N   UNL A   1      32.173  19.835  23.094  1.00  0.00     0.064 N 
ATOM     94  O   UNL A   1      32.188  18.602  22.982  1.00  0.00    -0.258 OA
ATOM     95  O   UNL A   1      31.868  20.619  22.185  1.00  0.00    -0.258 OA
ENDBRANCH  88  93
ENDBRANCH  83  85
ENDBRANCH  79  83
ENDBRANCH  74  77
ENDBRANCH  72  73
ENDBRANCH   1  72
TORSDOF 16
ENDMDL
