MODEL 1
REMARK VINA RESULT:     -11.0      0.000      0.000
REMARK SMILES O=C(NCCCNC(=O)[C@@H]1CSCN1C(=O)c1cccc(Cl)c1)c1ccc(-c2c3nc(c(-c4cccc(S(=O)(=O)[O-])c4F)c4ccc([nH]4)c(-c4cccc(S(=O)(=O)[O-])c4F)c4nc(c(-c5cccc(S(=O)(=O)[O-])c5F)c5ccc2[nH]5)C=C4)C=C3)cc1
REMARK SMILES IDX 4 1 3 2 1 3 2 4 24 6 25 7 86 8 26 9 85 10 27 11 28 12 29 13
REMARK SMILES IDX 79 14 30 15 84 16 78 17 80 18 31 19 83 20 77 21 76 22 32 24
REMARK SMILES IDX 64 25 44 26 63 27 45 28 48 29 62 30 81 31 46 32 47 33 61 35
REMARK SMILES IDX 82 36 49 37 33 38 34 39 42 40 35 41 37 42 43 43 36 44 38 45
REMARK SMILES IDX 39 46 40 47 41 48 65 49 66 50 74 51 67 52 69 53 75 54 68 55
REMARK SMILES IDX 70 56 71 57 72 58 73 59 50 60 51 61 59 62 52 63 54 64 60 65
REMARK SMILES IDX 53 66 55 67 56 68 57 69 58 70 5 71 6 72 7 73 8 74 9 76 10 77
REMARK SMILES IDX 11 78 14 79 12 80 13 81 15 82 16 83 17 84 18 85 23 86 19 87
REMARK SMILES IDX 21 88 20 89 22 90
REMARK H PARENT 3 5 80 23 48 34 7 75
REMARK Flexibility Score: inf
ROOT
ATOM      1  C   UNL A   1      34.486  32.505  29.138  1.00  0.00     0.118 C 
ENDROOT
BRANCH   1   2
ATOM      2  N   UNL A   1      34.012  31.505  28.192  1.00  0.00    -0.352 N 
ATOM      3  O   UNL A   1      34.106  29.822  26.712  1.00  0.00    -0.269 OA
ATOM      4  C   UNL A   1      34.652  30.427  27.633  1.00  0.00     0.251 C 
ATOM      5  H   UNL A   1      33.076  31.622  27.907  1.00  0.00     0.163 HD
BRANCH   4   6
ATOM      6  C   UNL A   1      35.988  30.007  28.107  1.00  0.00     0.039 A 
ATOM      7  C   UNL A   1      37.139  30.269  27.361  1.00  0.00     0.014 A 
ATOM      8  C   UNL A   1      36.094  29.372  29.349  1.00  0.00     0.014 A 
ATOM      9  C   UNL A   1      38.370  29.769  27.779  1.00  0.00     0.010 A 
ATOM     10  C   UNL A   1      37.342  28.944  29.807  1.00  0.00     0.010 A 
ATOM     11  C   UNL A   1      38.486  29.106  29.010  1.00  0.00    -0.014 A 
BRANCH  11  12
ATOM     12  C   UNL A   1      39.811  28.625  29.479  1.00  0.00     0.031 A 
ATOM     13  C   UNL A   1      40.546  29.343  30.577  1.00  0.00     0.074 A 
ATOM     14  C   UNL A   1      40.372  27.557  28.879  1.00  0.00     0.049 A 
ATOM     15  N   UNL A   1      41.733  29.100  31.070  1.00  0.00    -0.248 NA
ATOM     16  C   UNL A   1      39.864  30.490  31.196  1.00  0.00     0.031 C 
ATOM     17  C   UNL A   1      39.771  26.798  27.781  1.00  0.00     0.029 A 
ATOM     18  N   UNL A   1      41.580  26.941  29.088  1.00  0.00    -0.354 N 
ATOM     19  C   UNL A   1      41.962  30.087  32.021  1.00  0.00     0.074 A 
ATOM     20  C   UNL A   1      40.792  30.938  32.033  1.00  0.00     0.031 C 
ATOM     21  C   UNL A   1      40.614  25.822  27.409  1.00  0.00     0.029 A 
ATOM     22  C   UNL A   1      41.834  25.921  28.203  1.00  0.00     0.049 A 
ATOM     23  H   UNL A   1      42.205  27.205  29.802  1.00  0.00     0.167 HD
ATOM     24  C   UNL A   1      43.044  30.262  32.820  1.00  0.00     0.034 A 
ATOM     25  C   UNL A   1      42.936  25.168  28.023  1.00  0.00     0.034 A 
ATOM     26  C   UNL A   1      44.197  29.400  32.816  1.00  0.00     0.049 A 
ATOM     27  C   UNL A   1      44.122  25.381  28.919  1.00  0.00     0.074 A 
ATOM     28  C   UNL A   1      45.313  29.455  33.631  1.00  0.00     0.029 A 
ATOM     29  N   UNL A   1      44.391  28.339  31.943  1.00  0.00    -0.354 N 
ATOM     30  N   UNL A   1      44.271  26.241  29.896  1.00  0.00    -0.248 NA
ATOM     31  C   UNL A   1      45.279  24.500  28.711  1.00  0.00     0.031 C 
ATOM     32  C   UNL A   1      46.199  28.450  33.227  1.00  0.00     0.029 A 
ATOM     33  C   UNL A   1      45.616  27.741  32.190  1.00  0.00     0.049 A 
ATOM     34  H   UNL A   1      43.752  28.055  31.250  1.00  0.00     0.167 HD
ATOM     35  C   UNL A   1      45.520  25.982  30.446  1.00  0.00     0.074 A 
ATOM     36  C   UNL A   1      46.083  24.876  29.696  1.00  0.00     0.031 C 
ATOM     37  C   UNL A   1      46.144  26.607  31.474  1.00  0.00     0.034 A 
BRANCH  24  38
ATOM     38  C   UNL A   1      43.025  31.427  33.778  1.00  0.00     0.023 A 
ATOM     39  C   UNL A   1      43.558  32.670  33.383  1.00  0.00     0.012 A 
ATOM     40  C   UNL A   1      42.439  31.302  35.053  1.00  0.00     0.148 A 
ATOM     41  C   UNL A   1      43.549  33.758  34.257  1.00  0.00     0.002 A 
ATOM     42  C   UNL A   1      42.391  32.403  35.901  1.00  0.00     0.091 A 
ATOM     43  F   UNL A   1      41.952  30.109  35.421  1.00  0.00    -0.205 F 
ATOM     44  C   UNL A   1      42.958  33.627  35.510  1.00  0.00     0.022 A 
BRANCH  42  45
ATOM     45  S   UNL A   1      41.578  32.356  37.501  1.00  0.00     0.127 S 
ATOM     46  O   UNL A   1      40.226  31.937  37.133  1.00  0.00    -0.237 OA
ATOM     47  O   UNL A   1      42.356  31.343  38.216  1.00  0.00    -0.237 OA
ATOM     48  O   UNL A   1      41.691  33.701  38.048  1.00  0.00    -0.744 OA
ENDBRANCH  42  45
ENDBRANCH  24  38
BRANCH  25  49
ATOM     49  C   UNL A   1      42.939  24.121  26.964  1.00  0.00     0.023 A 
ATOM     50  C   UNL A   1      43.658  24.338  25.774  1.00  0.00     0.012 A 
ATOM     51  C   UNL A   1      42.287  22.887  27.162  1.00  0.00     0.148 A 
ATOM     52  C   UNL A   1      43.712  23.353  24.788  1.00  0.00     0.002 A 
ATOM     53  C   UNL A   1      42.392  21.889  26.201  1.00  0.00     0.091 A 
ATOM     54  F   UNL A   1      41.605  22.706  28.301  1.00  0.00    -0.205 F 
ATOM     55  C   UNL A   1      43.089  22.125  25.007  1.00  0.00     0.022 A 
BRANCH  53  56
ATOM     56  S   UNL A   1      41.742  20.234  26.452  1.00  0.00     0.127 S 
ATOM     57  O   UNL A   1      42.253  19.531  25.278  1.00  0.00    -0.237 OA
ATOM     58  O   UNL A   1      42.370  19.856  27.719  1.00  0.00    -0.237 OA
ATOM     59  O   UNL A   1      40.294  20.381  26.516  1.00  0.00    -0.744 OA
ENDBRANCH  53  56
ENDBRANCH  25  49
BRANCH  37  60
ATOM     60  C   UNL A   1      47.489  26.083  31.903  1.00  0.00     0.023 A 
ATOM     61  C   UNL A   1      48.662  26.530  31.267  1.00  0.00     0.012 A 
ATOM     62  C   UNL A   1      47.589  25.209  33.006  1.00  0.00     0.148 A 
ATOM     63  C   UNL A   1      49.914  26.098  31.705  1.00  0.00     0.002 A 
ATOM     64  C   UNL A   1      48.840  24.824  33.469  1.00  0.00     0.091 A 
ATOM     65  F   UNL A   1      46.458  24.778  33.584  1.00  0.00    -0.205 F 
ATOM     66  C   UNL A   1      50.004  25.258  32.814  1.00  0.00     0.022 A 
BRANCH  64  67
ATOM     67  S   UNL A   1      49.055  23.828  34.949  1.00  0.00     0.127 S 
ATOM     68  O   UNL A   1      48.383  24.646  35.958  1.00  0.00    -0.237 OA
ATOM     69  O   UNL A   1      48.351  22.595  34.595  1.00  0.00    -0.237 OA
ATOM     70  O   UNL A   1      50.493  23.675  35.127  1.00  0.00    -0.744 OA
ENDBRANCH  64  67
ENDBRANCH  37  60
ENDBRANCH  11  12
ENDBRANCH   4   6
ENDBRANCH   1   2
BRANCH   1  71
ATOM     71  C   UNL A   1      35.560  33.413  28.550  1.00  0.00     0.042 C 
BRANCH  71  72
ATOM     72  C   UNL A   1      36.771  33.605  29.452  1.00  0.00     0.117 C 
BRANCH  72  73
ATOM     73  N   UNL A   1      36.922  32.532  30.423  1.00  0.00    -0.354 N 
ATOM     74  C   UNL A   1      36.934  32.584  31.785  1.00  0.00     0.243 C 
ATOM     75  H   UNL A   1      37.029  31.632  30.037  1.00  0.00     0.163 HD
ATOM     76  O   UNL A   1      36.924  31.513  32.403  1.00  0.00    -0.273 OA
BRANCH  74  77
ATOM     77  C   UNL A   1      36.914  33.936  32.521  1.00  0.00     0.185 C 
ATOM     78  C   UNL A   1      38.293  34.170  33.154  1.00  0.00     0.106 C 
ATOM     79  N   UNL A   1      35.889  33.893  33.575  1.00  0.00    -0.317 N 
ATOM     80  S   UNL A   1      38.045  34.299  34.947  1.00  0.00    -0.138 SA
ATOM     81  C   UNL A   1      36.411  33.551  34.879  1.00  0.00     0.190 C 
BRANCH  79  82
ATOM     82  C   UNL A   1      34.555  34.023  33.235  1.00  0.00     0.255 C 
ATOM     83  O   UNL A   1      33.707  33.167  33.465  1.00  0.00    -0.269 OA
BRANCH  82  84
ATOM     84  C   UNL A   1      34.098  35.248  32.556  1.00  0.00     0.041 A 
ATOM     85  C   UNL A   1      34.192  36.487  33.199  1.00  0.00     0.014 A 
ATOM     86  C   UNL A   1      33.668  35.160  31.230  1.00  0.00     0.034 A 
ATOM     87  C   UNL A   1      33.796  37.644  32.528  1.00  0.00     0.002 A 
ATOM     88  C   UNL A   1      33.283  36.322  30.568  1.00  0.00     0.041 A 
ATOM     89  C   UNL A   1      33.336  37.560  31.212  1.00  0.00     0.020 A 
ATOM     90  Cl  UNL A   1      32.740  36.237  28.936  1.00  0.00    -0.084 Cl
ENDBRANCH  82  84
ENDBRANCH  79  82
ENDBRANCH  74  77
ENDBRANCH  72  73
ENDBRANCH  71  72
ENDBRANCH   1  71
TORSDOF 15
ENDMDL
MODEL 2
REMARK VINA RESULT:     -11.0      4.256     10.170
REMARK SMILES O=C(NCCCNC(=O)[C@@H]1CSCN1C(=O)c1cccc(Cl)c1)c1ccc(-c2c3nc(c(-c4cccc(S(=O)(=O)[O-])c4F)c4ccc([nH]4)c(-c4cccc(S(=O)(=O)[O-])c4F)c4nc(c(-c5cccc(S(=O)(=O)[O-])c5F)c5ccc2[nH]5)C=C4)C=C3)cc1
REMARK SMILES IDX 4 1 3 2 1 3 2 4 24 6 25 7 86 8 26 9 85 10 27 11 28 12 29 13
REMARK SMILES IDX 79 14 30 15 84 16 78 17 80 18 31 19 83 20 77 21 76 22 32 24
REMARK SMILES IDX 64 25 44 26 63 27 45 28 48 29 62 30 81 31 46 32 47 33 61 35
REMARK SMILES IDX 82 36 49 37 33 38 34 39 42 40 35 41 37 42 43 43 36 44 38 45
REMARK SMILES IDX 39 46 40 47 41 48 65 49 66 50 74 51 67 52 69 53 75 54 68 55
REMARK SMILES IDX 70 56 71 57 72 58 73 59 50 60 51 61 59 62 52 63 54 64 60 65
REMARK SMILES IDX 53 66 55 67 56 68 57 69 58 70 5 71 6 72 7 73 8 74 9 76 10 77
REMARK SMILES IDX 11 78 14 79 12 80 13 81 15 82 16 83 17 84 18 85 23 86 19 87
REMARK SMILES IDX 21 88 20 89 22 90
REMARK H PARENT 3 5 80 23 48 34 7 75
REMARK Flexibility Score: inf
ROOT
ATOM      1  C   UNL A   1      32.653  32.662  27.173  1.00  0.00     0.118 C 
ENDROOT
BRANCH   1   2
ATOM      2  N   UNL A   1      32.555  34.019  27.693  1.00  0.00    -0.352 N 
ATOM      3  O   UNL A   1      32.857  35.741  29.098  1.00  0.00    -0.269 OA
ATOM      4  C   UNL A   1      33.239  34.638  28.711  1.00  0.00     0.251 C 
ATOM      5  H   UNL A   1      31.890  34.585  27.240  1.00  0.00     0.163 HD
BRANCH   4   6
ATOM      6  C   UNL A   1      34.399  33.986  29.354  1.00  0.00     0.039 A 
ATOM      7  C   UNL A   1      34.232  32.932  30.255  1.00  0.00     0.014 A 
ATOM      8  C   UNL A   1      35.686  34.413  29.015  1.00  0.00     0.014 A 
ATOM      9  C   UNL A   1      35.334  32.408  30.927  1.00  0.00     0.010 A 
ATOM     10  C   UNL A   1      36.797  33.829  29.628  1.00  0.00     0.010 A 
ATOM     11  C   UNL A   1      36.630  32.846  30.615  1.00  0.00    -0.014 A 
BRANCH  11  12
ATOM     12  C   UNL A   1      37.807  32.244  31.292  1.00  0.00     0.031 A 
ATOM     13  C   UNL A   1      38.560  31.107  30.660  1.00  0.00     0.074 A 
ATOM     14  C   UNL A   1      38.170  32.700  32.507  1.00  0.00     0.049 A 
ATOM     15  N   UNL A   1      39.571  30.423  31.132  1.00  0.00    -0.248 NA
ATOM     16  C   UNL A   1      38.116  30.674  29.326  1.00  0.00     0.031 C 
ATOM     17  C   UNL A   1      37.498  33.775  33.238  1.00  0.00     0.029 A 
ATOM     18  N   UNL A   1      39.176  32.302  33.351  1.00  0.00    -0.354 N 
ATOM     19  C   UNL A   1      39.854  29.452  30.180  1.00  0.00     0.074 A 
ATOM     20  C   UNL A   1      38.905  29.630  29.104  1.00  0.00     0.031 C 
ATOM     21  C   UNL A   1      38.104  33.949  34.422  1.00  0.00     0.029 A 
ATOM     22  C   UNL A   1      39.171  32.963  34.556  1.00  0.00     0.049 A 
ATOM     23  H   UNL A   1      39.837  31.610  33.117  1.00  0.00     0.167 HD
ATOM     24  C   UNL A   1      40.824  28.504  30.197  1.00  0.00     0.034 A 
ATOM     25  C   UNL A   1      39.916  32.778  35.663  1.00  0.00     0.034 A 
ATOM     26  C   UNL A   1      41.777  28.345  31.264  1.00  0.00     0.049 A 
ATOM     27  C   UNL A   1      40.984  31.722  35.658  1.00  0.00     0.074 A 
ATOM     28  C   UNL A   1      42.838  27.459  31.343  1.00  0.00     0.029 A 
ATOM     29  N   UNL A   1      41.776  29.074  32.443  1.00  0.00    -0.354 N 
ATOM     30  N   UNL A   1      41.317  30.893  34.699  1.00  0.00    -0.248 NA
ATOM     31  C   UNL A   1      41.799  31.595  36.873  1.00  0.00     0.031 C 
ATOM     32  C   UNL A   1      43.455  27.628  32.588  1.00  0.00     0.029 A 
ATOM     33  C   UNL A   1      42.807  28.648  33.265  1.00  0.00     0.049 A 
ATOM     34  H   UNL A   1      41.136  29.788  32.665  1.00  0.00     0.167 HD
ATOM     35  C   UNL A   1      42.404  30.173  35.177  1.00  0.00     0.074 A 
ATOM     36  C   UNL A   1      42.679  30.672  36.511  1.00  0.00     0.031 C 
ATOM     37  C   UNL A   1      43.106  29.187  34.568  1.00  0.00     0.034 A 
BRANCH  24  38
ATOM     38  C   UNL A   1      40.911  27.571  29.015  1.00  0.00     0.023 A 
ATOM     39  C   UNL A   1      40.076  26.438  28.951  1.00  0.00     0.012 A 
ATOM     40  C   UNL A   1      41.788  27.841  27.946  1.00  0.00     0.148 A 
ATOM     41  C   UNL A   1      40.143  25.564  27.866  1.00  0.00     0.002 A 
ATOM     42  C   UNL A   1      41.817  26.992  26.846  1.00  0.00     0.091 A 
ATOM     43  F   UNL A   1      42.590  28.912  28.029  1.00  0.00    -0.205 F 
ATOM     44  C   UNL A   1      41.006  25.846  26.810  1.00  0.00     0.022 A 
BRANCH  42  45
ATOM     45  S   UNL A   1      42.833  27.315  25.401  1.00  0.00     0.127 S 
ATOM     46  O   UNL A   1      42.701  26.061  24.660  1.00  0.00    -0.237 OA
ATOM     47  O   UNL A   1      42.151  28.458  24.790  1.00  0.00    -0.237 OA
ATOM     48  O   UNL A   1      44.167  27.608  25.907  1.00  0.00    -0.744 OA
ENDBRANCH  42  45
ENDBRANCH  24  38
BRANCH  25  49
ATOM     49  C   UNL A   1      39.688  33.647  36.851  1.00  0.00     0.023 A 
ATOM     50  C   UNL A   1      40.080  34.998  36.810  1.00  0.00     0.012 A 
ATOM     51  C   UNL A   1      39.027  33.154  37.993  1.00  0.00     0.148 A 
ATOM     52  C   UNL A   1      39.836  35.840  37.894  1.00  0.00     0.002 A 
ATOM     53  C   UNL A   1      38.736  34.013  39.046  1.00  0.00     0.091 A 
ATOM     54  F   UNL A   1      38.669  31.863  38.011  1.00  0.00    -0.205 F 
ATOM     55  C   UNL A   1      39.154  35.351  39.006  1.00  0.00     0.022 A 
BRANCH  53  56
ATOM     56  S   UNL A   1      37.745  33.510  40.457  1.00  0.00     0.127 S 
ATOM     57  O   UNL A   1      36.528  33.025  39.810  1.00  0.00    -0.237 OA
ATOM     58  O   UNL A   1      38.583  32.468  41.054  1.00  0.00    -0.237 OA
ATOM     59  O   UNL A   1      37.589  34.702  41.278  1.00  0.00    -0.744 OA
ENDBRANCH  53  56
ENDBRANCH  25  49
BRANCH  37  60
ATOM     60  C   UNL A   1      44.286  28.606  35.303  1.00  0.00     0.023 A 
ATOM     61  C   UNL A   1      45.576  29.136  35.108  1.00  0.00     0.012 A 
ATOM     62  C   UNL A   1      44.093  27.589  36.260  1.00  0.00     0.148 A 
ATOM     63  C   UNL A   1      46.660  28.646  35.836  1.00  0.00     0.002 A 
ATOM     64  C   UNL A   1      45.167  27.141  37.017  1.00  0.00     0.091 A 
ATOM     65  F   UNL A   1      42.860  27.083  36.414  1.00  0.00    -0.205 F 
ATOM     66  C   UNL A   1      46.454  27.660  36.799  1.00  0.00     0.022 A 
BRANCH  64  67
ATOM     67  S   UNL A   1      44.978  25.949  38.348  1.00  0.00     0.127 S 
ATOM     68  O   UNL A   1      46.350  25.832  38.839  1.00  0.00    -0.237 OA
ATOM     69  O   UNL A   1      44.063  26.643  39.255  1.00  0.00    -0.237 OA
ATOM     70  O   UNL A   1      44.429  24.746  37.737  1.00  0.00    -0.744 OA
ENDBRANCH  64  67
ENDBRANCH  37  60
ENDBRANCH  11  12
ENDBRANCH   4   6
ENDBRANCH   1   2
BRANCH   1  71
ATOM     71  C   UNL A   1      31.368  32.194  26.499  1.00  0.00     0.042 C 
BRANCH  71  72
ATOM     72  C   UNL A   1      31.371  30.719  26.120  1.00  0.00     0.117 C 
BRANCH  72  73
ATOM     73  N   UNL A   1      32.683  30.107  26.261  1.00  0.00    -0.354 N 
ATOM     74  C   UNL A   1      33.087  28.837  25.974  1.00  0.00     0.243 C 
ATOM     75  H   UNL A   1      33.384  30.700  26.616  1.00  0.00     0.163 HD
ATOM     76  O   UNL A   1      34.297  28.590  26.036  1.00  0.00    -0.273 OA
BRANCH  74  77
ATOM     77  C   UNL A   1      32.069  27.765  25.543  1.00  0.00     0.185 C 
ATOM     78  C   UNL A   1      32.384  26.461  26.291  1.00  0.00     0.106 C 
ATOM     79  N   UNL A   1      32.191  27.544  24.094  1.00  0.00    -0.317 N 
ATOM     80  S   UNL A   1      32.765  25.204  25.040  1.00  0.00    -0.138 SA
ATOM     81  C   UNL A   1      33.038  26.425  23.747  1.00  0.00     0.190 C 
BRANCH  79  82
ATOM     82  C   UNL A   1      31.643  28.461  23.216  1.00  0.00     0.255 C 
ATOM     83  O   UNL A   1      32.308  29.148  22.448  1.00  0.00    -0.269 OA
BRANCH  82  84
ATOM     84  C   UNL A   1      30.182  28.644  23.179  1.00  0.00     0.041 A 
ATOM     85  C   UNL A   1      29.330  27.540  23.293  1.00  0.00     0.014 A 
ATOM     86  C   UNL A   1      29.669  29.942  23.131  1.00  0.00     0.034 A 
ATOM     87  C   UNL A   1      27.949  27.733  23.301  1.00  0.00     0.002 A 
ATOM     88  C   UNL A   1      28.290  30.123  23.146  1.00  0.00     0.041 A 
ATOM     89  C   UNL A   1      27.429  29.026  23.222  1.00  0.00     0.020 A 
ATOM     90  Cl  UNL A   1      27.634  31.714  23.077  1.00  0.00    -0.084 Cl
ENDBRANCH  82  84
ENDBRANCH  79  82
ENDBRANCH  74  77
ENDBRANCH  72  73
ENDBRANCH  71  72
ENDBRANCH   1  71
TORSDOF 15
ENDMDL
MODEL 3
REMARK VINA RESULT:     -11.0      6.780     11.175
REMARK SMILES O=C(NCCCNC(=O)[C@@H]1CSCN1C(=O)c1cccc(Cl)c1)c1ccc(-c2c3nc(c(-c4cccc(S(=O)(=O)[O-])c4F)c4ccc([nH]4)c(-c4cccc(S(=O)(=O)[O-])c4F)c4nc(c(-c5cccc(S(=O)(=O)[O-])c5F)c5ccc2[nH]5)C=C4)C=C3)cc1
REMARK SMILES IDX 4 1 3 2 1 3 2 4 24 6 25 7 86 8 26 9 85 10 27 11 28 12 29 13
REMARK SMILES IDX 79 14 30 15 84 16 78 17 80 18 31 19 83 20 77 21 76 22 32 24
REMARK SMILES IDX 64 25 44 26 63 27 45 28 48 29 62 30 81 31 46 32 47 33 61 35
REMARK SMILES IDX 82 36 49 37 33 38 34 39 42 40 35 41 37 42 43 43 36 44 38 45
REMARK SMILES IDX 39 46 40 47 41 48 65 49 66 50 74 51 67 52 69 53 75 54 68 55
REMARK SMILES IDX 70 56 71 57 72 58 73 59 50 60 51 61 59 62 52 63 54 64 60 65
REMARK SMILES IDX 53 66 55 67 56 68 57 69 58 70 5 71 6 72 7 73 8 74 9 76 10 77
REMARK SMILES IDX 11 78 14 79 12 80 13 81 15 82 16 83 17 84 18 85 23 86 19 87
REMARK SMILES IDX 21 88 20 89 22 90
REMARK H PARENT 3 5 80 23 48 34 7 75
REMARK Flexibility Score: inf
ROOT
ATOM      1  C   UNL A   1      38.833  20.031  25.825  1.00  0.00     0.118 C 
ENDROOT
BRANCH   1   2
ATOM      2  N   UNL A   1      40.027  19.205  25.940  1.00  0.00    -0.352 N 
ATOM      3  O   UNL A   1      42.209  18.690  26.013  1.00  0.00    -0.269 OA
ATOM      4  C   UNL A   1      41.341  19.554  26.131  1.00  0.00     0.251 C 
ATOM      5  H   UNL A   1      39.864  18.237  25.871  1.00  0.00     0.163 HD
BRANCH   4   6
ATOM      6  C   UNL A   1      41.719  20.947  26.448  1.00  0.00     0.039 A 
ATOM      7  C   UNL A   1      41.779  21.927  25.454  1.00  0.00     0.014 A 
ATOM      8  C   UNL A   1      41.979  21.290  27.778  1.00  0.00     0.014 A 
ATOM      9  C   UNL A   1      42.241  23.205  25.762  1.00  0.00     0.010 A 
ATOM     10  C   UNL A   1      42.362  22.594  28.099  1.00  0.00     0.010 A 
ATOM     11  C   UNL A   1      42.531  23.554  27.089  1.00  0.00    -0.014 A 
BRANCH  11  12
ATOM     12  C   UNL A   1      42.968  24.934  27.422  1.00  0.00     0.031 A 
ATOM     13  C   UNL A   1      42.022  25.906  28.071  1.00  0.00     0.074 A 
ATOM     14  C   UNL A   1      44.216  25.325  27.095  1.00  0.00     0.049 A 
ATOM     15  N   UNL A   1      42.213  27.163  28.377  1.00  0.00    -0.248 NA
ATOM     16  C   UNL A   1      40.683  25.404  28.414  1.00  0.00     0.031 C 
ATOM     17  C   UNL A   1      45.214  24.484  26.432  1.00  0.00     0.029 A 
ATOM     18  N   UNL A   1      44.849  26.532  27.251  1.00  0.00    -0.354 N 
ATOM     19  C   UNL A   1      41.010  27.616  28.904  1.00  0.00     0.074 A 
ATOM     20  C   UNL A   1      40.091  26.500  28.870  1.00  0.00     0.031 C 
ATOM     21  C   UNL A   1      46.331  25.200  26.234  1.00  0.00     0.029 A 
ATOM     22  C   UNL A   1      46.109  26.564  26.704  1.00  0.00     0.049 A 
ATOM     23  H   UNL A   1      44.439  27.302  27.710  1.00  0.00     0.167 HD
ATOM     24  C   UNL A   1      40.702  28.848  29.381  1.00  0.00     0.034 A 
ATOM     25  C   UNL A   1      46.981  27.580  26.563  1.00  0.00     0.034 A 
ATOM     26  C   UNL A   1      41.627  29.949  29.428  1.00  0.00     0.049 A 
ATOM     27  C   UNL A   1      46.617  28.935  27.098  1.00  0.00     0.074 A 
ATOM     28  C   UNL A   1      41.432  31.214  29.952  1.00  0.00     0.029 A 
ATOM     29  N   UNL A   1      42.917  29.924  28.917  1.00  0.00    -0.354 N 
ATOM     30  N   UNL A   1      45.518  29.313  27.704  1.00  0.00    -0.248 NA
ATOM     31  C   UNL A   1      47.623  29.997  26.961  1.00  0.00     0.031 C 
ATOM     32  C   UNL A   1      42.590  31.966  29.725  1.00  0.00     0.029 A 
ATOM     33  C   UNL A   1      43.523  31.156  29.099  1.00  0.00     0.049 A 
ATOM     34  H   UNL A   1      43.338  29.145  28.487  1.00  0.00     0.167 HD
ATOM     35  C   UNL A   1      45.713  30.643  28.055  1.00  0.00     0.074 A 
ATOM     36  C   UNL A   1      47.042  31.002  27.602  1.00  0.00     0.031 C 
ATOM     37  C   UNL A   1      44.866  31.488  28.692  1.00  0.00     0.034 A 
BRANCH  24  38
ATOM     38  C   UNL A   1      39.304  29.066  29.905  1.00  0.00     0.023 A 
ATOM     39  C   UNL A   1      38.989  28.720  31.234  1.00  0.00     0.012 A 
ATOM     40  C   UNL A   1      38.314  29.657  29.094  1.00  0.00     0.148 A 
ATOM     41  C   UNL A   1      37.702  28.914  31.735  1.00  0.00     0.002 A 
ATOM     42  C   UNL A   1      37.046  29.891  29.614  1.00  0.00     0.091 A 
ATOM     43  F   UNL A   1      38.623  29.964  27.826  1.00  0.00    -0.205 F 
ATOM     44  C   UNL A   1      36.735  29.508  30.929  1.00  0.00     0.022 A 
BRANCH  42  45
ATOM     45  S   UNL A   1      35.758  30.725  28.682  1.00  0.00     0.127 S 
ATOM     46  O   UNL A   1      34.989  29.594  28.164  1.00  0.00    -0.237 OA
ATOM     47  O   UNL A   1      35.075  31.500  29.720  1.00  0.00    -0.237 OA
ATOM     48  O   UNL A   1      36.445  31.529  27.681  1.00  0.00    -0.744 OA
ENDBRANCH  42  45
ENDBRANCH  24  38
BRANCH  25  49
ATOM     49  C   UNL A   1      48.296  27.330  25.911  1.00  0.00     0.023 A 
ATOM     50  C   UNL A   1      49.370  26.843  26.679  1.00  0.00     0.012 A 
ATOM     51  C   UNL A   1      48.464  27.511  24.524  1.00  0.00     0.148 A 
ATOM     52  C   UNL A   1      50.598  26.560  26.080  1.00  0.00     0.002 A 
ATOM     53  C   UNL A   1      49.671  27.173  23.925  1.00  0.00     0.091 A 
ATOM     54  F   UNL A   1      47.428  27.981  23.816  1.00  0.00    -0.205 F 
ATOM     55  C   UNL A   1      50.745  26.713  24.703  1.00  0.00     0.022 A 
BRANCH  53  56
ATOM     56  S   UNL A   1      49.910  27.206  22.145  1.00  0.00     0.127 S 
ATOM     57  O   UNL A   1      48.847  26.316  21.685  1.00  0.00    -0.237 OA
ATOM     58  O   UNL A   1      49.702  28.623  21.844  1.00  0.00    -0.237 OA
ATOM     59  O   UNL A   1      51.268  26.734  21.917  1.00  0.00    -0.744 OA
ENDBRANCH  53  56
ENDBRANCH  25  49
BRANCH  37  60
ATOM     60  C   UNL A   1      45.358  32.878  28.997  1.00  0.00     0.023 A 
ATOM     61  C   UNL A   1      46.108  33.127  30.162  1.00  0.00     0.012 A 
ATOM     62  C   UNL A   1      45.148  33.922  28.073  1.00  0.00     0.148 A 
ATOM     63  C   UNL A   1      46.622  34.399  30.415  1.00  0.00     0.002 A 
ATOM     64  C   UNL A   1      45.705  35.172  28.306  1.00  0.00     0.091 A 
ATOM     65  F   UNL A   1      44.412  33.670  26.980  1.00  0.00    -0.205 F 
ATOM     66  C   UNL A   1      46.433  35.416  29.482  1.00  0.00     0.022 A 
BRANCH  64  67
ATOM     67  S   UNL A   1      45.601  36.512  27.114  1.00  0.00     0.127 S 
ATOM     68  O   UNL A   1      46.378  37.559  27.774  1.00  0.00    -0.237 OA
ATOM     69  O   UNL A   1      46.242  35.927  25.936  1.00  0.00    -0.237 OA
ATOM     70  O   UNL A   1      44.182  36.798  26.951  1.00  0.00    -0.744 OA
ENDBRANCH  64  67
ENDBRANCH  37  60
ENDBRANCH  11  12
ENDBRANCH   4   6
ENDBRANCH   1   2
BRANCH   1  71
ATOM     71  C   UNL A   1      37.932  19.609  24.669  1.00  0.00     0.042 C 
BRANCH  71  72
ATOM     72  C   UNL A   1      36.444  19.740  24.965  1.00  0.00     0.117 C 
BRANCH  72  73
ATOM     73  N   UNL A   1      36.129  20.937  25.731  1.00  0.00    -0.354 N 
ATOM     74  C   UNL A   1      35.239  21.934  25.463  1.00  0.00     0.243 C 
ATOM     75  H   UNL A   1      36.635  21.041  26.569  1.00  0.00     0.163 HD
ATOM     76  O   UNL A   1      35.036  22.777  26.343  1.00  0.00    -0.273 OA
BRANCH  74  77
ATOM     77  C   UNL A   1      34.480  21.972  24.123  1.00  0.00     0.185 C 
ATOM     78  C   UNL A   1      35.023  23.140  23.286  1.00  0.00     0.106 C 
ATOM     79  N   UNL A   1      33.049  22.180  24.389  1.00  0.00    -0.317 N 
ATOM     80  S   UNL A   1      33.639  24.273  22.984  1.00  0.00    -0.138 SA
ATOM     81  C   UNL A   1      32.637  23.563  24.299  1.00  0.00     0.190 C 
BRANCH  79  82
ATOM     82  C   UNL A   1      32.277  21.122  24.830  1.00  0.00     0.255 C 
ATOM     83  O   UNL A   1      31.401  21.228  25.682  1.00  0.00    -0.269 OA
BRANCH  82  84
ATOM     84  C   UNL A   1      32.495  19.780  24.263  1.00  0.00     0.041 A 
ATOM     85  C   UNL A   1      32.218  19.532  22.914  1.00  0.00     0.014 A 
ATOM     86  C   UNL A   1      33.077  18.798  25.067  1.00  0.00     0.034 A 
ATOM     87  C   UNL A   1      32.472  18.269  22.379  1.00  0.00     0.002 A 
ATOM     88  C   UNL A   1      33.332  17.543  24.521  1.00  0.00     0.041 A 
ATOM     89  C   UNL A   1      33.025  17.272  23.186  1.00  0.00     0.020 A 
ATOM     90  Cl  UNL A   1      34.040  16.313  25.496  1.00  0.00    -0.084 Cl
ENDBRANCH  82  84
ENDBRANCH  79  82
ENDBRANCH  74  77
ENDBRANCH  72  73
ENDBRANCH  71  72
ENDBRANCH   1  71
TORSDOF 15
ENDMDL
