MODEL 1
REMARK VINA RESULT:     -12.7      0.000      0.000
REMARK SMILES CC[C@@H]1CCC[C@@](Cc2cccc(O)c2)(C(=O)NCCCNC(=O)c2ccc(-c3c4nc(c(-c5cccc(S(=O)(=O)[O-])c5F)c5ccc([nH]5)c(-c5cccc(S(=O)(=O)[O-])c5F)c5nc(c(-c6cccc(S(=O)(=O)[O-])c6F)c6ccc3[nH]6)C=C5)C=C4)cc2)C1
REMARK SMILES IDX 20 1 19 2 18 3 16 4 17 5 7 7 3 8 4 9 88 10 5 11 6 12 2 13
REMARK SMILES IDX 1 14 8 15 9 16 10 17 15 18 11 19 13 20 12 21 14 22 21 24
REMARK SMILES IDX 22 25 23 26 24 28 25 29 26 30 87 31 27 32 86 33 28 34 29 35
REMARK SMILES IDX 30 36 80 37 31 38 85 39 79 40 81 41 32 42 84 43 78 44 77 45
REMARK SMILES IDX 33 47 65 48 45 49 64 50 46 51 49 52 63 53 82 54 47 55 48 56
REMARK SMILES IDX 62 58 83 59 50 60 34 61 35 62 43 63 36 64 38 65 44 66 37 67
REMARK SMILES IDX 39 68 40 69 41 70 42 71 66 72 67 73 75 74 68 75 70 76 76 77
REMARK SMILES IDX 69 78 71 79 72 80 73 81 74 82 51 83 52 84 60 85 53 86 55 87
REMARK SMILES IDX 61 88 54 89 56 90 57 91 58 92 59 93
REMARK H PARENT 18 6 14 23 22 27 81 46 49 57
REMARK Flexibility Score: inf
ROOT
ATOM      1  C   UNL A   1      31.758  30.048  25.705  1.00  0.00     0.042 C 
ENDROOT
BRANCH   1   2
ATOM      2  C   UNL A   1      31.413  28.582  25.717  1.00  0.00     0.117 C 
BRANCH   2   3
ATOM      3  N   UNL A   1      32.450  27.696  25.247  1.00  0.00    -0.356 N 
ATOM      4  C   UNL A   1      32.445  26.894  24.148  1.00  0.00     0.226 C 
ATOM      5  O   UNL A   1      33.555  26.651  23.658  1.00  0.00    -0.274 OA
ATOM      6  H   UNL A   1      33.269  27.667  25.794  1.00  0.00     0.163 HD
BRANCH   4   7
ATOM      7  C   UNL A   1      31.144  26.320  23.521  1.00  0.00     0.053 C 
ATOM      8  C   UNL A   1      31.971  23.857  23.866  1.00  0.00    -0.010 C 
ATOM      9  C   UNL A   1      30.940  23.671  24.988  1.00  0.00     0.003 C 
ATOM     10  C   UNL A   1      31.526  24.945  22.861  1.00  0.00     0.020 C 
ATOM     11  C   UNL A   1      30.508  24.990  25.611  1.00  0.00     0.001 C 
ATOM     12  C   UNL A   1      30.031  25.973  24.541  1.00  0.00     0.017 C 
BRANCH   8  13
ATOM     13  C   UNL A   1      32.219  22.500  23.178  1.00  0.00     0.000 C 
ATOM     14  C   UNL A   1      33.194  21.598  23.922  1.00  0.00     0.004 C 
ENDBRANCH   8  13
BRANCH   7  15
ATOM     15  C   UNL A   1      30.660  27.230  22.336  1.00  0.00     0.052 C 
BRANCH  15  16
ATOM     16  C   UNL A   1      29.692  28.361  22.604  1.00  0.00    -0.043 A 
ATOM     17  C   UNL A   1      28.383  28.095  23.044  1.00  0.00     0.004 A 
ATOM     18  C   UNL A   1      30.061  29.692  22.362  1.00  0.00     0.049 A 
ATOM     19  C   UNL A   1      27.441  29.126  23.145  1.00  0.00     0.004 A 
ATOM     20  C   UNL A   1      29.113  30.710  22.459  1.00  0.00     0.115 A 
ATOM     21  C   UNL A   1      27.801  30.437  22.829  1.00  0.00     0.046 A 
BRANCH  20  22
ATOM     22  O   UNL A   1      29.510  31.975  22.142  1.00  0.00    -0.508 OA
ATOM     23  H   UNL A   1      30.422  32.171  22.054  1.00  0.00     0.293 HD
ENDBRANCH  20  22
ENDBRANCH  15  16
ENDBRANCH   7  15
ENDBRANCH   4   7
ENDBRANCH   2   3
ENDBRANCH   1   2
BRANCH   1  24
ATOM     24  C   UNL A   1      32.640  30.448  26.873  1.00  0.00     0.118 C 
BRANCH  24  25
ATOM     25  N   UNL A   1      32.716  31.899  27.073  1.00  0.00    -0.352 N 
ATOM     26  C   UNL A   1      33.661  32.664  27.710  1.00  0.00     0.251 C 
ATOM     27  H   UNL A   1      31.968  32.407  26.686  1.00  0.00     0.163 HD
ATOM     28  O   UNL A   1      33.432  33.850  27.941  1.00  0.00    -0.269 OA
BRANCH  26  29
ATOM     29  C   UNL A   1      34.934  32.050  28.128  1.00  0.00     0.039 A 
ATOM     30  C   UNL A   1      36.088  32.831  28.197  1.00  0.00     0.014 A 
ATOM     31  C   UNL A   1      34.972  30.705  28.494  1.00  0.00     0.014 A 
ATOM     32  C   UNL A   1      37.256  32.275  28.719  1.00  0.00     0.010 A 
ATOM     33  C   UNL A   1      36.083  30.204  29.152  1.00  0.00     0.010 A 
ATOM     34  C   UNL A   1      37.246  30.973  29.251  1.00  0.00    -0.014 A 
BRANCH  34  35
ATOM     35  C   UNL A   1      38.440  30.398  29.914  1.00  0.00     0.031 A 
ATOM     36  C   UNL A   1      38.802  30.810  31.317  1.00  0.00     0.074 A 
ATOM     37  C   UNL A   1      39.244  29.570  29.217  1.00  0.00     0.049 A 
ATOM     38  N   UNL A   1      39.812  30.422  32.052  1.00  0.00    -0.248 NA
ATOM     39  C   UNL A   1      37.947  31.819  31.968  1.00  0.00     0.031 C 
ATOM     40  C   UNL A   1      39.065  29.196  27.811  1.00  0.00     0.029 A 
ATOM     41  N   UNL A   1      40.382  28.904  29.591  1.00  0.00    -0.354 N 
ATOM     42  C   UNL A   1      39.733  31.166  33.225  1.00  0.00     0.074 A 
ATOM     43  C   UNL A   1      38.615  32.068  33.082  1.00  0.00     0.031 C 
ATOM     44  C   UNL A   1      40.036  28.341  27.454  1.00  0.00     0.029 A 
ATOM     45  C   UNL A   1      40.923  28.129  28.591  1.00  0.00     0.049 A 
ATOM     46  H   UNL A   1      40.776  28.973  30.491  1.00  0.00     0.167 HD
ATOM     47  C   UNL A   1      40.495  31.075  34.339  1.00  0.00     0.034 A 
ATOM     48  C   UNL A   1      42.006  27.330  28.596  1.00  0.00     0.034 A 
ATOM     49  C   UNL A   1      41.572  30.137  34.490  1.00  0.00     0.049 A 
ATOM     50  C   UNL A   1      42.786  27.183  29.874  1.00  0.00     0.074 A 
ATOM     51  C   UNL A   1      42.350  29.891  35.608  1.00  0.00     0.029 A 
ATOM     52  N   UNL A   1      42.027  29.291  33.490  1.00  0.00    -0.354 N 
ATOM     53  N   UNL A   1      42.591  27.769  31.031  1.00  0.00    -0.248 NA
ATOM     54  C   UNL A   1      43.902  26.230  29.861  1.00  0.00     0.031 C 
ATOM     55  C   UNL A   1      43.293  28.913  35.273  1.00  0.00     0.029 A 
ATOM     56  C   UNL A   1      43.077  28.523  33.960  1.00  0.00     0.049 A 
ATOM     57  H   UNL A   1      41.657  29.245  32.579  1.00  0.00     0.167 HD
ATOM     58  C   UNL A   1      43.537  27.229  31.894  1.00  0.00     0.074 A 
ATOM     59  C   UNL A   1      44.283  26.249  31.130  1.00  0.00     0.031 C 
ATOM     60  C   UNL A   1      43.777  27.523  33.196  1.00  0.00     0.034 A 
BRANCH  47  61
ATOM     61  C   UNL A   1      40.149  31.975  35.499  1.00  0.00     0.023 A 
ATOM     62  C   UNL A   1      40.850  33.186  35.678  1.00  0.00     0.012 A 
ATOM     63  C   UNL A   1      39.105  31.646  36.385  1.00  0.00     0.148 A 
ATOM     64  C   UNL A   1      40.548  34.035  36.742  1.00  0.00     0.002 A 
ATOM     65  C   UNL A   1      38.773  32.523  37.412  1.00  0.00     0.091 A 
ATOM     66  F   UNL A   1      38.465  30.481  36.215  1.00  0.00    -0.205 F 
ATOM     67  C   UNL A   1      39.502  33.709  37.600  1.00  0.00     0.022 A 
BRANCH  65  68
ATOM     68  S   UNL A   1      37.389  32.238  38.520  1.00  0.00     0.127 S 
ATOM     69  O   UNL A   1      37.905  32.772  39.779  1.00  0.00    -0.237 OA
ATOM     70  O   UNL A   1      36.334  33.044  37.904  1.00  0.00    -0.237 OA
ATOM     71  O   UNL A   1      37.148  30.803  38.503  1.00  0.00    -0.744 OA
ENDBRANCH  65  68
ENDBRANCH  47  61
BRANCH  48  72
ATOM     72  C   UNL A   1      42.360  26.543  27.380  1.00  0.00     0.023 A 
ATOM     73  C   UNL A   1      43.035  27.175  26.318  1.00  0.00     0.012 A 
ATOM     74  C   UNL A   1      42.061  25.171  27.285  1.00  0.00     0.148 A 
ATOM     75  C   UNL A   1      43.371  26.465  25.164  1.00  0.00     0.002 A 
ATOM     76  C   UNL A   1      42.451  24.456  26.158  1.00  0.00     0.091 A 
ATOM     77  F   UNL A   1      41.415  24.590  28.304  1.00  0.00    -0.205 F 
ATOM     78  C   UNL A   1      43.088  25.105  25.088  1.00  0.00     0.022 A 
BRANCH  76  79
ATOM     79  S   UNL A   1      42.252  22.675  26.033  1.00  0.00     0.127 S 
ATOM     80  O   UNL A   1      42.902  22.390  24.757  1.00  0.00    -0.237 OA
ATOM     81  O   UNL A   1      42.979  22.207  27.215  1.00  0.00    -0.237 OA
ATOM     82  O   UNL A   1      40.815  22.437  26.080  1.00  0.00    -0.744 OA
ENDBRANCH  76  79
ENDBRANCH  48  72
BRANCH  60  83
ATOM     83  C   UNL A   1      44.864  26.745  33.889  1.00  0.00     0.023 A 
ATOM     84  C   UNL A   1      46.193  27.212  33.867  1.00  0.00     0.012 A 
ATOM     85  C   UNL A   1      44.556  25.567  34.598  1.00  0.00     0.148 A 
ATOM     86  C   UNL A   1      47.207  26.491  34.495  1.00  0.00     0.002 A 
ATOM     87  C   UNL A   1      45.562  24.884  35.269  1.00  0.00     0.091 A 
ATOM     88  F   UNL A   1      43.288  25.128  34.592  1.00  0.00    -0.205 F 
ATOM     89  C   UNL A   1      46.889  25.335  35.204  1.00  0.00     0.022 A 
BRANCH  87  90
ATOM     90  S   UNL A   1      45.223  23.447  36.290  1.00  0.00     0.127 S 
ATOM     91  O   UNL A   1      44.259  22.718  35.467  1.00  0.00    -0.237 OA
ATOM     92  O   UNL A   1      46.541  22.817  36.388  1.00  0.00    -0.237 OA
ATOM     93  O   UNL A   1      44.710  23.965  37.551  1.00  0.00    -0.744 OA
ENDBRANCH  87  90
ENDBRANCH  60  83
ENDBRANCH  34  35
ENDBRANCH  26  29
ENDBRANCH  24  25
ENDBRANCH   1  24
TORSDOF 17
ENDMDL
MODEL 2
REMARK VINA RESULT:     -12.6      1.436      1.821
REMARK SMILES CC[C@@H]1CCC[C@@](Cc2cccc(O)c2)(C(=O)NCCCNC(=O)c2ccc(-c3c4nc(c(-c5cccc(S(=O)(=O)[O-])c5F)c5ccc([nH]5)c(-c5cccc(S(=O)(=O)[O-])c5F)c5nc(c(-c6cccc(S(=O)(=O)[O-])c6F)c6ccc3[nH]6)C=C5)C=C4)cc2)C1
REMARK SMILES IDX 20 1 19 2 18 3 16 4 17 5 7 7 3 8 4 9 88 10 5 11 6 12 2 13
REMARK SMILES IDX 1 14 8 15 9 16 10 17 15 18 11 19 13 20 12 21 14 22 21 24
REMARK SMILES IDX 22 25 23 26 24 28 25 29 26 30 87 31 27 32 86 33 28 34 29 35
REMARK SMILES IDX 30 36 80 37 31 38 85 39 79 40 81 41 32 42 84 43 78 44 77 45
REMARK SMILES IDX 33 47 65 48 45 49 64 50 46 51 49 52 63 53 82 54 47 55 48 56
REMARK SMILES IDX 62 58 83 59 50 60 34 61 35 62 43 63 36 64 38 65 44 66 37 67
REMARK SMILES IDX 39 68 40 69 41 70 42 71 66 72 67 73 75 74 68 75 70 76 76 77
REMARK SMILES IDX 69 78 71 79 72 80 73 81 74 82 51 83 52 84 60 85 53 86 55 87
REMARK SMILES IDX 61 88 54 89 56 90 57 91 58 92 59 93
REMARK H PARENT 18 6 14 23 22 27 81 46 49 57
REMARK Flexibility Score: inf
ROOT
ATOM      1  C   UNL A   1      31.906  28.659  26.830  1.00  0.00     0.042 C 
ENDROOT
BRANCH   1   2
ATOM      2  C   UNL A   1      31.708  27.339  26.130  1.00  0.00     0.117 C 
BRANCH   2   3
ATOM      3  N   UNL A   1      32.913  26.600  25.845  1.00  0.00    -0.356 N 
ATOM      4  C   UNL A   1      33.114  25.638  24.903  1.00  0.00     0.226 C 
ATOM      5  O   UNL A   1      34.274  25.532  24.487  1.00  0.00    -0.274 OA
ATOM      6  H   UNL A   1      33.693  26.820  26.405  1.00  0.00     0.163 HD
BRANCH   4   7
ATOM      7  C   UNL A   1      31.976  24.731  24.360  1.00  0.00     0.053 C 
ATOM      8  C   UNL A   1      33.205  22.565  25.178  1.00  0.00    -0.010 C 
ATOM      9  C   UNL A   1      32.158  22.393  26.287  1.00  0.00     0.003 C 
ATOM     10  C   UNL A   1      32.635  23.355  23.977  1.00  0.00     0.020 C 
ATOM     11  C   UNL A   1      31.462  23.699  26.643  1.00  0.00     0.001 C 
ATOM     12  C   UNL A   1      30.883  24.370  25.397  1.00  0.00     0.017 C 
BRANCH   8  13
ATOM     13  C   UNL A   1      33.731  21.177  24.761  1.00  0.00     0.000 C 
ATOM     14  C   UNL A   1      32.641  20.206  24.332  1.00  0.00     0.004 C 
ENDBRANCH   8  13
BRANCH   7  15
ATOM     15  C   UNL A   1      31.410  25.309  23.014  1.00  0.00     0.052 C 
BRANCH  15  16
ATOM     16  C   UNL A   1      30.649  26.617  23.020  1.00  0.00    -0.043 A 
ATOM     17  C   UNL A   1      29.327  26.675  23.494  1.00  0.00     0.004 A 
ATOM     18  C   UNL A   1      31.225  27.784  22.497  1.00  0.00     0.049 A 
ATOM     19  C   UNL A   1      28.571  27.846  23.359  1.00  0.00     0.004 A 
ATOM     20  C   UNL A   1      30.461  28.942  22.360  1.00  0.00     0.115 A 
ATOM     21  C   UNL A   1      29.133  28.978  22.768  1.00  0.00     0.046 A 
BRANCH  20  22
ATOM     22  O   UNL A   1      31.053  30.024  21.779  1.00  0.00    -0.508 OA
ATOM     23  H   UNL A   1      30.861  30.240  20.888  1.00  0.00     0.293 HD
ENDBRANCH  20  22
ENDBRANCH  15  16
ENDBRANCH   7  15
ENDBRANCH   4   7
ENDBRANCH   2   3
ENDBRANCH   1   2
BRANCH   1  24
ATOM     24  C   UNL A   1      32.728  29.634  26.008  1.00  0.00     0.118 C 
BRANCH  24  25
ATOM     25  N   UNL A   1      32.527  31.034  26.396  1.00  0.00    -0.352 N 
ATOM     26  C   UNL A   1      33.252  31.841  27.236  1.00  0.00     0.251 C 
ATOM     27  H   UNL A   1      31.744  31.467  25.985  1.00  0.00     0.163 HD
ATOM     28  O   UNL A   1      32.796  32.929  27.584  1.00  0.00    -0.269 OA
BRANCH  26  29
ATOM     29  C   UNL A   1      34.564  31.386  27.730  1.00  0.00     0.039 A 
ATOM     30  C   UNL A   1      35.598  32.308  27.899  1.00  0.00     0.014 A 
ATOM     31  C   UNL A   1      34.755  30.046  28.068  1.00  0.00     0.014 A 
ATOM     32  C   UNL A   1      36.791  31.893  28.491  1.00  0.00     0.010 A 
ATOM     33  C   UNL A   1      35.875  29.674  28.792  1.00  0.00     0.010 A 
ATOM     34  C   UNL A   1      36.917  30.585  28.991  1.00  0.00    -0.014 A 
BRANCH  34  35
ATOM     35  C   UNL A   1      38.129  30.149  29.725  1.00  0.00     0.031 A 
ATOM     36  C   UNL A   1      38.385  30.640  31.126  1.00  0.00     0.074 A 
ATOM     37  C   UNL A   1      39.039  29.382  29.093  1.00  0.00     0.049 A 
ATOM     38  N   UNL A   1      39.392  30.376  31.917  1.00  0.00    -0.248 NA
ATOM     39  C   UNL A   1      37.409  31.581  31.703  1.00  0.00     0.031 C 
ATOM     40  C   UNL A   1      38.961  28.947  27.695  1.00  0.00     0.029 A 
ATOM     41  N   UNL A   1      40.218  28.841  29.539  1.00  0.00    -0.354 N 
ATOM     42  C   UNL A   1      39.190  31.145  33.058  1.00  0.00     0.074 A 
ATOM     43  C   UNL A   1      37.999  31.930  32.835  1.00  0.00     0.031 C 
ATOM     44  C   UNL A   1      40.024  28.179  27.411  1.00  0.00     0.029 A 
ATOM     45  C   UNL A   1      40.875  28.091  28.592  1.00  0.00     0.049 A 
ATOM     46  H   UNL A   1      40.562  28.977  30.452  1.00  0.00     0.167 HD
ATOM     47  C   UNL A   1      39.905  31.164  34.206  1.00  0.00     0.034 A 
ATOM     48  C   UNL A   1      42.028  27.402  28.672  1.00  0.00     0.034 A 
ATOM     49  C   UNL A   1      41.059  30.340  34.437  1.00  0.00     0.049 A 
ATOM     50  C   UNL A   1      42.759  27.372  29.986  1.00  0.00     0.074 A 
ATOM     51  C   UNL A   1      41.805  30.207  35.594  1.00  0.00     0.029 A 
ATOM     52  N   UNL A   1      41.638  29.511  33.488  1.00  0.00    -0.354 N 
ATOM     53  N   UNL A   1      42.457  27.973  31.112  1.00  0.00    -0.248 NA
ATOM     54  C   UNL A   1      43.961  26.532  30.055  1.00  0.00     0.031 C 
ATOM     55  C   UNL A   1      42.851  29.315  35.335  1.00  0.00     0.029 A 
ATOM     56  C   UNL A   1      42.734  28.864  34.029  1.00  0.00     0.049 A 
ATOM     57  H   UNL A   1      41.316  29.400  32.565  1.00  0.00     0.167 HD
ATOM     58  C   UNL A   1      43.409  27.555  32.033  1.00  0.00     0.074 A 
ATOM     59  C   UNL A   1      44.280  26.628  31.337  1.00  0.00     0.031 C 
ATOM     60  C   UNL A   1      43.560  27.913  33.333  1.00  0.00     0.034 A 
BRANCH  47  61
ATOM     61  C   UNL A   1      39.422  32.063  35.317  1.00  0.00     0.023 A 
ATOM     62  C   UNL A   1      38.497  31.571  36.262  1.00  0.00     0.012 A 
ATOM     63  C   UNL A   1      39.914  33.375  35.453  1.00  0.00     0.148 A 
ATOM     64  C   UNL A   1      38.037  32.383  37.299  1.00  0.00     0.002 A 
ATOM     65  C   UNL A   1      39.491  34.160  36.520  1.00  0.00     0.091 A 
ATOM     66  F   UNL A   1      40.773  33.834  34.533  1.00  0.00    -0.205 F 
ATOM     67  C   UNL A   1      38.543  33.671  37.434  1.00  0.00     0.022 A 
BRANCH  65  68
ATOM     68  S   UNL A   1      40.146  35.803  36.833  1.00  0.00     0.127 S 
ATOM     69  O   UNL A   1      39.654  36.542  35.672  1.00  0.00    -0.237 OA
ATOM     70  O   UNL A   1      39.498  36.154  38.098  1.00  0.00    -0.237 OA
ATOM     71  O   UNL A   1      41.591  35.653  36.910  1.00  0.00    -0.744 OA
ENDBRANCH  65  68
ENDBRANCH  47  61
BRANCH  48  72
ATOM     72  C   UNL A   1      42.511  26.615  27.501  1.00  0.00     0.023 A 
ATOM     73  C   UNL A   1      43.357  27.226  26.556  1.00  0.00     0.012 A 
ATOM     74  C   UNL A   1      42.163  25.260  27.338  1.00  0.00     0.148 A 
ATOM     75  C   UNL A   1      43.817  26.516  25.446  1.00  0.00     0.002 A 
ATOM     76  C   UNL A   1      42.673  24.542  26.262  1.00  0.00     0.091 A 
ATOM     77  F   UNL A   1      41.354  24.699  28.245  1.00  0.00    -0.205 F 
ATOM     78  C   UNL A   1      43.483  25.172  25.304  1.00  0.00     0.022 A 
BRANCH  76  79
ATOM     79  S   UNL A   1      42.408  22.775  26.074  1.00  0.00     0.127 S 
ATOM     80  O   UNL A   1      43.120  22.241  27.232  1.00  0.00    -0.237 OA
ATOM     81  O   UNL A   1      40.949  22.680  26.150  1.00  0.00    -0.237 OA
ATOM     82  O   UNL A   1      42.964  22.431  24.773  1.00  0.00    -0.744 OA
ENDBRANCH  76  79
ENDBRANCH  48  72
BRANCH  60  83
ATOM     83  C   UNL A   1      44.683  27.266  34.099  1.00  0.00     0.023 A 
ATOM     84  C   UNL A   1      45.976  27.826  34.067  1.00  0.00     0.012 A 
ATOM     85  C   UNL A   1      44.444  26.122  34.885  1.00  0.00     0.148 A 
ATOM     86  C   UNL A   1      47.024  27.226  34.763  1.00  0.00     0.002 A 
ATOM     87  C   UNL A   1      45.480  25.563  35.621  1.00  0.00     0.091 A 
ATOM     88  F   UNL A   1      43.211  25.593  34.889  1.00  0.00    -0.205 F 
ATOM     89  C   UNL A   1      46.774  26.103  35.548  1.00  0.00     0.022 A 
BRANCH  87  90
ATOM     90  S   UNL A   1      45.222  24.181  36.737  1.00  0.00     0.127 S 
ATOM     91  O   UNL A   1      44.767  23.139  35.818  1.00  0.00    -0.237 OA
ATOM     92  O   UNL A   1      46.562  23.968  37.286  1.00  0.00    -0.237 OA
ATOM     93  O   UNL A   1      44.238  24.633  37.712  1.00  0.00    -0.744 OA
ENDBRANCH  87  90
ENDBRANCH  60  83
ENDBRANCH  34  35
ENDBRANCH  26  29
ENDBRANCH  24  25
ENDBRANCH   1  24
TORSDOF 17
ENDMDL
MODEL 3
REMARK VINA RESULT:     -12.6      5.085     10.100
REMARK SMILES CC[C@@H]1CCC[C@@](Cc2cccc(O)c2)(C(=O)NCCCNC(=O)c2ccc(-c3c4nc(c(-c5cccc(S(=O)(=O)[O-])c5F)c5ccc([nH]5)c(-c5cccc(S(=O)(=O)[O-])c5F)c5nc(c(-c6cccc(S(=O)(=O)[O-])c6F)c6ccc3[nH]6)C=C5)C=C4)cc2)C1
REMARK SMILES IDX 20 1 19 2 18 3 16 4 17 5 7 7 3 8 4 9 88 10 5 11 6 12 2 13
REMARK SMILES IDX 1 14 8 15 9 16 10 17 15 18 11 19 13 20 12 21 14 22 21 24
REMARK SMILES IDX 22 25 23 26 24 28 25 29 26 30 87 31 27 32 86 33 28 34 29 35
REMARK SMILES IDX 30 36 80 37 31 38 85 39 79 40 81 41 32 42 84 43 78 44 77 45
REMARK SMILES IDX 33 47 65 48 45 49 64 50 46 51 49 52 63 53 82 54 47 55 48 56
REMARK SMILES IDX 62 58 83 59 50 60 34 61 35 62 43 63 36 64 38 65 44 66 37 67
REMARK SMILES IDX 39 68 40 69 41 70 42 71 66 72 67 73 75 74 68 75 70 76 76 77
REMARK SMILES IDX 69 78 71 79 72 80 73 81 74 82 51 83 52 84 60 85 53 86 55 87
REMARK SMILES IDX 61 88 54 89 56 90 57 91 58 92 59 93
REMARK H PARENT 18 6 14 23 22 27 81 46 49 57
REMARK Flexibility Score: inf
ROOT
ATOM      1  C   UNL A   1      35.624  21.311  25.373  1.00  0.00     0.042 C 
ENDROOT
BRANCH   1   2
ATOM      2  C   UNL A   1      34.615  22.429  25.339  1.00  0.00     0.117 C 
BRANCH   2   3
ATOM      3  N   UNL A   1      34.425  23.056  24.053  1.00  0.00    -0.356 N 
ATOM      4  C   UNL A   1      33.958  24.305  23.780  1.00  0.00     0.226 C 
ATOM      5  O   UNL A   1      34.361  24.808  22.724  1.00  0.00    -0.274 OA
ATOM      6  H   UNL A   1      34.666  22.509  23.270  1.00  0.00     0.163 HD
BRANCH   4   7
ATOM      7  C   UNL A   1      32.992  25.075  24.723  1.00  0.00     0.053 C 
ATOM      8  C   UNL A   1      31.477  25.796  22.709  1.00  0.00    -0.010 C 
ATOM      9  C   UNL A   1      30.390  24.821  23.182  1.00  0.00     0.003 C 
ATOM     10  C   UNL A   1      32.378  26.252  23.880  1.00  0.00     0.020 C 
ATOM     11  C   UNL A   1      30.945  23.699  24.045  1.00  0.00     0.001 C 
ATOM     12  C   UNL A   1      31.769  24.256  25.207  1.00  0.00     0.017 C 
BRANCH   8  13
ATOM     13  C   UNL A   1      30.810  26.988  21.994  1.00  0.00     0.000 C 
ATOM     14  C   UNL A   1      30.474  28.152  22.914  1.00  0.00     0.004 C 
ENDBRANCH   8  13
BRANCH   7  15
ATOM     15  C   UNL A   1      33.793  25.766  25.882  1.00  0.00     0.052 C 
BRANCH  15  16
ATOM     16  C   UNL A   1      33.318  27.090  26.439  1.00  0.00    -0.043 A 
ATOM     17  C   UNL A   1      32.018  27.222  26.960  1.00  0.00     0.004 A 
ATOM     18  C   UNL A   1      34.140  28.225  26.392  1.00  0.00     0.049 A 
ATOM     19  C   UNL A   1      31.524  28.478  27.335  1.00  0.00     0.004 A 
ATOM     20  C   UNL A   1      33.635  29.471  26.760  1.00  0.00     0.115 A 
ATOM     21  C   UNL A   1      32.328  29.612  27.212  1.00  0.00     0.046 A 
BRANCH  20  22
ATOM     22  O   UNL A   1      34.457  30.550  26.625  1.00  0.00    -0.508 OA
ATOM     23  H   UNL A   1      34.478  31.210  27.289  1.00  0.00     0.293 HD
ENDBRANCH  20  22
ENDBRANCH  15  16
ENDBRANCH   7  15
ENDBRANCH   4   7
ENDBRANCH   2   3
ENDBRANCH   1   2
BRANCH   1  24
ATOM     24  C   UNL A   1      37.051  21.813  25.255  1.00  0.00     0.118 C 
BRANCH  24  25
ATOM     25  N   UNL A   1      38.054  20.783  25.547  1.00  0.00    -0.352 N 
ATOM     26  C   UNL A   1      39.318  20.889  26.070  1.00  0.00     0.251 C 
ATOM     27  H   UNL A   1      37.774  19.863  25.333  1.00  0.00     0.163 HD
ATOM     28  O   UNL A   1      40.074  19.920  26.046  1.00  0.00    -0.269 OA
BRANCH  26  29
ATOM     29  C   UNL A   1      39.764  22.174  26.639  1.00  0.00     0.039 A 
ATOM     30  C   UNL A   1      40.758  22.188  27.618  1.00  0.00     0.014 A 
ATOM     31  C   UNL A   1      39.224  23.370  26.168  1.00  0.00     0.014 A 
ATOM     32  C   UNL A   1      41.267  23.412  28.054  1.00  0.00     0.010 A 
ATOM     33  C   UNL A   1      39.834  24.571  26.486  1.00  0.00     0.010 A 
ATOM     34  C   UNL A   1      40.846  24.611  27.451  1.00  0.00    -0.014 A 
BRANCH  34  35
ATOM     35  C   UNL A   1      41.450  25.915  27.814  1.00  0.00     0.031 A 
ATOM     36  C   UNL A   1      42.873  26.225  27.429  1.00  0.00     0.074 A 
ATOM     37  C   UNL A   1      40.741  26.781  28.565  1.00  0.00     0.049 A 
ATOM     38  N   UNL A   1      43.571  27.304  27.669  1.00  0.00    -0.248 NA
ATOM     39  C   UNL A   1      43.627  25.175  26.722  1.00  0.00     0.031 C 
ATOM     40  C   UNL A   1      39.399  26.539  29.102  1.00  0.00     0.029 A 
ATOM     41  N   UNL A   1      41.055  28.036  29.019  1.00  0.00    -0.354 N 
ATOM     42  C   UNL A   1      44.847  27.046  27.180  1.00  0.00     0.074 A 
ATOM     43  C   UNL A   1      44.845  25.690  26.685  1.00  0.00     0.031 C 
ATOM     44  C   UNL A   1      38.992  27.624  29.781  1.00  0.00     0.029 A 
ATOM     45  C   UNL A   1      40.052  28.624  29.755  1.00  0.00     0.049 A 
ATOM     46  H   UNL A   1      41.917  28.475  28.836  1.00  0.00     0.167 HD
ATOM     47  C   UNL A   1      45.913  27.877  27.109  1.00  0.00     0.034 A 
ATOM     48  C   UNL A   1      39.993  29.838  30.333  1.00  0.00     0.034 A 
ATOM     49  C   UNL A   1      45.887  29.241  27.558  1.00  0.00     0.049 A 
ATOM     50  C   UNL A   1      41.159  30.772  30.167  1.00  0.00     0.074 A 
ATOM     51  C   UNL A   1      46.876  30.203  27.448  1.00  0.00     0.029 A 
ATOM     52  N   UNL A   1      44.816  29.838  28.206  1.00  0.00    -0.354 N 
ATOM     53  N   UNL A   1      42.298  30.569  29.549  1.00  0.00    -0.248 NA
ATOM     54  C   UNL A   1      41.013  32.119  30.733  1.00  0.00     0.031 C 
ATOM     55  C   UNL A   1      46.410  31.374  28.056  1.00  0.00     0.029 A 
ATOM     56  C   UNL A   1      45.119  31.153  28.507  1.00  0.00     0.049 A 
ATOM     57  H   UNL A   1      43.967  29.390  28.420  1.00  0.00     0.167 HD
ATOM     58  C   UNL A   1      42.989  31.772  29.619  1.00  0.00     0.074 A 
ATOM     59  C   UNL A   1      42.126  32.705  30.317  1.00  0.00     0.031 C 
ATOM     60  C   UNL A   1      44.229  32.077  29.163  1.00  0.00     0.034 A 
BRANCH  47  61
ATOM     61  C   UNL A   1      47.172  27.347  26.471  1.00  0.00     0.023 A 
ATOM     62  C   UNL A   1      47.435  27.618  25.112  1.00  0.00     0.012 A 
ATOM     63  C   UNL A   1      48.115  26.620  27.223  1.00  0.00     0.148 A 
ATOM     64  C   UNL A   1      48.594  27.141  24.500  1.00  0.00     0.002 A 
ATOM     65  C   UNL A   1      49.293  26.192  26.620  1.00  0.00     0.091 A 
ATOM     66  F   UNL A   1      47.838  26.350  28.506  1.00  0.00    -0.205 F 
ATOM     67  C   UNL A   1      49.527  26.439  25.257  1.00  0.00     0.022 A 
BRANCH  65  68
ATOM     68  S   UNL A   1      50.597  25.355  27.527  1.00  0.00     0.127 S 
ATOM     69  O   UNL A   1      49.891  24.184  28.044  1.00  0.00    -0.237 OA
ATOM     70  O   UNL A   1      51.567  25.066  26.470  1.00  0.00    -0.237 OA
ATOM     71  O   UNL A   1      51.058  26.300  28.534  1.00  0.00    -0.744 OA
ENDBRANCH  65  68
ENDBRANCH  47  61
BRANCH  48  72
ATOM     72  C   UNL A   1      38.754  30.267  31.045  1.00  0.00     0.023 A 
ATOM     73  C   UNL A   1      38.595  29.955  32.409  1.00  0.00     0.012 A 
ATOM     74  C   UNL A   1      37.753  31.006  30.387  1.00  0.00     0.148 A 
ATOM     75  C   UNL A   1      37.442  30.336  33.097  1.00  0.00     0.002 A 
ATOM     76  C   UNL A   1      36.634  31.434  31.093  1.00  0.00     0.091 A 
ATOM     77  F   UNL A   1      37.922  31.288  29.088  1.00  0.00    -0.205 F 
ATOM     78  C   UNL A   1      36.467  31.083  32.442  1.00  0.00     0.022 A 
BRANCH  76  79
ATOM     79  S   UNL A   1      35.396  32.516  30.369  1.00  0.00     0.127 S 
ATOM     80  O   UNL A   1      36.192  33.689  30.020  1.00  0.00    -0.237 OA
ATOM     81  O   UNL A   1      34.934  31.722  29.228  1.00  0.00    -0.237 OA
ATOM     82  O   UNL A   1      34.394  32.715  31.407  1.00  0.00    -0.744 OA
ENDBRANCH  76  79
ENDBRANCH  48  72
BRANCH  60  83
ATOM     83  C   UNL A   1      44.709  33.490  29.363  1.00  0.00     0.023 A 
ATOM     84  C   UNL A   1      45.313  33.866  30.580  1.00  0.00     0.012 A 
ATOM     85  C   UNL A   1      44.595  34.435  28.325  1.00  0.00     0.148 A 
ATOM     86  C   UNL A   1      45.748  35.175  30.778  1.00  0.00     0.002 A 
ATOM     87  C   UNL A   1      45.083  35.722  28.510  1.00  0.00     0.091 A 
ATOM     88  F   UNL A   1      44.002  34.064  27.181  1.00  0.00    -0.205 F 
ATOM     89  C   UNL A   1      45.643  36.099  29.741  1.00  0.00     0.022 A 
BRANCH  87  90
ATOM     90  S   UNL A   1      45.082  36.942  27.193  1.00  0.00     0.127 S 
ATOM     91  O   UNL A   1      45.923  36.295  26.188  1.00  0.00    -0.237 OA
ATOM     92  O   UNL A   1      43.664  37.022  26.843  1.00  0.00    -0.237 OA
ATOM     93  O   UNL A   1      45.627  38.161  27.778  1.00  0.00    -0.744 OA
ENDBRANCH  87  90
ENDBRANCH  60  83
ENDBRANCH  34  35
ENDBRANCH  26  29
ENDBRANCH  24  25
ENDBRANCH   1  24
TORSDOF 17
ENDMDL
