MODEL 1
REMARK VINA RESULT:     -12.3      0.000      0.000
REMARK SMILES CC1(C)[C@H](C(=O)NCCCNC(=O)c2ccc(-c3c4nc(c(-c5cccc(S(=O)(=O)[O-])c5F)c5ccc([nH]5)c(-c5cccc(S(=O)(=O)[O-])c5F)c5nc(c(-c6cccc(S(=O)(=O)[O-])c6F)c6ccc3[nH]6)C=C5)C=C4)cc2)[C@@H]1c1nc2ccc(F)cc2s1
REMARK SMILES IDX 10 1 9 2 8 3 7 4 5 5 6 6 4 8 1 9 2 10 3 11 77 12 78 13 79 14
REMARK SMILES IDX 87 15 80 16 86 17 81 18 85 19 82 20 83 21 84 22 11 23 12 24
REMARK SMILES IDX 13 26 14 27 15 28 76 29 16 30 75 31 17 32 18 33 19 34 69 35
REMARK SMILES IDX 20 36 74 37 68 38 70 39 21 40 73 41 67 42 66 43 22 45 54 46
REMARK SMILES IDX 34 47 53 48 35 49 38 50 52 51 71 52 36 53 37 54 51 56 72 57
REMARK SMILES IDX 39 58 23 59 24 60 32 61 25 62 27 63 33 64 26 65 28 66 29 67
REMARK SMILES IDX 30 68 31 69 55 70 56 71 64 72 57 73 59 74 65 75 58 76 60 77
REMARK SMILES IDX 61 78 62 79 63 80 40 81 41 82 49 83 42 84 44 85 50 86 43 87
REMARK SMILES IDX 45 88 46 89 47 90 48 91
REMARK H PARENT 7 7 11 25 70 44 38 55
REMARK Flexibility Score: inf
ROOT
ATOM      1  C   UNL A   1      33.383  29.264  24.960  1.00  0.00     0.118 C 
ENDROOT
BRANCH   1   2
ATOM      2  C   UNL A   1      32.503  28.033  24.995  1.00  0.00     0.042 C 
BRANCH   2   3
ATOM      3  C   UNL A   1      32.610  27.194  23.737  1.00  0.00     0.117 C 
BRANCH   3   4
ATOM      4  N   UNL A   1      33.609  26.169  23.804  1.00  0.00    -0.356 N 
ATOM      5  C   UNL A   1      33.666  24.986  24.482  1.00  0.00     0.224 C 
ATOM      6  O   UNL A   1      34.680  24.313  24.271  1.00  0.00    -0.275 OA
ATOM      7  H   UNL A   1      34.406  26.352  23.257  1.00  0.00     0.163 HD
BRANCH   5   8
ATOM      8  C   UNL A   1      32.677  24.406  25.433  1.00  0.00     0.095 C 
ATOM      9  C   UNL A   1      30.230  24.715  26.127  1.00  0.00     0.013 C 
ATOM     10  C   UNL A   1      31.203  24.067  25.158  1.00  0.00    -0.013 C 
ATOM     11  C   UNL A   1      30.654  24.067  23.755  1.00  0.00     0.013 C 
ATOM     12  C   UNL A   1      32.168  23.026  25.712  1.00  0.00     0.068 C 
BRANCH  12  13
ATOM     13  C   UNL A   1      32.778  21.767  25.114  1.00  0.00     0.098 A 
ATOM     14  N   UNL A   1      32.149  21.172  24.125  1.00  0.00    -0.241 NA
ATOM     15  S   UNL A   1      34.304  21.087  25.510  1.00  0.00    -0.118 S 
ATOM     16  C   UNL A   1      32.726  19.939  23.884  1.00  0.00     0.082 A 
ATOM     17  C   UNL A   1      33.867  19.658  24.643  1.00  0.00     0.057 A 
ATOM     18  C   UNL A   1      32.237  18.958  22.996  1.00  0.00     0.033 A 
ATOM     19  C   UNL A   1      34.478  18.395  24.620  1.00  0.00     0.060 A 
ATOM     20  C   UNL A   1      32.847  17.702  22.952  1.00  0.00     0.041 A 
ATOM     21  C   UNL A   1      33.934  17.431  23.772  1.00  0.00     0.124 A 
ATOM     22  F   UNL A   1      34.478  16.206  23.740  1.00  0.00    -0.207 F 
ENDBRANCH  12  13
ENDBRANCH   5   8
ENDBRANCH   3   4
ENDBRANCH   2   3
ENDBRANCH   1   2
BRANCH   1  23
ATOM     23  N   UNL A   1      32.756  30.408  25.614  1.00  0.00    -0.352 N 
ATOM     24  C   UNL A   1      33.097  31.064  26.773  1.00  0.00     0.251 C 
ATOM     25  H   UNL A   1      31.964  30.767  25.152  1.00  0.00     0.163 HD
ATOM     26  O   UNL A   1      32.311  31.862  27.272  1.00  0.00    -0.269 OA
BRANCH  24  27
ATOM     27  C   UNL A   1      34.399  30.795  27.421  1.00  0.00     0.039 A 
ATOM     28  C   UNL A   1      35.285  31.852  27.646  1.00  0.00     0.014 A 
ATOM     29  C   UNL A   1      34.746  29.500  27.810  1.00  0.00     0.014 A 
ATOM     30  C   UNL A   1      36.483  31.616  28.327  1.00  0.00     0.010 A 
ATOM     31  C   UNL A   1      35.873  29.292  28.592  1.00  0.00     0.010 A 
ATOM     32  C   UNL A   1      36.766  30.342  28.843  1.00  0.00    -0.014 A 
BRANCH  32  33
ATOM     33  C   UNL A   1      37.998  30.063  29.623  1.00  0.00     0.031 A 
ATOM     34  C   UNL A   1      39.020  29.096  29.082  1.00  0.00     0.074 A 
ATOM     35  C   UNL A   1      38.153  30.602  30.849  1.00  0.00     0.049 A 
ATOM     36  N   UNL A   1      40.101  28.634  29.653  1.00  0.00    -0.248 NA
ATOM     37  C   UNL A   1      38.776  28.546  27.736  1.00  0.00     0.031 C 
ATOM     38  C   UNL A   1      37.200  31.495  31.512  1.00  0.00     0.029 A 
ATOM     39  N   UNL A   1      39.158  30.451  31.771  1.00  0.00    -0.354 N 
ATOM     40  C   UNL A   1      40.641  27.719  28.757  1.00  0.00     0.074 A 
ATOM     41  C   UNL A   1      39.746  27.652  27.625  1.00  0.00     0.031 C 
ATOM     42  C   UNL A   1      37.671  31.821  32.726  1.00  0.00     0.029 A 
ATOM     43  C   UNL A   1      38.935  31.128  32.948  1.00  0.00     0.049 A 
ATOM     44  H   UNL A   1      39.964  29.910  31.606  1.00  0.00     0.167 HD
ATOM     45  C   UNL A   1      41.799  27.024  28.848  1.00  0.00     0.034 A 
ATOM     46  C   UNL A   1      39.661  31.174  34.083  1.00  0.00     0.034 A 
ATOM     47  C   UNL A   1      42.711  27.130  29.954  1.00  0.00     0.049 A 
ATOM     48  C   UNL A   1      40.954  30.404  34.148  1.00  0.00     0.074 A 
ATOM     49  C   UNL A   1      43.944  26.524  30.112  1.00  0.00     0.029 A 
ATOM     50  N   UNL A   1      42.489  27.893  31.089  1.00  0.00    -0.354 N 
ATOM     51  N   UNL A   1      41.514  29.651  33.233  1.00  0.00    -0.248 NA
ATOM     52  C   UNL A   1      41.734  30.520  35.389  1.00  0.00     0.031 C 
ATOM     53  C   UNL A   1      44.457  26.900  31.356  1.00  0.00     0.029 A 
ATOM     54  C   UNL A   1      43.561  27.771  31.955  1.00  0.00     0.049 A 
ATOM     55  H   UNL A   1      41.687  28.441  31.254  1.00  0.00     0.167 HD
ATOM     56  C   UNL A   1      42.732  29.244  33.767  1.00  0.00     0.074 A 
ATOM     57  C   UNL A   1      42.834  29.847  35.079  1.00  0.00     0.031 C 
ATOM     58  C   UNL A   1      43.675  28.435  33.227  1.00  0.00     0.034 A 
BRANCH  45  59
ATOM     59  C   UNL A   1      42.178  26.132  27.695  1.00  0.00     0.023 A 
ATOM     60  C   UNL A   1      42.977  26.645  26.652  1.00  0.00     0.012 A 
ATOM     61  C   UNL A   1      41.808  24.773  27.676  1.00  0.00     0.148 A 
ATOM     62  C   UNL A   1      43.373  25.831  25.592  1.00  0.00     0.002 A 
ATOM     63  C   UNL A   1      42.248  23.955  26.642  1.00  0.00     0.091 A 
ATOM     64  F   UNL A   1      41.034  24.308  28.666  1.00  0.00    -0.205 F 
ATOM     65  C   UNL A   1      43.019  24.485  25.594  1.00  0.00     0.022 A 
BRANCH  63  66
ATOM     66  S   UNL A   1      41.918  22.191  26.589  1.00  0.00     0.127 S 
ATOM     67  O   UNL A   1      42.635  21.792  25.378  1.00  0.00    -0.237 OA
ATOM     68  O   UNL A   1      42.525  21.730  27.838  1.00  0.00    -0.237 OA
ATOM     69  O   UNL A   1      40.470  22.052  26.526  1.00  0.00    -0.744 OA
ENDBRANCH  63  66
ENDBRANCH  45  59
BRANCH  46  70
ATOM     70  C   UNL A   1      39.218  32.012  35.233  1.00  0.00     0.023 A 
ATOM     71  C   UNL A   1      38.259  31.504  36.132  1.00  0.00     0.012 A 
ATOM     72  C   UNL A   1      39.730  33.308  35.439  1.00  0.00     0.148 A 
ATOM     73  C   UNL A   1      37.781  32.287  37.183  1.00  0.00     0.002 A 
ATOM     74  C   UNL A   1      39.293  34.062  36.523  1.00  0.00     0.091 A 
ATOM     75  F   UNL A   1      40.635  33.779  34.571  1.00  0.00    -0.205 F 
ATOM     76  C   UNL A   1      38.302  33.563  37.383  1.00  0.00     0.022 A 
BRANCH  74  77
ATOM     77  S   UNL A   1      40.002  35.660  36.932  1.00  0.00     0.127 S 
ATOM     78  O   UNL A   1      39.651  36.452  35.757  1.00  0.00    -0.237 OA
ATOM     79  O   UNL A   1      39.276  36.011  38.153  1.00  0.00    -0.237 OA
ATOM     80  O   UNL A   1      41.425  35.417  37.132  1.00  0.00    -0.744 OA
ENDBRANCH  74  77
ENDBRANCH  46  70
BRANCH  58  81
ATOM     81  C   UNL A   1      44.936  28.202  34.016  1.00  0.00     0.023 A 
ATOM     82  C   UNL A   1      46.010  29.106  33.918  1.00  0.00     0.012 A 
ATOM     83  C   UNL A   1      45.014  27.126  34.923  1.00  0.00     0.148 A 
ATOM     84  C   UNL A   1      47.160  28.923  34.687  1.00  0.00     0.002 A 
ATOM     85  C   UNL A   1      46.138  26.982  35.725  1.00  0.00     0.091 A 
ATOM     86  F   UNL A   1      43.985  26.268  34.988  1.00  0.00    -0.205 F 
ATOM     87  C   UNL A   1      47.218  27.872  35.598  1.00  0.00     0.022 A 
BRANCH  85  88
ATOM     88  S   UNL A   1      46.260  25.720  36.997  1.00  0.00     0.127 S 
ATOM     89  O   UNL A   1      47.524  26.071  37.643  1.00  0.00    -0.237 OA
ATOM     90  O   UNL A   1      45.069  25.983  37.806  1.00  0.00    -0.237 OA
ATOM     91  O   UNL A   1      46.250  24.441  36.301  1.00  0.00    -0.744 OA
ENDBRANCH  85  88
ENDBRANCH  58  81
ENDBRANCH  32  33
ENDBRANCH  24  27
ENDBRANCH   1  23
TORSDOF 14
ENDMDL
MODEL 2
REMARK VINA RESULT:     -12.3      1.339      1.518
REMARK SMILES CC1(C)[C@H](C(=O)NCCCNC(=O)c2ccc(-c3c4nc(c(-c5cccc(S(=O)(=O)[O-])c5F)c5ccc([nH]5)c(-c5cccc(S(=O)(=O)[O-])c5F)c5nc(c(-c6cccc(S(=O)(=O)[O-])c6F)c6ccc3[nH]6)C=C5)C=C4)cc2)[C@@H]1c1nc2ccc(F)cc2s1
REMARK SMILES IDX 10 1 9 2 8 3 7 4 5 5 6 6 4 8 1 9 2 10 3 11 77 12 78 13 79 14
REMARK SMILES IDX 87 15 80 16 86 17 81 18 85 19 82 20 83 21 84 22 11 23 12 24
REMARK SMILES IDX 13 26 14 27 15 28 76 29 16 30 75 31 17 32 18 33 19 34 69 35
REMARK SMILES IDX 20 36 74 37 68 38 70 39 21 40 73 41 67 42 66 43 22 45 54 46
REMARK SMILES IDX 34 47 53 48 35 49 38 50 52 51 71 52 36 53 37 54 51 56 72 57
REMARK SMILES IDX 39 58 23 59 24 60 32 61 25 62 27 63 33 64 26 65 28 66 29 67
REMARK SMILES IDX 30 68 31 69 55 70 56 71 64 72 57 73 59 74 65 75 58 76 60 77
REMARK SMILES IDX 61 78 62 79 63 80 40 81 41 82 49 83 42 84 44 85 50 86 43 87
REMARK SMILES IDX 45 88 46 89 47 90 48 91
REMARK H PARENT 7 7 11 25 70 44 38 55
REMARK Flexibility Score: inf
ROOT
ATOM      1  C   UNL A   1      33.346  28.988  25.225  1.00  0.00     0.118 C 
ENDROOT
BRANCH   1   2
ATOM      2  C   UNL A   1      32.278  27.973  24.881  1.00  0.00     0.042 C 
BRANCH   2   3
ATOM      3  C   UNL A   1      32.572  27.216  23.601  1.00  0.00     0.117 C 
BRANCH   3   4
ATOM      4  N   UNL A   1      33.601  26.228  23.732  1.00  0.00    -0.356 N 
ATOM      5  C   UNL A   1      33.684  25.079  24.464  1.00  0.00     0.224 C 
ATOM      6  O   UNL A   1      34.723  24.432  24.301  1.00  0.00    -0.275 OA
ATOM      7  H   UNL A   1      34.402  26.413  23.191  1.00  0.00     0.163 HD
BRANCH   5   8
ATOM      8  C   UNL A   1      32.697  24.511  25.423  1.00  0.00     0.095 C 
ATOM      9  C   UNL A   1      30.257  24.841  26.131  1.00  0.00     0.013 C 
ATOM     10  C   UNL A   1      31.218  24.181  25.159  1.00  0.00    -0.013 C 
ATOM     11  C   UNL A   1      30.660  24.181  23.760  1.00  0.00     0.013 C 
ATOM     12  C   UNL A   1      32.179  23.136  25.711  1.00  0.00     0.068 C 
BRANCH  12  13
ATOM     13  C   UNL A   1      32.775  21.870  25.114  1.00  0.00     0.098 A 
ATOM     14  N   UNL A   1      32.153  21.294  24.110  1.00  0.00    -0.241 NA
ATOM     15  S   UNL A   1      34.281  21.159  25.531  1.00  0.00    -0.118 S 
ATOM     16  C   UNL A   1      32.710  20.052  23.870  1.00  0.00     0.082 A 
ATOM     17  C   UNL A   1      33.832  19.744  24.646  1.00  0.00     0.057 A 
ATOM     18  C   UNL A   1      32.218  19.087  22.967  1.00  0.00     0.033 A 
ATOM     19  C   UNL A   1      34.420  18.470  24.623  1.00  0.00     0.060 A 
ATOM     20  C   UNL A   1      32.806  17.819  22.923  1.00  0.00     0.041 A 
ATOM     21  C   UNL A   1      33.873  17.522  23.760  1.00  0.00     0.124 A 
ATOM     22  F   UNL A   1      34.395  16.288  23.727  1.00  0.00    -0.207 F 
ENDBRANCH  12  13
ENDBRANCH   5   8
ENDBRANCH   3   4
ENDBRANCH   2   3
ENDBRANCH   1   2
BRANCH   1  23
ATOM     23  N   UNL A   1      32.781  30.227  25.751  1.00  0.00    -0.352 N 
ATOM     24  C   UNL A   1      33.164  30.988  26.830  1.00  0.00     0.251 C 
ATOM     25  H   UNL A   1      32.002  30.570  25.257  1.00  0.00     0.163 HD
ATOM     26  O   UNL A   1      32.421  31.873  27.241  1.00  0.00    -0.269 OA
BRANCH  24  27
ATOM     27  C   UNL A   1      34.458  30.729  27.498  1.00  0.00     0.039 A 
ATOM     28  C   UNL A   1      35.380  31.770  27.636  1.00  0.00     0.014 A 
ATOM     29  C   UNL A   1      34.762  29.459  27.991  1.00  0.00     0.014 A 
ATOM     30  C   UNL A   1      36.570  31.550  28.334  1.00  0.00     0.010 A 
ATOM     31  C   UNL A   1      35.883  29.277  28.788  1.00  0.00     0.010 A 
ATOM     32  C   UNL A   1      36.811  30.313  28.952  1.00  0.00    -0.014 A 
BRANCH  32  33
ATOM     33  C   UNL A   1      38.036  30.058  29.753  1.00  0.00     0.031 A 
ATOM     34  C   UNL A   1      39.089  29.118  29.224  1.00  0.00     0.074 A 
ATOM     35  C   UNL A   1      38.156  30.591  30.985  1.00  0.00     0.049 A 
ATOM     36  N   UNL A   1      40.171  28.677  29.812  1.00  0.00    -0.248 NA
ATOM     37  C   UNL A   1      38.882  28.572  27.870  1.00  0.00     0.031 C 
ATOM     38  C   UNL A   1      37.171  31.458  31.636  1.00  0.00     0.029 A 
ATOM     39  N   UNL A   1      39.147  30.457  31.924  1.00  0.00    -0.354 N 
ATOM     40  C   UNL A   1      40.747  27.781  28.919  1.00  0.00     0.074 A 
ATOM     41  C   UNL A   1      39.874  27.701  27.771  1.00  0.00     0.031 C 
ATOM     42  C   UNL A   1      37.612  31.786  32.861  1.00  0.00     0.029 A 
ATOM     43  C   UNL A   1      38.888  31.121  33.101  1.00  0.00     0.049 A 
ATOM     44  H   UNL A   1      39.968  29.936  31.770  1.00  0.00     0.167 HD
ATOM     45  C   UNL A   1      41.919  27.111  29.027  1.00  0.00     0.034 A 
ATOM     46  C   UNL A   1      39.592  31.175  34.249  1.00  0.00     0.034 A 
ATOM     47  C   UNL A   1      42.808  27.231  30.150  1.00  0.00     0.049 A 
ATOM     48  C   UNL A   1      40.901  30.435  34.332  1.00  0.00     0.074 A 
ATOM     49  C   UNL A   1      44.052  26.652  30.326  1.00  0.00     0.029 A 
ATOM     50  N   UNL A   1      42.549  27.981  31.285  1.00  0.00    -0.354 N 
ATOM     51  N   UNL A   1      41.495  29.701  33.423  1.00  0.00    -0.248 NA
ATOM     52  C   UNL A   1      41.656  30.560  35.588  1.00  0.00     0.031 C 
ATOM     53  C   UNL A   1      44.533  27.032  31.582  1.00  0.00     0.029 A 
ATOM     54  C   UNL A   1      43.607  27.878  32.170  1.00  0.00     0.049 A 
ATOM     55  H   UNL A   1      41.732  28.509  31.440  1.00  0.00     0.167 HD
ATOM     56  C   UNL A   1      42.712  29.318  33.976  1.00  0.00     0.074 A 
ATOM     57  C   UNL A   1      42.776  29.915  35.294  1.00  0.00     0.031 C 
ATOM     58  C   UNL A   1      43.683  28.535  33.448  1.00  0.00     0.034 A 
BRANCH  45  59
ATOM     59  C   UNL A   1      42.339  26.236  27.875  1.00  0.00     0.023 A 
ATOM     60  C   UNL A   1      43.226  26.745  26.903  1.00  0.00     0.012 A 
ATOM     61  C   UNL A   1      41.918  24.895  27.791  1.00  0.00     0.148 A 
ATOM     62  C   UNL A   1      43.660  25.944  25.847  1.00  0.00     0.002 A 
ATOM     63  C   UNL A   1      42.394  24.089  26.764  1.00  0.00     0.091 A 
ATOM     64  F   UNL A   1      41.062  24.435  28.714  1.00  0.00    -0.205 F 
ATOM     65  C   UNL A   1      43.254  24.614  25.786  1.00  0.00     0.022 A 
BRANCH  63  66
ATOM     66  S   UNL A   1      42.000  22.341  26.638  1.00  0.00     0.127 S 
ATOM     67  O   UNL A   1      42.641  21.985  25.372  1.00  0.00    -0.237 OA
ATOM     68  O   UNL A   1      42.652  21.794  27.827  1.00  0.00    -0.237 OA
ATOM     69  O   UNL A   1      40.546  22.253  26.643  1.00  0.00    -0.744 OA
ENDBRANCH  63  66
ENDBRANCH  45  59
BRANCH  46  70
ATOM     70  C   UNL A   1      39.109  31.995  35.397  1.00  0.00     0.023 A 
ATOM     71  C   UNL A   1      39.344  33.385  35.402  1.00  0.00     0.012 A 
ATOM     72  C   UNL A   1      38.431  31.412  36.484  1.00  0.00     0.148 A 
ATOM     73  C   UNL A   1      38.958  34.170  36.488  1.00  0.00     0.002 A 
ATOM     74  C   UNL A   1      37.996  32.209  37.538  1.00  0.00     0.091 A 
ATOM     75  F   UNL A   1      38.223  30.089  36.468  1.00  0.00    -0.205 F 
ATOM     76  C   UNL A   1      38.278  33.584  37.553  1.00  0.00     0.022 A 
BRANCH  74  77
ATOM     77  S   UNL A   1      37.002  31.562  38.887  1.00  0.00     0.127 S 
ATOM     78  O   UNL A   1      37.903  31.720  40.025  1.00  0.00    -0.237 OA
ATOM     79  O   UNL A   1      35.853  32.469  38.878  1.00  0.00    -0.237 OA
ATOM     80  O   UNL A   1      36.683  30.190  38.514  1.00  0.00    -0.744 OA
ENDBRANCH  74  77
ENDBRANCH  46  70
BRANCH  58  81
ATOM     81  C   UNL A   1      44.934  28.325  34.259  1.00  0.00     0.023 A 
ATOM     82  C   UNL A   1      46.015  29.219  34.136  1.00  0.00     0.012 A 
ATOM     83  C   UNL A   1      44.997  27.285  35.207  1.00  0.00     0.148 A 
ATOM     84  C   UNL A   1      47.156  29.060  34.923  1.00  0.00     0.002 A 
ATOM     85  C   UNL A   1      46.113  27.166  36.025  1.00  0.00     0.091 A 
ATOM     86  F   UNL A   1      43.962  26.436  35.295  1.00  0.00    -0.205 F 
ATOM     87  C   UNL A   1      47.198  28.044  35.875  1.00  0.00     0.022 A 
BRANCH  85  88
ATOM     88  S   UNL A   1      46.214  25.953  37.347  1.00  0.00     0.127 S 
ATOM     89  O   UNL A   1      47.628  26.030  37.712  1.00  0.00    -0.237 OA
ATOM     90  O   UNL A   1      45.296  26.508  38.343  1.00  0.00    -0.237 OA
ATOM     91  O   UNL A   1      45.788  24.687  36.767  1.00  0.00    -0.744 OA
ENDBRANCH  85  88
ENDBRANCH  58  81
ENDBRANCH  32  33
ENDBRANCH  24  27
ENDBRANCH   1  23
TORSDOF 14
ENDMDL
MODEL 3
REMARK VINA RESULT:     -12.3      1.999      8.032
REMARK SMILES CC1(C)[C@H](C(=O)NCCCNC(=O)c2ccc(-c3c4nc(c(-c5cccc(S(=O)(=O)[O-])c5F)c5ccc([nH]5)c(-c5cccc(S(=O)(=O)[O-])c5F)c5nc(c(-c6cccc(S(=O)(=O)[O-])c6F)c6ccc3[nH]6)C=C5)C=C4)cc2)[C@@H]1c1nc2ccc(F)cc2s1
REMARK SMILES IDX 10 1 9 2 8 3 7 4 5 5 6 6 4 8 1 9 2 10 3 11 77 12 78 13 79 14
REMARK SMILES IDX 87 15 80 16 86 17 81 18 85 19 82 20 83 21 84 22 11 23 12 24
REMARK SMILES IDX 13 26 14 27 15 28 76 29 16 30 75 31 17 32 18 33 19 34 69 35
REMARK SMILES IDX 20 36 74 37 68 38 70 39 21 40 73 41 67 42 66 43 22 45 54 46
REMARK SMILES IDX 34 47 53 48 35 49 38 50 52 51 71 52 36 53 37 54 51 56 72 57
REMARK SMILES IDX 39 58 23 59 24 60 32 61 25 62 27 63 33 64 26 65 28 66 29 67
REMARK SMILES IDX 30 68 31 69 55 70 56 71 64 72 57 73 59 74 65 75 58 76 60 77
REMARK SMILES IDX 61 78 62 79 63 80 40 81 41 82 49 83 42 84 44 85 50 86 43 87
REMARK SMILES IDX 45 88 46 89 47 90 48 91
REMARK H PARENT 7 7 11 25 70 44 38 55
REMARK Flexibility Score: inf
ROOT
ATOM      1  C   UNL A   1      34.122  28.521  26.288  1.00  0.00     0.118 C 
ENDROOT
BRANCH   1   2
ATOM      2  C   UNL A   1      32.880  27.843  25.750  1.00  0.00     0.042 C 
BRANCH   2   3
ATOM      3  C   UNL A   1      33.079  27.258  24.366  1.00  0.00     0.117 C 
BRANCH   3   4
ATOM      4  N   UNL A   1      33.970  26.137  24.330  1.00  0.00    -0.356 N 
ATOM      5  C   UNL A   1      33.882  24.876  24.846  1.00  0.00     0.224 C 
ATOM      6  O   UNL A   1      34.835  24.138  24.582  1.00  0.00    -0.275 OA
ATOM      7  H   UNL A   1      34.807  26.308  23.841  1.00  0.00     0.163 HD
BRANCH   5   8
ATOM      8  C   UNL A   1      32.797  24.282  25.676  1.00  0.00     0.095 C 
ATOM      9  C   UNL A   1      30.325  24.675  26.223  1.00  0.00     0.013 C 
ATOM     10  C   UNL A   1      31.332  24.049  25.273  1.00  0.00    -0.013 C 
ATOM     11  C   UNL A   1      30.887  24.191  23.841  1.00  0.00     0.013 C 
ATOM     12  C   UNL A   1      32.199  22.916  25.805  1.00  0.00     0.068 C 
BRANCH  12  13
ATOM     13  C   UNL A   1      32.785  21.674  25.149  1.00  0.00     0.098 A 
ATOM     14  N   UNL A   1      32.171  21.166  24.104  1.00  0.00    -0.241 NA
ATOM     15  S   UNL A   1      34.271  20.915  25.551  1.00  0.00    -0.118 S 
ATOM     16  C   UNL A   1      32.713  19.930  23.804  1.00  0.00     0.082 A 
ATOM     17  C   UNL A   1      33.815  19.560  24.582  1.00  0.00     0.057 A 
ATOM     18  C   UNL A   1      32.221  19.025  22.840  1.00  0.00     0.033 A 
ATOM     19  C   UNL A   1      34.382  18.278  24.498  1.00  0.00     0.060 A 
ATOM     20  C   UNL A   1      32.788  17.751  22.737  1.00  0.00     0.041 A 
ATOM     21  C   UNL A   1      33.835  17.389  23.574  1.00  0.00     0.124 A 
ATOM     22  F   UNL A   1      34.337  16.150  23.482  1.00  0.00    -0.207 F 
ENDBRANCH  12  13
ENDBRANCH   5   8
ENDBRANCH   3   4
ENDBRANCH   2   3
ENDBRANCH   1   2
BRANCH   1  23
ATOM     23  N   UNL A   1      33.878  29.915  26.647  1.00  0.00    -0.352 N 
ATOM     24  C   UNL A   1      34.535  30.730  27.537  1.00  0.00     0.251 C 
ATOM     25  H   UNL A   1      33.124  30.337  26.176  1.00  0.00     0.163 HD
ATOM     26  O   UNL A   1      34.036  31.802  27.860  1.00  0.00    -0.269 OA
BRANCH  24  27
ATOM     27  C   UNL A   1      35.829  30.305  28.114  1.00  0.00     0.039 A 
ATOM     28  C   UNL A   1      35.851  29.672  29.360  1.00  0.00     0.014 A 
ATOM     29  C   UNL A   1      37.023  30.529  27.426  1.00  0.00     0.014 A 
ATOM     30  C   UNL A   1      37.062  29.201  29.874  1.00  0.00     0.010 A 
ATOM     31  C   UNL A   1      38.201  29.952  27.878  1.00  0.00     0.010 A 
ATOM     32  C   UNL A   1      38.239  29.300  29.117  1.00  0.00    -0.014 A 
BRANCH  32  33
ATOM     33  C   UNL A   1      39.535  28.758  29.602  1.00  0.00     0.031 A 
ATOM     34  C   UNL A   1      40.277  29.473  30.701  1.00  0.00     0.074 A 
ATOM     35  C   UNL A   1      40.085  27.688  28.994  1.00  0.00     0.049 A 
ATOM     36  N   UNL A   1      41.466  29.230  31.187  1.00  0.00    -0.248 NA
ATOM     37  C   UNL A   1      39.611  30.639  31.312  1.00  0.00     0.031 C 
ATOM     38  C   UNL A   1      39.497  26.953  27.870  1.00  0.00     0.029 A 
ATOM     39  N   UNL A   1      41.278  27.049  29.216  1.00  0.00    -0.354 N 
ATOM     40  C   UNL A   1      41.702  30.227  32.127  1.00  0.00     0.074 A 
ATOM     41  C   UNL A   1      40.557  31.108  32.110  1.00  0.00     0.031 C 
ATOM     42  C   UNL A   1      40.326  25.959  27.511  1.00  0.00     0.029 A 
ATOM     43  C   UNL A   1      41.521  26.011  28.346  1.00  0.00     0.049 A 
ATOM     44  H   UNL A   1      41.903  27.307  29.932  1.00  0.00     0.167 HD
ATOM     45  C   UNL A   1      42.760  30.377  32.958  1.00  0.00     0.034 A 
ATOM     46  C   UNL A   1      42.592  25.202  28.226  1.00  0.00     0.034 A 
ATOM     47  C   UNL A   1      43.875  29.471  33.004  1.00  0.00     0.049 A 
ATOM     48  C   UNL A   1      43.746  25.380  29.177  1.00  0.00     0.074 A 
ATOM     49  C   UNL A   1      44.963  29.492  33.857  1.00  0.00     0.029 A 
ATOM     50  N   UNL A   1      44.043  28.382  32.164  1.00  0.00    -0.354 N 
ATOM     51  N   UNL A   1      43.889  26.247  30.150  1.00  0.00    -0.248 NA
ATOM     52  C   UNL A   1      44.873  24.446  29.038  1.00  0.00     0.031 C 
ATOM     53  C   UNL A   1      45.804  28.429  33.515  1.00  0.00     0.029 A 
ATOM     54  C   UNL A   1      45.219  27.724  32.475  1.00  0.00     0.049 A 
ATOM     55  H   UNL A   1      43.417  28.116  31.451  1.00  0.00     0.167 HD
ATOM     56  C   UNL A   1      45.094  25.932  30.768  1.00  0.00     0.074 A 
ATOM     57  C   UNL A   1      45.634  24.785  30.069  1.00  0.00     0.031 C 
ATOM     58  C   UNL A   1      45.705  26.543  31.812  1.00  0.00     0.034 A 
BRANCH  45  59
ATOM     59  C   UNL A   1      42.737  31.529  33.928  1.00  0.00     0.023 A 
ATOM     60  C   UNL A   1      43.272  32.775  33.540  1.00  0.00     0.012 A 
ATOM     61  C   UNL A   1      42.125  31.403  35.190  1.00  0.00     0.148 A 
ATOM     62  C   UNL A   1      43.229  33.868  34.405  1.00  0.00     0.002 A 
ATOM     63  C   UNL A   1      42.042  32.510  36.026  1.00  0.00     0.091 A 
ATOM     64  F   UNL A   1      41.638  30.207  35.548  1.00  0.00    -0.205 F 
ATOM     65  C   UNL A   1      42.604  33.738  35.641  1.00  0.00     0.022 A 
BRANCH  63  66
ATOM     66  S   UNL A   1      41.186  32.474  37.605  1.00  0.00     0.127 S 
ATOM     67  O   UNL A   1      42.040  31.576  38.383  1.00  0.00    -0.237 OA
ATOM     68  O   UNL A   1      41.242  33.877  38.015  1.00  0.00    -0.237 OA
ATOM     69  O   UNL A   1      39.848  31.971  37.328  1.00  0.00    -0.744 OA
ENDBRANCH  63  66
ENDBRANCH  45  59
BRANCH  46  70
ATOM     70  C   UNL A   1      42.611  24.115  27.205  1.00  0.00     0.023 A 
ATOM     71  C   UNL A   1      43.473  24.223  26.095  1.00  0.00     0.012 A 
ATOM     72  C   UNL A   1      41.780  22.984  27.318  1.00  0.00     0.148 A 
ATOM     73  C   UNL A   1      43.470  23.254  25.093  1.00  0.00     0.002 A 
ATOM     74  C   UNL A   1      41.825  21.991  26.345  1.00  0.00     0.091 A 
ATOM     75  F   UNL A   1      40.961  22.901  28.375  1.00  0.00    -0.205 F 
ATOM     76  C   UNL A   1      42.652  22.134  25.221  1.00  0.00     0.022 A 
BRANCH  74  77
ATOM     77  S   UNL A   1      40.902  20.458  26.494  1.00  0.00     0.127 S 
ATOM     78  O   UNL A   1      41.029  20.169  27.920  1.00  0.00    -0.237 OA
ATOM     79  O   UNL A   1      39.565  20.865  26.062  1.00  0.00    -0.237 OA
ATOM     80  O   UNL A   1      41.559  19.517  25.595  1.00  0.00    -0.744 OA
ENDBRANCH  74  77
ENDBRANCH  46  70
BRANCH  58  81
ATOM     81  C   UNL A   1      46.995  25.951  32.315  1.00  0.00     0.023 A 
ATOM     82  C   UNL A   1      48.225  26.371  31.774  1.00  0.00     0.012 A 
ATOM     83  C   UNL A   1      46.984  25.038  33.387  1.00  0.00     0.148 A 
ATOM     84  C   UNL A   1      49.425  25.865  32.272  1.00  0.00     0.002 A 
ATOM     85  C   UNL A   1      48.184  24.580  33.914  1.00  0.00     0.091 A 
ATOM     86  F   UNL A   1      45.800  24.639  33.876  1.00  0.00    -0.205 F 
ATOM     87  C   UNL A   1      49.405  24.982  33.349  1.00  0.00     0.022 A 
BRANCH  85  88
ATOM     88  S   UNL A   1      48.260  23.522  35.364  1.00  0.00     0.127 S 
ATOM     89  O   UNL A   1      47.634  22.297  34.871  1.00  0.00    -0.237 OA
ATOM     90  O   UNL A   1      49.701  23.421  35.596  1.00  0.00    -0.237 OA
ATOM     91  O   UNL A   1      47.525  24.219  36.411  1.00  0.00    -0.744 OA
ENDBRANCH  85  88
ENDBRANCH  58  81
ENDBRANCH  32  33
ENDBRANCH  24  27
ENDBRANCH   1  23
TORSDOF 14
ENDMDL
