MODEL 1
REMARK VINA RESULT:     -12.7      0.000      0.000
REMARK SMILES CSCC[C@H](C(=O)NCCCNC(=O)c1ccc(-c2c3nc(c(-c4cccc(S(=O)(=O)[O-])c4F)c4ccc([nH]4)c(-c4cccc(S(=O)(=O)[O-])c4F)c4nc(c(-c5cccc(S(=O)(=O)[O-])c5F)c5ccc2[nH]5)C=C4)C=C3)cc1)N1C(=O)/C(=C/c2ccc3ncccc3c2)SC1=S
REMARK SMILES IDX 10 1 9 2 8 3 6 4 7 5 5 7 4 8 3 9 2 10 1 11 78 12 79 13 94 14
REMARK SMILES IDX 80 15 81 16 93 17 95 18 82 19 83 20 84 21 92 22 85 23 91 24
REMARK SMILES IDX 86 25 90 26 87 27 89 28 88 29 11 30 12 31 13 32 14 34 15 35
REMARK SMILES IDX 16 36 77 37 17 38 76 39 18 40 19 41 20 42 70 43 21 44 75 45
REMARK SMILES IDX 69 46 71 47 22 48 74 49 68 50 67 51 23 53 55 54 35 55 54 56
REMARK SMILES IDX 36 57 39 58 53 59 72 60 37 61 38 62 52 64 73 65 40 66 24 67
REMARK SMILES IDX 25 68 33 69 26 70 28 71 34 72 27 73 29 74 30 75 31 76 32 77
REMARK SMILES IDX 56 78 57 79 65 80 58 81 60 82 66 83 59 84 61 85 62 86 63 87
REMARK SMILES IDX 64 88 41 89 42 90 50 91 43 92 45 93 51 94 44 95 46 96 47 97
REMARK SMILES IDX 48 98 49 99
REMARK H PARENT 8 6 12 33 71 52 39 63
REMARK Flexibility Score: inf
ROOT
ATOM      1  C   UNL A   1      31.730  29.774  27.162  1.00  0.00     0.042 C 
ENDROOT
BRANCH   1   2
ATOM      2  C   UNL A   1      32.035  28.384  26.682  1.00  0.00     0.117 C 
BRANCH   2   3
ATOM      3  N   UNL A   1      33.091  28.209  25.725  1.00  0.00    -0.354 N 
ATOM      4  C   UNL A   1      32.879  27.879  24.414  1.00  0.00     0.243 C 
ATOM      5  O   UNL A   1      33.706  28.276  23.588  1.00  0.00    -0.273 OA
ATOM      6  H   UNL A   1      34.019  28.332  26.030  1.00  0.00     0.163 HD
BRANCH   4   7
ATOM      7  C   UNL A   1      31.619  27.084  23.952  1.00  0.00     0.182 C 
BRANCH   7   8
ATOM      8  C   UNL A   1      30.565  27.879  23.124  1.00  0.00     0.046 C 
BRANCH   8   9
ATOM      9  C   UNL A   1      30.268  29.361  23.374  1.00  0.00     0.072 C 
BRANCH   9  10
ATOM     10  S   UNL A   1      29.404  30.179  21.988  1.00  0.00    -0.165 SA
ATOM     11  C   UNL A   1      27.700  29.812  22.435  1.00  0.00     0.085 C 
ENDBRANCH   9  10
ENDBRANCH   8   9
ENDBRANCH   7   8
BRANCH   7  12
ATOM     12  N   UNL A   1      31.832  25.634  23.693  1.00  0.00    -0.280 N 
ATOM     13  C   UNL A   1      31.610  24.682  24.666  1.00  0.00     0.266 C 
ATOM     14  C   UNL A   1      32.256  25.116  22.477  1.00  0.00     0.149 C 
ATOM     15  O   UNL A   1      31.194  24.849  25.804  1.00  0.00    -0.268 OA
ATOM     16  C   UNL A   1      32.053  23.343  24.243  1.00  0.00     0.081 C 
ATOM     17  S   UNL A   1      32.546  23.376  22.614  1.00  0.00    -0.054 SA
ATOM     18  S   UNL A   1      32.559  25.903  21.035  1.00  0.00    -0.052 S 
ATOM     19  C   UNL A   1      32.181  22.384  25.171  1.00  0.00     0.029 C 
BRANCH  19  20
ATOM     20  C   UNL A   1      33.003  21.191  25.018  1.00  0.00    -0.024 A 
ATOM     21  C   UNL A   1      34.386  21.213  25.156  1.00  0.00     0.010 A 
ATOM     22  C   UNL A   1      32.362  20.004  24.653  1.00  0.00     0.018 A 
ATOM     23  C   UNL A   1      35.112  20.030  24.974  1.00  0.00     0.029 A 
ATOM     24  C   UNL A   1      33.092  18.827  24.483  1.00  0.00     0.001 A 
ATOM     25  C   UNL A   1      34.491  18.826  24.655  1.00  0.00     0.070 A 
ATOM     26  C   UNL A   1      32.449  17.631  24.147  1.00  0.00     0.012 A 
ATOM     27  N   UNL A   1      35.217  17.702  24.519  1.00  0.00    -0.256 NA
ATOM     28  C   UNL A   1      33.196  16.472  24.012  1.00  0.00     0.021 A 
ATOM     29  C   UNL A   1      34.562  16.559  24.209  1.00  0.00     0.112 A 
ENDBRANCH  19  20
ENDBRANCH   7  12
ENDBRANCH   4   7
ENDBRANCH   2   3
ENDBRANCH   1   2
BRANCH   1  30
ATOM     30  C   UNL A   1      32.303  30.856  26.271  1.00  0.00     0.118 C 
BRANCH  30  31
ATOM     31  N   UNL A   1      32.248  32.209  26.838  1.00  0.00    -0.352 N 
ATOM     32  C   UNL A   1      33.132  32.893  27.642  1.00  0.00     0.251 C 
ATOM     33  H   UNL A   1      31.438  32.716  26.602  1.00  0.00     0.163 HD
ATOM     34  O   UNL A   1      32.844  34.015  28.049  1.00  0.00    -0.269 OA
BRANCH  32  35
ATOM     35  C   UNL A   1      34.404  32.260  28.052  1.00  0.00     0.039 A 
ATOM     36  C   UNL A   1      35.569  33.029  28.116  1.00  0.00     0.014 A 
ATOM     37  C   UNL A   1      34.433  30.923  28.434  1.00  0.00     0.014 A 
ATOM     38  C   UNL A   1      36.726  32.478  28.672  1.00  0.00     0.010 A 
ATOM     39  C   UNL A   1      35.521  30.437  29.137  1.00  0.00     0.010 A 
ATOM     40  C   UNL A   1      36.693  31.196  29.243  1.00  0.00    -0.014 A 
BRANCH  40  41
ATOM     41  C   UNL A   1      37.865  30.601  29.935  1.00  0.00     0.031 A 
ATOM     42  C   UNL A   1      38.190  31.024  31.346  1.00  0.00     0.074 A 
ATOM     43  C   UNL A   1      38.700  29.783  29.262  1.00  0.00     0.049 A 
ATOM     44  N   UNL A   1      39.228  30.720  32.080  1.00  0.00    -0.248 NA
ATOM     45  C   UNL A   1      37.255  31.959  32.000  1.00  0.00     0.031 C 
ATOM     46  C   UNL A   1      38.558  29.386  27.859  1.00  0.00     0.029 A 
ATOM     47  N   UNL A   1      39.852  29.156  29.665  1.00  0.00    -0.354 N 
ATOM     48  C   UNL A   1      39.099  31.467  33.244  1.00  0.00     0.074 A 
ATOM     49  C   UNL A   1      37.917  32.285  33.098  1.00  0.00     0.031 C 
ATOM     50  C   UNL A   1      39.568  28.567  27.525  1.00  0.00     0.029 A 
ATOM     51  C   UNL A   1      40.448  28.404  28.678  1.00  0.00     0.049 A 
ATOM     52  H   UNL A   1      40.219  29.236  30.575  1.00  0.00     0.167 HD
ATOM     53  C   UNL A   1      39.865  31.444  34.360  1.00  0.00     0.034 A 
ATOM     54  C   UNL A   1      41.573  27.664  28.703  1.00  0.00     0.034 A 
ATOM     55  C   UNL A   1      40.982  30.561  34.537  1.00  0.00     0.049 A 
ATOM     56  C   UNL A   1      42.350  27.574  29.989  1.00  0.00     0.074 A 
ATOM     57  C   UNL A   1      41.755  30.365  35.666  1.00  0.00     0.029 A 
ATOM     58  N   UNL A   1      41.479  29.714  33.556  1.00  0.00    -0.354 N 
ATOM     59  N   UNL A   1      42.117  28.162  31.137  1.00  0.00    -0.248 NA
ATOM     60  C   UNL A   1      43.524  26.688  29.995  1.00  0.00     0.031 C 
ATOM     61  C   UNL A   1      42.727  29.405  35.365  1.00  0.00     0.029 A 
ATOM     62  C   UNL A   1      42.547  28.992  34.054  1.00  0.00     0.049 A 
ATOM     63  H   UNL A   1      41.122  29.639  32.642  1.00  0.00     0.167 HD
ATOM     64  C   UNL A   1      43.088  27.692  32.011  1.00  0.00     0.074 A 
ATOM     65  C   UNL A   1      43.901  26.752  31.265  1.00  0.00     0.031 C 
ATOM     66  C   UNL A   1      43.303  28.018  33.310  1.00  0.00     0.034 A 
BRANCH  53  67
ATOM     67  C   UNL A   1      39.466  32.342  35.502  1.00  0.00     0.023 A 
ATOM     68  C   UNL A   1      38.649  31.833  36.534  1.00  0.00     0.012 A 
ATOM     69  C   UNL A   1      39.924  33.671  35.577  1.00  0.00     0.148 A 
ATOM     70  C   UNL A   1      38.260  32.644  37.599  1.00  0.00     0.002 A 
ATOM     71  C   UNL A   1      39.572  34.459  36.667  1.00  0.00     0.091 A 
ATOM     72  F   UNL A   1      40.679  34.146  34.575  1.00  0.00    -0.205 F 
ATOM     73  C   UNL A   1      38.730  33.952  37.671  1.00  0.00     0.022 A 
BRANCH  71  74
ATOM     74  S   UNL A   1      40.191  36.130  36.895  1.00  0.00     0.127 S 
ATOM     75  O   UNL A   1      41.626  35.895  37.042  1.00  0.00    -0.237 OA
ATOM     76  O   UNL A   1      39.803  36.775  35.639  1.00  0.00    -0.237 OA
ATOM     77  O   UNL A   1      39.516  36.648  38.077  1.00  0.00    -0.744 OA
ENDBRANCH  71  74
ENDBRANCH  53  67
BRANCH  54  78
ATOM     78  C   UNL A   1      41.976  26.876  27.503  1.00  0.00     0.023 A 
ATOM     79  C   UNL A   1      42.596  27.537  26.425  1.00  0.00     0.012 A 
ATOM     80  C   UNL A   1      41.784  25.484  27.435  1.00  0.00     0.148 A 
ATOM     81  C   UNL A   1      42.986  26.832  25.285  1.00  0.00     0.002 A 
ATOM     82  C   UNL A   1      42.224  24.779  26.318  1.00  0.00     0.091 A 
ATOM     83  F   UNL A   1      41.185  24.873  28.466  1.00  0.00    -0.205 F 
ATOM     84  C   UNL A   1      42.809  25.453  25.236  1.00  0.00     0.022 A 
BRANCH  82  85
ATOM     85  S   UNL A   1      42.155  22.985  26.225  1.00  0.00     0.127 S 
ATOM     86  O   UNL A   1      40.722  22.734  26.338  1.00  0.00    -0.237 OA
ATOM     87  O   UNL A   1      42.724  22.728  24.902  1.00  0.00    -0.237 OA
ATOM     88  O   UNL A   1      42.974  22.506  27.331  1.00  0.00    -0.744 OA
ENDBRANCH  82  85
ENDBRANCH  54  78
BRANCH  66  89
ATOM     89  C   UNL A   1      44.436  27.334  34.024  1.00  0.00     0.023 A 
ATOM     90  C   UNL A   1      45.709  27.936  34.052  1.00  0.00     0.012 A 
ATOM     91  C   UNL A   1      44.217  26.138  34.735  1.00  0.00     0.148 A 
ATOM     92  C   UNL A   1      46.756  27.342  34.755  1.00  0.00     0.002 A 
ATOM     93  C   UNL A   1      45.252  25.578  35.473  1.00  0.00     0.091 A 
ATOM     94  F   UNL A   1      43.002  25.572  34.679  1.00  0.00    -0.205 F 
ATOM     95  C   UNL A   1      46.524  26.171  35.475  1.00  0.00     0.022 A 
BRANCH  93  96
ATOM     96  S   UNL A   1      45.015  24.130  36.509  1.00  0.00     0.127 S 
ATOM     97  O   UNL A   1      44.139  23.308  35.677  1.00  0.00    -0.237 OA
ATOM     98  O   UNL A   1      46.380  23.618  36.646  1.00  0.00    -0.237 OA
ATOM     99  O   UNL A   1      44.428  24.617  37.749  1.00  0.00    -0.744 OA
ENDBRANCH  93  96
ENDBRANCH  66  89
ENDBRANCH  40  41
ENDBRANCH  32  35
ENDBRANCH  30  31
ENDBRANCH   1  30
TORSDOF 18
ENDMDL
MODEL 2
REMARK VINA RESULT:     -12.2      1.534      1.902
REMARK SMILES CSCC[C@H](C(=O)NCCCNC(=O)c1ccc(-c2c3nc(c(-c4cccc(S(=O)(=O)[O-])c4F)c4ccc([nH]4)c(-c4cccc(S(=O)(=O)[O-])c4F)c4nc(c(-c5cccc(S(=O)(=O)[O-])c5F)c5ccc2[nH]5)C=C4)C=C3)cc1)N1C(=O)/C(=C/c2ccc3ncccc3c2)SC1=S
REMARK SMILES IDX 10 1 9 2 8 3 6 4 7 5 5 7 4 8 3 9 2 10 1 11 78 12 79 13 94 14
REMARK SMILES IDX 80 15 81 16 93 17 95 18 82 19 83 20 84 21 92 22 85 23 91 24
REMARK SMILES IDX 86 25 90 26 87 27 89 28 88 29 11 30 12 31 13 32 14 34 15 35
REMARK SMILES IDX 16 36 77 37 17 38 76 39 18 40 19 41 20 42 70 43 21 44 75 45
REMARK SMILES IDX 69 46 71 47 22 48 74 49 68 50 67 51 23 53 55 54 35 55 54 56
REMARK SMILES IDX 36 57 39 58 53 59 72 60 37 61 38 62 52 64 73 65 40 66 24 67
REMARK SMILES IDX 25 68 33 69 26 70 28 71 34 72 27 73 29 74 30 75 31 76 32 77
REMARK SMILES IDX 56 78 57 79 65 80 58 81 60 82 66 83 59 84 61 85 62 86 63 87
REMARK SMILES IDX 64 88 41 89 42 90 50 91 43 92 45 93 51 94 44 95 46 96 47 97
REMARK SMILES IDX 48 98 49 99
REMARK H PARENT 8 6 12 33 71 52 39 63
REMARK Flexibility Score: inf
ROOT
ATOM      1  C   UNL A   1      32.020  29.649  27.036  1.00  0.00     0.042 C 
ENDROOT
BRANCH   1   2
ATOM      2  C   UNL A   1      32.515  28.263  26.738  1.00  0.00     0.117 C 
BRANCH   2   3
ATOM      3  N   UNL A   1      33.592  28.110  25.802  1.00  0.00    -0.354 N 
ATOM      4  C   UNL A   1      33.423  27.672  24.517  1.00  0.00     0.243 C 
ATOM      5  O   UNL A   1      34.224  28.078  23.669  1.00  0.00    -0.273 OA
ATOM      6  H   UNL A   1      34.503  28.332  26.102  1.00  0.00     0.163 HD
BRANCH   4   7
ATOM      7  C   UNL A   1      32.240  26.743  24.105  1.00  0.00     0.182 C 
BRANCH   7   8
ATOM      8  C   UNL A   1      31.547  27.066  22.747  1.00  0.00     0.046 C 
BRANCH   8   9
ATOM      9  C   UNL A   1      30.203  27.796  22.659  1.00  0.00     0.072 C 
BRANCH   9  10
ATOM     10  S   UNL A   1      30.296  29.560  23.123  1.00  0.00    -0.165 SA
ATOM     11  C   UNL A   1      29.048  30.231  22.013  1.00  0.00     0.085 C 
ENDBRANCH   9  10
ENDBRANCH   8   9
ENDBRANCH   7   8
BRANCH   7  12
ATOM     12  N   UNL A   1      32.329  25.336  24.581  1.00  0.00    -0.280 N 
ATOM     13  C   UNL A   1      33.400  24.528  24.262  1.00  0.00     0.266 C 
ATOM     14  C   UNL A   1      31.370  24.723  25.376  1.00  0.00     0.149 C 
ATOM     15  O   UNL A   1      34.400  24.818  23.620  1.00  0.00    -0.268 OA
ATOM     16  C   UNL A   1      33.189  23.134  24.690  1.00  0.00     0.081 C 
ATOM     17  S   UNL A   1      31.752  23.010  25.593  1.00  0.00    -0.054 SA
ATOM     18  S   UNL A   1      29.976  25.360  26.042  1.00  0.00    -0.052 S 
ATOM     19  C   UNL A   1      33.990  22.180  24.195  1.00  0.00     0.029 C 
BRANCH  19  20
ATOM     20  C   UNL A   1      33.658  20.763  24.150  1.00  0.00    -0.024 A 
ATOM     21  C   UNL A   1      32.411  20.300  23.748  1.00  0.00     0.010 A 
ATOM     22  C   UNL A   1      34.623  19.856  24.598  1.00  0.00     0.018 A 
ATOM     23  C   UNL A   1      32.158  18.923  23.751  1.00  0.00     0.029 A 
ATOM     24  C   UNL A   1      34.366  18.484  24.589  1.00  0.00     0.001 A 
ATOM     25  C   UNL A   1      33.118  17.998  24.149  1.00  0.00     0.070 A 
ATOM     26  C   UNL A   1      35.340  17.573  25.007  1.00  0.00     0.012 A 
ATOM     27  N   UNL A   1      32.850  16.680  24.109  1.00  0.00    -0.256 NA
ATOM     28  C   UNL A   1      35.066  16.216  24.960  1.00  0.00     0.021 A 
ATOM     29  C   UNL A   1      33.821  15.825  24.506  1.00  0.00     0.112 A 
ENDBRANCH  19  20
ENDBRANCH   7  12
ENDBRANCH   4   7
ENDBRANCH   2   3
ENDBRANCH   1   2
BRANCH   1  30
ATOM     30  C   UNL A   1      32.793  30.732  26.313  1.00  0.00     0.118 C 
BRANCH  30  31
ATOM     31  N   UNL A   1      32.733  32.054  26.946  1.00  0.00    -0.352 N 
ATOM     32  C   UNL A   1      33.611  32.697  27.791  1.00  0.00     0.251 C 
ATOM     33  H   UNL A   1      31.926  32.573  26.730  1.00  0.00     0.163 HD
ATOM     34  O   UNL A   1      33.320  33.797  28.252  1.00  0.00    -0.269 OA
BRANCH  32  35
ATOM     35  C   UNL A   1      34.880  32.044  28.178  1.00  0.00     0.039 A 
ATOM     36  C   UNL A   1      36.058  32.794  28.221  1.00  0.00     0.014 A 
ATOM     37  C   UNL A   1      34.894  30.707  28.562  1.00  0.00     0.014 A 
ATOM     38  C   UNL A   1      37.217  32.225  28.755  1.00  0.00     0.010 A 
ATOM     39  C   UNL A   1      35.987  30.204  29.245  1.00  0.00     0.010 A 
ATOM     40  C   UNL A   1      37.173  30.945  29.329  1.00  0.00    -0.014 A 
BRANCH  40  41
ATOM     41  C   UNL A   1      38.348  30.331  30.000  1.00  0.00     0.031 A 
ATOM     42  C   UNL A   1      38.723  30.771  31.394  1.00  0.00     0.074 A 
ATOM     43  C   UNL A   1      39.142  29.479  29.320  1.00  0.00     0.049 A 
ATOM     44  N   UNL A   1      39.772  30.453  32.105  1.00  0.00    -0.248 NA
ATOM     45  C   UNL A   1      37.830  31.742  32.055  1.00  0.00     0.031 C 
ATOM     46  C   UNL A   1      38.951  29.060  27.929  1.00  0.00     0.029 A 
ATOM     47  N   UNL A   1      40.288  28.829  29.704  1.00  0.00    -0.354 N 
ATOM     48  C   UNL A   1      39.694  31.224  33.258  1.00  0.00     0.074 A 
ATOM     49  C   UNL A   1      38.530  32.070  33.128  1.00  0.00     0.031 C 
ATOM     50  C   UNL A   1      39.931  28.210  27.584  1.00  0.00     0.029 A 
ATOM     51  C   UNL A   1      40.837  28.044  28.716  1.00  0.00     0.049 A 
ATOM     52  H   UNL A   1      40.682  28.916  30.602  1.00  0.00     0.167 HD
ATOM     53  C   UNL A   1      40.490  31.201  34.353  1.00  0.00     0.034 A 
ATOM     54  C   UNL A   1      41.943  27.276  28.725  1.00  0.00     0.034 A 
ATOM     55  C   UNL A   1      41.588  30.292  34.516  1.00  0.00     0.049 A 
ATOM     56  C   UNL A   1      42.753  27.188  29.990  1.00  0.00     0.074 A 
ATOM     57  C   UNL A   1      42.386  30.096  35.627  1.00  0.00     0.029 A 
ATOM     58  N   UNL A   1      42.035  29.415  33.538  1.00  0.00    -0.354 N 
ATOM     59  N   UNL A   1      42.566  27.802  31.133  1.00  0.00    -0.248 NA
ATOM     60  C   UNL A   1      43.903  26.272  29.982  1.00  0.00     0.031 C 
ATOM     61  C   UNL A   1      43.324  29.105  35.318  1.00  0.00     0.029 A 
ATOM     62  C   UNL A   1      43.098  28.674  34.021  1.00  0.00     0.049 A 
ATOM     63  H   UNL A   1      41.652  29.333  32.636  1.00  0.00     0.167 HD
ATOM     64  C   UNL A   1      43.549  27.323  31.989  1.00  0.00     0.074 A 
ATOM     65  C   UNL A   1      44.316  26.349  31.239  1.00  0.00     0.031 C 
ATOM     66  C   UNL A   1      43.807  27.666  33.275  1.00  0.00     0.034 A 
BRANCH  53  67
ATOM     67  C   UNL A   1      40.146  32.130  35.488  1.00  0.00     0.023 A 
ATOM     68  C   UNL A   1      40.849  33.345  35.630  1.00  0.00     0.012 A 
ATOM     69  C   UNL A   1      39.108  31.824  36.389  1.00  0.00     0.148 A 
ATOM     70  C   UNL A   1      40.555  34.220  36.675  1.00  0.00     0.002 A 
ATOM     71  C   UNL A   1      38.787  32.724  37.399  1.00  0.00     0.091 A 
ATOM     72  F   UNL A   1      38.467  30.654  36.254  1.00  0.00    -0.205 F 
ATOM     73  C   UNL A   1      39.518  33.915  37.552  1.00  0.00     0.022 A 
BRANCH  71  74
ATOM     74  S   UNL A   1      37.417  32.464  38.530  1.00  0.00     0.127 S 
ATOM     75  O   UNL A   1      37.802  33.309  39.659  1.00  0.00    -0.237 OA
ATOM     76  O   UNL A   1      36.280  32.962  37.755  1.00  0.00    -0.237 OA
ATOM     77  O   UNL A   1      37.387  31.033  38.800  1.00  0.00    -0.744 OA
ENDBRANCH  71  74
ENDBRANCH  53  67
BRANCH  54  78
ATOM     78  C   UNL A   1      42.293  26.456  27.529  1.00  0.00     0.023 A 
ATOM     79  C   UNL A   1      43.028  27.046  26.482  1.00  0.00     0.012 A 
ATOM     80  C   UNL A   1      41.937  25.097  27.435  1.00  0.00     0.148 A 
ATOM     81  C   UNL A   1      43.372  26.310  25.348  1.00  0.00     0.002 A 
ATOM     82  C   UNL A   1      42.329  24.354  26.325  1.00  0.00     0.091 A 
ATOM     83  F   UNL A   1      41.230  24.554  28.435  1.00  0.00    -0.205 F 
ATOM     84  C   UNL A   1      43.031  24.962  25.274  1.00  0.00     0.022 A 
BRANCH  82  85
ATOM     85  S   UNL A   1      42.049  22.583  26.206  1.00  0.00     0.127 S 
ATOM     86  O   UNL A   1      40.592  22.514  26.146  1.00  0.00    -0.237 OA
ATOM     87  O   UNL A   1      42.733  22.251  24.956  1.00  0.00    -0.237 OA
ATOM     88  O   UNL A   1      42.664  22.010  27.395  1.00  0.00    -0.744 OA
ENDBRANCH  82  85
ENDBRANCH  54  78
BRANCH  66  89
ATOM     89  C   UNL A   1      44.942  26.966  33.971  1.00  0.00     0.023 A 
ATOM     90  C   UNL A   1      46.241  27.506  33.907  1.00  0.00     0.012 A 
ATOM     91  C   UNL A   1      44.703  25.820  34.756  1.00  0.00     0.148 A 
ATOM     92  C   UNL A   1      47.292  26.899  34.591  1.00  0.00     0.002 A 
ATOM     93  C   UNL A   1      45.746  25.249  35.473  1.00  0.00     0.091 A 
ATOM     94  F   UNL A   1      43.462  25.313  34.787  1.00  0.00    -0.205 F 
ATOM     95  C   UNL A   1      47.043  25.780  35.384  1.00  0.00     0.022 A 
BRANCH  93  96
ATOM     96  S   UNL A   1      45.494  23.870  36.596  1.00  0.00     0.127 S 
ATOM     97  O   UNL A   1      46.857  23.607  37.053  1.00  0.00    -0.237 OA
ATOM     98  O   UNL A   1      44.612  24.450  37.610  1.00  0.00    -0.237 OA
ATOM     99  O   UNL A   1      44.885  22.814  35.800  1.00  0.00    -0.744 OA
ENDBRANCH  93  96
ENDBRANCH  66  89
ENDBRANCH  40  41
ENDBRANCH  32  35
ENDBRANCH  30  31
ENDBRANCH   1  30
TORSDOF 18
ENDMDL
MODEL 3
REMARK VINA RESULT:     -11.9      2.178      7.539
REMARK SMILES CSCC[C@H](C(=O)NCCCNC(=O)c1ccc(-c2c3nc(c(-c4cccc(S(=O)(=O)[O-])c4F)c4ccc([nH]4)c(-c4cccc(S(=O)(=O)[O-])c4F)c4nc(c(-c5cccc(S(=O)(=O)[O-])c5F)c5ccc2[nH]5)C=C4)C=C3)cc1)N1C(=O)/C(=C/c2ccc3ncccc3c2)SC1=S
REMARK SMILES IDX 10 1 9 2 8 3 6 4 7 5 5 7 4 8 3 9 2 10 1 11 78 12 79 13 94 14
REMARK SMILES IDX 80 15 81 16 93 17 95 18 82 19 83 20 84 21 92 22 85 23 91 24
REMARK SMILES IDX 86 25 90 26 87 27 89 28 88 29 11 30 12 31 13 32 14 34 15 35
REMARK SMILES IDX 16 36 77 37 17 38 76 39 18 40 19 41 20 42 70 43 21 44 75 45
REMARK SMILES IDX 69 46 71 47 22 48 74 49 68 50 67 51 23 53 55 54 35 55 54 56
REMARK SMILES IDX 36 57 39 58 53 59 72 60 37 61 38 62 52 64 73 65 40 66 24 67
REMARK SMILES IDX 25 68 33 69 26 70 28 71 34 72 27 73 29 74 30 75 31 76 32 77
REMARK SMILES IDX 56 78 57 79 65 80 58 81 60 82 66 83 59 84 61 85 62 86 63 87
REMARK SMILES IDX 64 88 41 89 42 90 50 91 43 92 45 93 51 94 44 95 46 96 47 97
REMARK SMILES IDX 48 98 49 99
REMARK H PARENT 8 6 12 33 71 52 39 63
REMARK Flexibility Score: inf
ROOT
ATOM      1  C   UNL A   1      32.002  30.731  27.076  1.00  0.00     0.042 C 
ENDROOT
BRANCH   1   2
ATOM      2  C   UNL A   1      32.335  29.266  27.121  1.00  0.00     0.117 C 
BRANCH   2   3
ATOM      3  N   UNL A   1      33.298  28.757  26.187  1.00  0.00    -0.354 N 
ATOM      4  C   UNL A   1      32.963  28.117  25.025  1.00  0.00     0.243 C 
ATOM      5  O   UNL A   1      33.748  28.212  24.077  1.00  0.00    -0.273 OA
ATOM      6  H   UNL A   1      34.254  28.873  26.395  1.00  0.00     0.163 HD
BRANCH   4   7
ATOM      7  C   UNL A   1      31.619  27.342  24.863  1.00  0.00     0.182 C 
BRANCH   7   8
ATOM      8  C   UNL A   1      30.407  28.164  24.329  1.00  0.00     0.046 C 
BRANCH   8   9
ATOM      9  C   UNL A   1      30.561  29.566  23.731  1.00  0.00     0.072 C 
BRANCH   9  10
ATOM     10  S   UNL A   1      29.302  29.968  22.470  1.00  0.00    -0.165 SA
ATOM     11  C   UNL A   1      28.390  31.246  23.349  1.00  0.00     0.085 C 
ENDBRANCH   9  10
ENDBRANCH   8   9
ENDBRANCH   7   8
BRANCH   7  12
ATOM     12  N   UNL A   1      31.744  25.897  24.533  1.00  0.00    -0.280 N 
ATOM     13  C   UNL A   1      31.757  24.926  25.513  1.00  0.00     0.266 C 
ATOM     14  C   UNL A   1      31.851  25.402  23.240  1.00  0.00     0.149 C 
ATOM     15  O   UNL A   1      31.635  25.071  26.721  1.00  0.00    -0.268 OA
ATOM     16  C   UNL A   1      32.066  23.593  24.968  1.00  0.00     0.081 C 
ATOM     17  S   UNL A   1      32.144  23.658  23.269  1.00  0.00    -0.054 SA
ATOM     18  S   UNL A   1      31.799  26.217  21.783  1.00  0.00    -0.052 S 
ATOM     19  C   UNL A   1      32.407  22.614  25.818  1.00  0.00     0.029 C 
BRANCH  19  20
ATOM     20  C   UNL A   1      33.152  21.419  25.445  1.00  0.00    -0.024 A 
ATOM     21  C   UNL A   1      34.533  21.418  25.287  1.00  0.00     0.010 A 
ATOM     22  C   UNL A   1      32.423  20.257  25.176  1.00  0.00     0.018 A 
ATOM     23  C   UNL A   1      35.178  20.235  24.907  1.00  0.00     0.029 A 
ATOM     24  C   UNL A   1      33.075  19.080  24.807  1.00  0.00     0.001 A 
ATOM     25  C   UNL A   1      34.478  19.054  24.678  1.00  0.00     0.070 A 
ATOM     26  C   UNL A   1      32.350  17.908  24.566  1.00  0.00     0.012 A 
ATOM     27  N   UNL A   1      35.135  17.929  24.344  1.00  0.00    -0.256 NA
ATOM     28  C   UNL A   1      33.027  16.748  24.228  1.00  0.00     0.021 A 
ATOM     29  C   UNL A   1      34.404  16.809  24.134  1.00  0.00     0.112 A 
ENDBRANCH  19  20
ENDBRANCH   7  12
ENDBRANCH   4   7
ENDBRANCH   2   3
ENDBRANCH   1   2
BRANCH   1  30
ATOM     30  C   UNL A   1      33.187  31.626  27.372  1.00  0.00     0.118 C 
BRANCH  30  31
ATOM     31  N   UNL A   1      32.855  33.044  27.548  1.00  0.00    -0.352 N 
ATOM     32  C   UNL A   1      33.360  33.997  28.405  1.00  0.00     0.251 C 
ATOM     33  H   UNL A   1      32.147  33.373  26.948  1.00  0.00     0.163 HD
ATOM     34  O   UNL A   1      32.879  35.126  28.413  1.00  0.00    -0.269 OA
BRANCH  32  35
ATOM     35  C   UNL A   1      34.449  33.647  29.342  1.00  0.00     0.039 A 
ATOM     36  C   UNL A   1      34.198  32.761  30.393  1.00  0.00     0.014 A 
ATOM     37  C   UNL A   1      35.733  34.143  29.144  1.00  0.00     0.014 A 
ATOM     38  C   UNL A   1      35.263  32.294  31.167  1.00  0.00     0.010 A 
ATOM     39  C   UNL A   1      36.801  33.551  29.795  1.00  0.00     0.010 A 
ATOM     40  C   UNL A   1      36.581  32.638  30.834  1.00  0.00    -0.014 A 
BRANCH  40  41
ATOM     41  C   UNL A   1      37.756  32.091  31.560  1.00  0.00     0.031 A 
ATOM     42  C   UNL A   1      38.615  31.040  30.901  1.00  0.00     0.074 A 
ATOM     43  C   UNL A   1      37.979  32.444  32.842  1.00  0.00     0.049 A 
ATOM     44  N   UNL A   1      39.605  30.351  31.403  1.00  0.00    -0.248 NA
ATOM     45  C   UNL A   1      38.281  30.673  29.512  1.00  0.00     0.031 C 
ATOM     46  C   UNL A   1      37.155  33.366  33.629  1.00  0.00     0.029 A 
ATOM     47  N   UNL A   1      38.955  32.046  33.721  1.00  0.00    -0.354 N 
ATOM     48  C   UNL A   1      39.966  29.437  30.420  1.00  0.00     0.074 A 
ATOM     49  C   UNL A   1      39.052  29.617  29.315  1.00  0.00     0.031 C 
ATOM     50  C   UNL A   1      37.672  33.479  34.862  1.00  0.00     0.029 A 
ATOM     51  C   UNL A   1      38.844  32.617  34.968  1.00  0.00     0.049 A 
ATOM     52  H   UNL A   1      39.668  31.411  33.482  1.00  0.00     0.167 HD
ATOM     53  C   UNL A   1      40.995  28.558  30.411  1.00  0.00     0.034 A 
ATOM     54  C   UNL A   1      39.606  32.465  36.068  1.00  0.00     0.034 A 
ATOM     55  C   UNL A   1      41.956  28.452  31.471  1.00  0.00     0.049 A 
ATOM     56  C   UNL A   1      40.805  31.559  35.999  1.00  0.00     0.074 A 
ATOM     57  C   UNL A   1      43.105  27.685  31.518  1.00  0.00     0.029 A 
ATOM     58  N   UNL A   1      41.885  29.145  32.671  1.00  0.00    -0.354 N 
ATOM     59  N   UNL A   1      41.228  30.825  34.997  1.00  0.00    -0.248 NA
ATOM     60  C   UNL A   1      41.656  31.488  37.196  1.00  0.00     0.031 C 
ATOM     61  C   UNL A   1      43.725  27.908  32.752  1.00  0.00     0.029 A 
ATOM     62  C   UNL A   1      42.970  28.826  33.465  1.00  0.00     0.049 A 
ATOM     63  H   UNL A   1      41.168  29.772  32.918  1.00  0.00     0.167 HD
ATOM     64  C   UNL A   1      42.409  30.236  35.428  1.00  0.00     0.074 A 
ATOM     65  C   UNL A   1      42.648  30.715  36.774  1.00  0.00     0.031 C 
ATOM     66  C   UNL A   1      43.218  29.363  34.778  1.00  0.00     0.034 A 
BRANCH  53  67
ATOM     67  C   UNL A   1      41.178  27.707  29.182  1.00  0.00     0.023 A 
ATOM     68  C   UNL A   1      40.406  26.536  29.026  1.00  0.00     0.012 A 
ATOM     69  C   UNL A   1      42.079  28.078  28.166  1.00  0.00     0.148 A 
ATOM     70  C   UNL A   1      40.558  25.727  27.901  1.00  0.00     0.002 A 
ATOM     71  C   UNL A   1      42.191  27.293  27.025  1.00  0.00     0.091 A 
ATOM     72  F   UNL A   1      42.823  29.181  28.342  1.00  0.00    -0.205 F 
ATOM     73  C   UNL A   1      41.442  26.110  26.897  1.00  0.00     0.022 A 
BRANCH  71  74
ATOM     74  S   UNL A   1      43.240  27.742  25.638  1.00  0.00     0.127 S 
ATOM     75  O   UNL A   1      43.723  29.059  26.048  1.00  0.00    -0.237 OA
ATOM     76  O   UNL A   1      44.253  26.685  25.665  1.00  0.00    -0.237 OA
ATOM     77  O   UNL A   1      42.379  27.727  24.464  1.00  0.00    -0.744 OA
ENDBRANCH  71  74
ENDBRANCH  53  67
BRANCH  54  78
ATOM     78  C   UNL A   1      39.312  33.260  37.296  1.00  0.00     0.023 A 
ATOM     79  C   UNL A   1      39.873  34.545  37.431  1.00  0.00     0.012 A 
ATOM     80  C   UNL A   1      38.462  32.773  38.306  1.00  0.00     0.148 A 
ATOM     81  C   UNL A   1      39.621  35.317  38.566  1.00  0.00     0.002 A 
ATOM     82  C   UNL A   1      38.172  33.569  39.410  1.00  0.00     0.091 A 
ATOM     83  F   UNL A   1      37.945  31.545  38.165  1.00  0.00    -0.205 F 
ATOM     84  C   UNL A   1      38.764  34.833  39.551  1.00  0.00     0.022 A 
BRANCH  82  85
ATOM     85  S   UNL A   1      36.977  33.082  40.660  1.00  0.00     0.127 S 
ATOM     86  O   UNL A   1      37.587  31.870  41.201  1.00  0.00    -0.237 OA
ATOM     87  O   UNL A   1      36.992  34.234  41.561  1.00  0.00    -0.237 OA
ATOM     88  O   UNL A   1      35.720  32.897  39.947  1.00  0.00    -0.744 OA
ENDBRANCH  82  85
ENDBRANCH  54  78
BRANCH  66  89
ATOM     89  C   UNL A   1      44.455  28.892  35.492  1.00  0.00     0.023 A 
ATOM     90  C   UNL A   1      45.670  29.580  35.313  1.00  0.00     0.012 A 
ATOM     91  C   UNL A   1      44.391  27.821  36.405  1.00  0.00     0.148 A 
ATOM     92  C   UNL A   1      46.813  29.191  36.009  1.00  0.00     0.002 A 
ATOM     93  C   UNL A   1      45.521  27.469  37.131  1.00  0.00     0.091 A 
ATOM     94  F   UNL A   1      43.229  27.168  36.546  1.00  0.00    -0.205 F 
ATOM     95  C   UNL A   1      46.736  28.144  36.927  1.00  0.00     0.022 A 
BRANCH  93  96
ATOM     96  S   UNL A   1      45.486  26.203  38.404  1.00  0.00     0.127 S 
ATOM     97  O   UNL A   1      44.453  26.713  39.303  1.00  0.00    -0.237 OA
ATOM     98  O   UNL A   1      45.102  25.010  37.648  1.00  0.00    -0.237 OA
ATOM     99  O   UNL A   1      46.832  26.156  38.959  1.00  0.00    -0.744 OA
ENDBRANCH  93  96
ENDBRANCH  66  89
ENDBRANCH  40  41
ENDBRANCH  32  35
ENDBRANCH  30  31
ENDBRANCH   1  30
TORSDOF 18
ENDMDL
