MODEL 1
REMARK VINA RESULT:     -12.9      0.000      0.000
REMARK SMILES CC1(C)[C@@]2(C(=O)NCCCNC(=O)c3ccc(-c4c5nc(c(-c6cccc(S(=O)(=O)[O-])c6F)c6ccc([nH]6)c(-c6cccc(S(=O)(=O)[O-])c6F)c6nc(c(-c7cccc(S(=O)(=O)[O-])c7F)c7ccc4[nH]7)C=C6)C=C5)cc3)CC[C@]1(C)/C(=N/NC(=O)c1ccc(Cl)cc1)C2
REMARK SMILES IDX 9 1 8 2 7 3 5 4 6 5 4 7 1 8 2 9 3 10 79 11 77 12 93 13 78 14
REMARK SMILES IDX 80 15 81 16 82 17 83 18 84 19 85 21 86 22 87 23 92 24 88 25
REMARK SMILES IDX 91 26 89 27 90 28 10 29 11 30 12 31 13 33 14 34 15 35 76 36
REMARK SMILES IDX 16 37 75 38 17 39 18 40 19 41 69 42 20 43 74 44 68 45 70 46
REMARK SMILES IDX 21 47 73 48 67 49 66 50 22 52 54 53 34 54 53 55 35 56 38 57
REMARK SMILES IDX 52 58 71 59 36 60 37 61 51 63 72 64 39 65 23 66 24 67 32 68
REMARK SMILES IDX 25 69 27 70 33 71 26 72 28 73 29 74 30 75 31 76 55 77 56 78
REMARK SMILES IDX 64 79 57 80 59 81 65 82 58 83 60 84 61 85 62 86 63 87 40 88
REMARK SMILES IDX 41 89 49 90 42 91 44 92 50 93 43 94 45 95 46 96 47 97 48 98
REMARK H PARENT 7 6 83 20 11 32 70 51 38 62
REMARK Flexibility Score: inf
ROOT
ATOM      1  C   UNL A   1      31.925  27.809  27.413  1.00  0.00     0.042 C 
ENDROOT
BRANCH   1   2
ATOM      2  C   UNL A   1      31.235  26.972  26.320  1.00  0.00     0.117 C 
BRANCH   2   3
ATOM      3  N   UNL A   1      30.917  25.584  26.621  1.00  0.00    -0.356 N 
ATOM      4  C   UNL A   1      31.744  24.500  26.751  1.00  0.00     0.227 C 
ATOM      5  O   UNL A   1      31.453  23.708  27.651  1.00  0.00    -0.274 OA
ATOM      6  H   UNL A   1      29.960  25.395  26.752  1.00  0.00     0.163 HD
BRANCH   4   7
ATOM      7  C   UNL A   1      32.875  24.188  25.763  1.00  0.00     0.060 C 
ATOM      8  C   UNL A   1      34.078  22.277  27.080  1.00  0.00     0.013 C 
ATOM      9  C   UNL A   1      33.403  22.701  25.752  1.00  0.00    -0.010 C 
ATOM     10  C   UNL A   1      32.406  21.582  25.382  1.00  0.00     0.013 C 
ATOM     11  C   UNL A   1      34.399  22.993  24.588  1.00  0.00     0.014 C 
ATOM     12  C   UNL A   1      34.199  25.002  25.897  1.00  0.00     0.019 C 
ATOM     13  C   UNL A   1      32.378  24.388  24.310  1.00  0.00     0.071 C 
ATOM     14  C   UNL A   1      35.247  24.149  25.148  1.00  0.00     0.014 C 
ATOM     15  C   UNL A   1      35.204  21.836  24.032  1.00  0.00     0.018 C 
ATOM     16  C   UNL A   1      33.472  23.697  23.562  1.00  0.00     0.046 C 
ATOM     17  N   UNL A   1      33.814  23.704  22.319  1.00  0.00    -0.181 NA
BRANCH  17  18
ATOM     18  N   UNL A   1      33.288  24.289  21.220  1.00  0.00    -0.243 N 
ATOM     19  C   UNL A   1      32.641  25.433  20.815  1.00  0.00     0.271 C 
ATOM     20  H   UNL A   1      33.409  23.694  20.445  1.00  0.00     0.194 HD
ATOM     21  O   UNL A   1      32.221  25.475  19.658  1.00  0.00    -0.267 OA
BRANCH  19  22
ATOM     22  C   UNL A   1      32.364  26.591  21.658  1.00  0.00     0.041 A 
ATOM     23  C   UNL A   1      31.035  26.960  21.888  1.00  0.00     0.015 A 
ATOM     24  C   UNL A   1      33.402  27.404  22.106  1.00  0.00     0.015 A 
ATOM     25  C   UNL A   1      30.748  28.030  22.738  1.00  0.00     0.021 A 
ATOM     26  C   UNL A   1      33.113  28.452  22.981  1.00  0.00     0.021 A 
ATOM     27  C   UNL A   1      31.792  28.733  23.330  1.00  0.00     0.041 A 
ATOM     28  Cl  UNL A   1      31.457  29.925  24.523  1.00  0.00    -0.084 Cl
ENDBRANCH  19  22
ENDBRANCH  17  18
ENDBRANCH   4   7
ENDBRANCH   2   3
ENDBRANCH   1   2
BRANCH   1  29
ATOM     29  C   UNL A   1      33.366  28.291  27.178  1.00  0.00     0.118 C 
BRANCH  29  30
ATOM     30  N   UNL A   1      33.443  29.744  27.129  1.00  0.00    -0.352 N 
ATOM     31  C   UNL A   1      34.323  30.636  27.694  1.00  0.00     0.251 C 
ATOM     32  H   UNL A   1      32.734  30.165  26.592  1.00  0.00     0.163 HD
ATOM     33  O   UNL A   1      34.004  31.826  27.704  1.00  0.00    -0.269 OA
BRANCH  31  34
ATOM     34  C   UNL A   1      35.633  30.245  28.283  1.00  0.00     0.039 A 
ATOM     35  C   UNL A   1      36.755  30.250  27.442  1.00  0.00     0.014 A 
ATOM     36  C   UNL A   1      35.756  29.716  29.571  1.00  0.00     0.014 A 
ATOM     37  C   UNL A   1      37.988  29.747  27.885  1.00  0.00     0.010 A 
ATOM     38  C   UNL A   1      36.999  29.233  30.022  1.00  0.00     0.010 A 
ATOM     39  C   UNL A   1      38.127  29.233  29.183  1.00  0.00    -0.014 A 
BRANCH  39  40
ATOM     40  C   UNL A   1      39.449  28.731  29.667  1.00  0.00     0.031 A 
ATOM     41  C   UNL A   1      40.218  29.446  30.750  1.00  0.00     0.074 A 
ATOM     42  C   UNL A   1      40.003  27.647  29.087  1.00  0.00     0.049 A 
ATOM     43  N   UNL A   1      41.394  29.160  31.252  1.00  0.00    -0.248 NA
ATOM     44  C   UNL A   1      39.589  30.636  31.340  1.00  0.00     0.031 C 
ATOM     45  C   UNL A   1      39.400  26.880  27.997  1.00  0.00     0.029 A 
ATOM     46  N   UNL A   1      41.209  27.025  29.308  1.00  0.00    -0.354 N 
ATOM     47  C   UNL A   1      41.666  30.152  32.189  1.00  0.00     0.074 A 
ATOM     48  C   UNL A   1      40.529  31.049  32.182  1.00  0.00     0.031 C 
ATOM     49  C   UNL A   1      40.250  25.911  27.623  1.00  0.00     0.029 A 
ATOM     50  C   UNL A   1      41.468  26.001  28.427  1.00  0.00     0.049 A 
ATOM     51  H   UNL A   1      41.829  27.288  30.026  1.00  0.00     0.167 HD
ATOM     52  C   UNL A   1      42.749  30.294  32.994  1.00  0.00     0.034 A 
ATOM     53  C   UNL A   1      42.564  25.234  28.258  1.00  0.00     0.034 A 
ATOM     54  C   UNL A   1      43.865  29.383  33.041  1.00  0.00     0.049 A 
ATOM     55  C   UNL A   1      43.755  25.412  29.159  1.00  0.00     0.074 A 
ATOM     56  C   UNL A   1      44.937  29.381  33.918  1.00  0.00     0.029 A 
ATOM     57  N   UNL A   1      44.069  28.329  32.165  1.00  0.00    -0.354 N 
ATOM     58  N   UNL A   1      43.909  26.237  30.165  1.00  0.00    -0.248 NA
ATOM     59  C   UNL A   1      44.913  24.538  28.919  1.00  0.00     0.031 C 
ATOM     60  C   UNL A   1      45.805  28.345  33.553  1.00  0.00     0.029 A 
ATOM     61  C   UNL A   1      45.266  27.692  32.457  1.00  0.00     0.049 A 
ATOM     62  H   UNL A   1      43.454  28.070  31.442  1.00  0.00     0.167 HD
ATOM     63  C   UNL A   1      45.172  25.975  30.685  1.00  0.00     0.074 A 
ATOM     64  C   UNL A   1      45.730  24.892  29.902  1.00  0.00     0.031 C 
ATOM     65  C   UNL A   1      45.815  26.594  31.705  1.00  0.00     0.034 A 
BRANCH  52  66
ATOM     66  C   UNL A   1      42.772  31.466  33.942  1.00  0.00     0.023 A 
ATOM     67  C   UNL A   1      43.326  32.690  33.518  1.00  0.00     0.012 A 
ATOM     68  C   UNL A   1      42.176  31.383  35.217  1.00  0.00     0.148 A 
ATOM     69  C   UNL A   1      43.315  33.804  34.356  1.00  0.00     0.002 A 
ATOM     70  C   UNL A   1      42.138  32.508  36.034  1.00  0.00     0.091 A 
ATOM     71  F   UNL A   1      41.667  30.207  35.612  1.00  0.00    -0.205 F 
ATOM     72  C   UNL A   1      42.714  33.716  35.609  1.00  0.00     0.022 A 
BRANCH  70  73
ATOM     73  S   UNL A   1      41.324  32.506  37.637  1.00  0.00     0.127 S 
ATOM     74  O   UNL A   1      41.377  33.922  37.997  1.00  0.00    -0.237 OA
ATOM     75  O   UNL A   1      39.987  32.011  37.309  1.00  0.00    -0.237 OA
ATOM     76  O   UNL A   1      42.108  31.611  38.477  1.00  0.00    -0.744 OA
ENDBRANCH  70  73
ENDBRANCH  52  66
BRANCH  53  77
ATOM     77  C   UNL A   1      42.571  24.201  27.185  1.00  0.00     0.023 A 
ATOM     78  C   UNL A   1      43.222  24.466  25.967  1.00  0.00     0.012 A 
ATOM     79  C   UNL A   1      41.980  22.939  27.393  1.00  0.00     0.148 A 
ATOM     80  C   UNL A   1      43.277  23.495  24.967  1.00  0.00     0.002 A 
ATOM     81  C   UNL A   1      42.088  21.958  26.416  1.00  0.00     0.091 A 
ATOM     82  F   UNL A   1      41.348  22.719  28.554  1.00  0.00    -0.205 F 
ATOM     83  C   UNL A   1      42.723  22.238  25.196  1.00  0.00     0.022 A 
BRANCH  81  84
ATOM     84  S   UNL A   1      41.527  20.272  26.671  1.00  0.00     0.127 S 
ATOM     85  O   UNL A   1      42.277  19.879  27.848  1.00  0.00    -0.237 OA
ATOM     86  O   UNL A   1      40.090  20.466  26.877  1.00  0.00    -0.237 OA
ATOM     87  O   UNL A   1      41.864  19.565  25.432  1.00  0.00    -0.744 OA
ENDBRANCH  81  84
ENDBRANCH  53  77
BRANCH  65  88
ATOM     88  C   UNL A   1      47.210  26.132  32.041  1.00  0.00     0.023 A 
ATOM     89  C   UNL A   1      47.402  25.260  33.133  1.00  0.00     0.012 A 
ATOM     90  C   UNL A   1      48.315  26.490  31.244  1.00  0.00     0.148 A 
ATOM     91  C   UNL A   1      48.672  24.771  33.438  1.00  0.00     0.002 A 
ATOM     92  C   UNL A   1      49.572  25.968  31.529  1.00  0.00     0.091 A 
ATOM     93  F   UNL A   1      48.117  27.335  30.221  1.00  0.00    -0.205 F 
ATOM     94  C   UNL A   1      49.754  25.115  32.631  1.00  0.00     0.022 A 
BRANCH  92  95
ATOM     95  S   UNL A   1      51.012  26.286  30.501  1.00  0.00     0.127 S 
ATOM     96  O   UNL A   1      50.600  25.707  29.224  1.00  0.00    -0.237 OA
ATOM     97  O   UNL A   1      51.087  27.747  30.514  1.00  0.00    -0.237 OA
ATOM     98  O   UNL A   1      52.128  25.618  31.158  1.00  0.00    -0.744 OA
ENDBRANCH  92  95
ENDBRANCH  65  88
ENDBRANCH  39  40
ENDBRANCH  31  34
ENDBRANCH  29  30
ENDBRANCH   1  29
TORSDOF 15
ENDMDL
MODEL 2
REMARK VINA RESULT:     -12.7      3.318      8.795
REMARK SMILES CC1(C)[C@@]2(C(=O)NCCCNC(=O)c3ccc(-c4c5nc(c(-c6cccc(S(=O)(=O)[O-])c6F)c6ccc([nH]6)c(-c6cccc(S(=O)(=O)[O-])c6F)c6nc(c(-c7cccc(S(=O)(=O)[O-])c7F)c7ccc4[nH]7)C=C6)C=C5)cc3)CC[C@]1(C)/C(=N/NC(=O)c1ccc(Cl)cc1)C2
REMARK SMILES IDX 9 1 8 2 7 3 5 4 6 5 4 7 1 8 2 9 3 10 79 11 77 12 93 13 78 14
REMARK SMILES IDX 80 15 81 16 82 17 83 18 84 19 85 21 86 22 87 23 92 24 88 25
REMARK SMILES IDX 91 26 89 27 90 28 10 29 11 30 12 31 13 33 14 34 15 35 76 36
REMARK SMILES IDX 16 37 75 38 17 39 18 40 19 41 69 42 20 43 74 44 68 45 70 46
REMARK SMILES IDX 21 47 73 48 67 49 66 50 22 52 54 53 34 54 53 55 35 56 38 57
REMARK SMILES IDX 52 58 71 59 36 60 37 61 51 63 72 64 39 65 23 66 24 67 32 68
REMARK SMILES IDX 25 69 27 70 33 71 26 72 28 73 29 74 30 75 31 76 55 77 56 78
REMARK SMILES IDX 64 79 57 80 59 81 65 82 58 83 60 84 61 85 62 86 63 87 40 88
REMARK SMILES IDX 41 89 49 90 42 91 44 92 50 93 43 94 45 95 46 96 47 97 48 98
REMARK H PARENT 7 6 83 20 11 32 70 51 38 62
REMARK Flexibility Score: inf
ROOT
ATOM      1  C   UNL A   1      33.059  29.213  23.775  1.00  0.00     0.042 C 
ENDROOT
BRANCH   1   2
ATOM      2  C   UNL A   1      32.330  28.230  22.839  1.00  0.00     0.117 C 
BRANCH   2   3
ATOM      3  N   UNL A   1      33.133  27.264  22.104  1.00  0.00    -0.356 N 
ATOM      4  C   UNL A   1      33.157  25.896  22.185  1.00  0.00     0.227 C 
ATOM      5  O   UNL A   1      33.277  25.298  21.113  1.00  0.00    -0.274 OA
ATOM      6  H   UNL A   1      33.756  27.653  21.448  1.00  0.00     0.163 HD
BRANCH   4   7
ATOM      7  C   UNL A   1      33.183  25.138  23.517  1.00  0.00     0.060 C 
ATOM      8  C   UNL A   1      30.755  25.643  24.344  1.00  0.00     0.013 C 
ATOM      9  C   UNL A   1      31.805  24.553  24.016  1.00  0.00    -0.010 C 
ATOM     10  C   UNL A   1      31.098  23.508  23.126  1.00  0.00     0.013 C 
ATOM     11  C   UNL A   1      32.462  23.894  25.267  1.00  0.00     0.014 C 
ATOM     12  C   UNL A   1      33.685  25.908  24.779  1.00  0.00     0.019 C 
ATOM     13  C   UNL A   1      34.068  23.874  23.389  1.00  0.00     0.071 C 
ATOM     14  C   UNL A   1      33.134  25.088  25.967  1.00  0.00     0.014 C 
ATOM     15  C   UNL A   1      31.586  23.049  26.171  1.00  0.00     0.018 C 
ATOM     16  C   UNL A   1      33.656  23.140  24.625  1.00  0.00     0.046 C 
ATOM     17  N   UNL A   1      34.175  22.144  25.257  1.00  0.00    -0.181 NA
BRANCH  17  18
ATOM     18  N   UNL A   1      35.247  21.356  25.019  1.00  0.00    -0.243 N 
ATOM     19  C   UNL A   1      35.611  20.034  24.922  1.00  0.00     0.271 C 
ATOM     20  H   UNL A   1      36.037  21.922  24.862  1.00  0.00     0.194 HD
ATOM     21  O   UNL A   1      36.809  19.776  24.798  1.00  0.00    -0.267 OA
BRANCH  19  22
ATOM     22  C   UNL A   1      34.699  18.898  25.001  1.00  0.00     0.041 A 
ATOM     23  C   UNL A   1      35.157  17.633  24.622  1.00  0.00     0.015 A 
ATOM     24  C   UNL A   1      33.353  19.091  25.307  1.00  0.00     0.015 A 
ATOM     25  C   UNL A   1      34.317  16.524  24.745  1.00  0.00     0.021 A 
ATOM     26  C   UNL A   1      32.527  17.977  25.460  1.00  0.00     0.021 A 
ATOM     27  C   UNL A   1      33.022  16.696  25.224  1.00  0.00     0.041 A 
ATOM     28  Cl  UNL A   1      32.043  15.323  25.562  1.00  0.00    -0.084 Cl
ENDBRANCH  19  22
ENDBRANCH  17  18
ENDBRANCH   4   7
ENDBRANCH   2   3
ENDBRANCH   1   2
BRANCH   1  29
ATOM     29  C   UNL A   1      32.762  29.158  25.282  1.00  0.00     0.118 C 
BRANCH  29  30
ATOM     30  N   UNL A   1      32.431  30.474  25.810  1.00  0.00    -0.352 N 
ATOM     31  C   UNL A   1      32.983  31.222  26.823  1.00  0.00     0.251 C 
ATOM     32  H   UNL A   1      31.672  30.909  25.357  1.00  0.00     0.163 HD
ATOM     33  O   UNL A   1      32.342  32.192  27.231  1.00  0.00    -0.269 OA
BRANCH  31  34
ATOM     34  C   UNL A   1      34.304  30.928  27.441  1.00  0.00     0.039 A 
ATOM     35  C   UNL A   1      34.501  29.652  27.989  1.00  0.00     0.014 A 
ATOM     36  C   UNL A   1      35.276  31.910  27.652  1.00  0.00     0.014 A 
ATOM     37  C   UNL A   1      35.659  29.355  28.722  1.00  0.00     0.010 A 
ATOM     38  C   UNL A   1      36.449  31.604  28.368  1.00  0.00     0.010 A 
ATOM     39  C   UNL A   1      36.651  30.327  28.921  1.00  0.00    -0.014 A 
BRANCH  39  40
ATOM     40  C   UNL A   1      37.901  30.000  29.670  1.00  0.00     0.031 A 
ATOM     41  C   UNL A   1      38.935  29.055  29.111  1.00  0.00     0.074 A 
ATOM     42  C   UNL A   1      38.091  30.511  30.903  1.00  0.00     0.049 A 
ATOM     43  N   UNL A   1      40.053  28.639  29.654  1.00  0.00    -0.248 NA
ATOM     44  C   UNL A   1      38.679  28.502  27.773  1.00  0.00     0.031 C 
ATOM     45  C   UNL A   1      37.158  31.401  31.595  1.00  0.00     0.029 A 
ATOM     46  N   UNL A   1      39.113  30.329  31.806  1.00  0.00    -0.354 N 
ATOM     47  C   UNL A   1      40.617  27.749  28.746  1.00  0.00     0.074 A 
ATOM     48  C   UNL A   1      39.713  27.684  27.616  1.00  0.00     0.031 C 
ATOM     49  C   UNL A   1      37.633  31.662  32.822  1.00  0.00     0.029 A 
ATOM     50  C   UNL A   1      38.889  30.941  33.018  1.00  0.00     0.049 A 
ATOM     51  H   UNL A   1      39.924  29.809  31.606  1.00  0.00     0.167 HD
ATOM     52  C   UNL A   1      41.784  27.064  28.832  1.00  0.00     0.034 A 
ATOM     53  C   UNL A   1      39.593  30.911  34.168  1.00  0.00     0.034 A 
ATOM     54  C   UNL A   1      42.713  27.155  29.931  1.00  0.00     0.049 A 
ATOM     55  C   UNL A   1      40.882  30.141  34.242  1.00  0.00     0.074 A 
ATOM     56  C   UNL A   1      43.977  26.598  30.038  1.00  0.00     0.029 A 
ATOM     57  N   UNL A   1      42.474  27.824  31.122  1.00  0.00    -0.354 N 
ATOM     58  N   UNL A   1      41.489  29.459  33.303  1.00  0.00    -0.248 NA
ATOM     59  C   UNL A   1      41.598  30.156  35.528  1.00  0.00     0.031 C 
ATOM     60  C   UNL A   1      44.489  26.904  31.305  1.00  0.00     0.029 A 
ATOM     61  C   UNL A   1      43.550  27.664  31.982  1.00  0.00     0.049 A 
ATOM     62  H   UNL A   1      41.659  28.336  31.326  1.00  0.00     0.167 HD
ATOM     63  C   UNL A   1      42.660  28.975  33.876  1.00  0.00     0.074 A 
ATOM     64  C   UNL A   1      42.694  29.467  35.238  1.00  0.00     0.031 C 
ATOM     65  C   UNL A   1      43.607  28.177  33.326  1.00  0.00     0.034 A 
BRANCH  52  66
ATOM     66  C   UNL A   1      42.165  26.173  27.677  1.00  0.00     0.023 A 
ATOM     67  C   UNL A   1      42.964  26.690  26.638  1.00  0.00     0.012 A 
ATOM     68  C   UNL A   1      41.802  24.811  27.657  1.00  0.00     0.148 A 
ATOM     69  C   UNL A   1      43.372  25.874  25.583  1.00  0.00     0.002 A 
ATOM     70  C   UNL A   1      42.241  23.996  26.620  1.00  0.00     0.091 A 
ATOM     71  F   UNL A   1      41.028  24.339  28.645  1.00  0.00    -0.205 F 
ATOM     72  C   UNL A   1      43.019  24.527  25.578  1.00  0.00     0.022 A 
BRANCH  70  73
ATOM     73  S   UNL A   1      41.893  22.233  26.566  1.00  0.00     0.127 S 
ATOM     74  O   UNL A   1      42.441  21.784  27.844  1.00  0.00    -0.237 OA
ATOM     75  O   UNL A   1      40.432  22.204  26.486  1.00  0.00    -0.237 OA
ATOM     76  O   UNL A   1      42.570  21.733  25.377  1.00  0.00    -0.744 OA
ENDBRANCH  70  73
ENDBRANCH  52  66
BRANCH  53  77
ATOM     77  C   UNL A   1      39.087  31.662  35.350  1.00  0.00     0.023 A 
ATOM     78  C   UNL A   1      38.226  31.026  36.263  1.00  0.00     0.012 A 
ATOM     79  C   UNL A   1      39.501  32.986  35.597  1.00  0.00     0.148 A 
ATOM     80  C   UNL A   1      37.777  31.700  37.399  1.00  0.00     0.002 A 
ATOM     81  C   UNL A   1      39.096  33.629  36.758  1.00  0.00     0.091 A 
ATOM     82  F   UNL A   1      40.305  33.576  34.701  1.00  0.00    -0.205 F 
ATOM     83  C   UNL A   1      38.222  32.994  37.655  1.00  0.00     0.022 A 
BRANCH  81  84
ATOM     84  S   UNL A   1      39.721  35.242  37.240  1.00  0.00     0.127 S 
ATOM     85  O   UNL A   1      39.278  36.078  36.141  1.00  0.00    -0.237 OA
ATOM     86  O   UNL A   1      39.032  35.459  38.513  1.00  0.00    -0.237 OA
ATOM     87  O   UNL A   1      41.172  35.068  37.366  1.00  0.00    -0.744 OA
ENDBRANCH  81  84
ENDBRANCH  53  77
BRANCH  65  88
ATOM     88  C   UNL A   1      44.770  27.764  34.193  1.00  0.00     0.023 A 
ATOM     89  C   UNL A   1      45.914  28.586  34.247  1.00  0.00     0.012 A 
ATOM     90  C   UNL A   1      44.707  26.616  35.007  1.00  0.00     0.148 A 
ATOM     91  C   UNL A   1      46.984  28.260  35.080  1.00  0.00     0.002 A 
ATOM     92  C   UNL A   1      45.761  26.319  35.865  1.00  0.00     0.091 A 
ATOM     93  F   UNL A   1      43.619  25.836  34.929  1.00  0.00    -0.205 F 
ATOM     94  C   UNL A   1      46.904  27.135  35.896  1.00  0.00     0.022 A 
BRANCH  92  95
ATOM     95  S   UNL A   1      45.717  24.937  37.015  1.00  0.00     0.127 S 
ATOM     96  O   UNL A   1      46.986  25.098  37.722  1.00  0.00    -0.237 OA
ATOM     97  O   UNL A   1      44.530  25.236  37.816  1.00  0.00    -0.237 OA
ATOM     98  O   UNL A   1      45.607  23.737  36.195  1.00  0.00    -0.744 OA
ENDBRANCH  92  95
ENDBRANCH  65  88
ENDBRANCH  39  40
ENDBRANCH  31  34
ENDBRANCH  29  30
ENDBRANCH   1  29
TORSDOF 15
ENDMDL
MODEL 3
REMARK VINA RESULT:     -12.6      3.525      8.770
REMARK SMILES CC1(C)[C@@]2(C(=O)NCCCNC(=O)c3ccc(-c4c5nc(c(-c6cccc(S(=O)(=O)[O-])c6F)c6ccc([nH]6)c(-c6cccc(S(=O)(=O)[O-])c6F)c6nc(c(-c7cccc(S(=O)(=O)[O-])c7F)c7ccc4[nH]7)C=C6)C=C5)cc3)CC[C@]1(C)/C(=N/NC(=O)c1ccc(Cl)cc1)C2
REMARK SMILES IDX 9 1 8 2 7 3 5 4 6 5 4 7 1 8 2 9 3 10 79 11 77 12 93 13 78 14
REMARK SMILES IDX 80 15 81 16 82 17 83 18 84 19 85 21 86 22 87 23 92 24 88 25
REMARK SMILES IDX 91 26 89 27 90 28 10 29 11 30 12 31 13 33 14 34 15 35 76 36
REMARK SMILES IDX 16 37 75 38 17 39 18 40 19 41 69 42 20 43 74 44 68 45 70 46
REMARK SMILES IDX 21 47 73 48 67 49 66 50 22 52 54 53 34 54 53 55 35 56 38 57
REMARK SMILES IDX 52 58 71 59 36 60 37 61 51 63 72 64 39 65 23 66 24 67 32 68
REMARK SMILES IDX 25 69 27 70 33 71 26 72 28 73 29 74 30 75 31 76 55 77 56 78
REMARK SMILES IDX 64 79 57 80 59 81 65 82 58 83 60 84 61 85 62 86 63 87 40 88
REMARK SMILES IDX 41 89 49 90 42 91 44 92 50 93 43 94 45 95 46 96 47 97 48 98
REMARK H PARENT 7 6 83 20 11 32 70 51 38 62
REMARK Flexibility Score: inf
ROOT
ATOM      1  C   UNL A   1      31.002  31.534  25.796  1.00  0.00     0.042 C 
ENDROOT
BRANCH   1   2
ATOM      2  C   UNL A   1      31.165  30.248  24.963  1.00  0.00     0.117 C 
BRANCH   2   3
ATOM      3  N   UNL A   1      32.514  29.832  24.607  1.00  0.00    -0.356 N 
ATOM      4  C   UNL A   1      32.947  28.690  23.987  1.00  0.00     0.227 C 
ATOM      5  O   UNL A   1      33.862  28.837  23.172  1.00  0.00    -0.274 OA
ATOM      6  H   UNL A   1      33.224  30.470  24.849  1.00  0.00     0.163 HD
BRANCH   4   7
ATOM      7  C   UNL A   1      32.450  27.291  24.369  1.00  0.00     0.060 C 
ATOM      8  C   UNL A   1      30.174  27.280  23.082  1.00  0.00     0.013 C 
ATOM      9  C   UNL A   1      31.528  26.564  23.314  1.00  0.00    -0.010 C 
ATOM     10  C   UNL A   1      32.120  26.267  21.920  1.00  0.00     0.013 C 
ATOM     11  C   UNL A   1      31.434  25.275  24.186  1.00  0.00     0.014 C 
ATOM     12  C   UNL A   1      31.616  27.153  25.680  1.00  0.00     0.019 C 
ATOM     13  C   UNL A   1      33.650  26.322  24.504  1.00  0.00     0.071 C 
ATOM     14  C   UNL A   1      30.876  25.806  25.519  1.00  0.00     0.014 C 
ATOM     15  C   UNL A   1      30.684  24.086  23.621  1.00  0.00     0.018 C 
ATOM     16  C   UNL A   1      32.929  25.012  24.507  1.00  0.00     0.046 C 
ATOM     17  N   UNL A   1      33.294  23.820  24.835  1.00  0.00    -0.181 NA
BRANCH  17  18
ATOM     18  N   UNL A   1      34.469  23.295  25.247  1.00  0.00    -0.243 N 
ATOM     19  C   UNL A   1      35.124  22.092  25.378  1.00  0.00     0.271 C 
ATOM     20  H   UNL A   1      35.058  24.020  25.559  1.00  0.00     0.194 HD
ATOM     21  O   UNL A   1      36.213  22.092  25.951  1.00  0.00    -0.267 OA
BRANCH  19  22
ATOM     22  C   UNL A   1      34.613  20.800  24.935  1.00  0.00     0.041 A 
ATOM     23  C   UNL A   1      35.477  19.699  24.919  1.00  0.00     0.015 A 
ATOM     24  C   UNL A   1      33.333  20.691  24.397  1.00  0.00     0.015 A 
ATOM     25  C   UNL A   1      34.992  18.442  24.552  1.00  0.00     0.021 A 
ATOM     26  C   UNL A   1      32.843  19.428  24.063  1.00  0.00     0.021 A 
ATOM     27  C   UNL A   1      33.658  18.302  24.185  1.00  0.00     0.041 A 
ATOM     28  Cl  UNL A   1      33.000  16.736  23.918  1.00  0.00    -0.084 Cl
ENDBRANCH  19  22
ENDBRANCH  17  18
ENDBRANCH   4   7
ENDBRANCH   2   3
ENDBRANCH   1   2
BRANCH   1  29
ATOM     29  C   UNL A   1      31.942  31.766  26.991  1.00  0.00     0.118 C 
BRANCH  29  30
ATOM     30  N   UNL A   1      32.184  33.184  27.212  1.00  0.00    -0.352 N 
ATOM     31  C   UNL A   1      33.142  33.849  27.941  1.00  0.00     0.251 C 
ATOM     32  H   UNL A   1      31.545  33.777  26.755  1.00  0.00     0.163 HD
ATOM     33  O   UNL A   1      32.960  35.045  28.168  1.00  0.00    -0.269 OA
BRANCH  31  34
ATOM     34  C   UNL A   1      34.380  33.206  28.460  1.00  0.00     0.039 A 
ATOM     35  C   UNL A   1      34.256  32.334  29.552  1.00  0.00     0.014 A 
ATOM     36  C   UNL A   1      35.659  33.562  28.023  1.00  0.00     0.014 A 
ATOM     37  C   UNL A   1      35.392  31.815  30.191  1.00  0.00     0.010 A 
ATOM     38  C   UNL A   1      36.797  33.022  28.649  1.00  0.00     0.010 A 
ATOM     39  C   UNL A   1      36.680  32.150  29.747  1.00  0.00    -0.014 A 
BRANCH  39  40
ATOM     40  C   UNL A   1      37.889  31.568  30.403  1.00  0.00     0.031 A 
ATOM     41  C   UNL A   1      38.717  30.501  29.732  1.00  0.00     0.074 A 
ATOM     42  C   UNL A   1      38.222  31.958  31.650  1.00  0.00     0.049 A 
ATOM     43  N   UNL A   1      39.771  29.867  30.185  1.00  0.00    -0.248 NA
ATOM     44  C   UNL A   1      38.306  30.088  28.382  1.00  0.00     0.031 C 
ATOM     45  C   UNL A   1      37.491  32.945  32.443  1.00  0.00     0.029 A 
ATOM     46  N   UNL A   1      39.239  31.546  32.480  1.00  0.00    -0.354 N 
ATOM     47  C   UNL A   1      40.129  28.956  29.197  1.00  0.00     0.074 A 
ATOM     48  C   UNL A   1      39.175  29.119  28.119  1.00  0.00     0.031 C 
ATOM     49  C   UNL A   1      38.061  33.041  33.654  1.00  0.00     0.029 A 
ATOM     50  C   UNL A   1      39.182  32.107  33.735  1.00  0.00     0.049 A 
ATOM     51  H   UNL A   1      39.938  30.912  32.204  1.00  0.00     0.167 HD
ATOM     52  C   UNL A   1      41.164  28.079  29.177  1.00  0.00     0.034 A 
ATOM     53  C   UNL A   1      39.923  31.883  34.840  1.00  0.00     0.034 A 
ATOM     54  C   UNL A   1      42.145  27.940  30.224  1.00  0.00     0.049 A 
ATOM     55  C   UNL A   1      41.063  30.902  34.795  1.00  0.00     0.074 A 
ATOM     56  C   UNL A   1      43.298  27.171  30.225  1.00  0.00     0.029 A 
ATOM     57  N   UNL A   1      42.081  28.559  31.461  1.00  0.00    -0.354 N 
ATOM     58  N   UNL A   1      41.498  30.191  33.785  1.00  0.00    -0.248 NA
ATOM     59  C   UNL A   1      41.830  30.712  36.036  1.00  0.00     0.031 C 
ATOM     60  C   UNL A   1      43.915  27.302  31.476  1.00  0.00     0.029 A 
ATOM     61  C   UNL A   1      43.153  28.164  32.247  1.00  0.00     0.049 A 
ATOM     62  H   UNL A   1      41.378  29.188  31.742  1.00  0.00     0.167 HD
ATOM     63  C   UNL A   1      42.594  29.479  34.261  1.00  0.00     0.074 A 
ATOM     64  C   UNL A   1      42.777  29.869  35.644  1.00  0.00     0.031 C 
ATOM     65  C   UNL A   1      43.362  28.570  33.613  1.00  0.00     0.034 A 
BRANCH  52  66
ATOM     66  C   UNL A   1      41.330  27.215  27.953  1.00  0.00     0.023 A 
ATOM     67  C   UNL A   1      41.959  27.746  26.809  1.00  0.00     0.012 A 
ATOM     68  C   UNL A   1      40.939  25.860  27.959  1.00  0.00     0.148 A 
ATOM     69  C   UNL A   1      42.171  26.953  25.682  1.00  0.00     0.002 A 
ATOM     70  C   UNL A   1      41.184  25.067  26.844  1.00  0.00     0.091 A 
ATOM     71  F   UNL A   1      40.327  25.375  29.049  1.00  0.00    -0.205 F 
ATOM     72  C   UNL A   1      41.792  25.614  25.702  1.00  0.00     0.022 A 
BRANCH  70  73
ATOM     73  S   UNL A   1      40.793  23.313  26.804  1.00  0.00     0.127 S 
ATOM     74  O   UNL A   1      39.363  23.335  26.505  1.00  0.00    -0.237 OA
ATOM     75  O   UNL A   1      41.636  22.828  25.712  1.00  0.00    -0.237 OA
ATOM     76  O   UNL A   1      41.155  22.798  28.118  1.00  0.00    -0.744 OA
ENDBRANCH  70  73
ENDBRANCH  52  66
BRANCH  53  77
ATOM     77  C   UNL A   1      39.611  32.630  36.089  1.00  0.00     0.023 A 
ATOM     78  C   UNL A   1      40.204  33.885  36.316  1.00  0.00     0.012 A 
ATOM     79  C   UNL A   1      38.689  32.122  37.025  1.00  0.00     0.148 A 
ATOM     80  C   UNL A   1      39.890  34.620  37.460  1.00  0.00     0.002 A 
ATOM     81  C   UNL A   1      38.339  32.883  38.131  1.00  0.00     0.091 A 
ATOM     82  F   UNL A   1      38.154  30.914  36.796  1.00  0.00    -0.205 F 
ATOM     83  C   UNL A   1      38.949  34.127  38.359  1.00  0.00     0.022 A 
BRANCH  81  84
ATOM     84  S   UNL A   1      37.041  32.395  39.271  1.00  0.00     0.127 S 
ATOM     85  O   UNL A   1      37.258  33.301  40.382  1.00  0.00    -0.237 OA
ATOM     86  O   UNL A   1      35.838  32.651  38.477  1.00  0.00    -0.237 OA
ATOM     87  O   UNL A   1      37.287  30.976  39.546  1.00  0.00    -0.744 OA
ENDBRANCH  81  84
ENDBRANCH  53  77
BRANCH  65  88
ATOM     88  C   UNL A   1      44.476  27.910  34.387  1.00  0.00     0.023 A 
ATOM     89  C   UNL A   1      45.730  28.550  34.468  1.00  0.00     0.012 A 
ATOM     90  C   UNL A   1      44.268  26.709  35.092  1.00  0.00     0.148 A 
ATOM     91  C   UNL A   1      46.764  27.993  35.219  1.00  0.00     0.002 A 
ATOM     92  C   UNL A   1      45.292  26.180  35.872  1.00  0.00     0.091 A 
ATOM     93  F   UNL A   1      43.076  26.105  34.988  1.00  0.00    -0.205 F 
ATOM     94  C   UNL A   1      46.543  26.816  35.930  1.00  0.00     0.022 A 
BRANCH  92  95
ATOM     95  S   UNL A   1      45.078  24.712  36.888  1.00  0.00     0.127 S 
ATOM     96  O   UNL A   1      46.429  24.512  37.410  1.00  0.00    -0.237 OA
ATOM     97  O   UNL A   1      44.101  25.160  37.880  1.00  0.00    -0.237 OA
ATOM     98  O   UNL A   1      44.595  23.671  35.991  1.00  0.00    -0.744 OA
ENDBRANCH  92  95
ENDBRANCH  65  88
ENDBRANCH  39  40
ENDBRANCH  31  34
ENDBRANCH  29  30
ENDBRANCH   1  29
TORSDOF 15
ENDMDL
