MODEL 1
REMARK VINA RESULT:     -12.3      0.000      0.000
REMARK SMILES O=C(NCCCNC(=O)[C@H](Cc1ccc(O)cc1)NC(=O)c1ccc(Cl)s1)c1ccc(-c2c3nc(c(-c4cccc(S(=O)(=O)[O-])c4F)c4ccc([nH]4)c(-c4cccc(S(=O)(=O)[O-])c4F)c4nc(c(-c5cccc(S(=O)(=O)[O-])c5F)c5ccc2[nH]5)C=C4)C=C3)cc1
REMARK SMILES IDX 5 1 4 2 3 3 1 4 2 5 28 7 29 8 90 9 30 10 89 11 31 12 32 13
REMARK SMILES IDX 33 14 83 15 34 16 88 17 82 18 84 19 35 20 87 21 81 22 80 23
REMARK SMILES IDX 36 25 68 26 48 27 67 28 49 29 52 30 66 31 85 32 50 33 51 34
REMARK SMILES IDX 65 36 86 37 53 38 37 39 38 40 46 41 39 42 41 43 47 44 40 45
REMARK SMILES IDX 42 46 43 47 44 48 45 49 69 50 70 51 78 52 71 53 73 54 79 55
REMARK SMILES IDX 72 56 74 57 75 58 76 59 77 60 54 61 55 62 63 63 56 64 58 65
REMARK SMILES IDX 64 66 57 67 59 68 60 69 61 70 62 71 6 72 7 73 8 74 9 76
REMARK SMILES IDX 10 77 19 78 20 79 21 81 22 82 23 83 27 84 24 85 25 86 26 87
REMARK SMILES IDX 11 88 12 89 13 90 18 91 14 92 17 93 15 94 16 95
REMARK H PARENT 3 6 84 24 52 35 7 75 19 80 16 96
REMARK Flexibility Score: inf
ROOT
ATOM      1  C   UNL A   1      31.765  28.257  26.387  1.00  0.00     0.042 C 
ENDROOT
BRANCH   1   2
ATOM      2  C   UNL A   1      32.627  29.250  25.614  1.00  0.00     0.118 C 
BRANCH   2   3
ATOM      3  N   UNL A   1      32.407  30.623  26.050  1.00  0.00    -0.352 N 
ATOM      4  O   UNL A   1      32.472  32.442  27.334  1.00  0.00    -0.269 OA
ATOM      5  C   UNL A   1      33.048  31.415  26.973  1.00  0.00     0.251 C 
ATOM      6  H   UNL A   1      31.656  31.068  25.597  1.00  0.00     0.163 HD
BRANCH   5   7
ATOM      7  C   UNL A   1      34.380  31.086  27.549  1.00  0.00     0.039 A 
ATOM      8  C   UNL A   1      35.345  32.057  27.815  1.00  0.00     0.014 A 
ATOM      9  C   UNL A   1      34.623  29.767  27.963  1.00  0.00     0.014 A 
ATOM     10  C   UNL A   1      36.574  31.700  28.374  1.00  0.00     0.010 A 
ATOM     11  C   UNL A   1      35.820  29.424  28.608  1.00  0.00     0.010 A 
ATOM     12  C   UNL A   1      36.820  30.385  28.805  1.00  0.00    -0.014 A 
BRANCH  12  13
ATOM     13  C   UNL A   1      38.077  30.083  29.546  1.00  0.00     0.031 A 
ATOM     14  C   UNL A   1      38.313  30.584  30.946  1.00  0.00     0.074 A 
ATOM     15  C   UNL A   1      39.019  29.325  28.947  1.00  0.00     0.049 A 
ATOM     16  N   UNL A   1      39.306  30.313  31.756  1.00  0.00    -0.248 NA
ATOM     17  C   UNL A   1      37.323  31.517  31.505  1.00  0.00     0.031 C 
ATOM     18  C   UNL A   1      38.953  28.840  27.567  1.00  0.00     0.029 A 
ATOM     19  N   UNL A   1      40.204  28.816  29.418  1.00  0.00    -0.354 N 
ATOM     20  C   UNL A   1      39.081  31.065  32.904  1.00  0.00     0.074 A 
ATOM     21  C   UNL A   1      37.863  31.813  32.681  1.00  0.00     0.031 C 
ATOM     22  C   UNL A   1      40.013  28.056  27.323  1.00  0.00     0.029 A 
ATOM     23  C   UNL A   1      40.856  28.008  28.514  1.00  0.00     0.049 A 
ATOM     24  H   UNL A   1      40.555  29.010  30.318  1.00  0.00     0.167 HD
ATOM     25  C   UNL A   1      39.807  31.109  34.047  1.00  0.00     0.034 A 
ATOM     26  C   UNL A   1      41.991  27.291  28.630  1.00  0.00     0.034 A 
ATOM     27  C   UNL A   1      40.986  30.321  34.295  1.00  0.00     0.049 A 
ATOM     28  C   UNL A   1      42.735  27.301  29.935  1.00  0.00     0.074 A 
ATOM     29  C   UNL A   1      41.740  30.240  35.455  1.00  0.00     0.029 A 
ATOM     30  N   UNL A   1      41.584  29.476  33.374  1.00  0.00    -0.354 N 
ATOM     31  N   UNL A   1      42.417  27.896  31.058  1.00  0.00    -0.248 NA
ATOM     32  C   UNL A   1      43.980  26.521  29.996  1.00  0.00     0.031 C 
ATOM     33  C   UNL A   1      42.793  29.345  35.233  1.00  0.00     0.029 A 
ATOM     34  C   UNL A   1      42.697  28.872  33.934  1.00  0.00     0.049 A 
ATOM     35  H   UNL A   1      41.264  29.327  32.455  1.00  0.00     0.167 HD
ATOM     36  C   UNL A   1      43.413  27.552  31.965  1.00  0.00     0.074 A 
ATOM     37  C   UNL A   1      44.328  26.670  31.268  1.00  0.00     0.031 C 
ATOM     38  C   UNL A   1      43.569  27.954  33.249  1.00  0.00     0.034 A 
BRANCH  25  39
ATOM     39  C   UNL A   1      39.307  31.993  35.158  1.00  0.00     0.023 A 
ATOM     40  C   UNL A   1      38.349  31.485  36.059  1.00  0.00     0.012 A 
ATOM     41  C   UNL A   1      39.822  33.288  35.355  1.00  0.00     0.148 A 
ATOM     42  C   UNL A   1      37.896  32.260  37.126  1.00  0.00     0.002 A 
ATOM     43  C   UNL A   1      39.388  34.044  36.440  1.00  0.00     0.091 A 
ATOM     44  F   UNL A   1      40.713  33.767  34.473  1.00  0.00    -0.205 F 
ATOM     45  C   UNL A   1      38.423  33.534  37.322  1.00  0.00     0.022 A 
BRANCH  43  46
ATOM     46  S   UNL A   1      40.066  35.670  36.793  1.00  0.00     0.127 S 
ATOM     47  O   UNL A   1      41.502  35.397  36.813  1.00  0.00    -0.237 OA
ATOM     48  O   UNL A   1      39.615  36.462  35.646  1.00  0.00    -0.237 OA
ATOM     49  O   UNL A   1      39.475  36.069  38.063  1.00  0.00    -0.744 OA
ENDBRANCH  43  46
ENDBRANCH  25  39
BRANCH  26  50
ATOM     50  C   UNL A   1      42.429  26.422  27.502  1.00  0.00     0.023 A 
ATOM     51  C   UNL A   1      43.348  26.931  26.563  1.00  0.00     0.012 A 
ATOM     52  C   UNL A   1      42.005  25.085  27.389  1.00  0.00     0.148 A 
ATOM     53  C   UNL A   1      43.824  26.129  25.526  1.00  0.00     0.002 A 
ATOM     54  C   UNL A   1      42.526  24.274  26.387  1.00  0.00     0.091 A 
ATOM     55  F   UNL A   1      41.111  24.622  28.274  1.00  0.00    -0.205 F 
ATOM     56  C   UNL A   1      43.426  24.796  25.447  1.00  0.00     0.022 A 
BRANCH  54  57
ATOM     57  S   UNL A   1      42.170  22.514  26.327  1.00  0.00     0.127 S 
ATOM     58  O   UNL A   1      42.674  22.058  27.618  1.00  0.00    -0.237 OA
ATOM     59  O   UNL A   1      40.713  22.491  26.192  1.00  0.00    -0.237 OA
ATOM     60  O   UNL A   1      42.880  22.031  25.149  1.00  0.00    -0.744 OA
ENDBRANCH  54  57
ENDBRANCH  26  50
BRANCH  38  61
ATOM     61  C   UNL A   1      44.777  27.449  33.989  1.00  0.00     0.023 A 
ATOM     62  C   UNL A   1      45.968  28.202  33.955  1.00  0.00     0.012 A 
ATOM     63  C   UNL A   1      44.724  26.274  34.762  1.00  0.00     0.148 A 
ATOM     64  C   UNL A   1      47.094  27.783  34.662  1.00  0.00     0.002 A 
ATOM     65  C   UNL A   1      45.841  25.879  35.492  1.00  0.00     0.091 A 
ATOM     66  F   UNL A   1      43.592  25.553  34.762  1.00  0.00    -0.205 F 
ATOM     67  C   UNL A   1      47.027  26.628  35.439  1.00  0.00     0.022 A 
BRANCH  65  68
ATOM     68  S   UNL A   1      45.798  24.443  36.572  1.00  0.00     0.127 S 
ATOM     69  O   UNL A   1      45.493  23.367  35.632  1.00  0.00    -0.237 OA
ATOM     70  O   UNL A   1      47.157  24.409  37.117  1.00  0.00    -0.237 OA
ATOM     71  O   UNL A   1      44.769  24.737  37.561  1.00  0.00    -0.744 OA
ENDBRANCH  65  68
ENDBRANCH  38  61
ENDBRANCH  12  13
ENDBRANCH   5   7
ENDBRANCH   2   3
ENDBRANCH   1   2
BRANCH   1  72
ATOM     72  C   UNL A   1      32.335  26.844  26.422  1.00  0.00     0.117 C 
BRANCH  72  73
ATOM     73  N   UNL A   1      31.378  25.855  26.873  1.00  0.00    -0.354 N 
ATOM     74  C   UNL A   1      30.955  24.664  26.392  1.00  0.00     0.242 C 
ATOM     75  H   UNL A   1      30.939  26.103  27.719  1.00  0.00     0.163 HD
ATOM     76  O   UNL A   1      30.175  24.057  27.146  1.00  0.00    -0.273 OA
BRANCH  74  77
ATOM     77  C   UNL A   1      31.207  24.080  24.979  1.00  0.00     0.176 C 
BRANCH  77  78
ATOM     78  N   UNL A   1      31.213  22.617  25.124  1.00  0.00    -0.339 N 
ATOM     79  C   UNL A   1      32.228  21.717  24.911  1.00  0.00     0.262 C 
ATOM     80  H   UNL A   1      30.361  22.223  25.417  1.00  0.00     0.164 HD
ATOM     81  O   UNL A   1      31.940  20.523  24.863  1.00  0.00    -0.268 OA
BRANCH  79  82
ATOM     82  C   UNL A   1      33.572  22.215  24.723  1.00  0.00     0.093 A 
ATOM     83  C   UNL A   1      34.216  22.553  23.547  1.00  0.00     0.027 A 
ATOM     84  S   UNL A   1      34.555  22.516  26.094  1.00  0.00    -0.118 S 
ATOM     85  C   UNL A   1      35.534  23.049  23.780  1.00  0.00     0.033 A 
ATOM     86  C   UNL A   1      35.824  23.065  25.119  1.00  0.00     0.094 A 
ATOM     87  Cl  UNL A   1      37.296  23.578  25.841  1.00  0.00    -0.072 Cl
ENDBRANCH  79  82
ENDBRANCH  77  78
BRANCH  77  88
ATOM     88  C   UNL A   1      30.498  24.579  23.694  1.00  0.00     0.070 C 
BRANCH  88  89
ATOM     89  C   UNL A   1      30.662  26.048  23.356  1.00  0.00    -0.045 A 
ATOM     90  C   UNL A   1      31.861  26.512  22.787  1.00  0.00     0.007 A 
ATOM     91  C   UNL A   1      29.632  26.970  23.561  1.00  0.00     0.007 A 
ATOM     92  C   UNL A   1      31.962  27.805  22.272  1.00  0.00     0.046 A 
ATOM     93  C   UNL A   1      29.728  28.265  23.048  1.00  0.00     0.046 A 
ATOM     94  C   UNL A   1      30.874  28.659  22.373  1.00  0.00     0.115 A 
BRANCH  94  95
ATOM     95  O   UNL A   1      30.890  29.900  21.815  1.00  0.00    -0.508 OA
ATOM     96  H   UNL A   1      31.348  30.047  21.010  1.00  0.00     0.293 HD
ENDBRANCH  94  95
ENDBRANCH  88  89
ENDBRANCH  77  88
ENDBRANCH  74  77
ENDBRANCH  72  73
ENDBRANCH   1  72
TORSDOF 18
ENDMDL
MODEL 2
REMARK VINA RESULT:     -12.0      1.234      1.637
REMARK SMILES O=C(NCCCNC(=O)[C@H](Cc1ccc(O)cc1)NC(=O)c1ccc(Cl)s1)c1ccc(-c2c3nc(c(-c4cccc(S(=O)(=O)[O-])c4F)c4ccc([nH]4)c(-c4cccc(S(=O)(=O)[O-])c4F)c4nc(c(-c5cccc(S(=O)(=O)[O-])c5F)c5ccc2[nH]5)C=C4)C=C3)cc1
REMARK SMILES IDX 5 1 4 2 3 3 1 4 2 5 28 7 29 8 90 9 30 10 89 11 31 12 32 13
REMARK SMILES IDX 33 14 83 15 34 16 88 17 82 18 84 19 35 20 87 21 81 22 80 23
REMARK SMILES IDX 36 25 68 26 48 27 67 28 49 29 52 30 66 31 85 32 50 33 51 34
REMARK SMILES IDX 65 36 86 37 53 38 37 39 38 40 46 41 39 42 41 43 47 44 40 45
REMARK SMILES IDX 42 46 43 47 44 48 45 49 69 50 70 51 78 52 71 53 73 54 79 55
REMARK SMILES IDX 72 56 74 57 75 58 76 59 77 60 54 61 55 62 63 63 56 64 58 65
REMARK SMILES IDX 64 66 57 67 59 68 60 69 61 70 62 71 6 72 7 73 8 74 9 76
REMARK SMILES IDX 10 77 19 78 20 79 21 81 22 82 23 83 27 84 24 85 25 86 26 87
REMARK SMILES IDX 11 88 12 89 13 90 18 91 14 92 17 93 15 94 16 95
REMARK H PARENT 3 6 84 24 52 35 7 75 19 80 16 96
REMARK Flexibility Score: inf
ROOT
ATOM      1  C   UNL A   1      31.809  28.323  26.465  1.00  0.00     0.042 C 
ENDROOT
BRANCH   1   2
ATOM      2  C   UNL A   1      32.793  29.276  25.793  1.00  0.00     0.118 C 
BRANCH   2   3
ATOM      3  N   UNL A   1      32.612  30.652  26.236  1.00  0.00    -0.352 N 
ATOM      4  O   UNL A   1      32.756  32.471  27.515  1.00  0.00    -0.269 OA
ATOM      5  C   UNL A   1      33.302  31.435  27.133  1.00  0.00     0.251 C 
ATOM      6  H   UNL A   1      31.851  31.109  25.813  1.00  0.00     0.163 HD
BRANCH   5   7
ATOM      7  C   UNL A   1      34.650  31.085  27.657  1.00  0.00     0.039 A 
ATOM      8  C   UNL A   1      35.645  32.038  27.867  1.00  0.00     0.014 A 
ATOM      9  C   UNL A   1      34.881  29.766  28.080  1.00  0.00     0.014 A 
ATOM     10  C   UNL A   1      36.889  31.662  28.379  1.00  0.00     0.010 A 
ATOM     11  C   UNL A   1      36.097  29.407  28.680  1.00  0.00     0.010 A 
ATOM     12  C   UNL A   1      37.125  30.348  28.819  1.00  0.00    -0.014 A 
BRANCH  12  13
ATOM     13  C   UNL A   1      38.406  30.029  29.511  1.00  0.00     0.031 A 
ATOM     14  C   UNL A   1      38.713  30.546  30.891  1.00  0.00     0.074 A 
ATOM     15  C   UNL A   1      39.305  29.242  28.884  1.00  0.00     0.049 A 
ATOM     16  N   UNL A   1      39.733  30.265  31.663  1.00  0.00    -0.248 NA
ATOM     17  C   UNL A   1      37.768  31.509  31.477  1.00  0.00     0.031 C 
ATOM     18  C   UNL A   1      39.169  28.737  27.516  1.00  0.00     0.029 A 
ATOM     19  N   UNL A   1      40.498  28.713  29.312  1.00  0.00    -0.354 N 
ATOM     20  C   UNL A   1      39.574  31.039  32.806  1.00  0.00     0.074 A 
ATOM     21  C   UNL A   1      38.364  31.810  32.624  1.00  0.00     0.031 C 
ATOM     22  C   UNL A   1      40.201  27.926  27.239  1.00  0.00     0.029 A 
ATOM     23  C   UNL A   1      41.092  27.878  28.394  1.00  0.00     0.049 A 
ATOM     24  H   UNL A   1      40.891  28.913  30.193  1.00  0.00     0.167 HD
ATOM     25  C   UNL A   1      40.349  31.083  33.917  1.00  0.00     0.034 A 
ATOM     26  C   UNL A   1      42.215  27.138  28.473  1.00  0.00     0.034 A 
ATOM     27  C   UNL A   1      41.521  30.273  34.127  1.00  0.00     0.049 A 
ATOM     28  C   UNL A   1      43.014  27.150  29.745  1.00  0.00     0.074 A 
ATOM     29  C   UNL A   1      42.322  30.193  35.255  1.00  0.00     0.029 A 
ATOM     30  N   UNL A   1      42.060  29.401  33.195  1.00  0.00    -0.354 N 
ATOM     31  N   UNL A   1      42.759  27.768  30.871  1.00  0.00    -0.248 NA
ATOM     32  C   UNL A   1      44.244  26.344  29.765  1.00  0.00     0.031 C 
ATOM     33  C   UNL A   1      43.345  29.271  35.002  1.00  0.00     0.029 A 
ATOM     34  C   UNL A   1      43.183  28.781  33.717  1.00  0.00     0.049 A 
ATOM     35  H   UNL A   1      41.698  29.246  32.293  1.00  0.00     0.167 HD
ATOM     36  C   UNL A   1      43.784  27.416  31.740  1.00  0.00     0.074 A 
ATOM     37  C   UNL A   1      44.649  26.503  31.019  1.00  0.00     0.031 C 
ATOM     38  C   UNL A   1      44.004  27.833  33.010  1.00  0.00     0.034 A 
BRANCH  25  39
ATOM     39  C   UNL A   1      39.917  31.995  35.034  1.00  0.00     0.023 A 
ATOM     40  C   UNL A   1      40.316  33.346  35.009  1.00  0.00     0.012 A 
ATOM     41  C   UNL A   1      39.072  31.543  36.066  1.00  0.00     0.148 A 
ATOM     42  C   UNL A   1      39.897  34.229  36.003  1.00  0.00     0.002 A 
ATOM     43  C   UNL A   1      38.634  32.437  37.038  1.00  0.00     0.091 A 
ATOM     44  F   UNL A   1      38.723  30.247  36.091  1.00  0.00    -0.205 F 
ATOM     45  C   UNL A   1      39.049  33.777  37.011  1.00  0.00     0.022 A 
BRANCH  43  46
ATOM     46  S   UNL A   1      37.489  31.943  38.333  1.00  0.00     0.127 S 
ATOM     47  O   UNL A   1      36.366  32.848  38.100  1.00  0.00    -0.237 OA
ATOM     48  O   UNL A   1      37.218  30.542  38.003  1.00  0.00    -0.237 OA
ATOM     49  O   UNL A   1      38.213  32.133  39.582  1.00  0.00    -0.744 OA
ENDBRANCH  43  46
ENDBRANCH  25  39
BRANCH  26  50
ATOM     50  C   UNL A   1      42.586  26.242  27.341  1.00  0.00     0.023 A 
ATOM     51  C   UNL A   1      43.474  26.716  26.355  1.00  0.00     0.012 A 
ATOM     52  C   UNL A   1      42.129  24.913  27.269  1.00  0.00     0.148 A 
ATOM     53  C   UNL A   1      43.888  25.889  25.312  1.00  0.00     0.002 A 
ATOM     54  C   UNL A   1      42.589  24.076  26.258  1.00  0.00     0.091 A 
ATOM     55  F   UNL A   1      41.264  24.483  28.199  1.00  0.00    -0.205 F 
ATOM     56  C   UNL A   1      43.459  24.564  25.271  1.00  0.00     0.022 A 
BRANCH  54  57
ATOM     57  S   UNL A   1      42.194  22.323  26.241  1.00  0.00     0.127 S 
ATOM     58  O   UNL A   1      42.967  21.849  25.098  1.00  0.00    -0.237 OA
ATOM     59  O   UNL A   1      42.685  21.876  27.546  1.00  0.00    -0.237 OA
ATOM     60  O   UNL A   1      40.743  22.270  26.107  1.00  0.00    -0.744 OA
ENDBRANCH  54  57
ENDBRANCH  26  50
BRANCH  38  61
ATOM     61  C   UNL A   1      45.232  27.313  33.706  1.00  0.00     0.023 A 
ATOM     62  C   UNL A   1      46.427  28.057  33.639  1.00  0.00     0.012 A 
ATOM     63  C   UNL A   1      45.194  26.132  34.471  1.00  0.00     0.148 A 
ATOM     64  C   UNL A   1      47.572  27.622  34.305  1.00  0.00     0.002 A 
ATOM     65  C   UNL A   1      46.332  25.722  35.161  1.00  0.00     0.091 A 
ATOM     66  F   UNL A   1      44.057  25.420  34.502  1.00  0.00    -0.205 F 
ATOM     67  C   UNL A   1      47.521  26.461  35.074  1.00  0.00     0.022 A 
BRANCH  65  68
ATOM     68  S   UNL A   1      46.312  24.278  36.229  1.00  0.00     0.127 S 
ATOM     69  O   UNL A   1      45.231  24.602  37.157  1.00  0.00    -0.237 OA
ATOM     70  O   UNL A   1      46.007  23.191  35.296  1.00  0.00    -0.237 OA
ATOM     71  O   UNL A   1      47.648  24.208  36.805  1.00  0.00    -0.744 OA
ENDBRANCH  65  68
ENDBRANCH  38  61
ENDBRANCH  12  13
ENDBRANCH   5   7
ENDBRANCH   2   3
ENDBRANCH   1   2
BRANCH   1  72
ATOM     72  C   UNL A   1      32.237  26.861  26.415  1.00  0.00     0.117 C 
BRANCH  72  73
ATOM     73  N   UNL A   1      31.182  25.945  26.798  1.00  0.00    -0.354 N 
ATOM     74  C   UNL A   1      30.766  24.742  26.342  1.00  0.00     0.242 C 
ATOM     75  H   UNL A   1      30.650  26.270  27.559  1.00  0.00     0.163 HD
ATOM     76  O   UNL A   1      29.867  24.221  27.023  1.00  0.00    -0.273 OA
BRANCH  74  77
ATOM     77  C   UNL A   1      31.171  24.050  25.015  1.00  0.00     0.176 C 
BRANCH  77  78
ATOM     78  N   UNL A   1      31.215  22.607  25.290  1.00  0.00    -0.339 N 
ATOM     79  C   UNL A   1      32.248  21.715  25.139  1.00  0.00     0.262 C 
ATOM     80  H   UNL A   1      30.378  22.221  25.634  1.00  0.00     0.164 HD
ATOM     81  O   UNL A   1      31.989  20.516  25.203  1.00  0.00    -0.268 OA
BRANCH  79  82
ATOM     82  C   UNL A   1      33.576  22.224  24.881  1.00  0.00     0.093 A 
ATOM     83  C   UNL A   1      34.170  22.528  23.669  1.00  0.00     0.027 A 
ATOM     84  S   UNL A   1      34.606  22.590  26.201  1.00  0.00    -0.118 S 
ATOM     85  C   UNL A   1      35.487  23.051  23.832  1.00  0.00     0.033 A 
ATOM     86  C   UNL A   1      35.828  23.121  25.159  1.00  0.00     0.094 A 
ATOM     87  Cl  UNL A   1      37.318  23.682  25.804  1.00  0.00    -0.072 Cl
ENDBRANCH  79  82
ENDBRANCH  77  78
BRANCH  77  88
ATOM     88  C   UNL A   1      30.568  24.406  23.632  1.00  0.00     0.070 C 
BRANCH  88  89
ATOM     89  C   UNL A   1      30.489  25.880  23.285  1.00  0.00    -0.045 A 
ATOM     90  C   UNL A   1      29.343  26.623  23.619  1.00  0.00     0.007 A 
ATOM     91  C   UNL A   1      31.548  26.548  22.665  1.00  0.00     0.007 A 
ATOM     92  C   UNL A   1      29.327  28.014  23.507  1.00  0.00     0.046 A 
ATOM     93  C   UNL A   1      31.538  27.941  22.551  1.00  0.00     0.046 A 
ATOM     94  C   UNL A   1      30.447  28.664  23.009  1.00  0.00     0.115 A 
BRANCH  94  95
ATOM     95  O   UNL A   1      30.517  30.022  22.957  1.00  0.00    -0.508 OA
ATOM     96  H   UNL A   1      30.053  30.490  22.289  1.00  0.00     0.293 HD
ENDBRANCH  94  95
ENDBRANCH  88  89
ENDBRANCH  77  88
ENDBRANCH  74  77
ENDBRANCH  72  73
ENDBRANCH   1  72
TORSDOF 18
ENDMDL
MODEL 3
REMARK VINA RESULT:     -11.8      5.128      9.773
REMARK SMILES O=C(NCCCNC(=O)[C@H](Cc1ccc(O)cc1)NC(=O)c1ccc(Cl)s1)c1ccc(-c2c3nc(c(-c4cccc(S(=O)(=O)[O-])c4F)c4ccc([nH]4)c(-c4cccc(S(=O)(=O)[O-])c4F)c4nc(c(-c5cccc(S(=O)(=O)[O-])c5F)c5ccc2[nH]5)C=C4)C=C3)cc1
REMARK SMILES IDX 5 1 4 2 3 3 1 4 2 5 28 7 29 8 90 9 30 10 89 11 31 12 32 13
REMARK SMILES IDX 33 14 83 15 34 16 88 17 82 18 84 19 35 20 87 21 81 22 80 23
REMARK SMILES IDX 36 25 68 26 48 27 67 28 49 29 52 30 66 31 85 32 50 33 51 34
REMARK SMILES IDX 65 36 86 37 53 38 37 39 38 40 46 41 39 42 41 43 47 44 40 45
REMARK SMILES IDX 42 46 43 47 44 48 45 49 69 50 70 51 78 52 71 53 73 54 79 55
REMARK SMILES IDX 72 56 74 57 75 58 76 59 77 60 54 61 55 62 63 63 56 64 58 65
REMARK SMILES IDX 64 66 57 67 59 68 60 69 61 70 62 71 6 72 7 73 8 74 9 76
REMARK SMILES IDX 10 77 19 78 20 79 21 81 22 82 23 83 27 84 24 85 25 86 26 87
REMARK SMILES IDX 11 88 12 89 13 90 18 91 14 92 17 93 15 94 16 95
REMARK H PARENT 3 6 84 24 52 35 7 75 19 80 16 96
REMARK Flexibility Score: inf
ROOT
ATOM      1  C   UNL A   1      35.278  21.754  26.440  1.00  0.00     0.042 C 
ENDROOT
BRANCH   1   2
ATOM      2  C   UNL A   1      36.478  22.188  25.604  1.00  0.00     0.118 C 
BRANCH   2   3
ATOM      3  N   UNL A   1      37.600  21.269  25.737  1.00  0.00    -0.352 N 
ATOM      4  O   UNL A   1      39.703  20.536  25.819  1.00  0.00    -0.269 OA
ATOM      5  C   UNL A   1      38.925  21.463  26.052  1.00  0.00     0.251 C 
ATOM      6  H   UNL A   1      37.365  20.328  25.570  1.00  0.00     0.163 HD
BRANCH   5   7
ATOM      7  C   UNL A   1      39.448  22.724  26.643  1.00  0.00     0.039 A 
ATOM      8  C   UNL A   1      40.459  22.742  27.603  1.00  0.00     0.014 A 
ATOM      9  C   UNL A   1      39.001  23.946  26.116  1.00  0.00     0.014 A 
ATOM     10  C   UNL A   1      40.930  23.953  28.114  1.00  0.00     0.010 A 
ATOM     11  C   UNL A   1      39.539  25.162  26.563  1.00  0.00     0.010 A 
ATOM     12  C   UNL A   1      40.499  25.180  27.583  1.00  0.00    -0.014 A 
BRANCH  12  13
ATOM     13  C   UNL A   1      41.148  26.442  28.040  1.00  0.00     0.031 A 
ATOM     14  C   UNL A   1      42.572  26.775  27.686  1.00  0.00     0.074 A 
ATOM     15  C   UNL A   1      40.429  27.313  28.778  1.00  0.00     0.049 A 
ATOM     16  N   UNL A   1      43.237  27.880  27.917  1.00  0.00    -0.248 NA
ATOM     17  C   UNL A   1      43.358  25.739  26.998  1.00  0.00     0.031 C 
ATOM     18  C   UNL A   1      39.064  27.080  29.259  1.00  0.00     0.029 A 
ATOM     19  N   UNL A   1      40.730  28.570  29.241  1.00  0.00    -0.354 N 
ATOM     20  C   UNL A   1      44.523  27.662  27.439  1.00  0.00     0.074 A 
ATOM     21  C   UNL A   1      44.551  26.314  26.913  1.00  0.00     0.031 C 
ATOM     22  C   UNL A   1      38.626  28.177  29.892  1.00  0.00     0.029 A 
ATOM     23  C   UNL A   1      39.685  29.181  29.897  1.00  0.00     0.049 A 
ATOM     24  H   UNL A   1      41.609  28.995  29.116  1.00  0.00     0.167 HD
ATOM     25  C   UNL A   1      45.577  28.513  27.415  1.00  0.00     0.034 A 
ATOM     26  C   UNL A   1      39.578  30.415  30.426  1.00  0.00     0.034 A 
ATOM     27  C   UNL A   1      45.537  29.874  27.882  1.00  0.00     0.049 A 
ATOM     28  C   UNL A   1      40.738  31.363  30.319  1.00  0.00     0.074 A 
ATOM     29  C   UNL A   1      46.534  30.835  27.823  1.00  0.00     0.029 A 
ATOM     30  N   UNL A   1      44.446  30.472  28.491  1.00  0.00    -0.354 N 
ATOM     31  N   UNL A   1      41.890  31.188  29.723  1.00  0.00    -0.248 NA
ATOM     32  C   UNL A   1      40.573  32.687  30.937  1.00  0.00     0.031 C 
ATOM     33  C   UNL A   1      46.042  32.013  28.397  1.00  0.00     0.029 A 
ATOM     34  C   UNL A   1      44.741  31.785  28.817  1.00  0.00     0.049 A 
ATOM     35  H   UNL A   1      43.585  30.027  28.668  1.00  0.00     0.167 HD
ATOM     36  C   UNL A   1      42.585  32.382  29.878  1.00  0.00     0.074 A 
ATOM     37  C   UNL A   1      41.709  33.285  30.598  1.00  0.00     0.031 C 
ATOM     38  C   UNL A   1      43.844  32.691  29.484  1.00  0.00     0.034 A 
BRANCH  25  39
ATOM     39  C   UNL A   1      46.859  28.021  26.797  1.00  0.00     0.023 A 
ATOM     40  C   UNL A   1      47.871  27.510  27.634  1.00  0.00     0.012 A 
ATOM     41  C   UNL A   1      47.040  28.001  25.401  1.00  0.00     0.148 A 
ATOM     42  C   UNL A   1      49.053  27.005  27.092  1.00  0.00     0.002 A 
ATOM     43  C   UNL A   1      48.209  27.468  24.866  1.00  0.00     0.091 A 
ATOM     44  F   UNL A   1      46.079  28.516  24.619  1.00  0.00    -0.205 F 
ATOM     45  C   UNL A   1      49.217  26.975  25.709  1.00  0.00     0.022 A 
BRANCH  43  46
ATOM     46  S   UNL A   1      48.467  27.337  23.092  1.00  0.00     0.127 S 
ATOM     47  O   UNL A   1      47.443  28.243  22.575  1.00  0.00    -0.237 OA
ATOM     48  O   UNL A   1      49.841  27.820  22.933  1.00  0.00    -0.237 OA
ATOM     49  O   UNL A   1      48.290  25.926  22.778  1.00  0.00    -0.744 OA
ENDBRANCH  43  46
ENDBRANCH  25  39
BRANCH  26  50
ATOM     50  C   UNL A   1      38.279  30.853  31.013  1.00  0.00     0.023 A 
ATOM     51  C   UNL A   1      38.056  30.675  32.392  1.00  0.00     0.012 A 
ATOM     52  C   UNL A   1      37.299  31.503  30.239  1.00  0.00     0.148 A 
ATOM     53  C   UNL A   1      36.877  31.123  32.987  1.00  0.00     0.002 A 
ATOM     54  C   UNL A   1      36.151  31.997  30.847  1.00  0.00     0.091 A 
ATOM     55  F   UNL A   1      37.513  31.642  28.923  1.00  0.00    -0.205 F 
ATOM     56  C   UNL A   1      35.931  31.798  32.218  1.00  0.00     0.022 A 
BRANCH  54  57
ATOM     57  S   UNL A   1      34.972  33.006  29.942  1.00  0.00     0.127 S 
ATOM     58  O   UNL A   1      34.411  32.044  28.999  1.00  0.00    -0.237 OA
ATOM     59  O   UNL A   1      34.055  33.442  30.996  1.00  0.00    -0.237 OA
ATOM     60  O   UNL A   1      35.767  34.085  29.368  1.00  0.00    -0.744 OA
ENDBRANCH  54  57
ENDBRANCH  26  50
BRANCH  38  61
ATOM     61  C   UNL A   1      44.358  34.063  29.827  1.00  0.00     0.023 A 
ATOM     62  C   UNL A   1      45.098  34.242  31.013  1.00  0.00     0.012 A 
ATOM     63  C   UNL A   1      44.167  35.154  28.958  1.00  0.00     0.148 A 
ATOM     64  C   UNL A   1      45.622  35.492  31.340  1.00  0.00     0.002 A 
ATOM     65  C   UNL A   1      44.721  36.391  29.275  1.00  0.00     0.091 A 
ATOM     66  F   UNL A   1      43.436  34.973  27.848  1.00  0.00    -0.205 F 
ATOM     67  C   UNL A   1      45.443  36.563  30.466  1.00  0.00     0.022 A 
BRANCH  65  68
ATOM     68  S   UNL A   1      44.591  37.791  28.157  1.00  0.00     0.127 S 
ATOM     69  O   UNL A   1      43.145  37.969  28.061  1.00  0.00    -0.237 OA
ATOM     70  O   UNL A   1      45.289  38.852  28.887  1.00  0.00    -0.237 OA
ATOM     71  O   UNL A   1      45.265  37.371  26.935  1.00  0.00    -0.744 OA
ENDBRANCH  65  68
ENDBRANCH  38  61
ENDBRANCH  12  13
ENDBRANCH   5   7
ENDBRANCH   2   3
ENDBRANCH   1   2
BRANCH   1  72
ATOM     72  C   UNL A   1      33.940  21.925  25.730  1.00  0.00     0.117 C 
BRANCH  72  73
ATOM     73  N   UNL A   1      32.871  22.331  26.619  1.00  0.00    -0.354 N 
ATOM     74  C   UNL A   1      32.095  23.433  26.720  1.00  0.00     0.242 C 
ATOM     75  H   UNL A   1      32.662  21.653  27.302  1.00  0.00     0.163 HD
ATOM     76  O   UNL A   1      31.199  23.351  27.577  1.00  0.00    -0.273 OA
BRANCH  74  77
ATOM     77  C   UNL A   1      32.305  24.796  26.012  1.00  0.00     0.176 C 
BRANCH  77  78
ATOM     78  N   UNL A   1      31.869  25.833  26.959  1.00  0.00    -0.339 N 
ATOM     79  C   UNL A   1      31.305  27.061  26.718  1.00  0.00     0.262 C 
ATOM     80  H   UNL A   1      32.000  25.613  27.909  1.00  0.00     0.164 HD
ATOM     81  O   UNL A   1      31.242  27.860  27.650  1.00  0.00    -0.268 OA
BRANCH  79  82
ATOM     82  C   UNL A   1      30.847  27.368  25.382  1.00  0.00     0.093 A 
ATOM     83  C   UNL A   1      30.025  26.626  24.554  1.00  0.00     0.027 A 
ATOM     84  S   UNL A   1      31.282  28.865  24.668  1.00  0.00    -0.118 S 
ATOM     85  C   UNL A   1      29.766  27.290  23.318  1.00  0.00     0.033 A 
ATOM     86  C   UNL A   1      30.402  28.504  23.269  1.00  0.00     0.094 A 
ATOM     87  Cl  UNL A   1      30.367  29.626  21.969  1.00  0.00    -0.072 Cl
ENDBRANCH  79  82
ENDBRANCH  77  78
BRANCH  77  88
ATOM     88  C   UNL A   1      33.580  25.173  25.215  1.00  0.00     0.070 C 
BRANCH  88  89
ATOM     89  C   UNL A   1      33.431  25.283  23.710  1.00  0.00    -0.045 A 
ATOM     90  C   UNL A   1      33.091  24.150  22.950  1.00  0.00     0.007 A 
ATOM     91  C   UNL A   1      33.589  26.500  23.042  1.00  0.00     0.007 A 
ATOM     92  C   UNL A   1      32.741  24.264  21.604  1.00  0.00     0.046 A 
ATOM     93  C   UNL A   1      33.240  26.620  21.695  1.00  0.00     0.046 A 
ATOM     94  C   UNL A   1      32.781  25.512  20.999  1.00  0.00     0.115 A 
BRANCH  94  95
ATOM     95  O   UNL A   1      32.370  25.692  19.714  1.00  0.00    -0.508 OA
ATOM     96  H   UNL A   1      31.459  25.806  19.524  1.00  0.00     0.293 HD
ENDBRANCH  94  95
ENDBRANCH  88  89
ENDBRANCH  77  88
ENDBRANCH  74  77
ENDBRANCH  72  73
ENDBRANCH   1  72
TORSDOF 18
ENDMDL
