MODEL 1
REMARK VINA RESULT:     -11.8      0.000      0.000
REMARK SMILES Cc1nn(C)c(=O)c(C(=O)N[C@H](C)CC(=O)NCCCNC(=O)c2ccc(-c3c4nc(c(-c5cccc(S(=O)(=O)[O-])c5F)c5ccc([nH]5)c(-c5cccc(S(=O)(=O)[O-])c5F)c5nc(c(-c6cccc(S(=O)(=O)[O-])c6F)c6ccc3[nH]6)C=C5)C=C4)cc2)c1C
REMARK SMILES IDX 19 1 18 2 17 3 15 4 16 5 14 7 12 8 13 9 11 10 9 11 10 12
REMARK SMILES IDX 8 14 1 15 2 16 3 17 87 18 4 19 88 20 5 21 6 22 7 23 20 24
REMARK SMILES IDX 21 25 22 26 23 28 24 29 25 30 86 31 26 32 85 33 27 34 28 35
REMARK SMILES IDX 29 36 79 37 30 38 84 39 78 40 80 41 31 42 83 43 77 44 76 45
REMARK SMILES IDX 32 47 64 48 44 49 63 50 45 51 48 52 62 53 81 54 46 55 47 56
REMARK SMILES IDX 61 58 82 59 49 60 33 61 34 62 42 63 35 64 37 65 43 66 36 67
REMARK SMILES IDX 38 68 39 69 40 70 41 71 65 72 66 73 74 74 67 75 69 76 75 77
REMARK SMILES IDX 68 78 70 79 71 80 72 81 73 82 50 83 51 84 59 85 52 86 54 87
REMARK SMILES IDX 60 88 53 89 55 90 56 91 57 92 58 93
REMARK H PARENT 17 6 11 13 21 27 80 46 48 57
REMARK Flexibility Score: inf
ROOT
ATOM      1  C   UNL A   1      37.188  20.390  24.974  1.00  0.00     0.042 C 
ENDROOT
BRANCH   1   2
ATOM      2  C   UNL A   1      35.996  21.311  24.732  1.00  0.00     0.117 C 
BRANCH   2   3
ATOM      3  N   UNL A   1      35.339  21.686  25.971  1.00  0.00    -0.356 N 
ATOM      4  C   UNL A   1      34.908  22.900  26.407  1.00  0.00     0.222 C 
ATOM      5  O   UNL A   1      34.340  22.947  27.500  1.00  0.00    -0.275 OA
ATOM      6  H   UNL A   1      35.181  20.943  26.597  1.00  0.00     0.163 HD
BRANCH   4   7
ATOM      7  C   UNL A   1      35.134  24.163  25.595  1.00  0.00     0.124 C 
BRANCH   7   8
ATOM      8  C   UNL A   1      33.817  24.718  25.030  1.00  0.00     0.088 C 
ATOM      9  C   UNL A   1      33.308  23.896  23.833  1.00  0.00     0.031 C 
BRANCH   8  10
ATOM     10  N   UNL A   1      32.726  24.806  26.010  1.00  0.00    -0.349 N 
ATOM     11  C   UNL A   1      31.611  25.580  26.117  1.00  0.00     0.257 C 
ATOM     12  O   UNL A   1      30.717  25.184  26.866  1.00  0.00    -0.269 OA
ATOM     13  H   UNL A   1      32.822  24.166  26.752  1.00  0.00     0.164 HD
BRANCH  11  14
ATOM     14  C   UNL A   1      31.473  26.886  25.428  1.00  0.00     0.111 A 
ATOM     15  C   UNL A   1      30.103  28.788  22.504  1.00  0.00     0.069 C 
ATOM     16  C   UNL A   1      30.599  28.520  23.908  1.00  0.00     0.062 A 
ATOM     17  N   UNL A   1      31.033  29.549  24.566  1.00  0.00    -0.175 NA
ATOM     18  C   UNL A   1      30.589  27.128  24.442  1.00  0.00    -0.010 A 
ATOM     19  N   UNL A   1      31.674  29.301  25.748  1.00  0.00    -0.232 N 
ATOM     20  C   UNL A   1      29.526  26.207  23.933  1.00  0.00     0.047 C 
ATOM     21  C   UNL A   1      32.014  30.462  26.545  1.00  0.00     0.178 C 
ATOM     22  C   UNL A   1      32.162  28.044  26.084  1.00  0.00     0.279 A 
ATOM     23  O   UNL A   1      33.054  27.872  26.914  1.00  0.00    -0.267 OA
ENDBRANCH  11  14
ENDBRANCH   8  10
ENDBRANCH   7   8
ENDBRANCH   4   7
ENDBRANCH   2   3
ENDBRANCH   1   2
BRANCH   1  24
ATOM     24  C   UNL A   1      38.471  21.114  25.365  1.00  0.00     0.118 C 
BRANCH  24  25
ATOM     25  N   UNL A   1      39.387  20.256  26.097  1.00  0.00    -0.352 N 
ATOM     26  C   UNL A   1      40.560  20.552  26.747  1.00  0.00     0.251 C 
ATOM     27  H   UNL A   1      39.125  19.307  26.133  1.00  0.00     0.163 HD
ATOM     28  O   UNL A   1      41.314  19.632  27.058  1.00  0.00    -0.269 OA
BRANCH  26  29
ATOM     29  C   UNL A   1      40.928  21.949  27.073  1.00  0.00     0.039 A 
ATOM     30  C   UNL A   1      40.606  22.964  26.167  1.00  0.00     0.014 A 
ATOM     31  C   UNL A   1      41.659  22.258  28.223  1.00  0.00     0.014 A 
ATOM     32  C   UNL A   1      40.976  24.285  26.435  1.00  0.00     0.010 A 
ATOM     33  C   UNL A   1      41.955  23.583  28.531  1.00  0.00     0.010 A 
ATOM     34  C   UNL A   1      41.638  24.610  27.631  1.00  0.00    -0.014 A 
BRANCH  34  35
ATOM     35  C   UNL A   1      42.044  26.005  27.938  1.00  0.00     0.031 A 
ATOM     36  C   UNL A   1      43.440  26.472  27.610  1.00  0.00     0.074 A 
ATOM     37  C   UNL A   1      41.180  26.835  28.557  1.00  0.00     0.049 A 
ATOM     38  N   UNL A   1      43.997  27.631  27.848  1.00  0.00    -0.248 NA
ATOM     39  C   UNL A   1      44.332  25.505  26.947  1.00  0.00     0.031 C 
ATOM     40  C   UNL A   1      39.820  26.483  28.968  1.00  0.00     0.029 A 
ATOM     41  N   UNL A   1      41.320  28.141  28.958  1.00  0.00    -0.354 N 
ATOM     42  C   UNL A   1      45.304  27.525  27.384  1.00  0.00     0.074 A 
ATOM     43  C   UNL A   1      45.474  26.176  26.895  1.00  0.00     0.031 C 
ATOM     44  C   UNL A   1      39.243  27.552  29.542  1.00  0.00     0.029 A 
ATOM     45  C   UNL A   1      40.199  28.655  29.569  1.00  0.00     0.049 A 
ATOM     46  H   UNL A   1      42.145  28.660  28.820  1.00  0.00     0.167 HD
ATOM     47  C   UNL A   1      46.263  28.479  27.327  1.00  0.00     0.034 A 
ATOM     48  C   UNL A   1      39.968  29.878  30.086  1.00  0.00     0.034 A 
ATOM     49  C   UNL A   1      46.076  29.834  27.765  1.00  0.00     0.049 A 
ATOM     50  C   UNL A   1      41.054  30.919  30.006  1.00  0.00     0.074 A 
ATOM     51  C   UNL A   1      46.970  30.888  27.707  1.00  0.00     0.029 A 
ATOM     52  N   UNL A   1      44.911  30.328  28.332  1.00  0.00    -0.354 N 
ATOM     53  N   UNL A   1      42.242  30.832  29.458  1.00  0.00    -0.248 NA
ATOM     54  C   UNL A   1      40.759  32.237  30.589  1.00  0.00     0.031 C 
ATOM     55  C   UNL A   1      46.350  32.017  28.247  1.00  0.00     0.029 A 
ATOM     56  C   UNL A   1      45.063  31.671  28.626  1.00  0.00     0.049 A 
ATOM     57  H   UNL A   1      44.096  29.801  28.499  1.00  0.00     0.167 HD
ATOM     58  C   UNL A   1      42.820  32.089  29.597  1.00  0.00     0.074 A 
ATOM     59  C   UNL A   1      41.843  32.927  30.260  1.00  0.00     0.031 C 
ATOM     60  C   UNL A   1      44.056  32.506  29.229  1.00  0.00     0.034 A 
BRANCH  47  61
ATOM     61  C   UNL A   1      47.581  28.122  26.688  1.00  0.00     0.023 A 
ATOM     62  C   UNL A   1      48.681  27.813  27.516  1.00  0.00     0.012 A 
ATOM     63  C   UNL A   1      47.709  27.992  25.292  1.00  0.00     0.148 A 
ATOM     64  C   UNL A   1      49.892  27.400  26.965  1.00  0.00     0.002 A 
ATOM     65  C   UNL A   1      48.907  27.537  24.751  1.00  0.00     0.091 A 
ATOM     66  F   UNL A   1      46.658  28.304  24.522  1.00  0.00    -0.205 F 
ATOM     67  C   UNL A   1      50.001  27.249  25.586  1.00  0.00     0.022 A 
BRANCH  65  68
ATOM     68  S   UNL A   1      49.133  27.231  22.996  1.00  0.00     0.127 S 
ATOM     69  O   UNL A   1      50.580  27.031  22.916  1.00  0.00    -0.237 OA
ATOM     70  O   UNL A   1      48.338  26.021  22.791  1.00  0.00    -0.237 OA
ATOM     71  O   UNL A   1      48.635  28.416  22.311  1.00  0.00    -0.744 OA
ENDBRANCH  65  68
ENDBRANCH  47  61
BRANCH  48  72
ATOM     72  C   UNL A   1      38.626  30.216  30.641  1.00  0.00     0.023 A 
ATOM     73  C   UNL A   1      38.314  29.833  31.961  1.00  0.00     0.012 A 
ATOM     74  C   UNL A   1      37.670  30.934  29.895  1.00  0.00     0.148 A 
ATOM     75  C   UNL A   1      37.069  30.129  32.517  1.00  0.00     0.002 A 
ATOM     76  C   UNL A   1      36.453  31.276  30.475  1.00  0.00     0.091 A 
ATOM     77  F   UNL A   1      37.974  31.276  28.635  1.00  0.00    -0.205 F 
ATOM     78  C   UNL A   1      36.144  30.861  31.778  1.00  0.00     0.022 A 
BRANCH  76  79
ATOM     79  S   UNL A   1      35.260  32.336  29.647  1.00  0.00     0.127 S 
ATOM     80  O   UNL A   1      34.714  31.439  28.635  1.00  0.00    -0.237 OA
ATOM     81  O   UNL A   1      34.343  32.669  30.739  1.00  0.00    -0.237 OA
ATOM     82  O   UNL A   1      36.028  33.469  29.148  1.00  0.00    -0.744 OA
ENDBRANCH  76  79
ENDBRANCH  48  72
BRANCH  60  83
ATOM     83  C   UNL A   1      44.431  33.939  29.506  1.00  0.00     0.023 A 
ATOM     84  C   UNL A   1      45.053  34.268  30.725  1.00  0.00     0.012 A 
ATOM     85  C   UNL A   1      44.279  34.929  28.514  1.00  0.00     0.148 A 
ATOM     86  C   UNL A   1      45.501  35.566  30.964  1.00  0.00     0.002 A 
ATOM     87  C   UNL A   1      44.773  36.207  28.739  1.00  0.00     0.091 A 
ATOM     88  F   UNL A   1      43.671  34.595  27.366  1.00  0.00    -0.205 F 
ATOM     89  C   UNL A   1      45.374  36.530  29.967  1.00  0.00     0.022 A 
BRANCH  87  90
ATOM     90  S   UNL A   1      44.754  37.486  27.477  1.00  0.00     0.127 S 
ATOM     91  O   UNL A   1      45.812  37.030  26.576  1.00  0.00    -0.237 OA
ATOM     92  O   UNL A   1      43.399  37.367  26.936  1.00  0.00    -0.237 OA
ATOM     93  O   UNL A   1      45.023  38.739  28.169  1.00  0.00    -0.744 OA
ENDBRANCH  87  90
ENDBRANCH  60  83
ENDBRANCH  34  35
ENDBRANCH  26  29
ENDBRANCH  24  25
ENDBRANCH   1  24
TORSDOF 16
ENDMDL
MODEL 2
REMARK VINA RESULT:     -11.7      5.136     10.566
REMARK SMILES Cc1nn(C)c(=O)c(C(=O)N[C@H](C)CC(=O)NCCCNC(=O)c2ccc(-c3c4nc(c(-c5cccc(S(=O)(=O)[O-])c5F)c5ccc([nH]5)c(-c5cccc(S(=O)(=O)[O-])c5F)c5nc(c(-c6cccc(S(=O)(=O)[O-])c6F)c6ccc3[nH]6)C=C5)C=C4)cc2)c1C
REMARK SMILES IDX 19 1 18 2 17 3 15 4 16 5 14 7 12 8 13 9 11 10 9 11 10 12
REMARK SMILES IDX 8 14 1 15 2 16 3 17 87 18 4 19 88 20 5 21 6 22 7 23 20 24
REMARK SMILES IDX 21 25 22 26 23 28 24 29 25 30 86 31 26 32 85 33 27 34 28 35
REMARK SMILES IDX 29 36 79 37 30 38 84 39 78 40 80 41 31 42 83 43 77 44 76 45
REMARK SMILES IDX 32 47 64 48 44 49 63 50 45 51 48 52 62 53 81 54 46 55 47 56
REMARK SMILES IDX 61 58 82 59 49 60 33 61 34 62 42 63 35 64 37 65 43 66 36 67
REMARK SMILES IDX 38 68 39 69 40 70 41 71 65 72 66 73 74 74 67 75 69 76 75 77
REMARK SMILES IDX 68 78 70 79 71 80 72 81 73 82 50 83 51 84 59 85 52 86 54 87
REMARK SMILES IDX 60 88 53 89 55 90 56 91 57 92 58 93
REMARK H PARENT 17 6 11 13 21 27 80 46 48 57
REMARK Flexibility Score: inf
ROOT
ATOM      1  C   UNL A   1      31.486  30.885  26.133  1.00  0.00     0.042 C 
ENDROOT
BRANCH   1   2
ATOM      2  C   UNL A   1      31.945  29.993  24.983  1.00  0.00     0.117 C 
BRANCH   2   3
ATOM      3  N   UNL A   1      30.909  29.063  24.570  1.00  0.00    -0.356 N 
ATOM      4  C   UNL A   1      30.914  27.704  24.522  1.00  0.00     0.222 C 
ATOM      5  O   UNL A   1      29.878  27.141  24.163  1.00  0.00    -0.275 OA
ATOM      6  H   UNL A   1      30.069  29.484  24.277  1.00  0.00     0.163 HD
BRANCH   4   7
ATOM      7  C   UNL A   1      32.152  26.900  24.875  1.00  0.00     0.124 C 
BRANCH   7   8
ATOM      8  C   UNL A   1      32.070  26.325  26.297  1.00  0.00     0.088 C 
ATOM      9  C   UNL A   1      32.151  27.424  27.372  1.00  0.00     0.031 C 
BRANCH   8  10
ATOM     10  N   UNL A   1      30.864  25.528  26.561  1.00  0.00    -0.349 N 
ATOM     11  C   UNL A   1      30.598  24.193  26.579  1.00  0.00     0.257 C 
ATOM     12  O   UNL A   1      29.580  23.827  27.169  1.00  0.00    -0.269 OA
ATOM     13  H   UNL A   1      30.076  26.080  26.771  1.00  0.00     0.164 HD
BRANCH  11  14
ATOM     14  C   UNL A   1      31.440  23.199  25.871  1.00  0.00     0.111 A 
ATOM     15  C   UNL A   1      32.107  21.300  22.710  1.00  0.00     0.069 C 
ATOM     16  C   UNL A   1      32.380  21.984  24.032  1.00  0.00     0.062 A 
ATOM     17  N   UNL A   1      33.442  21.599  24.665  1.00  0.00    -0.175 NA
ATOM     18  C   UNL A   1      31.433  23.019  24.537  1.00  0.00    -0.010 A 
ATOM     19  N   UNL A   1      33.595  22.049  25.947  1.00  0.00    -0.232 N 
ATOM     20  C   UNL A   1      30.693  23.826  23.519  1.00  0.00     0.047 C 
ATOM     21  C   UNL A   1      34.858  21.739  26.586  1.00  0.00     0.178 C 
ATOM     22  C   UNL A   1      32.546  22.590  26.679  1.00  0.00     0.279 A 
ATOM     23  O   UNL A   1      32.541  22.635  27.909  1.00  0.00    -0.267 OA
ENDBRANCH  11  14
ENDBRANCH   8  10
ENDBRANCH   7   8
ENDBRANCH   4   7
ENDBRANCH   2   3
ENDBRANCH   1   2
BRANCH   1  24
ATOM     24  C   UNL A   1      32.582  31.231  27.133  1.00  0.00     0.118 C 
BRANCH  24  25
ATOM     25  N   UNL A   1      32.835  32.662  27.200  1.00  0.00    -0.352 N 
ATOM     26  C   UNL A   1      33.789  33.367  27.891  1.00  0.00     0.251 C 
ATOM     27  H   UNL A   1      32.222  33.215  26.662  1.00  0.00     0.163 HD
ATOM     28  O   UNL A   1      33.647  34.581  28.026  1.00  0.00    -0.269 OA
BRANCH  26  29
ATOM     29  C   UNL A   1      34.973  32.696  28.472  1.00  0.00     0.039 A 
ATOM     30  C   UNL A   1      34.785  31.570  29.281  1.00  0.00     0.014 A 
ATOM     31  C   UNL A   1      36.260  33.211  28.296  1.00  0.00     0.014 A 
ATOM     32  C   UNL A   1      35.886  30.941  29.872  1.00  0.00     0.010 A 
ATOM     33  C   UNL A   1      37.362  32.536  28.816  1.00  0.00     0.010 A 
ATOM     34  C   UNL A   1      37.187  31.408  29.628  1.00  0.00    -0.014 A 
BRANCH  34  35
ATOM     35  C   UNL A   1      38.372  30.759  30.246  1.00  0.00     0.031 A 
ATOM     36  C   UNL A   1      38.805  31.150  31.636  1.00  0.00     0.074 A 
ATOM     37  C   UNL A   1      39.088  29.859  29.541  1.00  0.00     0.049 A 
ATOM     38  N   UNL A   1      39.838  30.738  32.323  1.00  0.00    -0.248 NA
ATOM     39  C   UNL A   1      37.982  32.149  32.338  1.00  0.00     0.031 C 
ATOM     40  C   UNL A   1      38.797  29.435  28.170  1.00  0.00     0.029 A 
ATOM     41  N   UNL A   1      40.213  29.147  29.876  1.00  0.00    -0.354 N 
ATOM     42  C   UNL A   1      39.800  31.439  33.524  1.00  0.00     0.074 A 
ATOM     43  C   UNL A   1      38.671  32.338  33.455  1.00  0.00     0.031 C 
ATOM     44  C   UNL A   1      39.704  28.522  27.790  1.00  0.00     0.029 A 
ATOM     45  C   UNL A   1      40.660  28.316  28.874  1.00  0.00     0.049 A 
ATOM     46  H   UNL A   1      40.657  29.223  30.751  1.00  0.00     0.167 HD
ATOM     47  C   UNL A   1      40.605  31.312  34.605  1.00  0.00     0.034 A 
ATOM     48  C   UNL A   1      41.717  27.480  28.837  1.00  0.00     0.034 A 
ATOM     49  C   UNL A   1      41.694  30.380  34.691  1.00  0.00     0.049 A 
ATOM     50  C   UNL A   1      42.592  27.360  30.057  1.00  0.00     0.074 A 
ATOM     51  C   UNL A   1      42.539  30.143  35.760  1.00  0.00     0.029 A 
ATOM     52  N   UNL A   1      42.083  29.522  33.675  1.00  0.00    -0.354 N 
ATOM     53  N   UNL A   1      42.469  27.946  31.223  1.00  0.00    -0.248 NA
ATOM     54  C   UNL A   1      43.737  26.439  29.968  1.00  0.00     0.031 C 
ATOM     55  C   UNL A   1      43.446  29.148  35.388  1.00  0.00     0.029 A 
ATOM     56  C   UNL A   1      43.154  28.752  34.092  1.00  0.00     0.049 A 
ATOM     57  H   UNL A   1      41.659  29.468  32.788  1.00  0.00     0.167 HD
ATOM     58  C   UNL A   1      43.493  27.441  32.016  1.00  0.00     0.074 A 
ATOM     59  C   UNL A   1      44.215  26.483  31.205  1.00  0.00     0.031 C 
ATOM     60  C   UNL A   1      43.821  27.757  33.292  1.00  0.00     0.034 A 
BRANCH  47  61
ATOM     61  C   UNL A   1      40.287  32.139  35.825  1.00  0.00     0.023 A 
ATOM     62  C   UNL A   1      41.047  33.300  36.080  1.00  0.00     0.012 A 
ATOM     63  C   UNL A   1      39.190  31.834  36.653  1.00  0.00     0.148 A 
ATOM     64  C   UNL A   1      40.732  34.135  37.151  1.00  0.00     0.002 A 
ATOM     65  C   UNL A   1      38.856  32.695  37.694  1.00  0.00     0.091 A 
ATOM     66  F   UNL A   1      38.491  30.719  36.404  1.00  0.00    -0.205 F 
ATOM     67  C   UNL A   1      39.631  33.840  37.948  1.00  0.00     0.022 A 
BRANCH  65  68
ATOM     68  S   UNL A   1      37.412  32.455  38.735  1.00  0.00     0.127 S 
ATOM     69  O   UNL A   1      37.704  33.350  39.855  1.00  0.00    -0.237 OA
ATOM     70  O   UNL A   1      36.327  32.903  37.862  1.00  0.00    -0.237 OA
ATOM     71  O   UNL A   1      37.385  31.037  39.068  1.00  0.00    -0.744 OA
ENDBRANCH  65  68
ENDBRANCH  47  61
BRANCH  48  72
ATOM     72  C   UNL A   1      41.953  26.622  27.640  1.00  0.00     0.023 A 
ATOM     73  C   UNL A   1      42.573  27.185  26.505  1.00  0.00     0.012 A 
ATOM     74  C   UNL A   1      41.602  25.258  27.619  1.00  0.00     0.148 A 
ATOM     75  C   UNL A   1      42.811  26.417  25.365  1.00  0.00     0.002 A 
ATOM     76  C   UNL A   1      41.894  24.484  26.501  1.00  0.00     0.091 A 
ATOM     77  F   UNL A   1      40.998  24.741  28.699  1.00  0.00    -0.205 F 
ATOM     78  C   UNL A   1      42.482  25.065  25.367  1.00  0.00     0.022 A 
BRANCH  76  79
ATOM     79  S   UNL A   1      41.635  22.705  26.470  1.00  0.00     0.127 S 
ATOM     80  O   UNL A   1      42.227  22.295  27.738  1.00  0.00    -0.237 OA
ATOM     81  O   UNL A   1      40.175  22.613  26.410  1.00  0.00    -0.237 OA
ATOM     82  O   UNL A   1      42.312  22.235  25.268  1.00  0.00    -0.744 OA
ENDBRANCH  76  79
ENDBRANCH  48  72
BRANCH  60  83
ATOM     83  C   UNL A   1      44.997  27.052  33.916  1.00  0.00     0.023 A 
ATOM     84  C   UNL A   1      46.278  27.629  33.825  1.00  0.00     0.012 A 
ATOM     85  C   UNL A   1      44.812  25.890  34.692  1.00  0.00     0.148 A 
ATOM     86  C   UNL A   1      47.364  27.049  34.480  1.00  0.00     0.002 A 
ATOM     87  C   UNL A   1      45.888  25.348  35.383  1.00  0.00     0.091 A 
ATOM     88  F   UNL A   1      43.586  25.351  34.753  1.00  0.00    -0.205 F 
ATOM     89  C   UNL A   1      47.166  25.919  35.269  1.00  0.00     0.022 A 
BRANCH  87  90
ATOM     90  S   UNL A   1      45.711  23.959  36.509  1.00  0.00     0.127 S 
ATOM     91  O   UNL A   1      47.083  23.783  36.983  1.00  0.00    -0.237 OA
ATOM     92  O   UNL A   1      44.783  24.488  37.510  1.00  0.00    -0.237 OA
ATOM     93  O   UNL A   1      45.182  22.860  35.713  1.00  0.00    -0.744 OA
ENDBRANCH  87  90
ENDBRANCH  60  83
ENDBRANCH  34  35
ENDBRANCH  26  29
ENDBRANCH  24  25
ENDBRANCH   1  24
TORSDOF 16
ENDMDL
MODEL 3
REMARK VINA RESULT:     -11.6      5.289     10.688
REMARK SMILES Cc1nn(C)c(=O)c(C(=O)N[C@H](C)CC(=O)NCCCNC(=O)c2ccc(-c3c4nc(c(-c5cccc(S(=O)(=O)[O-])c5F)c5ccc([nH]5)c(-c5cccc(S(=O)(=O)[O-])c5F)c5nc(c(-c6cccc(S(=O)(=O)[O-])c6F)c6ccc3[nH]6)C=C5)C=C4)cc2)c1C
REMARK SMILES IDX 19 1 18 2 17 3 15 4 16 5 14 7 12 8 13 9 11 10 9 11 10 12
REMARK SMILES IDX 8 14 1 15 2 16 3 17 87 18 4 19 88 20 5 21 6 22 7 23 20 24
REMARK SMILES IDX 21 25 22 26 23 28 24 29 25 30 86 31 26 32 85 33 27 34 28 35
REMARK SMILES IDX 29 36 79 37 30 38 84 39 78 40 80 41 31 42 83 43 77 44 76 45
REMARK SMILES IDX 32 47 64 48 44 49 63 50 45 51 48 52 62 53 81 54 46 55 47 56
REMARK SMILES IDX 61 58 82 59 49 60 33 61 34 62 42 63 35 64 37 65 43 66 36 67
REMARK SMILES IDX 38 68 39 69 40 70 41 71 65 72 66 73 74 74 67 75 69 76 75 77
REMARK SMILES IDX 68 78 70 79 71 80 72 81 73 82 50 83 51 84 59 85 52 86 54 87
REMARK SMILES IDX 60 88 53 89 55 90 56 91 57 92 58 93
REMARK H PARENT 17 6 11 13 21 27 80 46 48 57
REMARK Flexibility Score: inf
ROOT
ATOM      1  C   UNL A   1      31.408  30.995  25.785  1.00  0.00     0.042 C 
ENDROOT
BRANCH   1   2
ATOM      2  C   UNL A   1      31.449  29.543  25.313  1.00  0.00     0.117 C 
BRANCH   2   3
ATOM      3  N   UNL A   1      31.133  29.422  23.902  1.00  0.00    -0.356 N 
ATOM      4  C   UNL A   1      30.461  28.449  23.230  1.00  0.00     0.222 C 
ATOM      5  O   UNL A   1      30.293  28.602  22.018  1.00  0.00    -0.275 OA
ATOM      6  H   UNL A   1      31.459  30.162  23.340  1.00  0.00     0.163 HD
BRANCH   4   7
ATOM      7  C   UNL A   1      29.950  27.205  23.933  1.00  0.00     0.124 C 
BRANCH   7   8
ATOM      8  C   UNL A   1      30.944  26.038  23.816  1.00  0.00     0.088 C 
ATOM      9  C   UNL A   1      30.253  24.728  23.399  1.00  0.00     0.031 C 
BRANCH   8  10
ATOM     10  N   UNL A   1      32.053  26.277  22.883  1.00  0.00    -0.349 N 
ATOM     11  C   UNL A   1      33.151  25.561  22.515  1.00  0.00     0.257 C 
ATOM     12  O   UNL A   1      33.706  25.877  21.462  1.00  0.00    -0.269 OA
ATOM     13  H   UNL A   1      31.989  27.145  22.422  1.00  0.00     0.164 HD
BRANCH  11  14
ATOM     14  C   UNL A   1      33.723  24.482  23.357  1.00  0.00     0.111 A 
ATOM     15  C   UNL A   1      35.887  23.559  26.274  1.00  0.00     0.069 C 
ATOM     16  C   UNL A   1      34.780  23.457  25.248  1.00  0.00     0.062 A 
ATOM     17  N   UNL A   1      34.324  22.266  25.016  1.00  0.00    -0.175 NA
ATOM     18  C   UNL A   1      34.296  24.687  24.557  1.00  0.00    -0.010 A 
ATOM     19  N   UNL A   1      33.477  22.124  23.953  1.00  0.00    -0.232 N 
ATOM     20  C   UNL A   1      34.374  25.973  25.315  1.00  0.00     0.047 C 
ATOM     21  C   UNL A   1      32.856  20.824  23.801  1.00  0.00     0.178 C 
ATOM     22  C   UNL A   1      33.365  23.084  22.954  1.00  0.00     0.279 A 
ATOM     23  O   UNL A   1      32.937  22.831  21.828  1.00  0.00    -0.267 OA
ENDBRANCH  11  14
ENDBRANCH   8  10
ENDBRANCH   7   8
ENDBRANCH   4   7
ENDBRANCH   2   3
ENDBRANCH   1   2
BRANCH   1  24
ATOM     24  C   UNL A   1      32.409  31.325  26.885  1.00  0.00     0.118 C 
BRANCH  24  25
ATOM     25  N   UNL A   1      32.587  32.757  27.056  1.00  0.00    -0.352 N 
ATOM     26  C   UNL A   1      33.476  33.459  27.833  1.00  0.00     0.251 C 
ATOM     27  H   UNL A   1      31.970  33.316  26.530  1.00  0.00     0.163 HD
ATOM     28  O   UNL A   1      33.269  34.653  28.040  1.00  0.00    -0.269 OA
BRANCH  26  29
ATOM     29  C   UNL A   1      34.668  32.806  28.420  1.00  0.00     0.039 A 
ATOM     30  C   UNL A   1      34.498  31.653  29.195  1.00  0.00     0.014 A 
ATOM     31  C   UNL A   1      35.943  33.362  28.284  1.00  0.00     0.014 A 
ATOM     32  C   UNL A   1      35.604  31.041  29.791  1.00  0.00     0.010 A 
ATOM     33  C   UNL A   1      37.054  32.706  28.807  1.00  0.00     0.010 A 
ATOM     34  C   UNL A   1      36.896  31.551  29.586  1.00  0.00    -0.014 A 
BRANCH  34  35
ATOM     35  C   UNL A   1      38.087  30.920  30.210  1.00  0.00     0.031 A 
ATOM     36  C   UNL A   1      38.520  31.334  31.593  1.00  0.00     0.074 A 
ATOM     37  C   UNL A   1      38.808  30.016  29.517  1.00  0.00     0.049 A 
ATOM     38  N   UNL A   1      39.559  30.940  32.284  1.00  0.00    -0.248 NA
ATOM     39  C   UNL A   1      37.691  32.338  32.283  1.00  0.00     0.031 C 
ATOM     40  C   UNL A   1      38.517  29.570  28.153  1.00  0.00     0.029 A 
ATOM     41  N   UNL A   1      39.939  29.316  29.859  1.00  0.00    -0.354 N 
ATOM     42  C   UNL A   1      39.518  31.658  33.475  1.00  0.00     0.074 A 
ATOM     43  C   UNL A   1      38.382  32.548  33.395  1.00  0.00     0.031 C 
ATOM     44  C   UNL A   1      39.430  28.657  27.783  1.00  0.00     0.029 A 
ATOM     45  C   UNL A   1      40.390  28.474  28.868  1.00  0.00     0.049 A 
ATOM     46  H   UNL A   1      40.385  29.408  30.732  1.00  0.00     0.167 HD
ATOM     47  C   UNL A   1      40.326  31.553  34.556  1.00  0.00     0.034 A 
ATOM     48  C   UNL A   1      41.453  27.645  28.841  1.00  0.00     0.034 A 
ATOM     49  C   UNL A   1      41.422  30.630  34.653  1.00  0.00     0.049 A 
ATOM     50  C   UNL A   1      42.332  27.550  30.060  1.00  0.00     0.074 A 
ATOM     51  C   UNL A   1      42.272  30.415  35.723  1.00  0.00     0.029 A 
ATOM     52  N   UNL A   1      41.815  29.761  33.647  1.00  0.00    -0.354 N 
ATOM     53  N   UNL A   1      42.207  28.152  31.217  1.00  0.00    -0.248 NA
ATOM     54  C   UNL A   1      43.483  26.637  29.981  1.00  0.00     0.031 C 
ATOM     55  C   UNL A   1      43.185  29.421  35.362  1.00  0.00     0.029 A 
ATOM     56  C   UNL A   1      42.893  29.005  34.073  1.00  0.00     0.049 A 
ATOM     57  H   UNL A   1      41.390  29.690  32.762  1.00  0.00     0.167 HD
ATOM     58  C   UNL A   1      43.237  27.666  32.015  1.00  0.00     0.074 A 
ATOM     59  C   UNL A   1      43.964  26.701  31.216  1.00  0.00     0.031 C 
ATOM     60  C   UNL A   1      43.565  28.003  33.286  1.00  0.00     0.034 A 
BRANCH  47  61
ATOM     61  C   UNL A   1      40.005  32.395  35.764  1.00  0.00     0.023 A 
ATOM     62  C   UNL A   1      40.632  33.650  35.908  1.00  0.00     0.012 A 
ATOM     63  C   UNL A   1      39.023  32.002  36.693  1.00  0.00     0.148 A 
ATOM     64  C   UNL A   1      40.302  34.493  36.968  1.00  0.00     0.002 A 
ATOM     65  C   UNL A   1      38.668  32.867  37.723  1.00  0.00     0.091 A 
ATOM     66  F   UNL A   1      38.450  30.800  36.548  1.00  0.00    -0.205 F 
ATOM     67  C   UNL A   1      39.312  34.108  37.866  1.00  0.00     0.022 A 
BRANCH  65  68
ATOM     68  S   UNL A   1      37.351  32.506  38.891  1.00  0.00     0.127 S 
ATOM     69  O   UNL A   1      37.620  33.480  39.949  1.00  0.00    -0.237 OA
ATOM     70  O   UNL A   1      36.153  32.783  38.097  1.00  0.00    -0.237 OA
ATOM     71  O   UNL A   1      37.522  31.112  39.276  1.00  0.00    -0.744 OA
ENDBRANCH  65  68
ENDBRANCH  47  61
BRANCH  48  72
ATOM     72  C   UNL A   1      41.693  26.773  27.655  1.00  0.00     0.023 A 
ATOM     73  C   UNL A   1      42.323  27.318  26.519  1.00  0.00     0.012 A 
ATOM     74  C   UNL A   1      41.334  25.410  27.648  1.00  0.00     0.148 A 
ATOM     75  C   UNL A   1      42.564  26.535  25.390  1.00  0.00     0.002 A 
ATOM     76  C   UNL A   1      41.629  24.622  26.542  1.00  0.00     0.091 A 
ATOM     77  F   UNL A   1      40.720  24.909  28.730  1.00  0.00    -0.205 F 
ATOM     78  C   UNL A   1      42.228  25.185  25.406  1.00  0.00     0.022 A 
BRANCH  76  79
ATOM     79  S   UNL A   1      41.361  22.844  26.530  1.00  0.00     0.127 S 
ATOM     80  O   UNL A   1      42.102  22.437  25.342  1.00  0.00    -0.237 OA
ATOM     81  O   UNL A   1      41.960  22.439  27.803  1.00  0.00    -0.237 OA
ATOM     82  O   UNL A   1      39.915  22.670  26.470  1.00  0.00    -0.744 OA
ENDBRANCH  76  79
ENDBRANCH  48  72
BRANCH  60  83
ATOM     83  C   UNL A   1      44.748  27.316  33.918  1.00  0.00     0.023 A 
ATOM     84  C   UNL A   1      46.017  27.923  33.854  1.00  0.00     0.012 A 
ATOM     85  C   UNL A   1      44.578  26.139  34.674  1.00  0.00     0.148 A 
ATOM     86  C   UNL A   1      47.106  27.358  34.516  1.00  0.00     0.002 A 
ATOM     87  C   UNL A   1      45.657  25.610  35.373  1.00  0.00     0.091 A 
ATOM     88  F   UNL A   1      43.364  25.571  34.709  1.00  0.00    -0.205 F 
ATOM     89  C   UNL A   1      46.923  26.213  35.286  1.00  0.00     0.022 A 
BRANCH  87  90
ATOM     90  S   UNL A   1      45.495  24.202  36.476  1.00  0.00     0.127 S 
ATOM     91  O   UNL A   1      45.097  23.142  35.550  1.00  0.00    -0.237 OA
ATOM     92  O   UNL A   1      46.852  24.068  37.009  1.00  0.00    -0.237 OA
ATOM     93  O   UNL A   1      44.491  24.576  37.463  1.00  0.00    -0.744 OA
ENDBRANCH  87  90
ENDBRANCH  60  83
ENDBRANCH  34  35
ENDBRANCH  26  29
ENDBRANCH  24  25
ENDBRANCH   1  24
TORSDOF 16
ENDMDL
