MODEL 1
REMARK VINA RESULT:     -13.7      0.000      0.000
REMARK SMILES O=C(NCCCNC(=O)c1ccc(-c2c3nc(c(-c4cccc(S(=O)(=O)[O-])c4F)c4ccc([nH]4)c(-c4cccc(S(=O)(=O)[O-])c4F)c4nc(c(-c5cccc(S(=O)(=O)[O-])c5F)c5ccc2[nH]5)C=C4)C=C3)cc1)C1=Cc2c(ccc(Cl)c2Oc2ccccc2)O[C@H]1C(F)(F)F
REMARK SMILES IDX 5 1 4 2 3 3 1 4 2 5 73 7 74 8 90 9 75 10 89 11 76 12 81 13
REMARK SMILES IDX 77 14 79 15 78 16 80 17 91 18 92 19 93 20 94 21 82 22 83 23
REMARK SMILES IDX 84 24 88 25 85 26 87 27 86 28 6 29 7 30 8 31 9 33 10 34
REMARK SMILES IDX 11 35 72 36 12 37 71 38 13 39 14 40 15 41 65 42 16 43 70 44
REMARK SMILES IDX 64 45 66 46 17 47 69 48 63 49 62 50 18 52 50 53 30 54 49 55
REMARK SMILES IDX 31 56 34 57 48 58 67 59 32 60 33 61 47 63 68 64 35 65 19 66
REMARK SMILES IDX 20 67 28 68 21 69 23 70 29 71 22 72 24 73 25 74 26 75 27 76
REMARK SMILES IDX 51 77 52 78 60 79 53 80 55 81 61 82 54 83 56 84 57 85 58 86
REMARK SMILES IDX 59 87 36 88 37 89 45 90 38 91 40 92 46 93 39 94 41 95 42 96
REMARK SMILES IDX 43 97 44 98
REMARK H PARENT 3 6 7 32 66 51 34 62
REMARK Flexibility Score: inf
ROOT
ATOM      1  C   UNL A   1      35.508  22.566  24.535  1.00  0.00     0.042 C 
ENDROOT
BRANCH   1   2
ATOM      2  C   UNL A   1      35.037  24.008  24.671  1.00  0.00     0.118 C 
BRANCH   2   3
ATOM      3  N   UNL A   1      34.723  24.644  23.398  1.00  0.00    -0.352 N 
ATOM      4  O   UNL A   1      33.453  25.638  21.826  1.00  0.00    -0.270 OA
ATOM      5  C   UNL A   1      33.551  25.196  22.964  1.00  0.00     0.251 C 
ATOM      6  H   UNL A   1      35.468  24.682  22.755  1.00  0.00     0.163 HD
BRANCH   5   7
ATOM      7  C   UNL A   1      32.379  25.246  23.861  1.00  0.00     0.067 C 
ATOM      8  C   UNL A   1      31.517  26.266  23.774  1.00  0.00     0.029 C 
ATOM      9  C   UNL A   1      32.378  24.356  25.063  1.00  0.00     0.314 C 
ATOM     10  C   UNL A   1      31.545  27.103  25.000  1.00  0.00     0.061 A 
ATOM     11  O   UNL A   1      32.127  25.097  26.297  1.00  0.00    -0.475 OA
ATOM     12  C   UNL A   1      31.899  26.451  26.203  1.00  0.00     0.131 A 
ATOM     13  C   UNL A   1      31.437  28.514  24.959  1.00  0.00     0.156 A 
ATOM     14  C   UNL A   1      32.151  27.187  27.357  1.00  0.00     0.049 A 
ATOM     15  C   UNL A   1      31.732  29.236  26.130  1.00  0.00     0.084 A 
ATOM     16  C   UNL A   1      32.088  28.579  27.315  1.00  0.00     0.028 A 
ATOM     17  Cl  UNL A   1      31.728  30.967  26.143  1.00  0.00    -0.080 Cl
BRANCH   9  18
ATOM     18  C   UNL A   1      31.362  23.207  24.910  1.00  0.00     0.429 C 
ATOM     19  F   UNL A   1      30.904  23.075  23.640  1.00  0.00    -0.167 F 
ATOM     20  F   UNL A   1      31.901  22.015  25.257  1.00  0.00    -0.167 F 
ATOM     21  F   UNL A   1      30.265  23.396  25.686  1.00  0.00    -0.167 F 
ENDBRANCH   9  18
BRANCH  13  22
ATOM     22  O   UNL A   1      31.202  29.287  23.827  1.00  0.00    -0.455 OA
BRANCH  22  23
ATOM     23  C   UNL A   1      29.914  29.634  23.512  1.00  0.00     0.127 A 
ATOM     24  C   UNL A   1      29.075  28.647  22.985  1.00  0.00     0.047 A 
ATOM     25  C   UNL A   1      29.439  30.926  23.740  1.00  0.00     0.047 A 
ATOM     26  C   UNL A   1      27.722  28.925  22.797  1.00  0.00     0.004 A 
ATOM     27  C   UNL A   1      28.086  31.201  23.539  1.00  0.00     0.004 A 
ATOM     28  C   UNL A   1      27.226  30.196  23.089  1.00  0.00     0.000 A 
ENDBRANCH  22  23
ENDBRANCH  13  22
ENDBRANCH   5   7
ENDBRANCH   2   3
ENDBRANCH   1   2
BRANCH   1  29
ATOM     29  C   UNL A   1      36.963  22.449  24.098  1.00  0.00     0.118 C 
BRANCH  29  30
ATOM     30  N   UNL A   1      37.656  21.290  24.661  1.00  0.00    -0.352 N 
ATOM     31  C   UNL A   1      38.642  21.166  25.615  1.00  0.00     0.251 C 
ATOM     32  H   UNL A   1      37.358  20.430  24.285  1.00  0.00     0.163 HD
ATOM     33  O   UNL A   1      39.117  20.052  25.831  1.00  0.00    -0.269 OA
BRANCH  31  34
ATOM     34  C   UNL A   1      39.181  22.337  26.350  1.00  0.00     0.039 A 
ATOM     35  C   UNL A   1      40.254  22.145  27.230  1.00  0.00     0.014 A 
ATOM     36  C   UNL A   1      38.647  23.613  26.200  1.00  0.00     0.014 A 
ATOM     37  C   UNL A   1      40.868  23.244  27.842  1.00  0.00     0.010 A 
ATOM     38  C   UNL A   1      39.325  24.715  26.717  1.00  0.00     0.010 A 
ATOM     39  C   UNL A   1      40.461  24.548  27.524  1.00  0.00    -0.014 A 
BRANCH  39  40
ATOM     40  C   UNL A   1      41.221  25.756  27.951  1.00  0.00     0.031 A 
ATOM     41  C   UNL A   1      40.530  26.861  28.707  1.00  0.00     0.074 A 
ATOM     42  C   UNL A   1      42.486  25.934  27.514  1.00  0.00     0.049 A 
ATOM     43  N   UNL A   1      40.940  28.081  28.942  1.00  0.00    -0.248 NA
ATOM     44  C   UNL A   1      39.186  26.569  29.232  1.00  0.00     0.031 C 
ATOM     45  C   UNL A   1      43.251  24.976  26.712  1.00  0.00     0.029 A 
ATOM     46  N   UNL A   1      43.338  27.004  27.646  1.00  0.00    -0.354 N 
ATOM     47  C   UNL A   1      39.882  28.722  29.575  1.00  0.00     0.074 A 
ATOM     48  C   UNL A   1      38.806  27.759  29.681  1.00  0.00     0.031 C 
ATOM     49  C   UNL A   1      44.455  25.497  26.427  1.00  0.00     0.029 A 
ATOM     50  C   UNL A   1      44.531  26.845  26.978  1.00  0.00     0.049 A 
ATOM     51  H   UNL A   1      43.116  27.810  28.168  1.00  0.00     0.167 HD
ATOM     52  C   UNL A   1      39.817  29.988  30.052  1.00  0.00     0.034 A 
ATOM     53  C   UNL A   1      45.564  27.694  26.803  1.00  0.00     0.034 A 
ATOM     54  C   UNL A   1      40.918  30.914  30.035  1.00  0.00     0.049 A 
ATOM     55  C   UNL A   1      45.490  29.071  27.397  1.00  0.00     0.074 A 
ATOM     56  C   UNL A   1      40.985  32.177  30.596  1.00  0.00     0.029 A 
ATOM     57  N   UNL A   1      42.147  30.671  29.444  1.00  0.00    -0.354 N 
ATOM     58  N   UNL A   1      44.527  29.612  28.102  1.00  0.00    -0.248 NA
ATOM     59  C   UNL A   1      46.650  29.950  27.187  1.00  0.00     0.031 C 
ATOM     60  C   UNL A   1      42.260  32.698  30.346  1.00  0.00     0.029 A 
ATOM     61  C   UNL A   1      42.981  31.760  29.625  1.00  0.00     0.049 A 
ATOM     62  H   UNL A   1      42.390  29.847  28.964  1.00  0.00     0.167 HD
ATOM     63  C   UNL A   1      44.970  30.887  28.434  1.00  0.00     0.074 A 
ATOM     64  C   UNL A   1      46.300  31.027  27.878  1.00  0.00     0.031 C 
ATOM     65  C   UNL A   1      44.323  31.863  29.116  1.00  0.00     0.034 A 
BRANCH  52  66
ATOM     66  C   UNL A   1      38.536  30.425  30.710  1.00  0.00     0.023 A 
ATOM     67  C   UNL A   1      38.335  30.143  32.075  1.00  0.00     0.012 A 
ATOM     68  C   UNL A   1      37.566  31.163  30.004  1.00  0.00     0.148 A 
ATOM     69  C   UNL A   1      37.176  30.566  32.724  1.00  0.00     0.002 A 
ATOM     70  C   UNL A   1      36.428  31.610  30.666  1.00  0.00     0.091 A 
ATOM     71  F   UNL A   1      37.765  31.401  28.699  1.00  0.00    -0.205 F 
ATOM     72  C   UNL A   1      36.228  31.307  32.024  1.00  0.00     0.022 A 
BRANCH  70  73
ATOM     73  S   UNL A   1      35.179  32.625  29.866  1.00  0.00     0.127 S 
ATOM     74  O   UNL A   1      34.241  32.859  30.964  1.00  0.00    -0.237 OA
ATOM     75  O   UNL A   1      35.947  33.802  29.459  1.00  0.00    -0.237 OA
ATOM     76  O   UNL A   1      34.666  31.826  28.762  1.00  0.00    -0.744 OA
ENDBRANCH  70  73
ENDBRANCH  52  66
BRANCH  53  77
ATOM     77  C   UNL A   1      46.784  27.239  26.077  1.00  0.00     0.023 A 
ATOM     78  C   UNL A   1      46.889  27.493  24.697  1.00  0.00     0.012 A 
ATOM     79  C   UNL A   1      47.850  26.602  26.738  1.00  0.00     0.148 A 
ATOM     80  C   UNL A   1      48.023  27.104  23.984  1.00  0.00     0.002 A 
ATOM     81  C   UNL A   1      49.001  26.264  26.033  1.00  0.00     0.091 A 
ATOM     82  F   UNL A   1      47.729  26.345  28.049  1.00  0.00    -0.205 F 
ATOM     83  C   UNL A   1      49.084  26.500  24.653  1.00  0.00     0.022 A 
BRANCH  81  84
ATOM     84  S   UNL A   1      50.454  25.619  26.872  1.00  0.00     0.127 S 
ATOM     85  O   UNL A   1      50.752  26.686  27.822  1.00  0.00    -0.237 OA
ATOM     86  O   UNL A   1      49.950  24.384  27.473  1.00  0.00    -0.237 OA
ATOM     87  O   UNL A   1      51.430  25.405  25.811  1.00  0.00    -0.744 OA
ENDBRANCH  81  84
ENDBRANCH  53  77
BRANCH  65  88
ATOM     88  C   UNL A   1      45.041  33.170  29.307  1.00  0.00     0.023 A 
ATOM     89  C   UNL A   1      45.895  33.328  30.416  1.00  0.00     0.012 A 
ATOM     90  C   UNL A   1      44.938  34.204  28.357  1.00  0.00     0.148 A 
ATOM     91  C   UNL A   1      46.626  34.502  30.585  1.00  0.00     0.002 A 
ATOM     92  C   UNL A   1      45.696  35.357  28.513  1.00  0.00     0.091 A 
ATOM     93  F   UNL A   1      44.101  34.040  27.322  1.00  0.00    -0.205 F 
ATOM     94  C   UNL A   1      46.536  35.511  29.629  1.00  0.00     0.022 A 
BRANCH  92  95
ATOM     95  S   UNL A   1      45.702  36.674  27.290  1.00  0.00     0.127 S 
ATOM     96  O   UNL A   1      46.619  37.639  27.896  1.00  0.00    -0.237 OA
ATOM     97  O   UNL A   1      46.225  35.998  26.103  1.00  0.00    -0.237 OA
ATOM     98  O   UNL A   1      44.317  37.111  27.171  1.00  0.00    -0.744 OA
ENDBRANCH  92  95
ENDBRANCH  65  88
ENDBRANCH  39  40
ENDBRANCH  31  34
ENDBRANCH  29  30
ENDBRANCH   1  29
TORSDOF 16
ENDMDL
MODEL 2
REMARK VINA RESULT:     -13.5      2.040      3.445
REMARK SMILES O=C(NCCCNC(=O)c1ccc(-c2c3nc(c(-c4cccc(S(=O)(=O)[O-])c4F)c4ccc([nH]4)c(-c4cccc(S(=O)(=O)[O-])c4F)c4nc(c(-c5cccc(S(=O)(=O)[O-])c5F)c5ccc2[nH]5)C=C4)C=C3)cc1)C1=Cc2c(ccc(Cl)c2Oc2ccccc2)O[C@H]1C(F)(F)F
REMARK SMILES IDX 5 1 4 2 3 3 1 4 2 5 73 7 74 8 90 9 75 10 89 11 76 12 81 13
REMARK SMILES IDX 77 14 79 15 78 16 80 17 91 18 92 19 93 20 94 21 82 22 83 23
REMARK SMILES IDX 84 24 88 25 85 26 87 27 86 28 6 29 7 30 8 31 9 33 10 34
REMARK SMILES IDX 11 35 72 36 12 37 71 38 13 39 14 40 15 41 65 42 16 43 70 44
REMARK SMILES IDX 64 45 66 46 17 47 69 48 63 49 62 50 18 52 50 53 30 54 49 55
REMARK SMILES IDX 31 56 34 57 48 58 67 59 32 60 33 61 47 63 68 64 35 65 19 66
REMARK SMILES IDX 20 67 28 68 21 69 23 70 29 71 22 72 24 73 25 74 26 75 27 76
REMARK SMILES IDX 51 77 52 78 60 79 53 80 55 81 61 82 54 83 56 84 57 85 58 86
REMARK SMILES IDX 59 87 36 88 37 89 45 90 38 91 40 92 46 93 39 94 41 95 42 96
REMARK SMILES IDX 43 97 44 98
REMARK H PARENT 3 6 7 32 66 51 34 62
REMARK Flexibility Score: inf
ROOT
ATOM      1  C   UNL A   1      36.259  22.373  24.064  1.00  0.00     0.042 C 
ENDROOT
BRANCH   1   2
ATOM      2  C   UNL A   1      35.514  23.687  24.255  1.00  0.00     0.118 C 
BRANCH   2   3
ATOM      3  N   UNL A   1      34.932  24.215  23.028  1.00  0.00    -0.352 N 
ATOM      4  O   UNL A   1      33.612  25.507  21.739  1.00  0.00    -0.270 OA
ATOM      5  C   UNL A   1      34.044  25.238  22.853  1.00  0.00     0.251 C 
ATOM      6  H   UNL A   1      35.223  23.767  22.201  1.00  0.00     0.163 HD
BRANCH   5   7
ATOM      7  C   UNL A   1      33.576  26.020  24.016  1.00  0.00     0.067 C 
ATOM      8  C   UNL A   1      33.505  25.443  25.221  1.00  0.00     0.029 C 
ATOM      9  C   UNL A   1      32.869  27.311  23.753  1.00  0.00     0.314 C 
ATOM     10  C   UNL A   1      32.100  25.332  25.685  1.00  0.00     0.061 A 
ATOM     11  O   UNL A   1      31.573  27.377  24.425  1.00  0.00    -0.475 OA
ATOM     12  C   UNL A   1      31.197  26.309  25.207  1.00  0.00     0.131 A 
ATOM     13  C   UNL A   1      31.620  24.202  26.390  1.00  0.00     0.156 A 
ATOM     14  C   UNL A   1      29.828  26.170  25.420  1.00  0.00     0.049 A 
ATOM     15  C   UNL A   1      30.229  24.066  26.558  1.00  0.00     0.084 A 
ATOM     16  C   UNL A   1      29.344  25.039  26.076  1.00  0.00     0.028 A 
ATOM     17  Cl  UNL A   1      29.548  22.666  27.314  1.00  0.00    -0.080 Cl
BRANCH   9  18
ATOM     18  C   UNL A   1      33.741  28.520  24.148  1.00  0.00     0.429 C 
ATOM     19  F   UNL A   1      33.122  29.708  23.932  1.00  0.00    -0.167 F 
ATOM     20  F   UNL A   1      34.078  28.486  25.457  1.00  0.00    -0.167 F 
ATOM     21  F   UNL A   1      34.895  28.564  23.434  1.00  0.00    -0.167 F 
ENDBRANCH   9  18
BRANCH  13  22
ATOM     22  O   UNL A   1      32.379  23.118  26.819  1.00  0.00    -0.455 OA
BRANCH  22  23
ATOM     23  C   UNL A   1      32.606  22.079  25.955  1.00  0.00     0.127 A 
ATOM     24  C   UNL A   1      33.172  20.907  26.467  1.00  0.00     0.047 A 
ATOM     25  C   UNL A   1      32.254  22.170  24.608  1.00  0.00     0.047 A 
ATOM     26  C   UNL A   1      33.275  19.781  25.651  1.00  0.00     0.004 A 
ATOM     27  C   UNL A   1      32.370  21.044  23.793  1.00  0.00     0.004 A 
ATOM     28  C   UNL A   1      32.859  19.846  24.321  1.00  0.00     0.000 A 
ENDBRANCH  22  23
ENDBRANCH  13  22
ENDBRANCH   5   7
ENDBRANCH   2   3
ENDBRANCH   1   2
BRANCH   1  29
ATOM     29  C   UNL A   1      36.467  21.608  25.365  1.00  0.00     0.118 C 
BRANCH  29  30
ATOM     30  N   UNL A   1      37.612  20.697  25.336  1.00  0.00    -0.352 N 
ATOM     31  C   UNL A   1      38.917  20.826  25.758  1.00  0.00     0.251 C 
ATOM     32  H   UNL A   1      37.411  19.820  24.936  1.00  0.00     0.163 HD
ATOM     33  O   UNL A   1      39.707  19.915  25.519  1.00  0.00    -0.269 OA
BRANCH  31  34
ATOM     34  C   UNL A   1      39.407  22.046  26.446  1.00  0.00     0.039 A 
ATOM     35  C   UNL A   1      40.379  21.912  27.446  1.00  0.00     0.014 A 
ATOM     36  C   UNL A   1      38.923  23.313  26.137  1.00  0.00     0.014 A 
ATOM     37  C   UNL A   1      40.955  23.048  28.026  1.00  0.00     0.010 A 
ATOM     38  C   UNL A   1      39.572  24.444  26.629  1.00  0.00     0.010 A 
ATOM     39  C   UNL A   1      40.614  24.327  27.561  1.00  0.00    -0.014 A 
BRANCH  39  40
ATOM     40  C   UNL A   1      41.357  25.555  27.964  1.00  0.00     0.031 A 
ATOM     41  C   UNL A   1      40.650  26.664  28.699  1.00  0.00     0.074 A 
ATOM     42  C   UNL A   1      42.618  25.743  27.522  1.00  0.00     0.049 A 
ATOM     43  N   UNL A   1      41.042  27.894  28.910  1.00  0.00    -0.248 NA
ATOM     44  C   UNL A   1      39.311  26.362  29.231  1.00  0.00     0.031 C 
ATOM     45  C   UNL A   1      43.398  24.782  26.738  1.00  0.00     0.029 A 
ATOM     46  N   UNL A   1      43.455  26.828  27.632  1.00  0.00    -0.354 N 
ATOM     47  C   UNL A   1      39.975  28.531  29.532  1.00  0.00     0.074 A 
ATOM     48  C   UNL A   1      38.914  27.554  29.657  1.00  0.00     0.031 C 
ATOM     49  C   UNL A   1      44.593  25.315  26.442  1.00  0.00     0.029 A 
ATOM     50  C   UNL A   1      44.650  26.674  26.966  1.00  0.00     0.049 A 
ATOM     51  H   UNL A   1      43.221  27.640  28.139  1.00  0.00     0.167 HD
ATOM     52  C   UNL A   1      39.892  29.805  29.984  1.00  0.00     0.034 A 
ATOM     53  C   UNL A   1      45.670  27.534  26.773  1.00  0.00     0.034 A 
ATOM     54  C   UNL A   1      40.978  30.746  29.948  1.00  0.00     0.049 A 
ATOM     55  C   UNL A   1      45.575  28.922  27.341  1.00  0.00     0.074 A 
ATOM     56  C   UNL A   1      41.027  32.022  30.484  1.00  0.00     0.029 A 
ATOM     57  N   UNL A   1      42.210  30.511  29.360  1.00  0.00    -0.354 N 
ATOM     58  N   UNL A   1      44.605  29.462  28.036  1.00  0.00    -0.248 NA
ATOM     59  C   UNL A   1      46.722  29.814  27.113  1.00  0.00     0.031 C 
ATOM     60  C   UNL A   1      42.294  32.556  30.223  1.00  0.00     0.029 A 
ATOM     61  C   UNL A   1      43.028  31.616  29.520  1.00  0.00     0.049 A 
ATOM     62  H   UNL A   1      42.465  29.682  28.896  1.00  0.00     0.167 HD
ATOM     63  C   UNL A   1      45.029  30.749  28.343  1.00  0.00     0.074 A 
ATOM     64  C   UNL A   1      46.357  30.899  27.783  1.00  0.00     0.031 C 
ATOM     65  C   UNL A   1      44.369  31.729  29.007  1.00  0.00     0.034 A 
BRANCH  52  66
ATOM     66  C   UNL A   1      38.605  30.235  30.635  1.00  0.00     0.023 A 
ATOM     67  C   UNL A   1      38.402  29.961  32.001  1.00  0.00     0.012 A 
ATOM     68  C   UNL A   1      37.631  30.961  29.921  1.00  0.00     0.148 A 
ATOM     69  C   UNL A   1      37.237  30.378  32.644  1.00  0.00     0.002 A 
ATOM     70  C   UNL A   1      36.487  31.403  30.577  1.00  0.00     0.091 A 
ATOM     71  F   UNL A   1      37.832  31.192  28.616  1.00  0.00    -0.205 F 
ATOM     72  C   UNL A   1      36.285  31.106  31.935  1.00  0.00     0.022 A 
BRANCH  70  73
ATOM     73  S   UNL A   1      35.232  32.402  29.766  1.00  0.00     0.127 S 
ATOM     74  O   UNL A   1      36.019  33.542  29.298  1.00  0.00    -0.237 OA
ATOM     75  O   UNL A   1      34.762  31.510  28.705  1.00  0.00    -0.237 OA
ATOM     76  O   UNL A   1      34.240  32.701  30.789  1.00  0.00    -0.744 OA
ENDBRANCH  70  73
ENDBRANCH  52  66
BRANCH  53  77
ATOM     77  C   UNL A   1      46.895  27.084  26.055  1.00  0.00     0.023 A 
ATOM     78  C   UNL A   1      46.996  27.314  24.670  1.00  0.00     0.012 A 
ATOM     79  C   UNL A   1      47.971  26.474  26.728  1.00  0.00     0.148 A 
ATOM     80  C   UNL A   1      48.136  26.928  23.964  1.00  0.00     0.002 A 
ATOM     81  C   UNL A   1      49.126  26.140  26.027  1.00  0.00     0.091 A 
ATOM     82  F   UNL A   1      47.854  26.241  28.043  1.00  0.00    -0.205 F 
ATOM     83  C   UNL A   1      49.205  26.352  24.643  1.00  0.00     0.022 A 
BRANCH  81  84
ATOM     84  S   UNL A   1      50.589  25.533  26.878  1.00  0.00     0.127 S 
ATOM     85  O   UNL A   1      51.502  25.283  25.768  1.00  0.00    -0.237 OA
ATOM     86  O   UNL A   1      50.952  26.664  27.731  1.00  0.00    -0.237 OA
ATOM     87  O   UNL A   1      50.129  24.362  27.615  1.00  0.00    -0.744 OA
ENDBRANCH  81  84
ENDBRANCH  53  77
BRANCH  65  88
ATOM     88  C   UNL A   1      45.066  33.049  29.173  1.00  0.00     0.023 A 
ATOM     89  C   UNL A   1      45.925  33.239  30.274  1.00  0.00     0.012 A 
ATOM     90  C   UNL A   1      44.942  34.065  28.205  1.00  0.00     0.148 A 
ATOM     91  C   UNL A   1      46.637  34.427  30.418  1.00  0.00     0.002 A 
ATOM     92  C   UNL A   1      45.683  35.233  28.338  1.00  0.00     0.091 A 
ATOM     93  F   UNL A   1      44.102  33.872  27.179  1.00  0.00    -0.205 F 
ATOM     94  C   UNL A   1      46.527  35.419  29.446  1.00  0.00     0.022 A 
BRANCH  92  95
ATOM     95  S   UNL A   1      45.662  36.529  27.093  1.00  0.00     0.127 S 
ATOM     96  O   UNL A   1      46.263  35.850  25.947  1.00  0.00    -0.237 OA
ATOM     97  O   UNL A   1      44.232  36.809  26.956  1.00  0.00    -0.237 OA
ATOM     98  O   UNL A   1      46.438  37.628  27.652  1.00  0.00    -0.744 OA
ENDBRANCH  92  95
ENDBRANCH  65  88
ENDBRANCH  39  40
ENDBRANCH  31  34
ENDBRANCH  29  30
ENDBRANCH   1  29
TORSDOF 16
ENDMDL
MODEL 3
REMARK VINA RESULT:     -12.9      1.353      7.481
REMARK SMILES O=C(NCCCNC(=O)c1ccc(-c2c3nc(c(-c4cccc(S(=O)(=O)[O-])c4F)c4ccc([nH]4)c(-c4cccc(S(=O)(=O)[O-])c4F)c4nc(c(-c5cccc(S(=O)(=O)[O-])c5F)c5ccc2[nH]5)C=C4)C=C3)cc1)C1=Cc2c(ccc(Cl)c2Oc2ccccc2)O[C@H]1C(F)(F)F
REMARK SMILES IDX 5 1 4 2 3 3 1 4 2 5 73 7 74 8 90 9 75 10 89 11 76 12 81 13
REMARK SMILES IDX 77 14 79 15 78 16 80 17 91 18 92 19 93 20 94 21 82 22 83 23
REMARK SMILES IDX 84 24 88 25 85 26 87 27 86 28 6 29 7 30 8 31 9 33 10 34
REMARK SMILES IDX 11 35 72 36 12 37 71 38 13 39 14 40 15 41 65 42 16 43 70 44
REMARK SMILES IDX 64 45 66 46 17 47 69 48 63 49 62 50 18 52 50 53 30 54 49 55
REMARK SMILES IDX 31 56 34 57 48 58 67 59 32 60 33 61 47 63 68 64 35 65 19 66
REMARK SMILES IDX 20 67 28 68 21 69 23 70 29 71 22 72 24 73 25 74 26 75 27 76
REMARK SMILES IDX 51 77 52 78 60 79 53 80 55 81 61 82 54 83 56 84 57 85 58 86
REMARK SMILES IDX 59 87 36 88 37 89 45 90 38 91 40 92 46 93 39 94 41 95 42 96
REMARK SMILES IDX 43 97 44 98
REMARK H PARENT 3 6 7 32 66 51 34 62
REMARK Flexibility Score: inf
ROOT
ATOM      1  C   UNL A   1      35.946  22.471  24.251  1.00  0.00     0.042 C 
ENDROOT
BRANCH   1   2
ATOM      2  C   UNL A   1      34.828  23.494  24.398  1.00  0.00     0.118 C 
BRANCH   2   3
ATOM      3  N   UNL A   1      34.660  24.352  23.232  1.00  0.00    -0.352 N 
ATOM      4  O   UNL A   1      33.600  25.719  21.790  1.00  0.00    -0.270 OA
ATOM      5  C   UNL A   1      33.583  25.099  22.846  1.00  0.00     0.251 C 
ATOM      6  H   UNL A   1      35.440  24.401  22.634  1.00  0.00     0.163 HD
BRANCH   5   7
ATOM      7  C   UNL A   1      32.373  25.147  23.692  1.00  0.00     0.067 C 
ATOM      8  C   UNL A   1      31.553  26.202  23.621  1.00  0.00     0.029 C 
ATOM      9  C   UNL A   1      32.287  24.198  24.845  1.00  0.00     0.314 C 
ATOM     10  C   UNL A   1      31.553  26.974  24.888  1.00  0.00     0.061 A 
ATOM     11  O   UNL A   1      32.005  24.885  26.104  1.00  0.00    -0.475 OA
ATOM     12  C   UNL A   1      31.829  26.249  26.069  1.00  0.00     0.131 A 
ATOM     13  C   UNL A   1      31.497  28.388  24.916  1.00  0.00     0.156 A 
ATOM     14  C   UNL A   1      32.053  26.916  27.271  1.00  0.00     0.049 A 
ATOM     15  C   UNL A   1      31.764  29.039  26.134  1.00  0.00     0.084 A 
ATOM     16  C   UNL A   1      32.042  28.310  27.298  1.00  0.00     0.028 A 
ATOM     17  Cl  UNL A   1      31.820  30.766  26.237  1.00  0.00    -0.080 Cl
BRANCH   9  18
ATOM     18  C   UNL A   1      31.239  23.097  24.588  1.00  0.00     0.429 C 
ATOM     19  F   UNL A   1      31.790  21.862  24.476  1.00  0.00    -0.167 F 
ATOM     20  F   UNL A   1      30.329  23.030  25.587  1.00  0.00    -0.167 F 
ATOM     21  F   UNL A   1      30.557  23.308  23.434  1.00  0.00    -0.167 F 
ENDBRANCH   9  18
BRANCH  13  22
ATOM     22  O   UNL A   1      31.342  29.226  23.816  1.00  0.00    -0.455 OA
BRANCH  22  23
ATOM     23  C   UNL A   1      30.084  29.654  23.476  1.00  0.00     0.127 A 
ATOM     24  C   UNL A   1      29.690  30.932  23.884  1.00  0.00     0.047 A 
ATOM     25  C   UNL A   1      29.231  28.854  22.715  1.00  0.00     0.047 A 
ATOM     26  C   UNL A   1      28.482  31.456  23.427  1.00  0.00     0.004 A 
ATOM     27  C   UNL A   1      28.018  29.380  22.270  1.00  0.00     0.004 A 
ATOM     28  C   UNL A   1      27.655  30.686  22.608  1.00  0.00     0.000 A 
ENDBRANCH  22  23
ENDBRANCH  13  22
ENDBRANCH   5   7
ENDBRANCH   2   3
ENDBRANCH   1   2
BRANCH   1  29
ATOM     29  C   UNL A   1      36.209  21.683  25.527  1.00  0.00     0.118 C 
BRANCH  29  30
ATOM     30  N   UNL A   1      37.412  20.852  25.469  1.00  0.00    -0.352 N 
ATOM     31  C   UNL A   1      38.734  21.104  25.764  1.00  0.00     0.251 C 
ATOM     32  H   UNL A   1      37.244  19.933  25.158  1.00  0.00     0.163 HD
ATOM     33  O   UNL A   1      39.567  20.230  25.528  1.00  0.00    -0.269 OA
BRANCH  31  34
ATOM     34  C   UNL A   1      39.187  22.407  26.309  1.00  0.00     0.039 A 
ATOM     35  C   UNL A   1      40.375  22.453  27.049  1.00  0.00     0.014 A 
ATOM     36  C   UNL A   1      38.463  23.579  26.117  1.00  0.00     0.014 A 
ATOM     37  C   UNL A   1      40.897  23.681  27.469  1.00  0.00     0.010 A 
ATOM     38  C   UNL A   1      39.035  24.809  26.434  1.00  0.00     0.010 A 
ATOM     39  C   UNL A   1      40.272  24.880  27.091  1.00  0.00    -0.014 A 
BRANCH  39  40
ATOM     40  C   UNL A   1      40.900  26.215  27.299  1.00  0.00     0.031 A 
ATOM     41  C   UNL A   1      42.316  26.467  26.853  1.00  0.00     0.074 A 
ATOM     42  C   UNL A   1      40.256  27.144  28.036  1.00  0.00     0.049 A 
ATOM     43  N   UNL A   1      43.116  27.456  27.163  1.00  0.00    -0.248 NA
ATOM     44  C   UNL A   1      42.929  25.454  25.978  1.00  0.00     0.031 C 
ATOM     45  C   UNL A   1      38.908  27.004  28.593  1.00  0.00     0.029 A 
ATOM     46  N   UNL A   1      40.666  28.377  28.483  1.00  0.00    -0.354 N 
ATOM     47  C   UNL A   1      44.341  27.150  26.583  1.00  0.00     0.074 A 
ATOM     48  C   UNL A   1      44.184  25.878  25.909  1.00  0.00     0.031 C 
ATOM     49  C   UNL A   1      38.602  28.103  29.300  1.00  0.00     0.029 A 
ATOM     50  C   UNL A   1      39.748  29.004  29.295  1.00  0.00     0.049 A 
ATOM     51  H   UNL A   1      41.536  28.775  28.247  1.00  0.00     0.167 HD
ATOM     52  C   UNL A   1      45.487  27.873  26.585  1.00  0.00     0.034 A 
ATOM     53  C   UNL A   1      39.823  30.162  29.982  1.00  0.00     0.034 A 
ATOM     54  C   UNL A   1      45.615  29.180  27.170  1.00  0.00     0.049 A 
ATOM     55  C   UNL A   1      41.086  30.973  29.915  1.00  0.00     0.074 A 
ATOM     56  C   UNL A   1      46.699  30.039  27.125  1.00  0.00     0.029 A 
ATOM     57  N   UNL A   1      44.623  29.825  27.891  1.00  0.00    -0.354 N 
ATOM     58  N   UNL A   1      42.190  30.724  29.256  1.00  0.00    -0.248 NA
ATOM     59  C   UNL A   1      41.108  32.234  30.673  1.00  0.00     0.031 C 
ATOM     60  C   UNL A   1      46.360  31.208  27.816  1.00  0.00     0.029 A 
ATOM     61  C   UNL A   1      45.068  31.071  28.296  1.00  0.00     0.049 A 
ATOM     62  H   UNL A   1      43.734  29.452  28.088  1.00  0.00     0.167 HD
ATOM     63  C   UNL A   1      43.032  31.801  29.504  1.00  0.00     0.074 A 
ATOM     64  C   UNL A   1      42.299  32.720  30.351  1.00  0.00     0.031 C 
ATOM     65  C   UNL A   1      44.307  32.000  29.090  1.00  0.00     0.034 A 
BRANCH  52  66
ATOM     66  C   UNL A   1      46.676  27.303  25.862  1.00  0.00     0.023 A 
ATOM     67  C   UNL A   1      47.450  26.308  26.491  1.00  0.00     0.012 A 
ATOM     68  C   UNL A   1      46.993  27.699  24.548  1.00  0.00     0.148 A 
ATOM     69  C   UNL A   1      48.537  25.732  25.834  1.00  0.00     0.002 A 
ATOM     70  C   UNL A   1      48.057  27.097  23.887  1.00  0.00     0.091 A 
ATOM     71  F   UNL A   1      46.259  28.664  23.975  1.00  0.00    -0.205 F 
ATOM     72  C   UNL A   1      48.835  26.119  24.530  1.00  0.00     0.022 A 
BRANCH  70  73
ATOM     73  S   UNL A   1      48.481  27.483  22.183  1.00  0.00     0.127 S 
ATOM     74  O   UNL A   1      49.696  28.280  22.355  1.00  0.00    -0.237 OA
ATOM     75  O   UNL A   1      48.700  26.155  21.608  1.00  0.00    -0.237 OA
ATOM     76  O   UNL A   1      47.334  28.196  21.639  1.00  0.00    -0.744 OA
ENDBRANCH  70  73
ENDBRANCH  52  66
BRANCH  53  77
ATOM     77  C   UNL A   1      38.641  30.649  30.748  1.00  0.00     0.023 A 
ATOM     78  C   UNL A   1      38.618  30.481  32.145  1.00  0.00     0.012 A 
ATOM     79  C   UNL A   1      37.568  31.310  30.120  1.00  0.00     0.148 A 
ATOM     80  C   UNL A   1      37.541  30.942  32.901  1.00  0.00     0.002 A 
ATOM     81  C   UNL A   1      36.522  31.814  30.886  1.00  0.00     0.091 A 
ATOM     82  F   UNL A   1      37.591  31.445  28.786  1.00  0.00    -0.205 F 
ATOM     83  C   UNL A   1      36.498  31.619  32.275  1.00  0.00     0.022 A 
BRANCH  81  84
ATOM     84  S   UNL A   1      35.229  32.823  30.149  1.00  0.00     0.127 S 
ATOM     85  O   UNL A   1      34.380  33.115  31.299  1.00  0.00    -0.237 OA
ATOM     86  O   UNL A   1      35.978  33.967  29.629  1.00  0.00    -0.237 OA
ATOM     87  O   UNL A   1      34.648  31.979  29.112  1.00  0.00    -0.744 OA
ENDBRANCH  81  84
ENDBRANCH  53  77
BRANCH  65  88
ATOM     88  C   UNL A   1      44.995  33.259  29.537  1.00  0.00     0.023 A 
ATOM     89  C   UNL A   1      45.773  33.236  30.711  1.00  0.00     0.012 A 
ATOM     90  C   UNL A   1      44.943  34.433  28.761  1.00  0.00     0.148 A 
ATOM     91  C   UNL A   1      46.477  34.367  31.115  1.00  0.00     0.002 A 
ATOM     92  C   UNL A   1      45.676  35.546  29.151  1.00  0.00     0.091 A 
ATOM     93  F   UNL A   1      44.178  34.438  27.660  1.00  0.00    -0.205 F 
ATOM     94  C   UNL A   1      46.439  35.518  30.330  1.00  0.00     0.022 A 
BRANCH  92  95
ATOM     95  S   UNL A   1      45.748  37.043  28.160  1.00  0.00     0.127 S 
ATOM     96  O   UNL A   1      46.148  36.518  26.856  1.00  0.00    -0.237 OA
ATOM     97  O   UNL A   1      44.369  37.530  28.225  1.00  0.00    -0.237 OA
ATOM     98  O   UNL A   1      46.721  37.907  28.816  1.00  0.00    -0.744 OA
ENDBRANCH  92  95
ENDBRANCH  65  88
ENDBRANCH  39  40
ENDBRANCH  31  34
ENDBRANCH  29  30
ENDBRANCH   1  29
TORSDOF 16
ENDMDL
