MODEL 1
REMARK VINA RESULT:     -13.4      0.000      0.000
REMARK SMILES O=C(NCCCNC(=O)c1ccc(-c2c3nc(c(-c4cccc(S(=O)(=O)[O-])c4F)c4ccc([nH]4)c(-c4cccc(S(=O)(=O)[O-])c4F)c4nc(c(-c5cccc(S(=O)(=O)[O-])c5F)c5ccc2[nH]5)C=C4)C=C3)cc1)C1=Cc2cc(Cl)cc(Cl)c2O[C@@H]1C(F)(F)F
REMARK SMILES IDX 6 1 5 2 4 3 3 4 1 5 2 6 73 8 74 9 84 10 75 11 83 12 76 13
REMARK SMILES IDX 82 14 77 15 80 16 78 17 79 18 81 19 85 20 86 21 87 22 88 23
REMARK SMILES IDX 7 24 8 25 9 27 10 28 11 29 72 30 12 31 71 32 13 33 14 34
REMARK SMILES IDX 15 35 65 36 16 37 70 38 64 39 66 40 17 41 69 42 63 43 62 44
REMARK SMILES IDX 18 46 50 47 30 48 49 49 31 50 34 51 48 52 67 53 32 54 33 55
REMARK SMILES IDX 47 57 68 58 35 59 19 60 20 61 28 62 21 63 23 64 29 65 22 66
REMARK SMILES IDX 24 67 25 68 26 69 27 70 51 71 52 72 60 73 53 74 55 75 61 76
REMARK SMILES IDX 54 77 56 78 57 79 58 80 59 81 36 82 37 83 45 84 38 85 40 86
REMARK SMILES IDX 46 87 39 88 41 89 42 90 43 91 44 92
REMARK H PARENT 3 7 7 26 66 45 34 56
REMARK Flexibility Score: inf
ROOT
ATOM      1  C   UNL A   1      37.203  21.430  24.843  1.00  0.00     0.118 C 
ENDROOT
BRANCH   1   2
ATOM      2  C   UNL A   1      35.928  21.293  25.672  1.00  0.00     0.042 C 
BRANCH   2   3
ATOM      3  C   UNL A   1      34.671  21.211  24.813  1.00  0.00     0.118 C 
BRANCH   3   4
ATOM      4  N   UNL A   1      34.633  22.179  23.713  1.00  0.00    -0.352 N 
ATOM      5  O   UNL A   1      34.349  24.219  22.761  1.00  0.00    -0.270 OA
ATOM      6  C   UNL A   1      34.059  23.428  23.650  1.00  0.00     0.251 C 
ATOM      7  H   UNL A   1      35.088  21.889  22.890  1.00  0.00     0.163 HD
BRANCH   6   8
ATOM      8  C   UNL A   1      33.187  23.839  24.768  1.00  0.00     0.067 C 
ATOM      9  C   UNL A   1      33.611  24.783  25.621  1.00  0.00     0.025 C 
ATOM     10  C   UNL A   1      31.748  23.446  24.674  1.00  0.00     0.314 C 
ATOM     11  C   UNL A   1      32.639  25.888  25.732  1.00  0.00     0.020 A 
ATOM     12  O   UNL A   1      30.870  24.593  24.638  1.00  0.00    -0.474 OA
ATOM     13  C   UNL A   1      33.154  27.155  26.041  1.00  0.00     0.032 A 
ATOM     14  C   UNL A   1      31.374  25.783  25.112  1.00  0.00     0.146 A 
ATOM     15  C   UNL A   1      32.452  28.299  25.666  1.00  0.00     0.043 A 
ATOM     16  C   UNL A   1      30.669  26.947  24.774  1.00  0.00     0.085 A 
ATOM     17  Cl  UNL A   1      33.171  29.846  25.880  1.00  0.00    -0.084 Cl
ATOM     18  C   UNL A   1      31.218  28.203  25.026  1.00  0.00     0.045 A 
ATOM     19  Cl  UNL A   1      29.187  26.868  23.885  1.00  0.00    -0.080 Cl
BRANCH  10  20
ATOM     20  C   UNL A   1      31.354  22.498  25.818  1.00  0.00     0.429 C 
ATOM     21  F   UNL A   1      32.153  22.679  26.899  1.00  0.00    -0.167 F 
ATOM     22  F   UNL A   1      30.084  22.703  26.238  1.00  0.00    -0.167 F 
ATOM     23  F   UNL A   1      31.456  21.193  25.466  1.00  0.00    -0.167 F 
ENDBRANCH  10  20
ENDBRANCH   6   8
ENDBRANCH   3   4
ENDBRANCH   2   3
ENDBRANCH   1   2
BRANCH   1  24
ATOM     24  N   UNL A   1      38.230  20.439  25.164  1.00  0.00    -0.352 N 
ATOM     25  C   UNL A   1      39.409  20.528  25.880  1.00  0.00     0.251 C 
ATOM     26  H   UNL A   1      38.047  19.542  24.803  1.00  0.00     0.163 HD
ATOM     27  O   UNL A   1      40.157  19.563  25.919  1.00  0.00    -0.269 OA
BRANCH  25  28
ATOM     28  C   UNL A   1      39.796  21.790  26.558  1.00  0.00     0.039 A 
ATOM     29  C   UNL A   1      40.745  21.745  27.586  1.00  0.00     0.014 A 
ATOM     30  C   UNL A   1      39.255  23.013  26.178  1.00  0.00     0.014 A 
ATOM     31  C   UNL A   1      41.251  22.935  28.120  1.00  0.00     0.010 A 
ATOM     32  C   UNL A   1      39.844  24.193  26.616  1.00  0.00     0.010 A 
ATOM     33  C   UNL A   1      40.867  24.172  27.577  1.00  0.00    -0.014 A 
BRANCH  33  34
ATOM     34  C   UNL A   1      41.548  25.449  27.930  1.00  0.00     0.031 A 
ATOM     35  C   UNL A   1      40.792  26.536  28.651  1.00  0.00     0.074 A 
ATOM     36  C   UNL A   1      42.789  25.693  27.460  1.00  0.00     0.049 A 
ATOM     37  N   UNL A   1      41.135  27.782  28.859  1.00  0.00    -0.248 NA
ATOM     38  C   UNL A   1      39.457  26.191  29.167  1.00  0.00     0.031 C 
ATOM     39  C   UNL A   1      43.600  24.760  26.670  1.00  0.00     0.029 A 
ATOM     40  N   UNL A   1      43.575  26.818  27.538  1.00  0.00    -0.354 N 
ATOM     41  C   UNL A   1      40.040  28.379  29.472  1.00  0.00     0.074 A 
ATOM     42  C   UNL A   1      39.010  27.370  29.576  1.00  0.00     0.031 C 
ATOM     43  C   UNL A   1      44.763  25.346  26.345  1.00  0.00     0.029 A 
ATOM     44  C   UNL A   1      44.766  26.711  26.855  1.00  0.00     0.049 A 
ATOM     45  H   UNL A   1      43.310  27.626  28.036  1.00  0.00     0.167 HD
ATOM     46  C   UNL A   1      39.914  29.645  29.940  1.00  0.00     0.034 A 
ATOM     47  C   UNL A   1      45.743  27.614  26.642  1.00  0.00     0.034 A 
ATOM     48  C   UNL A   1      40.967  30.622  29.909  1.00  0.00     0.049 A 
ATOM     49  C   UNL A   1      45.597  28.996  27.216  1.00  0.00     0.074 A 
ATOM     50  C   UNL A   1      40.979  31.891  30.460  1.00  0.00     0.029 A 
ATOM     51  N   UNL A   1      42.199  30.438  29.300  1.00  0.00    -0.354 N 
ATOM     52  N   UNL A   1      44.615  29.493  27.930  1.00  0.00    -0.248 NA
ATOM     53  C   UNL A   1      46.701  29.938  26.976  1.00  0.00     0.031 C 
ATOM     54  C   UNL A   1      42.215  32.479  30.174  1.00  0.00     0.029 A 
ATOM     55  C   UNL A   1      42.976  31.573  29.453  1.00  0.00     0.049 A 
ATOM     56  H   UNL A   1      42.480  29.621  28.828  1.00  0.00     0.167 HD
ATOM     57  C   UNL A   1      44.992  30.794  28.241  1.00  0.00     0.074 A 
ATOM     58  C   UNL A   1      46.306  30.999  27.666  1.00  0.00     0.031 C 
ATOM     59  C   UNL A   1      44.303  31.743  28.921  1.00  0.00     0.034 A 
BRANCH  46  60
ATOM     60  C   UNL A   1      38.614  30.025  30.599  1.00  0.00     0.023 A 
ATOM     61  C   UNL A   1      38.386  29.652  31.939  1.00  0.00     0.012 A 
ATOM     62  C   UNL A   1      37.653  30.804  29.926  1.00  0.00     0.148 A 
ATOM     63  C   UNL A   1      37.210  30.019  32.590  1.00  0.00     0.002 A 
ATOM     64  C   UNL A   1      36.501  31.203  30.595  1.00  0.00     0.091 A 
ATOM     65  F   UNL A   1      37.879  31.134  28.646  1.00  0.00    -0.205 F 
ATOM     66  C   UNL A   1      36.273  30.803  31.923  1.00  0.00     0.022 A 
BRANCH  64  67
ATOM     67  S   UNL A   1      35.264  32.273  29.851  1.00  0.00     0.127 S 
ATOM     68  O   UNL A   1      34.355  32.497  30.975  1.00  0.00    -0.237 OA
ATOM     69  O   UNL A   1      36.059  33.439  29.468  1.00  0.00    -0.237 OA
ATOM     70  O   UNL A   1      34.702  31.524  28.736  1.00  0.00    -0.744 OA
ENDBRANCH  64  67
ENDBRANCH  46  60
BRANCH  47  71
ATOM     71  C   UNL A   1      46.974  27.226  25.893  1.00  0.00     0.023 A 
ATOM     72  C   UNL A   1      47.963  26.467  26.548  1.00  0.00     0.012 A 
ATOM     73  C   UNL A   1      47.165  27.580  24.544  1.00  0.00     0.148 A 
ATOM     74  C   UNL A   1      49.132  26.093  25.885  1.00  0.00     0.002 A 
ATOM     75  C   UNL A   1      48.308  27.158  23.872  1.00  0.00     0.091 A 
ATOM     76  F   UNL A   1      46.224  28.320  23.939  1.00  0.00    -0.205 F 
ATOM     77  C   UNL A   1      49.300  26.430  24.545  1.00  0.00     0.022 A 
BRANCH  75  78
ATOM     78  S   UNL A   1      48.534  27.435  22.110  1.00  0.00     0.127 S 
ATOM     79  O   UNL A   1      49.752  28.242  22.086  1.00  0.00    -0.237 OA
ATOM     80  O   UNL A   1      48.689  26.072  21.601  1.00  0.00    -0.237 OA
ATOM     81  O   UNL A   1      47.317  28.100  21.664  1.00  0.00    -0.744 OA
ENDBRANCH  75  78
ENDBRANCH  47  71
BRANCH  59  82
ATOM     82  C   UNL A   1      44.954  33.087  29.095  1.00  0.00     0.023 A 
ATOM     83  C   UNL A   1      45.798  33.309  30.200  1.00  0.00     0.012 A 
ATOM     84  C   UNL A   1      44.802  34.097  28.124  1.00  0.00     0.148 A 
ATOM     85  C   UNL A   1      46.464  34.524  30.350  1.00  0.00     0.002 A 
ATOM     86  C   UNL A   1      45.504  35.288  28.257  1.00  0.00     0.091 A 
ATOM     87  F   UNL A   1      43.981  33.868  27.089  1.00  0.00    -0.205 F 
ATOM     88  C   UNL A   1      46.326  35.507  29.374  1.00  0.00     0.022 A 
BRANCH  86  89
ATOM     89  S   UNL A   1      45.463  36.578  27.007  1.00  0.00     0.127 S 
ATOM     90  O   UNL A   1      46.162  35.936  25.894  1.00  0.00    -0.237 OA
ATOM     91  O   UNL A   1      44.027  36.764  26.800  1.00  0.00    -0.237 OA
ATOM     92  O   UNL A   1      46.144  37.726  27.591  1.00  0.00    -0.744 OA
ENDBRANCH  86  89
ENDBRANCH  59  82
ENDBRANCH  33  34
ENDBRANCH  25  28
ENDBRANCH   1  24
TORSDOF 14
ENDMDL
MODEL 2
REMARK VINA RESULT:     -13.4      5.304      9.970
REMARK SMILES O=C(NCCCNC(=O)c1ccc(-c2c3nc(c(-c4cccc(S(=O)(=O)[O-])c4F)c4ccc([nH]4)c(-c4cccc(S(=O)(=O)[O-])c4F)c4nc(c(-c5cccc(S(=O)(=O)[O-])c5F)c5ccc2[nH]5)C=C4)C=C3)cc1)C1=Cc2cc(Cl)cc(Cl)c2O[C@@H]1C(F)(F)F
REMARK SMILES IDX 6 1 5 2 4 3 3 4 1 5 2 6 73 8 74 9 84 10 75 11 83 12 76 13
REMARK SMILES IDX 82 14 77 15 80 16 78 17 79 18 81 19 85 20 86 21 87 22 88 23
REMARK SMILES IDX 7 24 8 25 9 27 10 28 11 29 72 30 12 31 71 32 13 33 14 34
REMARK SMILES IDX 15 35 65 36 16 37 70 38 64 39 66 40 17 41 69 42 63 43 62 44
REMARK SMILES IDX 18 46 50 47 30 48 49 49 31 50 34 51 48 52 67 53 32 54 33 55
REMARK SMILES IDX 47 57 68 58 35 59 19 60 20 61 28 62 21 63 23 64 29 65 22 66
REMARK SMILES IDX 24 67 25 68 26 69 27 70 51 71 52 72 60 73 53 74 55 75 61 76
REMARK SMILES IDX 54 77 56 78 57 79 58 80 59 81 36 82 37 83 45 84 38 85 40 86
REMARK SMILES IDX 46 87 39 88 41 89 42 90 43 91 44 92
REMARK H PARENT 3 7 7 26 66 45 34 56
REMARK Flexibility Score: inf
ROOT
ATOM      1  C   UNL A   1      32.574  29.683  25.862  1.00  0.00     0.118 C 
ENDROOT
BRANCH   1   2
ATOM      2  C   UNL A   1      31.804  28.535  26.509  1.00  0.00     0.042 C 
BRANCH   2   3
ATOM      3  C   UNL A   1      32.558  27.211  26.450  1.00  0.00     0.118 C 
BRANCH   3   4
ATOM      4  N   UNL A   1      31.869  26.100  27.115  1.00  0.00    -0.352 N 
ATOM      5  O   UNL A   1      30.879  24.063  27.247  1.00  0.00    -0.270 OA
ATOM      6  C   UNL A   1      31.158  25.050  26.579  1.00  0.00     0.251 C 
ATOM      7  H   UNL A   1      31.921  26.108  28.097  1.00  0.00     0.163 HD
BRANCH   6   8
ATOM      8  C   UNL A   1      30.863  25.088  25.133  1.00  0.00     0.067 C 
ATOM      9  C   UNL A   1      29.828  25.815  24.691  1.00  0.00     0.025 C 
ATOM     10  C   UNL A   1      31.945  24.613  24.216  1.00  0.00     0.314 C 
ATOM     11  C   UNL A   1      30.243  26.770  23.646  1.00  0.00     0.020 A 
ATOM     12  O   UNL A   1      32.400  25.653  23.323  1.00  0.00    -0.474 OA
ATOM     13  C   UNL A   1      29.502  27.955  23.540  1.00  0.00     0.032 A 
ATOM     14  C   UNL A   1      31.556  26.721  23.123  1.00  0.00     0.146 A 
ATOM     15  C   UNL A   1      30.089  29.094  22.991  1.00  0.00     0.043 A 
ATOM     16  C   UNL A   1      32.115  27.870  22.544  1.00  0.00     0.085 A 
ATOM     17  Cl  UNL A   1      29.242  30.591  23.031  1.00  0.00    -0.084 Cl
ATOM     18  C   UNL A   1      31.393  29.062  22.502  1.00  0.00     0.045 A 
ATOM     19  Cl  UNL A   1      33.765  27.896  22.025  1.00  0.00    -0.080 Cl
BRANCH  10  20
ATOM     20  C   UNL A   1      31.497  23.375  23.423  1.00  0.00     0.429 C 
ATOM     21  F   UNL A   1      31.396  22.290  24.230  1.00  0.00    -0.167 F 
ATOM     22  F   UNL A   1      30.283  23.546  22.851  1.00  0.00    -0.167 F 
ATOM     23  F   UNL A   1      32.366  23.053  22.434  1.00  0.00    -0.167 F 
ENDBRANCH  10  20
ENDBRANCH   6   8
ENDBRANCH   3   4
ENDBRANCH   2   3
ENDBRANCH   1   2
BRANCH   1  24
ATOM     24  N   UNL A   1      32.324  30.987  26.478  1.00  0.00    -0.352 N 
ATOM     25  C   UNL A   1      33.094  31.779  27.309  1.00  0.00     0.251 C 
ATOM     26  H   UNL A   1      31.445  31.371  26.259  1.00  0.00     0.163 HD
ATOM     27  O   UNL A   1      32.609  32.797  27.779  1.00  0.00    -0.269 OA
BRANCH  25  28
ATOM     28  C   UNL A   1      34.477  31.384  27.673  1.00  0.00     0.039 A 
ATOM     29  C   UNL A   1      35.466  32.371  27.754  1.00  0.00     0.014 A 
ATOM     30  C   UNL A   1      34.803  30.063  27.956  1.00  0.00     0.014 A 
ATOM     31  C   UNL A   1      36.731  32.051  28.260  1.00  0.00     0.010 A 
ATOM     32  C   UNL A   1      36.014  29.768  28.574  1.00  0.00     0.010 A 
ATOM     33  C   UNL A   1      36.987  30.763  28.757  1.00  0.00    -0.014 A 
BRANCH  33  34
ATOM     34  C   UNL A   1      38.218  30.430  29.527  1.00  0.00     0.031 A 
ATOM     35  C   UNL A   1      39.212  29.439  28.976  1.00  0.00     0.074 A 
ATOM     36  C   UNL A   1      38.359  30.892  30.788  1.00  0.00     0.049 A 
ATOM     37  N   UNL A   1      40.223  28.864  29.575  1.00  0.00    -0.248 NA
ATOM     38  C   UNL A   1      39.016  29.003  27.583  1.00  0.00     0.031 C 
ATOM     39  C   UNL A   1      37.424  31.788  31.476  1.00  0.00     0.029 A 
ATOM     40  N   UNL A   1      39.322  30.638  31.735  1.00  0.00    -0.354 N 
ATOM     41  C   UNL A   1      40.744  27.961  28.656  1.00  0.00     0.074 A 
ATOM     42  C   UNL A   1      39.920  28.040  27.470  1.00  0.00     0.031 C 
ATOM     43  C   UNL A   1      37.861  32.012  32.726  1.00  0.00     0.029 A 
ATOM     44  C   UNL A   1      39.077  31.240  32.949  1.00  0.00     0.049 A 
ATOM     45  H   UNL A   1      40.114  30.078  31.561  1.00  0.00     0.167 HD
ATOM     46  C   UNL A   1      41.832  27.161  28.773  1.00  0.00     0.034 A 
ATOM     47  C   UNL A   1      39.740  31.163  34.119  1.00  0.00     0.034 A 
ATOM     48  C   UNL A   1      42.697  27.144  29.921  1.00  0.00     0.049 A 
ATOM     49  C   UNL A   1      40.973  30.306  34.205  1.00  0.00     0.074 A 
ATOM     50  C   UNL A   1      43.886  26.458  30.090  1.00  0.00     0.029 A 
ATOM     51  N   UNL A   1      42.470  27.849  31.092  1.00  0.00    -0.354 N 
ATOM     52  N   UNL A   1      41.537  29.579  33.271  1.00  0.00    -0.248 NA
ATOM     53  C   UNL A   1      41.675  30.275  35.497  1.00  0.00     0.031 C 
ATOM     54  C   UNL A   1      44.373  26.740  31.370  1.00  0.00     0.029 A 
ATOM     55  C   UNL A   1      43.492  27.609  31.993  1.00  0.00     0.049 A 
ATOM     56  H   UNL A   1      41.696  28.435  31.259  1.00  0.00     0.167 HD
ATOM     57  C   UNL A   1      42.669  29.022  33.855  1.00  0.00     0.074 A 
ATOM     58  C   UNL A   1      42.729  29.521  35.214  1.00  0.00     0.031 C 
ATOM     59  C   UNL A   1      43.566  28.156  33.323  1.00  0.00     0.034 A 
BRANCH  46  60
ATOM     60  C   UNL A   1      42.197  26.294  27.597  1.00  0.00     0.023 A 
ATOM     61  C   UNL A   1      42.998  26.829  26.568  1.00  0.00     0.012 A 
ATOM     62  C   UNL A   1      41.813  24.940  27.540  1.00  0.00     0.148 A 
ATOM     63  C   UNL A   1      43.384  26.043  25.485  1.00  0.00     0.002 A 
ATOM     64  C   UNL A   1      42.238  24.149  26.477  1.00  0.00     0.091 A 
ATOM     65  F   UNL A   1      41.037  24.453  28.519  1.00  0.00    -0.205 F 
ATOM     66  C   UNL A   1      43.014  24.701  25.444  1.00  0.00     0.022 A 
BRANCH  64  67
ATOM     67  S   UNL A   1      41.877  22.393  26.366  1.00  0.00     0.127 S 
ATOM     68  O   UNL A   1      42.608  22.019  25.155  1.00  0.00    -0.237 OA
ATOM     69  O   UNL A   1      42.456  21.882  27.608  1.00  0.00    -0.237 OA
ATOM     70  O   UNL A   1      40.428  22.284  26.277  1.00  0.00    -0.744 OA
ENDBRANCH  64  67
ENDBRANCH  46  60
BRANCH  47  71
ATOM     71  C   UNL A   1      39.285  31.962  35.295  1.00  0.00     0.023 A 
ATOM     72  C   UNL A   1      38.402  31.375  36.221  1.00  0.00     0.012 A 
ATOM     73  C   UNL A   1      39.730  33.280  35.514  1.00  0.00     0.148 A 
ATOM     74  C   UNL A   1      37.947  32.094  37.327  1.00  0.00     0.002 A 
ATOM     75  C   UNL A   1      39.315  33.972  36.647  1.00  0.00     0.091 A 
ATOM     76  F   UNL A   1      40.556  33.833  34.613  1.00  0.00    -0.205 F 
ATOM     77  C   UNL A   1      38.410  33.388  37.546  1.00  0.00     0.022 A 
BRANCH  75  78
ATOM     78  S   UNL A   1      39.974  35.590  37.071  1.00  0.00     0.127 S 
ATOM     79  O   UNL A   1      41.406  35.317  37.165  1.00  0.00    -0.237 OA
ATOM     80  O   UNL A   1      39.577  36.397  35.916  1.00  0.00    -0.237 OA
ATOM     81  O   UNL A   1      39.311  35.964  38.313  1.00  0.00    -0.744 OA
ENDBRANCH  75  78
ENDBRANCH  47  71
BRANCH  59  82
ATOM     82  C   UNL A   1      44.697  27.696  34.201  1.00  0.00     0.023 A 
ATOM     83  C   UNL A   1      45.878  28.461  34.263  1.00  0.00     0.012 A 
ATOM     84  C   UNL A   1      44.560  26.564  35.027  1.00  0.00     0.148 A 
ATOM     85  C   UNL A   1      46.916  28.094  35.118  1.00  0.00     0.002 A 
ATOM     86  C   UNL A   1      45.580  26.229  35.908  1.00  0.00     0.091 A 
ATOM     87  F   UNL A   1      43.432  25.843  34.939  1.00  0.00    -0.205 F 
ATOM     88  C   UNL A   1      46.762  26.985  35.947  1.00  0.00     0.022 A 
BRANCH  86  89
ATOM     89  S   UNL A   1      45.438  24.874  37.081  1.00  0.00     0.127 S 
ATOM     90  O   UNL A   1      46.690  24.994  37.827  1.00  0.00    -0.237 OA
ATOM     91  O   UNL A   1      44.240  25.241  37.835  1.00  0.00    -0.237 OA
ATOM     92  O   UNL A   1      45.303  23.664  36.281  1.00  0.00    -0.744 OA
ENDBRANCH  86  89
ENDBRANCH  59  82
ENDBRANCH  33  34
ENDBRANCH  25  28
ENDBRANCH   1  24
TORSDOF 14
ENDMDL
MODEL 3
REMARK VINA RESULT:     -13.3      5.496     10.444
REMARK SMILES O=C(NCCCNC(=O)c1ccc(-c2c3nc(c(-c4cccc(S(=O)(=O)[O-])c4F)c4ccc([nH]4)c(-c4cccc(S(=O)(=O)[O-])c4F)c4nc(c(-c5cccc(S(=O)(=O)[O-])c5F)c5ccc2[nH]5)C=C4)C=C3)cc1)C1=Cc2cc(Cl)cc(Cl)c2O[C@@H]1C(F)(F)F
REMARK SMILES IDX 6 1 5 2 4 3 3 4 1 5 2 6 73 8 74 9 84 10 75 11 83 12 76 13
REMARK SMILES IDX 82 14 77 15 80 16 78 17 79 18 81 19 85 20 86 21 87 22 88 23
REMARK SMILES IDX 7 24 8 25 9 27 10 28 11 29 72 30 12 31 71 32 13 33 14 34
REMARK SMILES IDX 15 35 65 36 16 37 70 38 64 39 66 40 17 41 69 42 63 43 62 44
REMARK SMILES IDX 18 46 50 47 30 48 49 49 31 50 34 51 48 52 67 53 32 54 33 55
REMARK SMILES IDX 47 57 68 58 35 59 19 60 20 61 28 62 21 63 23 64 29 65 22 66
REMARK SMILES IDX 24 67 25 68 26 69 27 70 51 71 52 72 60 73 53 74 55 75 61 76
REMARK SMILES IDX 54 77 56 78 57 79 58 80 59 81 36 82 37 83 45 84 38 85 40 86
REMARK SMILES IDX 46 87 39 88 41 89 42 90 43 91 44 92
REMARK H PARENT 3 7 7 26 66 45 34 56
REMARK Flexibility Score: inf
ROOT
ATOM      1  C   UNL A   1      32.112  30.147  26.737  1.00  0.00     0.118 C 
ENDROOT
BRANCH   1   2
ATOM      2  C   UNL A   1      32.360  29.775  25.278  1.00  0.00     0.042 C 
BRANCH   2   3
ATOM      3  C   UNL A   1      31.311  28.818  24.724  1.00  0.00     0.118 C 
BRANCH   3   4
ATOM      4  N   UNL A   1      31.003  27.690  25.609  1.00  0.00    -0.352 N 
ATOM      5  O   UNL A   1      31.349  25.671  26.582  1.00  0.00    -0.270 OA
ATOM      6  C   UNL A   1      31.501  26.408  25.616  1.00  0.00     0.251 C 
ATOM      7  H   UNL A   1      30.334  27.880  26.306  1.00  0.00     0.163 HD
BRANCH   6   8
ATOM      8  C   UNL A   1      32.346  25.994  24.479  1.00  0.00     0.067 C 
ATOM      9  C   UNL A   1      33.658  25.798  24.671  1.00  0.00     0.025 C 
ATOM     10  C   UNL A   1      31.636  25.468  23.273  1.00  0.00     0.314 C 
ATOM     11  C   UNL A   1      34.078  24.459  24.217  1.00  0.00     0.020 A 
ATOM     12  O   UNL A   1      31.991  24.097  22.984  1.00  0.00    -0.474 OA
ATOM     13  C   UNL A   1      35.174  23.882  24.874  1.00  0.00     0.032 A 
ATOM     14  C   UNL A   1      33.170  23.629  23.520  1.00  0.00     0.146 A 
ATOM     15  C   UNL A   1      35.315  22.495  24.901  1.00  0.00     0.043 A 
ATOM     16  C   UNL A   1      33.351  22.239  23.532  1.00  0.00     0.085 A 
ATOM     17  Cl  UNL A   1      36.554  21.785  25.861  1.00  0.00    -0.084 Cl
ATOM     18  C   UNL A   1      34.406  21.670  24.243  1.00  0.00     0.045 A 
ATOM     19  Cl  UNL A   1      32.184  21.180  22.817  1.00  0.00    -0.080 Cl
BRANCH  10  20
ATOM     20  C   UNL A   1      31.882  26.362  22.048  1.00  0.00     0.429 C 
ATOM     21  F   UNL A   1      32.109  25.616  20.938  1.00  0.00    -0.167 F 
ATOM     22  F   UNL A   1      30.820  27.154  21.771  1.00  0.00    -0.167 F 
ATOM     23  F   UNL A   1      32.957  27.172  22.206  1.00  0.00    -0.167 F 
ENDBRANCH  10  20
ENDBRANCH   6   8
ENDBRANCH   3   4
ENDBRANCH   2   3
ENDBRANCH   1   2
BRANCH   1  24
ATOM     24  N   UNL A   1      32.074  31.589  26.985  1.00  0.00    -0.352 N 
ATOM     25  C   UNL A   1      33.012  32.462  27.501  1.00  0.00     0.251 C 
ATOM     26  H   UNL A   1      31.222  32.015  26.738  1.00  0.00     0.163 HD
ATOM     27  O   UNL A   1      32.694  33.624  27.707  1.00  0.00    -0.269 OA
BRANCH  25  28
ATOM     28  C   UNL A   1      34.377  31.998  27.850  1.00  0.00     0.039 A 
ATOM     29  C   UNL A   1      35.413  32.935  27.939  1.00  0.00     0.014 A 
ATOM     30  C   UNL A   1      34.641  30.658  28.113  1.00  0.00     0.014 A 
ATOM     31  C   UNL A   1      36.663  32.548  28.432  1.00  0.00     0.010 A 
ATOM     32  C   UNL A   1      35.840  30.298  28.719  1.00  0.00     0.010 A 
ATOM     33  C   UNL A   1      36.860  31.242  28.909  1.00  0.00    -0.014 A 
BRANCH  33  34
ATOM     34  C   UNL A   1      38.079  30.841  29.667  1.00  0.00     0.031 A 
ATOM     35  C   UNL A   1      39.039  29.837  29.081  1.00  0.00     0.074 A 
ATOM     36  C   UNL A   1      38.235  31.253  30.943  1.00  0.00     0.049 A 
ATOM     37  N   UNL A   1      40.029  29.207  29.658  1.00  0.00    -0.248 NA
ATOM     38  C   UNL A   1      38.829  29.457  27.673  1.00  0.00     0.031 C 
ATOM     39  C   UNL A   1      37.331  32.155  31.663  1.00  0.00     0.029 A 
ATOM     40  N   UNL A   1      39.189  30.933  31.880  1.00  0.00    -0.354 N 
ATOM     41  C   UNL A   1      40.520  28.319  28.708  1.00  0.00     0.074 A 
ATOM     42  C   UNL A   1      39.699  28.468  27.526  1.00  0.00     0.031 C 
ATOM     43  C   UNL A   1      37.774  32.321  32.919  1.00  0.00     0.029 A 
ATOM     44  C   UNL A   1      38.962  31.500  33.115  1.00  0.00     0.049 A 
ATOM     45  H   UNL A   1      39.960  30.353  31.686  1.00  0.00     0.167 HD
ATOM     46  C   UNL A   1      41.579  27.479  28.796  1.00  0.00     0.034 A 
ATOM     47  C   UNL A   1      39.622  31.359  34.281  1.00  0.00     0.034 A 
ATOM     48  C   UNL A   1      42.442  27.391  29.942  1.00  0.00     0.049 A 
ATOM     49  C   UNL A   1      40.825  30.458  34.336  1.00  0.00     0.074 A 
ATOM     50  C   UNL A   1      43.607  26.659  30.087  1.00  0.00     0.029 A 
ATOM     51  N   UNL A   1      42.239  28.062  31.138  1.00  0.00    -0.354 N 
ATOM     52  N   UNL A   1      41.364  29.745  33.377  1.00  0.00    -0.248 NA
ATOM     53  C   UNL A   1      41.525  30.357  35.626  1.00  0.00     0.031 C 
ATOM     54  C   UNL A   1      44.103  26.879  31.376  1.00  0.00     0.029 A 
ATOM     55  C   UNL A   1      43.252  27.755  32.030  1.00  0.00     0.049 A 
ATOM     56  H   UNL A   1      41.486  28.668  31.326  1.00  0.00     0.167 HD
ATOM     57  C   UNL A   1      42.476  29.130  33.940  1.00  0.00     0.074 A 
ATOM     58  C   UNL A   1      42.552  29.579  35.316  1.00  0.00     0.031 C 
ATOM     59  C   UNL A   1      43.343  28.252  33.378  1.00  0.00     0.034 A 
BRANCH  46  60
ATOM     60  C   UNL A   1      41.915  26.641  27.591  1.00  0.00     0.023 A 
ATOM     61  C   UNL A   1      42.584  27.237  26.502  1.00  0.00     0.012 A 
ATOM     62  C   UNL A   1      41.637  25.260  27.559  1.00  0.00     0.148 A 
ATOM     63  C   UNL A   1      42.942  26.482  25.387  1.00  0.00     0.002 A 
ATOM     64  C   UNL A   1      42.036  24.505  26.461  1.00  0.00     0.091 A 
ATOM     65  F   UNL A   1      40.986  24.715  28.595  1.00  0.00    -0.205 F 
ATOM     66  C   UNL A   1      42.678  25.115  25.371  1.00  0.00     0.022 A 
BRANCH  64  67
ATOM     67  S   UNL A   1      41.809  22.725  26.371  1.00  0.00     0.127 S 
ATOM     68  O   UNL A   1      40.350  22.614  26.378  1.00  0.00    -0.237 OA
ATOM     69  O   UNL A   1      42.439  22.399  25.092  1.00  0.00    -0.237 OA
ATOM     70  O   UNL A   1      42.480  22.174  27.540  1.00  0.00    -0.744 OA
ENDBRANCH  64  67
ENDBRANCH  46  60
BRANCH  47  71
ATOM     71  C   UNL A   1      39.194  32.132  35.484  1.00  0.00     0.023 A 
ATOM     72  C   UNL A   1      39.484  33.509  35.552  1.00  0.00     0.012 A 
ATOM     73  C   UNL A   1      38.488  31.528  36.542  1.00  0.00     0.148 A 
ATOM     74  C   UNL A   1      39.108  34.262  36.665  1.00  0.00     0.002 A 
ATOM     75  C   UNL A   1      38.069  32.296  37.624  1.00  0.00     0.091 A 
ATOM     76  F   UNL A   1      38.236  30.212  36.472  1.00  0.00    -0.205 F 
ATOM     77  C   UNL A   1      38.393  33.659  37.695  1.00  0.00     0.022 A 
BRANCH  75  78
ATOM     78  S   UNL A   1      37.026  31.623  38.924  1.00  0.00     0.127 S 
ATOM     79  O   UNL A   1      37.893  31.736  40.093  1.00  0.00    -0.237 OA
ATOM     80  O   UNL A   1      35.886  32.541  38.912  1.00  0.00    -0.237 OA
ATOM     81  O   UNL A   1      36.702  30.269  38.496  1.00  0.00    -0.744 OA
ENDBRANCH  75  78
ENDBRANCH  47  71
BRANCH  59  82
ATOM     82  C   UNL A   1      44.457  27.724  34.239  1.00  0.00     0.023 A 
ATOM     83  C   UNL A   1      45.659  28.452  34.337  1.00  0.00     0.012 A 
ATOM     84  C   UNL A   1      44.284  26.561  35.015  1.00  0.00     0.148 A 
ATOM     85  C   UNL A   1      46.682  28.019  35.178  1.00  0.00     0.002 A 
ATOM     86  C   UNL A   1      45.291  26.160  35.884  1.00  0.00     0.091 A 
ATOM     87  F   UNL A   1      43.138  25.877  34.892  1.00  0.00    -0.205 F 
ATOM     88  C   UNL A   1      46.494  26.880  35.959  1.00  0.00     0.022 A 
BRANCH  86  89
ATOM     89  S   UNL A   1      45.106  24.761  36.996  1.00  0.00     0.127 S 
ATOM     90  O   UNL A   1      46.445  24.664  37.577  1.00  0.00    -0.237 OA
ATOM     91  O   UNL A   1      44.073  25.232  37.918  1.00  0.00    -0.237 OA
ATOM     92  O   UNL A   1      44.706  23.635  36.163  1.00  0.00    -0.744 OA
ENDBRANCH  86  89
ENDBRANCH  59  82
ENDBRANCH  33  34
ENDBRANCH  25  28
ENDBRANCH   1  24
TORSDOF 14
ENDMDL
