MODEL 1
REMARK VINA RESULT:     -12.0      0.000      0.000
REMARK SMILES O=C(CSc1nnc(-c2ccncc2)s1)Nc1cccc(C(=O)NCCCNC(=O)c2ccc(-c3c4nc(c(-c5cccc(S(=O)(=O)[O-])c5F)c5ccc([nH]5)c(-c5cccc(S(=O)(=O)[O-])c5F)c5nc(c(-c6cccc(S(=O)(=O)[O-])c6F)c6ccc3[nH]6)C=C5)C=C4)cc2)c1
REMARK SMILES IDX 25 1 24 2 22 3 23 4 21 6 17 7 18 8 94 9 19 10 20 11 16 12
REMARK SMILES IDX 1 13 2 14 3 16 4 17 5 18 6 19 15 20 7 21 8 22 9 23 10 24
REMARK SMILES IDX 14 25 11 26 13 27 12 28 26 29 27 30 28 31 29 32 30 34 31 35
REMARK SMILES IDX 32 36 93 37 33 38 92 39 34 40 35 41 36 42 86 43 37 44 91 45
REMARK SMILES IDX 85 46 87 47 38 48 90 49 84 50 83 51 39 53 71 54 51 55 70 56
REMARK SMILES IDX 52 57 55 58 69 59 88 60 53 61 54 62 68 64 89 65 56 66 40 67
REMARK SMILES IDX 41 68 49 69 42 70 44 71 50 72 43 73 45 74 46 75 47 76 48 77
REMARK SMILES IDX 72 78 73 79 81 80 74 81 76 82 82 83 75 84 77 85 78 86 79 87
REMARK SMILES IDX 80 88 57 89 58 90 66 91 59 92 61 93 67 94 60 95 62 96 63 97
REMARK SMILES IDX 64 98 65 99
REMARK H PARENT 24 5 16 15 28 33 87 52 55 63
REMARK Flexibility Score: inf
ROOT
ATOM      1  C   UNL A   1      37.330  20.899  24.752  1.00  0.00     0.118 C 
ENDROOT
BRANCH   1   2
ATOM      2  N   UNL A   1      36.465  21.224  25.885  1.00  0.00    -0.352 N 
ATOM      3  C   UNL A   1      35.093  21.328  26.001  1.00  0.00     0.251 C 
ATOM      4  O   UNL A   1      34.615  21.618  27.097  1.00  0.00    -0.269 OA
ATOM      5  H   UNL A   1      36.951  21.400  26.722  1.00  0.00     0.163 HD
BRANCH   3   6
ATOM      6  C   UNL A   1      34.181  21.176  24.837  1.00  0.00     0.041 A 
ATOM      7  C   UNL A   1      32.728  22.188  23.193  1.00  0.00     0.041 A 
ATOM      8  C   UNL A   1      32.127  20.949  22.963  1.00  0.00     0.026 A 
ATOM      9  C   UNL A   1      33.854  22.244  24.006  1.00  0.00     0.040 A 
ATOM     10  C   UNL A   1      32.589  19.810  23.629  1.00  0.00     0.003 A 
ATOM     11  C   UNL A   1      33.584  19.932  24.602  1.00  0.00     0.014 A 
BRANCH   7  12
ATOM     12  N   UNL A   1      32.107  23.345  22.674  1.00  0.00    -0.325 N 
ATOM     13  O   UNL A   1      33.932  24.769  22.377  1.00  0.00    -0.274 OA
ATOM     14  C   UNL A   1      32.722  24.543  22.337  1.00  0.00     0.234 C 
ATOM     15  H   UNL A   1      31.134  23.296  22.536  1.00  0.00     0.169 HD
BRANCH  14  16
ATOM     16  C   UNL A   1      31.777  25.660  21.930  1.00  0.00     0.177 C 
BRANCH  16  17
ATOM     17  S   UNL A   1      30.420  25.937  23.092  1.00  0.00    -0.084 SA
BRANCH  17  18
ATOM     18  C   UNL A   1      30.973  27.267  24.089  1.00  0.00     0.175 A 
ATOM     19  N   UNL A   1      30.556  28.491  23.842  1.00  0.00    -0.131 NA
ATOM     20  S   UNL A   1      32.160  27.185  25.320  1.00  0.00    -0.086 S 
ATOM     21  N   UNL A   1      31.195  29.434  24.627  1.00  0.00    -0.137 NA
ATOM     22  C   UNL A   1      32.110  28.893  25.405  1.00  0.00     0.148 A 
BRANCH  22  23
ATOM     23  C   UNL A   1      33.002  29.625  26.301  1.00  0.00     0.015 A 
ATOM     24  C   UNL A   1      32.674  30.894  26.788  1.00  0.00     0.031 A 
ATOM     25  C   UNL A   1      34.199  29.037  26.710  1.00  0.00     0.031 A 
ATOM     26  C   UNL A   1      33.555  31.516  27.655  1.00  0.00     0.111 A 
ATOM     27  C   UNL A   1      35.018  29.744  27.573  1.00  0.00     0.111 A 
ATOM     28  N   UNL A   1      34.721  30.969  28.055  1.00  0.00    -0.265 NA
ENDBRANCH  22  23
ENDBRANCH  17  18
ENDBRANCH  16  17
ENDBRANCH  14  16
ENDBRANCH   7  12
ENDBRANCH   3   6
ENDBRANCH   1   2
BRANCH   1  29
ATOM     29  C   UNL A   1      38.320  19.778  25.006  1.00  0.00     0.042 C 
BRANCH  29  30
ATOM     30  C   UNL A   1      39.322  20.052  26.110  1.00  0.00     0.118 C 
BRANCH  30  31
ATOM     31  N   UNL A   1      40.503  19.199  26.035  1.00  0.00    -0.352 N 
ATOM     32  C   UNL A   1      41.843  19.508  26.061  1.00  0.00     0.251 C 
ATOM     33  H   UNL A   1      40.307  18.237  25.954  1.00  0.00     0.163 HD
ATOM     34  O   UNL A   1      42.666  18.635  25.806  1.00  0.00    -0.269 OA
BRANCH  32  35
ATOM     35  C   UNL A   1      42.300  20.882  26.376  1.00  0.00     0.039 A 
ATOM     36  C   UNL A   1      42.578  21.220  27.704  1.00  0.00     0.014 A 
ATOM     37  C   UNL A   1      42.431  21.845  25.376  1.00  0.00     0.014 A 
ATOM     38  C   UNL A   1      43.053  22.500  28.012  1.00  0.00     0.010 A 
ATOM     39  C   UNL A   1      43.016  23.073  25.665  1.00  0.00     0.010 A 
ATOM     40  C   UNL A   1      43.311  23.426  26.989  1.00  0.00    -0.014 A 
BRANCH  40  41
ATOM     41  C   UNL A   1      43.857  24.779  27.270  1.00  0.00     0.031 A 
ATOM     42  C   UNL A   1      42.957  25.850  27.830  1.00  0.00     0.074 A 
ATOM     43  C   UNL A   1      45.130  25.072  26.935  1.00  0.00     0.049 A 
ATOM     44  N   UNL A   1      43.215  27.112  28.053  1.00  0.00    -0.248 NA
ATOM     45  C   UNL A   1      41.570  25.462  28.144  1.00  0.00     0.031 C 
ATOM     46  C   UNL A   1      46.079  24.144  26.315  1.00  0.00     0.029 A 
ATOM     47  N   UNL A   1      45.837  26.243  27.044  1.00  0.00    -0.354 N 
ATOM     48  C   UNL A   1      42.020  27.673  28.489  1.00  0.00     0.074 A 
ATOM     49  C   UNL A   1      41.024  26.627  28.456  1.00  0.00     0.031 C 
ATOM     50  C   UNL A   1      47.245  24.778  26.108  1.00  0.00     0.029 A 
ATOM     51  C   UNL A   1      47.117  26.165  26.543  1.00  0.00     0.049 A 
ATOM     52  H   UNL A   1      45.464  27.063  27.442  1.00  0.00     0.167 HD
ATOM     53  C   UNL A   1      41.778  28.937  28.913  1.00  0.00     0.034 A 
ATOM     54  C   UNL A   1      48.074  27.107  26.437  1.00  0.00     0.034 A 
ATOM     55  C   UNL A   1      42.783  29.960  28.992  1.00  0.00     0.049 A 
ATOM     56  C   UNL A   1      47.791  28.493  26.953  1.00  0.00     0.074 A 
ATOM     57  C   UNL A   1      42.664  31.246  29.486  1.00  0.00     0.029 A 
ATOM     58  N   UNL A   1      44.092  29.816  28.560  1.00  0.00    -0.354 N 
ATOM     59  N   UNL A   1      46.696  28.965  27.497  1.00  0.00    -0.248 NA
ATOM     60  C   UNL A   1      48.890  29.468  26.876  1.00  0.00     0.031 C 
ATOM     61  C   UNL A   1      43.895  31.890  29.325  1.00  0.00     0.029 A 
ATOM     62  C   UNL A   1      44.791  30.991  28.770  1.00  0.00     0.049 A 
ATOM     63  H   UNL A   1      44.469  28.998  28.163  1.00  0.00     0.167 HD
ATOM     64  C   UNL A   1      46.986  30.273  27.867  1.00  0.00     0.074 A 
ATOM     65  C   UNL A   1      48.366  30.513  27.500  1.00  0.00     0.031 C 
ATOM     66  C   UNL A   1      46.180  31.195  28.450  1.00  0.00     0.034 A 
BRANCH  53  67
ATOM     67  C   UNL A   1      40.380  29.267  29.373  1.00  0.00     0.023 A 
ATOM     68  C   UNL A   1      39.445  29.785  28.453  1.00  0.00     0.012 A 
ATOM     69  C   UNL A   1      39.977  29.019  30.699  1.00  0.00     0.148 A 
ATOM     70  C   UNL A   1      38.145  30.090  28.853  1.00  0.00     0.002 A 
ATOM     71  C   UNL A   1      38.665  29.277  31.079  1.00  0.00     0.091 A 
ATOM     72  F   UNL A   1      40.883  28.545  31.566  1.00  0.00    -0.205 F 
ATOM     73  C   UNL A   1      37.752  29.826  30.162  1.00  0.00     0.022 A 
BRANCH  71  74
ATOM     74  S   UNL A   1      38.034  28.894  32.717  1.00  0.00     0.127 S 
ATOM     75  O   UNL A   1      38.907  29.704  33.566  1.00  0.00    -0.237 OA
ATOM     76  O   UNL A   1      36.653  29.369  32.632  1.00  0.00    -0.237 OA
ATOM     77  O   UNL A   1      38.173  27.453  32.874  1.00  0.00    -0.744 OA
ENDBRANCH  71  74
ENDBRANCH  53  67
BRANCH  54  78
ATOM     78  C   UNL A   1      49.412  26.756  25.880  1.00  0.00     0.023 A 
ATOM     79  C   UNL A   1      50.307  25.994  26.656  1.00  0.00     0.012 A 
ATOM     80  C   UNL A   1      49.797  27.158  24.586  1.00  0.00     0.148 A 
ATOM     81  C   UNL A   1      51.575  25.672  26.171  1.00  0.00     0.002 A 
ATOM     82  C   UNL A   1      51.038  26.783  24.086  1.00  0.00     0.091 A 
ATOM     83  F   UNL A   1      48.935  27.888  23.866  1.00  0.00    -0.205 F 
ATOM     84  C   UNL A   1      51.937  26.058  24.884  1.00  0.00     0.022 A 
BRANCH  82  85
ATOM     85  S   UNL A   1      51.539  27.122  22.395  1.00  0.00     0.127 S 
ATOM     86  O   UNL A   1      51.786  28.560  22.437  1.00  0.00    -0.237 OA
ATOM     87  O   UNL A   1      52.739  26.293  22.264  1.00  0.00    -0.237 OA
ATOM     88  O   UNL A   1      50.423  26.697  21.560  1.00  0.00    -0.744 OA
ENDBRANCH  82  85
ENDBRANCH  54  78
BRANCH  66  89
ATOM     89  C   UNL A   1      46.780  32.535  28.787  1.00  0.00     0.023 A 
ATOM     90  C   UNL A   1      47.424  32.732  30.025  1.00  0.00     0.012 A 
ATOM     91  C   UNL A   1      46.769  33.577  27.839  1.00  0.00     0.148 A 
ATOM     92  C   UNL A   1      48.015  33.958  30.327  1.00  0.00     0.002 A 
ATOM     93  C   UNL A   1      47.408  34.777  28.125  1.00  0.00     0.091 A 
ATOM     94  F   UNL A   1      46.136  33.375  26.674  1.00  0.00    -0.205 F 
ATOM     95  C   UNL A   1      48.019  34.974  29.374  1.00  0.00     0.022 A 
BRANCH  93  96
ATOM     96  S   UNL A   1      47.552  36.102  26.920  1.00  0.00     0.127 S 
ATOM     97  O   UNL A   1      48.291  35.445  25.844  1.00  0.00    -0.237 OA
ATOM     98  O   UNL A   1      46.151  36.390  26.611  1.00  0.00    -0.237 OA
ATOM     99  O   UNL A   1      48.258  37.183  27.594  1.00  0.00    -0.744 OA
ENDBRANCH  93  96
ENDBRANCH  66  89
ENDBRANCH  40  41
ENDBRANCH  32  35
ENDBRANCH  30  31
ENDBRANCH  29  30
ENDBRANCH   1  29
TORSDOF 18
ENDMDL
MODEL 2
REMARK VINA RESULT:     -11.3      4.912      9.428
REMARK SMILES O=C(CSc1nnc(-c2ccncc2)s1)Nc1cccc(C(=O)NCCCNC(=O)c2ccc(-c3c4nc(c(-c5cccc(S(=O)(=O)[O-])c5F)c5ccc([nH]5)c(-c5cccc(S(=O)(=O)[O-])c5F)c5nc(c(-c6cccc(S(=O)(=O)[O-])c6F)c6ccc3[nH]6)C=C5)C=C4)cc2)c1
REMARK SMILES IDX 25 1 24 2 22 3 23 4 21 6 17 7 18 8 94 9 19 10 20 11 16 12
REMARK SMILES IDX 1 13 2 14 3 16 4 17 5 18 6 19 15 20 7 21 8 22 9 23 10 24
REMARK SMILES IDX 14 25 11 26 13 27 12 28 26 29 27 30 28 31 29 32 30 34 31 35
REMARK SMILES IDX 32 36 93 37 33 38 92 39 34 40 35 41 36 42 86 43 37 44 91 45
REMARK SMILES IDX 85 46 87 47 38 48 90 49 84 50 83 51 39 53 71 54 51 55 70 56
REMARK SMILES IDX 52 57 55 58 69 59 88 60 53 61 54 62 68 64 89 65 56 66 40 67
REMARK SMILES IDX 41 68 49 69 42 70 44 71 50 72 43 73 45 74 46 75 47 76 48 77
REMARK SMILES IDX 72 78 73 79 81 80 74 81 76 82 82 83 75 84 77 85 78 86 79 87
REMARK SMILES IDX 80 88 57 89 58 90 66 91 59 92 61 93 67 94 60 95 62 96 63 97
REMARK SMILES IDX 64 98 65 99
REMARK H PARENT 24 5 16 15 28 33 87 52 55 63
REMARK Flexibility Score: inf
ROOT
ATOM      1  C   UNL A   1      35.149  35.114  33.164  1.00  0.00     0.118 C 
ENDROOT
BRANCH   1   2
ATOM      2  N   UNL A   1      33.861  35.777  33.360  1.00  0.00    -0.352 N 
ATOM      3  C   UNL A   1      32.904  36.222  32.470  1.00  0.00     0.251 C 
ATOM      4  O   UNL A   1      31.888  36.753  32.914  1.00  0.00    -0.269 OA
ATOM      5  H   UNL A   1      33.633  35.936  34.304  1.00  0.00     0.163 HD
BRANCH   3   6
ATOM      6  C   UNL A   1      33.091  36.147  30.996  1.00  0.00     0.041 A 
ATOM      7  C   UNL A   1      33.789  34.890  29.055  1.00  0.00     0.041 A 
ATOM      8  C   UNL A   1      33.891  36.075  28.325  1.00  0.00     0.026 A 
ATOM      9  C   UNL A   1      33.233  34.934  30.328  1.00  0.00     0.040 A 
ATOM     10  C   UNL A   1      33.539  37.294  28.913  1.00  0.00     0.003 A 
ATOM     11  C   UNL A   1      33.185  37.335  30.264  1.00  0.00     0.014 A 
BRANCH   7  12
ATOM     12  N   UNL A   1      34.349  33.714  28.511  1.00  0.00    -0.325 N 
ATOM     13  O   UNL A   1      36.327  33.521  29.733  1.00  0.00    -0.274 OA
ATOM     14  C   UNL A   1      35.564  33.133  28.848  1.00  0.00     0.234 C 
ATOM     15  H   UNL A   1      33.821  33.256  27.817  1.00  0.00     0.169 HD
BRANCH  14  16
ATOM     16  C   UNL A   1      35.968  31.942  27.997  1.00  0.00     0.177 C 
BRANCH  16  17
ATOM     17  S   UNL A   1      35.068  30.422  28.383  1.00  0.00    -0.084 SA
BRANCH  17  18
ATOM     18  C   UNL A   1      33.863  30.303  27.116  1.00  0.00     0.175 A 
ATOM     19  N   UNL A   1      32.766  31.027  27.182  1.00  0.00    -0.131 NA
ATOM     20  S   UNL A   1      33.874  29.198  25.809  1.00  0.00    -0.086 S 
ATOM     21  N   UNL A   1      31.863  30.709  26.183  1.00  0.00    -0.137 NA
ATOM     22  C   UNL A   1      32.290  29.718  25.427  1.00  0.00     0.148 A 
BRANCH  22  23
ATOM     23  C   UNL A   1      31.542  29.105  24.333  1.00  0.00     0.015 A 
ATOM     24  C   UNL A   1      31.935  27.888  23.766  1.00  0.00     0.031 A 
ATOM     25  C   UNL A   1      30.388  29.727  23.855  1.00  0.00     0.031 A 
ATOM     26  C   UNL A   1      31.162  27.353  22.750  1.00  0.00     0.111 A 
ATOM     27  C   UNL A   1      29.689  29.116  22.829  1.00  0.00     0.111 A 
ATOM     28  N   UNL A   1      30.049  27.943  22.268  1.00  0.00    -0.265 NA
ENDBRANCH  22  23
ENDBRANCH  17  18
ENDBRANCH  16  17
ENDBRANCH  14  16
ENDBRANCH   7  12
ENDBRANCH   3   6
ENDBRANCH   1   2
BRANCH   1  29
ATOM     29  C   UNL A   1      35.151  33.625  33.454  1.00  0.00     0.042 C 
BRANCH  29  30
ATOM     30  C   UNL A   1      36.428  32.904  33.072  1.00  0.00     0.118 C 
BRANCH  30  31
ATOM     31  N   UNL A   1      36.286  31.452  33.070  1.00  0.00    -0.352 N 
ATOM     32  C   UNL A   1      37.057  30.471  32.491  1.00  0.00     0.251 C 
ATOM     33  H   UNL A   1      35.506  31.117  33.569  1.00  0.00     0.163 HD
ATOM     34  O   UNL A   1      36.645  29.315  32.474  1.00  0.00    -0.269 OA
BRANCH  32  35
ATOM     35  C   UNL A   1      38.365  30.796  31.877  1.00  0.00     0.039 A 
ATOM     36  C   UNL A   1      38.476  30.830  30.483  1.00  0.00     0.014 A 
ATOM     37  C   UNL A   1      39.489  31.044  32.665  1.00  0.00     0.014 A 
ATOM     38  C   UNL A   1      39.693  31.179  29.889  1.00  0.00     0.010 A 
ATOM     39  C   UNL A   1      40.661  31.507  32.079  1.00  0.00     0.010 A 
ATOM     40  C   UNL A   1      40.787  31.557  30.684  1.00  0.00    -0.014 A 
BRANCH  40  41
ATOM     41  C   UNL A   1      42.083  31.977  30.091  1.00  0.00     0.031 A 
ATOM     42  C   UNL A   1      42.310  33.424  29.733  1.00  0.00     0.074 A 
ATOM     43  C   UNL A   1      43.015  31.051  29.786  1.00  0.00     0.049 A 
ATOM     44  N   UNL A   1      43.328  33.974  29.123  1.00  0.00    -0.248 NA
ATOM     45  C   UNL A   1      41.235  34.373  30.070  1.00  0.00     0.031 C 
ATOM     46  C   UNL A   1      42.882  29.609  30.012  1.00  0.00     0.029 A 
ATOM     47  N   UNL A   1      44.247  31.181  29.196  1.00  0.00    -0.354 N 
ATOM     48  C   UNL A   1      42.998  35.315  28.965  1.00  0.00     0.074 A 
ATOM     49  C   UNL A   1      41.667  35.489  29.502  1.00  0.00     0.031 C 
ATOM     50  C   UNL A   1      43.992  28.991  29.575  1.00  0.00     0.029 A 
ATOM     51  C   UNL A   1      44.896  29.983  29.004  1.00  0.00     0.049 A 
ATOM     52  H   UNL A   1      44.629  32.050  28.933  1.00  0.00     0.167 HD
ATOM     53  C   UNL A   1      43.745  36.321  28.452  1.00  0.00     0.034 A 
ATOM     54  C   UNL A   1      46.083  29.714  28.424  1.00  0.00     0.034 A 
ATOM     55  C   UNL A   1      45.086  36.153  27.966  1.00  0.00     0.049 A 
ATOM     56  C   UNL A   1      46.910  30.856  27.898  1.00  0.00     0.074 A 
ATOM     57  C   UNL A   1      45.961  37.119  27.505  1.00  0.00     0.029 A 
ATOM     58  N   UNL A   1      45.746  34.937  27.872  1.00  0.00    -0.354 N 
ATOM     59  N   UNL A   1      46.640  32.139  27.890  1.00  0.00    -0.248 NA
ATOM     60  C   UNL A   1      48.227  30.518  27.334  1.00  0.00     0.031 C 
ATOM     61  C   UNL A   1      47.141  36.483  27.104  1.00  0.00     0.029 A 
ATOM     62  C   UNL A   1      47.014  35.126  27.354  1.00  0.00     0.049 A 
ATOM     63  H   UNL A   1      45.366  34.067  28.134  1.00  0.00     0.167 HD
ATOM     64  C   UNL A   1      47.766  32.764  27.366  1.00  0.00     0.074 A 
ATOM     65  C   UNL A   1      48.728  31.719  27.082  1.00  0.00     0.031 C 
ATOM     66  C   UNL A   1      47.980  34.082  27.131  1.00  0.00     0.034 A 
BRANCH  53  67
ATOM     67  C   UNL A   1      43.145  37.705  28.439  1.00  0.00     0.023 A 
ATOM     68  C   UNL A   1      42.357  38.115  27.343  1.00  0.00     0.012 A 
ATOM     69  C   UNL A   1      43.319  38.579  29.528  1.00  0.00     0.148 A 
ATOM     70  C   UNL A   1      41.785  39.386  27.313  1.00  0.00     0.002 A 
ATOM     71  C   UNL A   1      42.704  39.826  29.514  1.00  0.00     0.091 A 
ATOM     72  F   UNL A   1      44.088  38.182  30.552  1.00  0.00    -0.205 F 
ATOM     73  C   UNL A   1      41.950  40.237  28.402  1.00  0.00     0.022 A 
BRANCH  71  74
ATOM     74  S   UNL A   1      42.783  40.964  30.903  1.00  0.00     0.127 S 
ATOM     75  O   UNL A   1      41.491  41.642  30.802  1.00  0.00    -0.237 OA
ATOM     76  O   UNL A   1      42.905  40.051  32.039  1.00  0.00    -0.237 OA
ATOM     77  O   UNL A   1      43.948  41.805  30.669  1.00  0.00    -0.744 OA
ENDBRANCH  71  74
ENDBRANCH  53  67
BRANCH  54  78
ATOM     78  C   UNL A   1      46.590  28.313  28.370  1.00  0.00     0.023 A 
ATOM     79  C   UNL A   1      47.385  27.823  29.425  1.00  0.00     0.012 A 
ATOM     80  C   UNL A   1      46.278  27.460  27.293  1.00  0.00     0.148 A 
ATOM     81  C   UNL A   1      47.894  26.525  29.390  1.00  0.00     0.002 A 
ATOM     82  C   UNL A   1      46.739  26.149  27.293  1.00  0.00     0.091 A 
ATOM     83  F   UNL A   1      45.527  27.946  26.296  1.00  0.00    -0.205 F 
ATOM     84  C   UNL A   1      47.564  25.685  28.329  1.00  0.00     0.022 A 
BRANCH  82  85
ATOM     85  S   UNL A   1      46.259  24.957  26.038  1.00  0.00     0.127 S 
ATOM     86  O   UNL A   1      47.007  23.772  26.446  1.00  0.00    -0.237 OA
ATOM     87  O   UNL A   1      44.811  24.874  26.239  1.00  0.00    -0.237 OA
ATOM     88  O   UNL A   1      46.654  25.545  24.764  1.00  0.00    -0.744 OA
ENDBRANCH  82  85
ENDBRANCH  54  78
BRANCH  66  89
ATOM     89  C   UNL A   1      49.328  34.487  26.594  1.00  0.00     0.023 A 
ATOM     90  C   UNL A   1      49.512  34.677  25.210  1.00  0.00     0.012 A 
ATOM     91  C   UNL A   1      50.394  34.751  27.477  1.00  0.00     0.148 A 
ATOM     92  C   UNL A   1      50.747  35.089  24.711  1.00  0.00     0.002 A 
ATOM     93  C   UNL A   1      51.604  35.213  26.977  1.00  0.00     0.091 A 
ATOM     94  F   UNL A   1      50.203  34.546  28.789  1.00  0.00    -0.205 F 
ATOM     95  C   UNL A   1      51.787  35.370  25.594  1.00  0.00     0.022 A 
BRANCH  93  96
ATOM     96  S   UNL A   1      52.964  35.698  28.047  1.00  0.00     0.127 S 
ATOM     97  O   UNL A   1      53.670  34.429  28.222  1.00  0.00    -0.237 OA
ATOM     98  O   UNL A   1      53.671  36.679  27.223  1.00  0.00    -0.237 OA
ATOM     99  O   UNL A   1      52.354  36.245  29.252  1.00  0.00    -0.744 OA
ENDBRANCH  93  96
ENDBRANCH  66  89
ENDBRANCH  40  41
ENDBRANCH  32  35
ENDBRANCH  30  31
ENDBRANCH  29  30
ENDBRANCH   1  29
TORSDOF 18
ENDMDL
MODEL 3
REMARK VINA RESULT:     -10.7      4.764      8.123
REMARK SMILES O=C(CSc1nnc(-c2ccncc2)s1)Nc1cccc(C(=O)NCCCNC(=O)c2ccc(-c3c4nc(c(-c5cccc(S(=O)(=O)[O-])c5F)c5ccc([nH]5)c(-c5cccc(S(=O)(=O)[O-])c5F)c5nc(c(-c6cccc(S(=O)(=O)[O-])c6F)c6ccc3[nH]6)C=C5)C=C4)cc2)c1
REMARK SMILES IDX 25 1 24 2 22 3 23 4 21 6 17 7 18 8 94 9 19 10 20 11 16 12
REMARK SMILES IDX 1 13 2 14 3 16 4 17 5 18 6 19 15 20 7 21 8 22 9 23 10 24
REMARK SMILES IDX 14 25 11 26 13 27 12 28 26 29 27 30 28 31 29 32 30 34 31 35
REMARK SMILES IDX 32 36 93 37 33 38 92 39 34 40 35 41 36 42 86 43 37 44 91 45
REMARK SMILES IDX 85 46 87 47 38 48 90 49 84 50 83 51 39 53 71 54 51 55 70 56
REMARK SMILES IDX 52 57 55 58 69 59 88 60 53 61 54 62 68 64 89 65 56 66 40 67
REMARK SMILES IDX 41 68 49 69 42 70 44 71 50 72 43 73 45 74 46 75 47 76 48 77
REMARK SMILES IDX 72 78 73 79 81 80 74 81 76 82 82 83 75 84 77 85 78 86 79 87
REMARK SMILES IDX 80 88 57 89 58 90 66 91 59 92 61 93 67 94 60 95 62 96 63 97
REMARK SMILES IDX 64 98 65 99
REMARK H PARENT 24 5 16 15 28 33 87 52 55 63
REMARK Flexibility Score: inf
ROOT
ATOM      1  C   UNL A   1      35.979  30.617  30.562  1.00  0.00     0.118 C 
ENDROOT
BRANCH   1   2
ATOM      2  N   UNL A   1      36.730  30.395  29.328  1.00  0.00    -0.352 N 
ATOM      3  C   UNL A   1      36.328  30.184  28.025  1.00  0.00     0.251 C 
ATOM      4  O   UNL A   1      37.188  30.027  27.160  1.00  0.00    -0.269 OA
ATOM      5  H   UNL A   1      37.707  30.398  29.449  1.00  0.00     0.163 HD
BRANCH   3   6
ATOM      6  C   UNL A   1      34.895  30.067  27.642  1.00  0.00     0.041 A 
ATOM      7  C   UNL A   1      33.150  28.873  26.473  1.00  0.00     0.041 A 
ATOM      8  C   UNL A   1      32.346  30.013  26.512  1.00  0.00     0.026 A 
ATOM      9  C   UNL A   1      34.345  28.873  27.184  1.00  0.00     0.040 A 
ATOM     10  C   UNL A   1      32.792  31.165  27.165  1.00  0.00     0.003 A 
ATOM     11  C   UNL A   1      34.087  31.208  27.688  1.00  0.00     0.014 A 
BRANCH   7  12
ATOM     12  N   UNL A   1      32.768  27.806  25.632  1.00  0.00    -0.325 N 
ATOM     13  O   UNL A   1      31.068  26.805  26.877  1.00  0.00    -0.274 OA
ATOM     14  C   UNL A   1      31.801  26.844  25.890  1.00  0.00     0.234 C 
ATOM     15  H   UNL A   1      33.238  27.736  24.769  1.00  0.00     0.169 HD
BRANCH  14  16
ATOM     16  C   UNL A   1      31.702  25.737  24.855  1.00  0.00     0.177 C 
BRANCH  16  17
ATOM     17  S   UNL A   1      30.075  25.598  24.078  1.00  0.00    -0.084 SA
BRANCH  17  18
ATOM     18  C   UNL A   1      29.876  27.114  23.223  1.00  0.00     0.175 A 
ATOM     19  N   UNL A   1      30.830  27.549  22.426  1.00  0.00    -0.131 NA
ATOM     20  S   UNL A   1      28.588  28.224  23.415  1.00  0.00    -0.086 S 
ATOM     21  N   UNL A   1      30.575  28.820  21.944  1.00  0.00    -0.137 NA
ATOM     22  C   UNL A   1      29.460  29.322  22.435  1.00  0.00     0.148 A 
BRANCH  22  23
ATOM     23  C   UNL A   1      28.948  30.665  22.175  1.00  0.00     0.015 A 
ATOM     24  C   UNL A   1      28.406  31.018  20.935  1.00  0.00     0.031 A 
ATOM     25  C   UNL A   1      28.967  31.617  23.195  1.00  0.00     0.031 A 
ATOM     26  C   UNL A   1      27.916  32.301  20.770  1.00  0.00     0.111 A 
ATOM     27  C   UNL A   1      28.461  32.877  22.928  1.00  0.00     0.111 A 
ATOM     28  N   UNL A   1      27.934  33.238  21.740  1.00  0.00    -0.265 NA
ENDBRANCH  22  23
ENDBRANCH  17  18
ENDBRANCH  16  17
ENDBRANCH  14  16
ENDBRANCH   7  12
ENDBRANCH   3   6
ENDBRANCH   1   2
BRANCH   1  29
ATOM     29  C   UNL A   1      36.093  32.017  31.135  1.00  0.00     0.042 C 
BRANCH  29  30
ATOM     30  C   UNL A   1      37.087  32.160  32.271  1.00  0.00     0.118 C 
BRANCH  30  31
ATOM     31  N   UNL A   1      37.419  30.888  32.904  1.00  0.00    -0.352 N 
ATOM     32  C   UNL A   1      38.545  30.104  32.818  1.00  0.00     0.251 C 
ATOM     33  H   UNL A   1      36.716  30.531  33.495  1.00  0.00     0.163 HD
ATOM     34  O   UNL A   1      38.534  28.979  33.307  1.00  0.00    -0.269 OA
BRANCH  32  35
ATOM     35  C   UNL A   1      39.763  30.596  32.132  1.00  0.00     0.039 A 
ATOM     36  C   UNL A   1      39.866  30.459  30.744  1.00  0.00     0.014 A 
ATOM     37  C   UNL A   1      40.813  31.169  32.849  1.00  0.00     0.014 A 
ATOM     38  C   UNL A   1      40.989  30.960  30.076  1.00  0.00     0.010 A 
ATOM     39  C   UNL A   1      41.868  31.772  32.175  1.00  0.00     0.010 A 
ATOM     40  C   UNL A   1      41.983  31.654  30.784  1.00  0.00    -0.014 A 
BRANCH  40  41
ATOM     41  C   UNL A   1      43.169  32.239  30.105  1.00  0.00     0.031 A 
ATOM     42  C   UNL A   1      43.142  33.677  29.656  1.00  0.00     0.074 A 
ATOM     43  C   UNL A   1      44.226  31.457  29.808  1.00  0.00     0.049 A 
ATOM     44  N   UNL A   1      44.032  34.344  28.966  1.00  0.00    -0.248 NA
ATOM     45  C   UNL A   1      41.940  34.461  29.991  1.00  0.00     0.031 C 
ATOM     46  C   UNL A   1      44.341  30.030  30.120  1.00  0.00     0.029 A 
ATOM     47  N   UNL A   1      45.397  31.746  29.151  1.00  0.00    -0.354 N 
ATOM     48  C   UNL A   1      43.480  35.602  28.750  1.00  0.00     0.074 A 
ATOM     49  C   UNL A   1      42.161  35.594  29.341  1.00  0.00     0.031 C 
ATOM     50  C   UNL A   1      45.518  29.572  29.665  1.00  0.00     0.029 A 
ATOM     51  C   UNL A   1      46.225  30.658  28.995  1.00  0.00     0.049 A 
ATOM     52  H   UNL A   1      45.621  32.646  28.821  1.00  0.00     0.167 HD
ATOM     53  C   UNL A   1      44.032  36.681  28.146  1.00  0.00     0.034 A 
ATOM     54  C   UNL A   1      47.416  30.547  28.374  1.00  0.00     0.034 A 
ATOM     55  C   UNL A   1      45.363  36.700  27.605  1.00  0.00     0.049 A 
ATOM     56  C   UNL A   1      48.025  31.772  27.744  1.00  0.00     0.074 A 
ATOM     57  C   UNL A   1      46.050  37.763  27.048  1.00  0.00     0.029 A 
ATOM     58  N   UNL A   1      46.208  35.602  27.547  1.00  0.00    -0.354 N 
ATOM     59  N   UNL A   1      47.548  32.991  27.678  1.00  0.00    -0.248 NA
ATOM     60  C   UNL A   1      49.355  31.615  27.137  1.00  0.00     0.031 C 
ATOM     61  C   UNL A   1      47.301  37.301  26.626  1.00  0.00     0.029 A 
ATOM     62  C   UNL A   1      47.407  35.960  26.958  1.00  0.00     0.049 A 
ATOM     63  H   UNL A   1      45.987  34.701  27.876  1.00  0.00     0.167 HD
ATOM     64  C   UNL A   1      48.535  33.755  27.065  1.00  0.00     0.074 A 
ATOM     65  C   UNL A   1      49.643  32.862  26.794  1.00  0.00     0.031 C 
ATOM     66  C   UNL A   1      48.522  35.073  26.746  1.00  0.00     0.034 A 
BRANCH  53  67
ATOM     67  C   UNL A   1      43.214  37.946  28.084  1.00  0.00     0.023 A 
ATOM     68  C   UNL A   1      42.396  38.196  26.963  1.00  0.00     0.012 A 
ATOM     69  C   UNL A   1      43.216  38.862  29.153  1.00  0.00     0.148 A 
ATOM     70  C   UNL A   1      41.625  39.356  26.887  1.00  0.00     0.002 A 
ATOM     71  C   UNL A   1      42.406  39.990  29.094  1.00  0.00     0.091 A 
ATOM     72  F   UNL A   1      44.014  38.620  30.203  1.00  0.00    -0.205 F 
ATOM     73  C   UNL A   1      41.622  40.246  27.957  1.00  0.00     0.022 A 
BRANCH  71  74
ATOM     74  S   UNL A   1      42.263  41.156  30.454  1.00  0.00     0.127 S 
ATOM     75  O   UNL A   1      40.864  41.567  30.345  1.00  0.00    -0.237 OA
ATOM     76  O   UNL A   1      42.563  40.313  31.612  1.00  0.00    -0.237 OA
ATOM     77  O   UNL A   1      43.242  42.202  30.192  1.00  0.00    -0.744 OA
ENDBRANCH  71  74
ENDBRANCH  53  67
BRANCH  54  78
ATOM     78  C   UNL A   1      48.143  29.246  28.374  1.00  0.00     0.023 A 
ATOM     79  C   UNL A   1      49.103  28.988  29.372  1.00  0.00     0.012 A 
ATOM     80  C   UNL A   1      47.880  28.258  27.405  1.00  0.00     0.148 A 
ATOM     81  C   UNL A   1      49.816  27.789  29.383  1.00  0.00     0.002 A 
ATOM     82  C   UNL A   1      48.551  27.042  27.456  1.00  0.00     0.091 A 
ATOM     83  F   UNL A   1      46.968  28.523  26.459  1.00  0.00    -0.205 F 
ATOM     84  C   UNL A   1      49.534  26.813  28.431  1.00  0.00     0.022 A 
BRANCH  82  85
ATOM     85  S   UNL A   1      48.163  25.678  26.354  1.00  0.00     0.127 S 
ATOM     86  O   UNL A   1      48.920  26.033  25.158  1.00  0.00    -0.237 OA
ATOM     87  O   UNL A   1      48.685  24.531  27.098  1.00  0.00    -0.237 OA
ATOM     88  O   UNL A   1      46.712  25.688  26.210  1.00  0.00    -0.744 OA
ENDBRANCH  82  85
ENDBRANCH  54  78
BRANCH  66  89
ATOM     89  C   UNL A   1      49.763  35.654  26.122  1.00  0.00     0.023 A 
ATOM     90  C   UNL A   1      49.938  35.617  24.725  1.00  0.00     0.012 A 
ATOM     91  C   UNL A   1      50.722  36.307  26.923  1.00  0.00     0.148 A 
ATOM     92  C   UNL A   1      51.067  36.187  24.138  1.00  0.00     0.002 A 
ATOM     93  C   UNL A   1      51.815  36.920  26.326  1.00  0.00     0.091 A 
ATOM     94  F   UNL A   1      50.545  36.316  28.253  1.00  0.00    -0.205 F 
ATOM     95  C   UNL A   1      51.997  36.850  24.936  1.00  0.00     0.022 A 
BRANCH  93  96
ATOM     96  S   UNL A   1      53.008  37.883  27.264  1.00  0.00     0.127 S 
ATOM     97  O   UNL A   1      52.155  38.904  27.869  1.00  0.00    -0.237 OA
ATOM     98  O   UNL A   1      53.534  36.892  28.204  1.00  0.00    -0.237 OA
ATOM     99  O   UNL A   1      53.979  38.375  26.296  1.00  0.00    -0.744 OA
ENDBRANCH  93  96
ENDBRANCH  66  89
ENDBRANCH  40  41
ENDBRANCH  32  35
ENDBRANCH  30  31
ENDBRANCH  29  30
ENDBRANCH   1  29
TORSDOF 18
ENDMDL
