MODEL 1
REMARK VINA RESULT:     -12.1      0.000      0.000
REMARK SMILES C=C(C)COc1ccc2c(C)c(CC(=O)NCCCNC(=O)c3ccc(-c4c5nc(c(-c6cccc(S(=O)(=O)[O-])c6F)c6ccc([nH]6)c(-c6cccc(S(=O)(=O)[O-])c6F)c6nc(c(-c7cccc(S(=O)(=O)[O-])c7F)c7ccc4[nH]7)C=C6)C=C5)cc3)c(=O)oc2c1
REMARK SMILES IDX 17 1 16 2 14 3 15 4 13 6 12 7 6 8 7 9 90 10 8 11 89 12 9 13
REMARK SMILES IDX 88 14 10 15 86 16 11 17 87 18 5 19 4 20 2 21 1 22 3 23 18 24
REMARK SMILES IDX 19 25 20 26 21 27 22 29 23 30 24 31 85 32 25 33 84 34 26 35
REMARK SMILES IDX 27 36 28 37 78 38 29 39 83 40 77 41 79 42 30 43 82 44 76 45
REMARK SMILES IDX 75 46 31 48 63 49 43 50 62 51 44 52 47 53 61 54 80 55 45 56
REMARK SMILES IDX 46 57 60 59 81 60 48 61 32 62 33 63 41 64 34 65 36 66 42 67
REMARK SMILES IDX 35 68 37 69 38 70 39 71 40 72 64 73 65 74 73 75 66 76 68 77
REMARK SMILES IDX 74 78 67 79 69 80 70 81 71 82 72 83 49 84 50 85 58 86 51 87
REMARK SMILES IDX 53 88 59 89 52 90 54 91 55 92 56 93 57 94
REMARK H PARENT 16 5 20 28 79 47 47 58
REMARK Flexibility Score: inf
ROOT
ATOM      1  C   UNL A   1      31.805  29.992  26.033  1.00  0.00     0.117 C 
ENDROOT
BRANCH   1   2
ATOM      2  N   UNL A   1      31.244  29.616  24.747  1.00  0.00    -0.356 N 
ATOM      3  C   UNL A   1      31.831  29.025  23.670  1.00  0.00     0.224 C 
ATOM      4  O   UNL A   1      31.124  28.781  22.689  1.00  0.00    -0.275 OA
ATOM      5  H   UNL A   1      30.287  29.822  24.637  1.00  0.00     0.163 HD
BRANCH   3   6
ATOM      6  C   UNL A   1      33.305  28.639  23.687  1.00  0.00     0.143 C 
BRANCH   6   7
ATOM      7  C   UNL A   1      33.518  27.152  23.836  1.00  0.00     0.051 A 
ATOM      8  C   UNL A   1      33.578  22.187  24.748  1.00  0.00     0.123 A 
ATOM      9  C   UNL A   1      33.693  22.785  25.999  1.00  0.00     0.047 A 
ATOM     10  C   UNL A   1      33.457  22.986  23.624  1.00  0.00     0.094 A 
ATOM     11  C   UNL A   1      33.728  24.185  26.115  1.00  0.00     0.016 A 
ATOM     12  C   UNL A   1      33.531  24.368  23.748  1.00  0.00     0.142 A 
ATOM     13  C   UNL A   1      33.651  25.004  24.978  1.00  0.00     0.021 A 
ATOM     14  O   UNL A   1      33.482  25.076  22.543  1.00  0.00    -0.422 OA
ATOM     15  C   UNL A   1      33.600  26.480  25.007  1.00  0.00    -0.029 A 
ATOM     16  C   UNL A   1      33.637  26.441  22.533  1.00  0.00     0.340 A 
ATOM     17  C   UNL A   1      33.589  27.146  26.359  1.00  0.00     0.046 C 
ATOM     18  O   UNL A   1      33.809  27.047  21.479  1.00  0.00    -0.246 OA
BRANCH   8  19
ATOM     19  O   UNL A   1      33.470  20.826  24.691  1.00  0.00    -0.489 OA
BRANCH  19  20
ATOM     20  C   UNL A   1      32.601  20.330  23.657  1.00  0.00     0.260 C 
BRANCH  20  21
ATOM     21  C   UNL A   1      32.520  18.819  23.592  1.00  0.00    -0.043 C 
ATOM     22  C   UNL A   1      32.430  18.166  22.422  1.00  0.00     0.011 C 
ATOM     23  C   UNL A   1      32.574  18.089  24.901  1.00  0.00     0.042 C 
ENDBRANCH  20  21
ENDBRANCH  19  20
ENDBRANCH   8  19
ENDBRANCH   6   7
ENDBRANCH   3   6
ENDBRANCH   1   2
BRANCH   1  24
ATOM     24  C   UNL A   1      31.641  31.481  26.327  1.00  0.00     0.042 C 
BRANCH  24  25
ATOM     25  C   UNL A   1      32.859  32.131  26.984  1.00  0.00     0.118 C 
BRANCH  25  26
ATOM     26  N   UNL A   1      32.615  33.510  27.386  1.00  0.00    -0.352 N 
ATOM     27  C   UNL A   1      33.177  34.255  28.391  1.00  0.00     0.251 C 
ATOM     28  H   UNL A   1      31.938  33.984  26.850  1.00  0.00     0.163 HD
ATOM     29  O   UNL A   1      32.690  35.352  28.667  1.00  0.00    -0.269 OA
BRANCH  27  30
ATOM     30  C   UNL A   1      34.345  33.756  29.150  1.00  0.00     0.039 A 
ATOM     31  C   UNL A   1      34.131  32.850  30.194  1.00  0.00     0.014 A 
ATOM     32  C   UNL A   1      35.638  34.202  28.867  1.00  0.00     0.014 A 
ATOM     33  C   UNL A   1      35.219  32.348  30.913  1.00  0.00     0.010 A 
ATOM     34  C   UNL A   1      36.726  33.644  29.536  1.00  0.00     0.010 A 
ATOM     35  C   UNL A   1      36.530  32.714  30.568  1.00  0.00    -0.014 A 
BRANCH  35  36
ATOM     36  C   UNL A   1      37.705  32.123  31.262  1.00  0.00     0.031 A 
ATOM     37  C   UNL A   1      38.477  30.995  30.632  1.00  0.00     0.074 A 
ATOM     38  C   UNL A   1      38.024  32.546  32.501  1.00  0.00     0.049 A 
ATOM     39  N   UNL A   1      39.486  30.315  31.114  1.00  0.00    -0.248 NA
ATOM     40  C   UNL A   1      38.044  30.553  29.295  1.00  0.00     0.031 C 
ATOM     41  C   UNL A   1      37.308  33.581  33.252  1.00  0.00     0.029 A 
ATOM     42  N   UNL A   1      39.014  32.139  33.361  1.00  0.00    -0.354 N 
ATOM     43  C   UNL A   1      39.784  29.347  30.163  1.00  0.00     0.074 A 
ATOM     44  C   UNL A   1      38.829  29.505  29.088  1.00  0.00     0.031 C 
ATOM     45  C   UNL A   1      37.884  33.730  34.455  1.00  0.00     0.029 A 
ATOM     46  C   UNL A   1      38.987  32.782  34.577  1.00  0.00     0.049 A 
ATOM     47  H   UNL A   1      39.681  31.454  33.129  1.00  0.00     0.167 HD
ATOM     48  C   UNL A   1      40.778  28.427  30.169  1.00  0.00     0.034 A 
ATOM     49  C   UNL A   1      39.754  32.618  35.673  1.00  0.00     0.034 A 
ATOM     50  C   UNL A   1      41.750  28.296  31.223  1.00  0.00     0.049 A 
ATOM     51  C   UNL A   1      40.868  31.608  35.642  1.00  0.00     0.074 A 
ATOM     52  C   UNL A   1      42.846  27.454  31.282  1.00  0.00     0.029 A 
ATOM     53  N   UNL A   1      41.738  29.020  32.405  1.00  0.00    -0.354 N 
ATOM     54  N   UNL A   1      41.230  30.807  34.669  1.00  0.00    -0.248 NA
ATOM     55  C   UNL A   1      41.704  31.503  36.847  1.00  0.00     0.031 C 
ATOM     56  C   UNL A   1      43.480  27.647  32.514  1.00  0.00     0.029 A 
ATOM     57  C   UNL A   1      42.799  28.635  33.206  1.00  0.00     0.049 A 
ATOM     58  H   UNL A   1      41.073  29.706  32.641  1.00  0.00     0.167 HD
ATOM     59  C   UNL A   1      42.357  30.134  35.128  1.00  0.00     0.074 A 
ATOM     60  C   UNL A   1      42.627  30.635  36.460  1.00  0.00     0.031 C 
ATOM     61  C   UNL A   1      43.091  29.178  34.509  1.00  0.00     0.034 A 
BRANCH  48  62
ATOM     62  C   UNL A   1      40.898  27.514  28.975  1.00  0.00     0.023 A 
ATOM     63  C   UNL A   1      40.057  26.387  28.872  1.00  0.00     0.012 A 
ATOM     64  C   UNL A   1      41.796  27.802  27.928  1.00  0.00     0.148 A 
ATOM     65  C   UNL A   1      40.132  25.541  27.767  1.00  0.00     0.002 A 
ATOM     66  C   UNL A   1      41.831  26.981  26.807  1.00  0.00     0.091 A 
ATOM     67  F   UNL A   1      42.601  28.867  28.049  1.00  0.00    -0.205 F 
ATOM     68  C   UNL A   1      41.010  25.843  26.730  1.00  0.00     0.022 A 
BRANCH  66  69
ATOM     69  S   UNL A   1      42.868  27.329  25.381  1.00  0.00     0.127 S 
ATOM     70  O   UNL A   1      44.163  27.579  26.013  1.00  0.00    -0.237 OA
ATOM     71  O   UNL A   1      42.789  26.075  24.630  1.00  0.00    -0.237 OA
ATOM     72  O   UNL A   1      42.266  28.476  24.716  1.00  0.00    -0.744 OA
ENDBRANCH  66  69
ENDBRANCH  48  62
BRANCH  49  73
ATOM     73  C   UNL A   1      39.532  33.471  36.875  1.00  0.00     0.023 A 
ATOM     74  C   UNL A   1      40.019  34.793  36.884  1.00  0.00     0.012 A 
ATOM     75  C   UNL A   1      38.830  32.990  37.997  1.00  0.00     0.148 A 
ATOM     76  C   UNL A   1      39.842  35.609  38.002  1.00  0.00     0.002 A 
ATOM     77  C   UNL A   1      38.613  33.825  39.087  1.00  0.00     0.091 A 
ATOM     78  F   UNL A   1      38.375  31.730  37.967  1.00  0.00    -0.205 F 
ATOM     79  C   UNL A   1      39.133  35.129  39.099  1.00  0.00     0.022 A 
BRANCH  77  80
ATOM     80  S   UNL A   1      37.613  33.338  40.495  1.00  0.00     0.127 S 
ATOM     81  O   UNL A   1      37.659  34.540  41.328  1.00  0.00    -0.237 OA
ATOM     82  O   UNL A   1      36.319  33.076  39.862  1.00  0.00    -0.237 OA
ATOM     83  O   UNL A   1      38.263  32.166  41.055  1.00  0.00    -0.744 OA
ENDBRANCH  77  80
ENDBRANCH  49  73
BRANCH  61  84
ATOM     84  C   UNL A   1      44.292  28.635  35.238  1.00  0.00     0.023 A 
ATOM     85  C   UNL A   1      45.566  29.196  35.017  1.00  0.00     0.012 A 
ATOM     86  C   UNL A   1      44.145  27.614  36.197  1.00  0.00     0.148 A 
ATOM     87  C   UNL A   1      46.679  28.727  35.713  1.00  0.00     0.002 A 
ATOM     88  C   UNL A   1      45.249  27.187  36.925  1.00  0.00     0.091 A 
ATOM     89  F   UNL A   1      42.929  27.079  36.381  1.00  0.00    -0.205 F 
ATOM     90  C   UNL A   1      46.518  27.732  36.675  1.00  0.00     0.022 A 
BRANCH  88  91
ATOM     91  S   UNL A   1      45.121  25.983  38.252  1.00  0.00     0.127 S 
ATOM     92  O   UNL A   1      46.427  26.110  38.896  1.00  0.00    -0.237 OA
ATOM     93  O   UNL A   1      44.001  26.503  39.036  1.00  0.00    -0.237 OA
ATOM     94  O   UNL A   1      44.865  24.700  37.609  1.00  0.00    -0.744 OA
ENDBRANCH  88  91
ENDBRANCH  61  84
ENDBRANCH  35  36
ENDBRANCH  27  30
ENDBRANCH  25  26
ENDBRANCH  24  25
ENDBRANCH   1  24
TORSDOF 17
ENDMDL
MODEL 2
REMARK VINA RESULT:     -12.0      5.772      9.098
REMARK SMILES C=C(C)COc1ccc2c(C)c(CC(=O)NCCCNC(=O)c3ccc(-c4c5nc(c(-c6cccc(S(=O)(=O)[O-])c6F)c6ccc([nH]6)c(-c6cccc(S(=O)(=O)[O-])c6F)c6nc(c(-c7cccc(S(=O)(=O)[O-])c7F)c7ccc4[nH]7)C=C6)C=C5)cc3)c(=O)oc2c1
REMARK SMILES IDX 17 1 16 2 14 3 15 4 13 6 12 7 6 8 7 9 90 10 8 11 89 12 9 13
REMARK SMILES IDX 88 14 10 15 86 16 11 17 87 18 5 19 4 20 2 21 1 22 3 23 18 24
REMARK SMILES IDX 19 25 20 26 21 27 22 29 23 30 24 31 85 32 25 33 84 34 26 35
REMARK SMILES IDX 27 36 28 37 78 38 29 39 83 40 77 41 79 42 30 43 82 44 76 45
REMARK SMILES IDX 75 46 31 48 63 49 43 50 62 51 44 52 47 53 61 54 80 55 45 56
REMARK SMILES IDX 46 57 60 59 81 60 48 61 32 62 33 63 41 64 34 65 36 66 42 67
REMARK SMILES IDX 35 68 37 69 38 70 39 71 40 72 64 73 65 74 73 75 66 76 68 77
REMARK SMILES IDX 74 78 67 79 69 80 70 81 71 82 72 83 49 84 50 85 58 86 51 87
REMARK SMILES IDX 53 88 59 89 52 90 54 91 55 92 56 93 57 94
REMARK H PARENT 16 5 20 28 79 47 47 58
REMARK Flexibility Score: inf
ROOT
ATOM      1  C   UNL A   1      35.270  21.646  24.524  1.00  0.00     0.117 C 
ENDROOT
BRANCH   1   2
ATOM      2  N   UNL A   1      33.921  21.129  24.677  1.00  0.00    -0.356 N 
ATOM      3  C   UNL A   1      32.954  21.449  25.581  1.00  0.00     0.224 C 
ATOM      4  O   UNL A   1      31.864  20.881  25.485  1.00  0.00    -0.275 OA
ATOM      5  H   UNL A   1      33.666  20.438  24.023  1.00  0.00     0.163 HD
BRANCH   3   6
ATOM      6  C   UNL A   1      33.194  22.505  26.653  1.00  0.00     0.143 C 
BRANCH   6   7
ATOM      7  C   UNL A   1      32.691  23.871  26.251  1.00  0.00     0.051 A 
ATOM      8  C   UNL A   1      31.269  28.261  24.203  1.00  0.00     0.123 A 
ATOM      9  C   UNL A   1      32.655  28.241  24.088  1.00  0.00     0.047 A 
ATOM     10  C   UNL A   1      30.621  27.177  24.773  1.00  0.00     0.094 A 
ATOM     11  C   UNL A   1      33.392  27.150  24.582  1.00  0.00     0.016 A 
ATOM     12  C   UNL A   1      31.363  26.123  25.291  1.00  0.00     0.142 A 
ATOM     13  C   UNL A   1      32.750  26.068  25.201  1.00  0.00     0.021 A 
ATOM     14  O   UNL A   1      30.616  25.122  25.918  1.00  0.00    -0.422 OA
ATOM     15  C   UNL A   1      33.431  24.847  25.678  1.00  0.00    -0.029 A 
ATOM     16  C   UNL A   1      31.246  24.076  26.548  1.00  0.00     0.340 A 
ATOM     17  C   UNL A   1      34.915  24.745  25.443  1.00  0.00     0.046 C 
ATOM     18  O   UNL A   1      30.620  23.312  27.277  1.00  0.00    -0.246 OA
BRANCH   8  19
ATOM     19  O   UNL A   1      30.590  29.303  23.639  1.00  0.00    -0.489 OA
BRANCH  19  20
ATOM     20  C   UNL A   1      29.744  28.947  22.531  1.00  0.00     0.260 C 
BRANCH  20  21
ATOM     21  C   UNL A   1      28.474  29.767  22.436  1.00  0.00    -0.043 C 
ATOM     22  C   UNL A   1      27.337  29.379  23.034  1.00  0.00     0.011 C 
ATOM     23  C   UNL A   1      28.562  31.050  21.663  1.00  0.00     0.042 C 
ENDBRANCH  20  21
ENDBRANCH  19  20
ENDBRANCH   8  19
ENDBRANCH   6   7
ENDBRANCH   3   6
ENDBRANCH   1   2
BRANCH   1  24
ATOM     24  C   UNL A   1      36.306  20.790  25.250  1.00  0.00     0.042 C 
BRANCH  24  25
ATOM     25  C   UNL A   1      37.673  21.457  25.409  1.00  0.00     0.118 C 
BRANCH  25  26
ATOM     26  N   UNL A   1      38.689  20.547  25.923  1.00  0.00    -0.352 N 
ATOM     27  C   UNL A   1      39.914  20.807  26.481  1.00  0.00     0.251 C 
ATOM     28  H   UNL A   1      38.459  19.592  25.858  1.00  0.00     0.163 HD
ATOM     29  O   UNL A   1      40.691  19.873  26.683  1.00  0.00    -0.269 OA
BRANCH  27  30
ATOM     30  C   UNL A   1      40.316  22.188  26.830  1.00  0.00     0.039 A 
ATOM     31  C   UNL A   1      41.246  22.377  27.857  1.00  0.00     0.014 A 
ATOM     32  C   UNL A   1      39.758  23.292  26.183  1.00  0.00     0.014 A 
ATOM     33  C   UNL A   1      41.658  23.670  28.193  1.00  0.00     0.010 A 
ATOM     34  C   UNL A   1      40.225  24.574  26.468  1.00  0.00     0.010 A 
ATOM     35  C   UNL A   1      41.177  24.778  27.478  1.00  0.00    -0.014 A 
BRANCH  35  36
ATOM     36  C   UNL A   1      41.670  26.152  27.760  1.00  0.00     0.031 A 
ATOM     37  C   UNL A   1      43.078  26.549  27.402  1.00  0.00     0.074 A 
ATOM     38  C   UNL A   1      40.875  27.019  28.419  1.00  0.00     0.049 A 
ATOM     39  N   UNL A   1      43.699  27.677  27.627  1.00  0.00    -0.248 NA
ATOM     40  C   UNL A   1      43.905  25.536  26.724  1.00  0.00     0.031 C 
ATOM     41  C   UNL A   1      39.517  26.732  28.888  1.00  0.00     0.029 A 
ATOM     42  N   UNL A   1      41.103  28.308  28.836  1.00  0.00    -0.354 N 
ATOM     43  C   UNL A   1      44.995  27.500  27.155  1.00  0.00     0.074 A 
ATOM     44  C   UNL A   1      45.080  26.144  26.659  1.00  0.00     0.031 C 
ATOM     45  C   UNL A   1      39.033  27.811  29.522  1.00  0.00     0.029 A 
ATOM     46  C   UNL A   1      40.054  28.855  29.536  1.00  0.00     0.049 A 
ATOM     47  H   UNL A   1      41.939  28.794  28.650  1.00  0.00     0.167 HD
ATOM     48  C   UNL A   1      46.014  28.392  27.113  1.00  0.00     0.034 A 
ATOM     49  C   UNL A   1      39.929  30.056  30.134  1.00  0.00     0.034 A 
ATOM     50  C   UNL A   1      45.914  29.753  27.573  1.00  0.00     0.049 A 
ATOM     51  C   UNL A   1      41.066  31.037  30.048  1.00  0.00     0.074 A 
ATOM     52  C   UNL A   1      46.862  30.758  27.495  1.00  0.00     0.029 A 
ATOM     53  N   UNL A   1      44.807  30.296  28.206  1.00  0.00    -0.354 N 
ATOM     54  N   UNL A   1      42.230  30.903  29.460  1.00  0.00    -0.248 NA
ATOM     55  C   UNL A   1      40.860  32.350  30.677  1.00  0.00     0.031 C 
ATOM     56  C   UNL A   1      46.338  31.901  28.108  1.00  0.00     0.029 A 
ATOM     57  C   UNL A   1      45.050  31.618  28.535  1.00  0.00     0.049 A 
ATOM     58  H   UNL A   1      43.970  29.812  28.393  1.00  0.00     0.167 HD
ATOM     59  C   UNL A   1      42.878  32.124  29.612  1.00  0.00     0.074 A 
ATOM     60  C   UNL A   1      41.969  32.991  30.332  1.00  0.00     0.031 C 
ATOM     61  C   UNL A   1      44.118  32.489  29.205  1.00  0.00     0.034 A 
BRANCH  48  62
ATOM     62  C   UNL A   1      47.317  27.942  26.505  1.00  0.00     0.023 A 
ATOM     63  C   UNL A   1      48.356  27.485  27.342  1.00  0.00     0.012 A 
ATOM     64  C   UNL A   1      47.495  27.911  25.107  1.00  0.00     0.148 A 
ATOM     65  C   UNL A   1      49.562  27.041  26.802  1.00  0.00     0.002 A 
ATOM     66  C   UNL A   1      48.681  27.421  24.575  1.00  0.00     0.091 A 
ATOM     67  F   UNL A   1      46.504  28.365  24.326  1.00  0.00    -0.205 F 
ATOM     68  C   UNL A   1      49.721  26.999  25.420  1.00  0.00     0.022 A 
BRANCH  66  69
ATOM     69  S   UNL A   1      48.954  27.250  22.807  1.00  0.00     0.127 S 
ATOM     70  O   UNL A   1      48.285  28.442  22.289  1.00  0.00    -0.237 OA
ATOM     71  O   UNL A   1      50.414  27.283  22.716  1.00  0.00    -0.237 OA
ATOM     72  O   UNL A   1      48.349  25.981  22.428  1.00  0.00    -0.744 OA
ENDBRANCH  66  69
ENDBRANCH  48  62
BRANCH  49  73
ATOM     73  C   UNL A   1      38.658  30.422  30.819  1.00  0.00     0.023 A 
ATOM     74  C   UNL A   1      38.478  30.074  32.173  1.00  0.00     0.012 A 
ATOM     75  C   UNL A   1      37.638  31.123  30.149  1.00  0.00     0.148 A 
ATOM     76  C   UNL A   1      37.290  30.388  32.836  1.00  0.00     0.002 A 
ATOM     77  C   UNL A   1      36.478  31.477  30.830  1.00  0.00     0.091 A 
ATOM     78  F   UNL A   1      37.830  31.444  28.862  1.00  0.00    -0.205 F 
ATOM     79  C   UNL A   1      36.296  31.095  32.168  1.00  0.00     0.022 A 
BRANCH  77  80
ATOM     80  S   UNL A   1      35.193  32.488  30.092  1.00  0.00     0.127 S 
ATOM     81  O   UNL A   1      34.232  32.602  31.188  1.00  0.00    -0.237 OA
ATOM     82  O   UNL A   1      35.925  33.718  29.784  1.00  0.00    -0.237 OA
ATOM     83  O   UNL A   1      34.728  31.751  28.930  1.00  0.00    -0.744 OA
ENDBRANCH  77  80
ENDBRANCH  49  73
BRANCH  61  84
ATOM     84  C   UNL A   1      44.559  33.902  29.483  1.00  0.00     0.023 A 
ATOM     85  C   UNL A   1      45.290  34.196  30.651  1.00  0.00     0.012 A 
ATOM     86  C   UNL A   1      44.309  34.927  28.549  1.00  0.00     0.148 A 
ATOM     87  C   UNL A   1      45.736  35.493  30.901  1.00  0.00     0.002 A 
ATOM     88  C   UNL A   1      44.801  36.206  28.779  1.00  0.00     0.091 A 
ATOM     89  F   UNL A   1      43.596  34.632  27.452  1.00  0.00    -0.205 F 
ATOM     90  C   UNL A   1      45.503  36.494  29.960  1.00  0.00     0.022 A 
BRANCH  88  91
ATOM     91  S   UNL A   1      44.636  37.532  27.579  1.00  0.00     0.127 S 
ATOM     92  O   UNL A   1      44.742  38.717  28.430  1.00  0.00    -0.237 OA
ATOM     93  O   UNL A   1      45.787  37.305  26.705  1.00  0.00    -0.237 OA
ATOM     94  O   UNL A   1      43.342  37.337  26.938  1.00  0.00    -0.744 OA
ENDBRANCH  88  91
ENDBRANCH  61  84
ENDBRANCH  35  36
ENDBRANCH  27  30
ENDBRANCH  25  26
ENDBRANCH  24  25
ENDBRANCH   1  24
TORSDOF 17
ENDMDL
MODEL 3
REMARK VINA RESULT:     -11.9      6.062     11.315
REMARK SMILES C=C(C)COc1ccc2c(C)c(CC(=O)NCCCNC(=O)c3ccc(-c4c5nc(c(-c6cccc(S(=O)(=O)[O-])c6F)c6ccc([nH]6)c(-c6cccc(S(=O)(=O)[O-])c6F)c6nc(c(-c7cccc(S(=O)(=O)[O-])c7F)c7ccc4[nH]7)C=C6)C=C5)cc3)c(=O)oc2c1
REMARK SMILES IDX 17 1 16 2 14 3 15 4 13 6 12 7 6 8 7 9 90 10 8 11 89 12 9 13
REMARK SMILES IDX 88 14 10 15 86 16 11 17 87 18 5 19 4 20 2 21 1 22 3 23 18 24
REMARK SMILES IDX 19 25 20 26 21 27 22 29 23 30 24 31 85 32 25 33 84 34 26 35
REMARK SMILES IDX 27 36 28 37 78 38 29 39 83 40 77 41 79 42 30 43 82 44 76 45
REMARK SMILES IDX 75 46 31 48 63 49 43 50 62 51 44 52 47 53 61 54 80 55 45 56
REMARK SMILES IDX 46 57 60 59 81 60 48 61 32 62 33 63 41 64 34 65 36 66 42 67
REMARK SMILES IDX 35 68 37 69 38 70 39 71 40 72 64 73 65 74 73 75 66 76 68 77
REMARK SMILES IDX 74 78 67 79 69 80 70 81 71 82 72 83 49 84 50 85 58 86 51 87
REMARK SMILES IDX 53 88 59 89 52 90 54 91 55 92 56 93 57 94
REMARK H PARENT 16 5 20 28 79 47 47 58
REMARK Flexibility Score: inf
ROOT
ATOM      1  C   UNL A   1      35.708  20.664  24.950  1.00  0.00     0.117 C 
ENDROOT
BRANCH   1   2
ATOM      2  N   UNL A   1      35.566  21.348  26.223  1.00  0.00    -0.356 N 
ATOM      3  C   UNL A   1      34.520  22.058  26.729  1.00  0.00     0.224 C 
ATOM      4  O   UNL A   1      34.635  22.528  27.863  1.00  0.00    -0.275 OA
ATOM      5  H   UNL A   1      36.351  21.288  26.815  1.00  0.00     0.163 HD
BRANCH   3   6
ATOM      6  C   UNL A   1      33.231  22.236  25.936  1.00  0.00     0.143 C 
BRANCH   6   7
ATOM      7  C   UNL A   1      32.830  23.684  25.789  1.00  0.00     0.051 A 
ATOM      8  C   UNL A   1      31.383  28.359  24.550  1.00  0.00     0.123 A 
ATOM      9  C   UNL A   1      32.555  28.142  23.833  1.00  0.00     0.047 A 
ATOM     10  C   UNL A   1      30.885  27.349  25.356  1.00  0.00     0.094 A 
ATOM     11  C   UNL A   1      33.248  26.925  23.958  1.00  0.00     0.016 A 
ATOM     12  C   UNL A   1      31.598  26.165  25.499  1.00  0.00     0.142 A 
ATOM     13  C   UNL A   1      32.776  25.912  24.805  1.00  0.00     0.021 A 
ATOM     14  O   UNL A   1      31.050  25.247  26.400  1.00  0.00    -0.422 OA
ATOM     15  C   UNL A   1      33.390  24.575  24.940  1.00  0.00    -0.029 A 
ATOM     16  C   UNL A   1      31.715  24.081  26.693  1.00  0.00     0.340 A 
ATOM     17  C   UNL A   1      34.584  24.271  24.073  1.00  0.00     0.046 C 
ATOM     18  O   UNL A   1      31.358  23.372  27.629  1.00  0.00    -0.246 OA
BRANCH   8  19
ATOM     19  O   UNL A   1      30.703  29.525  24.338  1.00  0.00    -0.489 OA
BRANCH  19  20
ATOM     20  C   UNL A   1      30.021  29.607  23.073  1.00  0.00     0.260 C 
BRANCH  20  21
ATOM     21  C   UNL A   1      28.580  30.064  23.178  1.00  0.00    -0.043 C 
ATOM     22  C   UNL A   1      27.557  29.238  22.908  1.00  0.00     0.011 C 
ATOM     23  C   UNL A   1      28.356  31.478  23.627  1.00  0.00     0.042 C 
ENDBRANCH  20  21
ENDBRANCH  19  20
ENDBRANCH   8  19
ENDBRANCH   6   7
ENDBRANCH   3   6
ENDBRANCH   1   2
BRANCH   1  24
ATOM     24  C   UNL A   1      37.080  20.014  24.789  1.00  0.00     0.042 C 
BRANCH  24  25
ATOM     25  C   UNL A   1      38.201  20.713  25.557  1.00  0.00     0.118 C 
BRANCH  25  26
ATOM     26  N   UNL A   1      39.298  19.815  25.897  1.00  0.00    -0.352 N 
ATOM     27  C   UNL A   1      40.580  20.091  26.300  1.00  0.00     0.251 C 
ATOM     28  H   UNL A   1      39.085  18.856  25.825  1.00  0.00     0.163 HD
ATOM     29  O   UNL A   1      41.399  19.173  26.362  1.00  0.00    -0.269 OA
BRANCH  27  30
ATOM     30  C   UNL A   1      40.991  21.468  26.649  1.00  0.00     0.039 A 
ATOM     31  C   UNL A   1      41.526  21.709  27.918  1.00  0.00     0.014 A 
ATOM     32  C   UNL A   1      40.817  22.526  25.753  1.00  0.00     0.014 A 
ATOM     33  C   UNL A   1      41.941  22.998  28.265  1.00  0.00     0.010 A 
ATOM     34  C   UNL A   1      41.300  23.794  26.074  1.00  0.00     0.010 A 
ATOM     35  C   UNL A   1      41.863  24.046  27.333  1.00  0.00    -0.014 A 
BRANCH  35  36
ATOM     36  C   UNL A   1      42.381  25.402  27.652  1.00  0.00     0.031 A 
ATOM     37  C   UNL A   1      41.497  26.421  28.320  1.00  0.00     0.074 A 
ATOM     38  C   UNL A   1      43.625  25.745  27.262  1.00  0.00     0.049 A 
ATOM     39  N   UNL A   1      41.755  27.669  28.617  1.00  0.00    -0.248 NA
ATOM     40  C   UNL A   1      40.134  25.991  28.678  1.00  0.00     0.031 C 
ATOM     41  C   UNL A   1      44.556  24.873  26.540  1.00  0.00     0.029 A 
ATOM     42  N   UNL A   1      44.313  26.927  27.389  1.00  0.00    -0.354 N 
ATOM     43  C   UNL A   1      40.583  28.182  29.160  1.00  0.00     0.074 A 
ATOM     44  C   UNL A   1      39.602  27.120  29.123  1.00  0.00     0.031 C 
ATOM     45  C   UNL A   1      45.690  25.546  26.294  1.00  0.00     0.029 A 
ATOM     46  C   UNL A   1      45.559  26.906  26.807  1.00  0.00     0.049 A 
ATOM     47  H   UNL A   1      43.948  27.714  27.855  1.00  0.00     0.167 HD
ATOM     48  C   UNL A   1      40.351  29.416  29.669  1.00  0.00     0.034 A 
ATOM     49  C   UNL A   1      46.487  27.875  26.688  1.00  0.00     0.034 A 
ATOM     50  C   UNL A   1      41.341  30.459  29.739  1.00  0.00     0.049 A 
ATOM     51  C   UNL A   1      46.214  29.228  27.287  1.00  0.00     0.074 A 
ATOM     52  C   UNL A   1      41.229  31.713  30.313  1.00  0.00     0.029 A 
ATOM     53  N   UNL A   1      42.620  30.375  29.210  1.00  0.00    -0.354 N 
ATOM     54  N   UNL A   1      45.154  29.645  27.935  1.00  0.00    -0.248 NA
ATOM     55  C   UNL A   1      47.280  30.234  27.169  1.00  0.00     0.031 C 
ATOM     56  C   UNL A   1      42.431  32.398  30.105  1.00  0.00     0.029 A 
ATOM     57  C   UNL A   1      43.304  31.557  29.433  1.00  0.00     0.049 A 
ATOM     58  H   UNL A   1      42.987  29.589  28.744  1.00  0.00     0.167 HD
ATOM     59  C   UNL A   1      45.439  30.945  28.337  1.00  0.00     0.074 A 
ATOM     60  C   UNL A   1      46.780  31.239  27.874  1.00  0.00     0.031 C 
ATOM     61  C   UNL A   1      44.657  31.820  29.015  1.00  0.00     0.034 A 
BRANCH  48  62
ATOM     62  C   UNL A   1      38.984  29.696  30.237  1.00  0.00     0.023 A 
ATOM     63  C   UNL A   1      38.661  29.245  31.534  1.00  0.00     0.012 A 
ATOM     64  C   UNL A   1      38.040  30.457  29.518  1.00  0.00     0.148 A 
ATOM     65  C   UNL A   1      37.411  29.512  32.090  1.00  0.00     0.002 A 
ATOM     66  C   UNL A   1      36.814  30.760  30.099  1.00  0.00     0.091 A 
ATOM     67  F   UNL A   1      38.355  30.863  28.280  1.00  0.00    -0.205 F 
ATOM     68  C   UNL A   1      36.492  30.278  31.379  1.00  0.00     0.022 A 
BRANCH  66  69
ATOM     69  S   UNL A   1      35.594  31.808  29.298  1.00  0.00     0.127 S 
ATOM     70  O   UNL A   1      34.670  32.079  30.399  1.00  0.00    -0.237 OA
ATOM     71  O   UNL A   1      36.400  32.957  28.884  1.00  0.00    -0.237 OA
ATOM     72  O   UNL A   1      35.046  31.022  28.202  1.00  0.00    -0.744 OA
ENDBRANCH  66  69
ENDBRANCH  48  62
BRANCH  49  73
ATOM     73  C   UNL A   1      47.789  27.585  26.022  1.00  0.00     0.023 A 
ATOM     74  C   UNL A   1      48.894  27.200  26.805  1.00  0.00     0.012 A 
ATOM     75  C   UNL A   1      47.933  27.672  24.624  1.00  0.00     0.148 A 
ATOM     76  C   UNL A   1      50.130  26.940  26.212  1.00  0.00     0.002 A 
ATOM     77  C   UNL A   1      49.154  27.362  24.035  1.00  0.00     0.091 A 
ATOM     78  F   UNL A   1      46.869  28.041  23.899  1.00  0.00    -0.205 F 
ATOM     79  C   UNL A   1      50.258  27.013  24.828  1.00  0.00     0.022 A 
BRANCH  77  80
ATOM     80  S   UNL A   1      49.385  27.314  22.256  1.00  0.00     0.127 S 
ATOM     81  O   UNL A   1      50.835  27.155  22.144  1.00  0.00    -0.237 OA
ATOM     82  O   UNL A   1      48.606  26.130  21.890  1.00  0.00    -0.237 OA
ATOM     83  O   UNL A   1      48.854  28.569  21.754  1.00  0.00    -0.744 OA
ENDBRANCH  77  80
ENDBRANCH  49  73
BRANCH  61  84
ATOM     84  C   UNL A   1      45.239  33.170  29.345  1.00  0.00     0.023 A 
ATOM     85  C   UNL A   1      45.969  33.352  30.537  1.00  0.00     0.012 A 
ATOM     86  C   UNL A   1      45.123  34.241  28.437  1.00  0.00     0.148 A 
ATOM     87  C   UNL A   1      46.544  34.586  30.835  1.00  0.00     0.002 A 
ATOM     88  C   UNL A   1      45.742  35.453  28.716  1.00  0.00     0.091 A 
ATOM     89  F   UNL A   1      44.409  34.055  27.317  1.00  0.00    -0.205 F 
ATOM     90  C   UNL A   1      46.441  35.632  29.920  1.00  0.00     0.022 A 
BRANCH  88  91
ATOM     91  S   UNL A   1      45.748  36.823  27.554  1.00  0.00     0.127 S 
ATOM     92  O   UNL A   1      46.509  37.832  28.288  1.00  0.00    -0.237 OA
ATOM     93  O   UNL A   1      46.447  36.249  26.403  1.00  0.00    -0.237 OA
ATOM     94  O   UNL A   1      44.349  37.150  27.310  1.00  0.00    -0.744 OA
ENDBRANCH  88  91
ENDBRANCH  61  84
ENDBRANCH  35  36
ENDBRANCH  27  30
ENDBRANCH  25  26
ENDBRANCH  24  25
ENDBRANCH   1  24
TORSDOF 17
ENDMDL
