MODEL 1
REMARK VINA RESULT:     -11.1      0.000      0.000
REMARK SMILES C[C@](NC(=O)CSCc1cccs1)(C(=O)NCCCNC(=O)c1ccc(-c2c3nc(c(-c4cccc(S(=O)(=O)[O-])c4F)c4ccc([nH]4)c(-c4cccc(S(=O)(=O)[O-])c4F)c4nc(c(-c5cccc(S(=O)(=O)[O-])c5F)c5ccc2[nH]5)C=C4)C=C3)cc1)C(F)(F)F
REMARK SMILES IDX 17 1 16 2 14 3 15 4 2 6 1 7 86 8 87 9 88 10 89 11 3 12 4 13
REMARK SMILES IDX 5 15 6 16 7 17 8 18 9 19 10 20 13 21 11 22 12 23 18 24 19 25
REMARK SMILES IDX 20 26 21 27 22 29 23 30 24 31 85 32 25 33 84 34 26 35 27 36
REMARK SMILES IDX 28 37 78 38 29 39 83 40 77 41 79 42 30 43 82 44 76 45 75 46
REMARK SMILES IDX 31 48 63 49 43 50 62 51 44 52 47 53 61 54 80 55 45 56 46 57
REMARK SMILES IDX 60 59 81 60 48 61 32 62 33 63 41 64 34 65 36 66 42 67 35 68
REMARK SMILES IDX 37 69 38 70 39 71 40 72 64 73 65 74 73 75 66 76 68 77 74 78
REMARK SMILES IDX 67 79 69 80 70 81 71 82 72 83 49 84 50 85 58 86 51 87 53 88
REMARK SMILES IDX 59 89 52 90 54 91 55 92 56 93 57 94
REMARK H PARENT 16 5 3 14 20 28 79 47 47 58
REMARK Flexibility Score: inf
ROOT
ATOM      1  C   UNL A   1      31.009  27.103  25.950  1.00  0.00     0.117 C 
ENDROOT
BRANCH   1   2
ATOM      2  N   UNL A   1      31.183  27.177  24.524  1.00  0.00    -0.354 N 
ATOM      3  C   UNL A   1      31.596  26.197  23.668  1.00  0.00     0.254 C 
ATOM      4  O   UNL A   1      31.130  26.276  22.528  1.00  0.00    -0.272 OA
ATOM      5  H   UNL A   1      30.976  28.047  24.111  1.00  0.00     0.163 HD
BRANCH   3   6
ATOM      6  C   UNL A   1      32.459  24.987  24.137  1.00  0.00     0.212 C 
ATOM      7  C   UNL A   1      32.483  23.914  23.054  1.00  0.00     0.056 C 
BRANCH   6   8
ATOM      8  C   UNL A   1      33.882  25.603  24.242  1.00  0.00     0.420 C 
ATOM      9  F   UNL A   1      34.011  26.696  23.453  1.00  0.00    -0.168 F 
ATOM     10  F   UNL A   1      34.129  26.010  25.513  1.00  0.00    -0.168 F 
ATOM     11  F   UNL A   1      34.872  24.739  23.926  1.00  0.00    -0.168 F 
ENDBRANCH   6   8
BRANCH   6  12
ATOM     12  N   UNL A   1      31.975  24.514  25.492  1.00  0.00    -0.334 N 
ATOM     13  C   UNL A   1      32.201  23.538  26.406  1.00  0.00     0.231 C 
ATOM     14  H   UNL A   1      31.263  25.111  25.815  1.00  0.00     0.164 HD
ATOM     15  O   UNL A   1      31.324  23.457  27.276  1.00  0.00    -0.274 OA
BRANCH  13  16
ATOM     16  C   UNL A   1      33.432  22.662  26.534  1.00  0.00     0.169 C 
BRANCH  16  17
ATOM     17  S   UNL A   1      33.899  21.557  25.174  1.00  0.00    -0.146 SA
BRANCH  17  18
ATOM     18  C   UNL A   1      33.295  19.911  25.642  1.00  0.00     0.116 C 
BRANCH  18  19
ATOM     19  C   UNL A   1      33.292  18.807  24.642  1.00  0.00     0.014 A 
ATOM     20  C   UNL A   1      32.440  18.666  23.560  1.00  0.00     0.016 A 
ATOM     21  S   UNL A   1      34.552  17.648  24.591  1.00  0.00    -0.148 S 
ATOM     22  C   UNL A   1      32.847  17.631  22.671  1.00  0.00     0.012 A 
ATOM     23  C   UNL A   1      33.985  16.998  23.113  1.00  0.00     0.065 A 
ENDBRANCH  18  19
ENDBRANCH  17  18
ENDBRANCH  16  17
ENDBRANCH  13  16
ENDBRANCH   6  12
ENDBRANCH   3   6
ENDBRANCH   1   2
BRANCH   1  24
ATOM     24  C   UNL A   1      31.840  28.117  26.723  1.00  0.00     0.042 C 
BRANCH  24  25
ATOM     25  C   UNL A   1      32.540  29.140  25.838  1.00  0.00     0.118 C 
BRANCH  25  26
ATOM     26  N   UNL A   1      32.194  30.527  26.141  1.00  0.00    -0.352 N 
ATOM     27  C   UNL A   1      32.801  31.462  26.944  1.00  0.00     0.251 C 
ATOM     28  H   UNL A   1      31.381  30.849  25.690  1.00  0.00     0.163 HD
ATOM     29  O   UNL A   1      32.242  32.540  27.111  1.00  0.00    -0.269 OA
BRANCH  27  30
ATOM     30  C   UNL A   1      34.095  31.177  27.605  1.00  0.00     0.039 A 
ATOM     31  C   UNL A   1      35.019  32.214  27.764  1.00  0.00     0.014 A 
ATOM     32  C   UNL A   1      34.411  29.894  28.047  1.00  0.00     0.014 A 
ATOM     33  C   UNL A   1      36.231  31.970  28.417  1.00  0.00     0.010 A 
ATOM     34  C   UNL A   1      35.554  29.683  28.805  1.00  0.00     0.010 A 
ATOM     35  C   UNL A   1      36.491  30.709  28.975  1.00  0.00    -0.014 A 
BRANCH  35  36
ATOM     36  C   UNL A   1      37.739  30.415  29.722  1.00  0.00     0.031 A 
ATOM     37  C   UNL A   1      38.771  29.492  29.125  1.00  0.00     0.074 A 
ATOM     38  C   UNL A   1      37.887  30.878  30.979  1.00  0.00     0.049 A 
ATOM     39  N   UNL A   1      39.865  29.019  29.661  1.00  0.00    -0.248 NA
ATOM     40  C   UNL A   1      38.516  28.998  27.759  1.00  0.00     0.031 C 
ATOM     41  C   UNL A   1      36.913  31.702  31.699  1.00  0.00     0.029 A 
ATOM     42  N   UNL A   1      38.899  30.693  31.886  1.00  0.00    -0.354 N 
ATOM     43  C   UNL A   1      40.397  28.139  28.725  1.00  0.00     0.074 A 
ATOM     44  C   UNL A   1      39.483  28.106  27.606  1.00  0.00     0.031 C 
ATOM     45  C   UNL A   1      37.380  31.959  32.931  1.00  0.00     0.029 A 
ATOM     46  C   UNL A   1      38.665  31.292  33.102  1.00  0.00     0.049 A 
ATOM     47  H   UNL A   1      39.715  30.181  31.685  1.00  0.00     0.167 HD
ATOM     48  C   UNL A   1      41.560  27.447  28.775  1.00  0.00     0.034 A 
ATOM     49  C   UNL A   1      39.400  31.291  34.230  1.00  0.00     0.034 A 
ATOM     50  C   UNL A   1      42.490  27.529  29.867  1.00  0.00     0.049 A 
ATOM     51  C   UNL A   1      40.718  30.565  34.237  1.00  0.00     0.074 A 
ATOM     52  C   UNL A   1      43.742  26.952  29.977  1.00  0.00     0.029 A 
ATOM     53  N   UNL A   1      42.268  28.233  31.041  1.00  0.00    -0.354 N 
ATOM     54  N   UNL A   1      41.279  29.864  33.282  1.00  0.00    -0.248 NA
ATOM     55  C   UNL A   1      41.521  30.662  35.463  1.00  0.00     0.031 C 
ATOM     56  C   UNL A   1      44.264  27.282  31.232  1.00  0.00     0.029 A 
ATOM     57  C   UNL A   1      43.355  28.098  31.886  1.00  0.00     0.049 A 
ATOM     58  H   UNL A   1      41.455  28.751  31.243  1.00  0.00     0.167 HD
ATOM     59  C   UNL A   1      42.518  29.470  33.775  1.00  0.00     0.074 A 
ATOM     60  C   UNL A   1      42.632  30.030  35.106  1.00  0.00     0.031 C 
ATOM     61  C   UNL A   1      43.470  28.704  33.187  1.00  0.00     0.034 A 
BRANCH  48  62
ATOM     62  C   UNL A   1      41.915  26.584  27.590  1.00  0.00     0.023 A 
ATOM     63  C   UNL A   1      42.604  27.146  26.495  1.00  0.00     0.012 A 
ATOM     64  C   UNL A   1      41.612  25.208  27.579  1.00  0.00     0.148 A 
ATOM     65  C   UNL A   1      42.946  26.366  25.391  1.00  0.00     0.002 A 
ATOM     66  C   UNL A   1      42.003  24.426  26.499  1.00  0.00     0.091 A 
ATOM     67  F   UNL A   1      40.939  24.693  28.618  1.00  0.00    -0.205 F 
ATOM     68  C   UNL A   1      42.655  25.005  25.398  1.00  0.00     0.022 A 
BRANCH  66  69
ATOM     69  S   UNL A   1      41.751  22.647  26.445  1.00  0.00     0.127 S 
ATOM     70  O   UNL A   1      42.399  22.297  25.182  1.00  0.00    -0.237 OA
ATOM     71  O   UNL A   1      42.465  22.201  27.641  1.00  0.00    -0.237 OA
ATOM     72  O   UNL A   1      40.311  22.443  26.483  1.00  0.00    -0.744 OA
ENDBRANCH  66  69
ENDBRANCH  48  62
BRANCH  49  73
ATOM     73  C   UNL A   1      38.943  32.063  35.421  1.00  0.00     0.023 A 
ATOM     74  C   UNL A   1      39.079  33.465  35.430  1.00  0.00     0.012 A 
ATOM     75  C   UNL A   1      38.353  31.422  36.527  1.00  0.00     0.148 A 
ATOM     76  C   UNL A   1      38.673  34.212  36.536  1.00  0.00     0.002 A 
ATOM     77  C   UNL A   1      37.898  32.178  37.602  1.00  0.00     0.091 A 
ATOM     78  F   UNL A   1      38.237  30.088  36.501  1.00  0.00    -0.205 F 
ATOM     79  C   UNL A   1      38.074  33.570  37.617  1.00  0.00     0.022 A 
BRANCH  77  80
ATOM     80  S   UNL A   1      36.998  31.455  38.978  1.00  0.00     0.127 S 
ATOM     81  O   UNL A   1      35.894  32.397  39.140  1.00  0.00    -0.237 OA
ATOM     82  O   UNL A   1      36.621  30.149  38.437  1.00  0.00    -0.237 OA
ATOM     83  O   UNL A   1      37.947  31.398  40.081  1.00  0.00    -0.744 OA
ENDBRANCH  77  80
ENDBRANCH  49  73
BRANCH  61  84
ATOM     84  C   UNL A   1      44.742  28.466  33.956  1.00  0.00     0.023 A 
ATOM     85  C   UNL A   1      45.826  29.357  33.825  1.00  0.00     0.012 A 
ATOM     86  C   UNL A   1      44.837  27.390  34.861  1.00  0.00     0.148 A 
ATOM     87  C   UNL A   1      47.000  29.155  34.550  1.00  0.00     0.002 A 
ATOM     88  C   UNL A   1      45.989  27.228  35.621  1.00  0.00     0.091 A 
ATOM     89  F   UNL A   1      43.801  26.543  34.960  1.00  0.00    -0.205 F 
ATOM     90  C   UNL A   1      47.076  28.100  35.456  1.00  0.00     0.022 A 
BRANCH  88  91
ATOM     91  S   UNL A   1      46.135  25.960  36.885  1.00  0.00     0.127 S 
ATOM     92  O   UNL A   1      44.980  26.251  37.732  1.00  0.00    -0.237 OA
ATOM     93  O   UNL A   1      46.023  24.729  36.102  1.00  0.00    -0.237 OA
ATOM     94  O   UNL A   1      47.435  26.163  37.510  1.00  0.00    -0.744 OA
ENDBRANCH  88  91
ENDBRANCH  61  84
ENDBRANCH  35  36
ENDBRANCH  27  30
ENDBRANCH  25  26
ENDBRANCH  24  25
ENDBRANCH   1  24
TORSDOF 19
ENDMDL
MODEL 2
REMARK VINA RESULT:     -11.1      5.481      7.883
REMARK SMILES C[C@](NC(=O)CSCc1cccs1)(C(=O)NCCCNC(=O)c1ccc(-c2c3nc(c(-c4cccc(S(=O)(=O)[O-])c4F)c4ccc([nH]4)c(-c4cccc(S(=O)(=O)[O-])c4F)c4nc(c(-c5cccc(S(=O)(=O)[O-])c5F)c5ccc2[nH]5)C=C4)C=C3)cc1)C(F)(F)F
REMARK SMILES IDX 17 1 16 2 14 3 15 4 2 6 1 7 86 8 87 9 88 10 89 11 3 12 4 13
REMARK SMILES IDX 5 15 6 16 7 17 8 18 9 19 10 20 13 21 11 22 12 23 18 24 19 25
REMARK SMILES IDX 20 26 21 27 22 29 23 30 24 31 85 32 25 33 84 34 26 35 27 36
REMARK SMILES IDX 28 37 78 38 29 39 83 40 77 41 79 42 30 43 82 44 76 45 75 46
REMARK SMILES IDX 31 48 63 49 43 50 62 51 44 52 47 53 61 54 80 55 45 56 46 57
REMARK SMILES IDX 60 59 81 60 48 61 32 62 33 63 41 64 34 65 36 66 42 67 35 68
REMARK SMILES IDX 37 69 38 70 39 71 40 72 64 73 65 74 73 75 66 76 68 77 74 78
REMARK SMILES IDX 67 79 69 80 70 81 71 82 72 83 49 84 50 85 58 86 51 87 53 88
REMARK SMILES IDX 59 89 52 90 54 91 55 92 56 93 57 94
REMARK H PARENT 16 5 3 14 20 28 79 47 47 58
REMARK Flexibility Score: inf
ROOT
ATOM      1  C   UNL A   1      34.571  22.513  23.761  1.00  0.00     0.117 C 
ENDROOT
BRANCH   1   2
ATOM      2  N   UNL A   1      33.757  21.625  24.548  1.00  0.00    -0.354 N 
ATOM      3  C   UNL A   1      32.476  21.809  24.981  1.00  0.00     0.254 C 
ATOM      4  O   UNL A   1      31.816  20.773  25.101  1.00  0.00    -0.272 OA
ATOM      5  H   UNL A   1      34.179  20.773  24.807  1.00  0.00     0.163 HD
BRANCH   3   6
ATOM      6  C   UNL A   1      31.848  23.225  25.157  1.00  0.00     0.212 C 
ATOM      7  C   UNL A   1      30.980  23.563  23.951  1.00  0.00     0.056 C 
BRANCH   6   8
ATOM      8  C   UNL A   1      30.917  23.035  26.388  1.00  0.00     0.420 C 
ATOM      9  F   UNL A   1      31.626  22.770  27.512  1.00  0.00    -0.168 F 
ATOM     10  F   UNL A   1      30.215  24.171  26.631  1.00  0.00    -0.168 F 
ATOM     11  F   UNL A   1      30.001  22.053  26.229  1.00  0.00    -0.168 F 
ENDBRANCH   6   8
BRANCH   6  12
ATOM     12  N   UNL A   1      32.940  24.229  25.458  1.00  0.00    -0.334 N 
ATOM     13  C   UNL A   1      33.113  25.554  25.694  1.00  0.00     0.231 C 
ATOM     14  H   UNL A   1      33.810  23.771  25.495  1.00  0.00     0.164 HD
ATOM     15  O   UNL A   1      34.295  25.920  25.638  1.00  0.00    -0.274 OA
BRANCH  13  16
ATOM     16  C   UNL A   1      32.063  26.558  26.127  1.00  0.00     0.169 C 
BRANCH  16  17
ATOM     17  S   UNL A   1      31.657  27.960  25.051  1.00  0.00    -0.146 SA
BRANCH  17  18
ATOM     18  C   UNL A   1      30.655  27.277  23.701  1.00  0.00     0.116 C 
BRANCH  18  19
ATOM     19  C   UNL A   1      29.451  28.012  23.221  1.00  0.00     0.014 A 
ATOM     20  C   UNL A   1      28.127  27.698  23.476  1.00  0.00     0.016 A 
ATOM     21  S   UNL A   1      29.587  29.534  22.446  1.00  0.00    -0.148 S 
ATOM     22  C   UNL A   1      27.231  28.726  23.070  1.00  0.00     0.012 A 
ATOM     23  C   UNL A   1      27.895  29.785  22.495  1.00  0.00     0.065 A 
ENDBRANCH  18  19
ENDBRANCH  17  18
ENDBRANCH  16  17
ENDBRANCH  13  16
ENDBRANCH   6  12
ENDBRANCH   3   6
ENDBRANCH   1   2
BRANCH   1  24
ATOM     24  C   UNL A   1      36.062  22.382  24.034  1.00  0.00     0.042 C 
BRANCH  24  25
ATOM     25  C   UNL A   1      36.394  22.032  25.478  1.00  0.00     0.118 C 
BRANCH  25  26
ATOM     26  N   UNL A   1      37.448  21.030  25.622  1.00  0.00    -0.352 N 
ATOM     27  C   UNL A   1      38.772  21.144  25.969  1.00  0.00     0.251 C 
ATOM     28  H   UNL A   1      37.157  20.108  25.437  1.00  0.00     0.163 HD
ATOM     29  O   UNL A   1      39.479  20.144  25.914  1.00  0.00    -0.269 OA
BRANCH  27  30
ATOM     30  C   UNL A   1      39.343  22.444  26.387  1.00  0.00     0.039 A 
ATOM     31  C   UNL A   1      40.391  22.460  27.313  1.00  0.00     0.014 A 
ATOM     32  C   UNL A   1      38.838  23.646  25.894  1.00  0.00     0.014 A 
ATOM     33  C   UNL A   1      40.965  23.677  27.692  1.00  0.00     0.010 A 
ATOM     34  C   UNL A   1      39.488  24.839  26.172  1.00  0.00     0.010 A 
ATOM     35  C   UNL A   1      40.540  24.874  27.096  1.00  0.00    -0.014 A 
BRANCH  35  36
ATOM     36  C   UNL A   1      41.152  26.185  27.426  1.00  0.00     0.031 A 
ATOM     37  C   UNL A   1      42.583  26.463  27.039  1.00  0.00     0.074 A 
ATOM     38  C   UNL A   1      40.465  27.071  28.174  1.00  0.00     0.049 A 
ATOM     39  N   UNL A   1      43.333  27.491  27.335  1.00  0.00    -0.248 NA
ATOM     40  C   UNL A   1      43.277  25.426  26.253  1.00  0.00     0.031 C 
ATOM     41  C   UNL A   1      39.108  26.874  28.689  1.00  0.00     0.029 A 
ATOM     42  N   UNL A   1      40.829  28.301  28.659  1.00  0.00    -0.354 N 
ATOM     43  C   UNL A   1      44.592  27.203  26.819  1.00  0.00     0.074 A 
ATOM     44  C   UNL A   1      44.520  25.885  26.233  1.00  0.00     0.031 C 
ATOM     45  C   UNL A   1      38.750  27.949  29.409  1.00  0.00     0.029 A 
ATOM     46  C   UNL A   1      39.861  28.893  29.438  1.00  0.00     0.049 A 
ATOM     47  H   UNL A   1      41.699  28.720  28.470  1.00  0.00     0.167 HD
ATOM     48  C   UNL A   1      45.702  27.980  26.802  1.00  0.00     0.034 A 
ATOM     49  C   UNL A   1      39.875  30.061  30.107  1.00  0.00     0.034 A 
ATOM     50  C   UNL A   1      45.750  29.313  27.338  1.00  0.00     0.049 A 
ATOM     51  C   UNL A   1      41.099  30.933  30.020  1.00  0.00     0.074 A 
ATOM     52  C   UNL A   1      46.787  30.225  27.286  1.00  0.00     0.029 A 
ATOM     53  N   UNL A   1      44.713  29.923  28.027  1.00  0.00    -0.354 N 
ATOM     54  N   UNL A   1      42.228  30.710  29.394  1.00  0.00    -0.248 NA
ATOM     55  C   UNL A   1      41.034  32.234  30.700  1.00  0.00     0.031 C 
ATOM     56  C   UNL A   1      46.388  31.377  27.971  1.00  0.00     0.029 A 
ATOM     57  C   UNL A   1      45.088  31.197  28.414  1.00  0.00     0.049 A 
ATOM     58  H   UNL A   1      43.839  29.510  28.215  1.00  0.00     0.167 HD
ATOM     59  C   UNL A   1      42.994  31.857  29.569  1.00  0.00     0.074 A 
ATOM     60  C   UNL A   1      42.189  32.780  30.342  1.00  0.00     0.031 C 
ATOM     61  C   UNL A   1      44.254  32.119  29.141  1.00  0.00     0.034 A 
BRANCH  48  62
ATOM     62  C   UNL A   1      46.937  27.427  26.136  1.00  0.00     0.023 A 
ATOM     63  C   UNL A   1      47.150  27.651  24.760  1.00  0.00     0.012 A 
ATOM     64  C   UNL A   1      47.909  26.729  26.880  1.00  0.00     0.148 A 
ATOM     65  C   UNL A   1      48.287  27.152  24.125  1.00  0.00     0.002 A 
ATOM     66  C   UNL A   1      49.065  26.281  26.250  1.00  0.00     0.091 A 
ATOM     67  F   UNL A   1      47.682  26.507  28.182  1.00  0.00    -0.205 F 
ATOM     68  C   UNL A   1      49.248  26.477  24.871  1.00  0.00     0.022 A 
BRANCH  66  69
ATOM     69  S   UNL A   1      50.404  25.474  27.136  1.00  0.00     0.127 S 
ATOM     70  O   UNL A   1      51.353  25.207  26.056  1.00  0.00    -0.237 OA
ATOM     71  O   UNL A   1      50.823  26.517  28.073  1.00  0.00    -0.237 OA
ATOM     72  O   UNL A   1      49.821  24.294  27.759  1.00  0.00    -0.744 OA
ENDBRANCH  66  69
ENDBRANCH  48  62
BRANCH  49  73
ATOM     73  C   UNL A   1      38.666  30.508  30.856  1.00  0.00     0.023 A 
ATOM     74  C   UNL A   1      38.563  30.229  32.233  1.00  0.00     0.012 A 
ATOM     75  C   UNL A   1      37.635  31.228  30.222  1.00  0.00     0.148 A 
ATOM     76  C   UNL A   1      37.438  30.622  32.957  1.00  0.00     0.002 A 
ATOM     77  C   UNL A   1      36.542  31.666  30.962  1.00  0.00     0.091 A 
ATOM     78  F   UNL A   1      37.749  31.479  28.911  1.00  0.00    -0.205 F 
ATOM     79  C   UNL A   1      36.433  31.349  32.325  1.00  0.00     0.022 A 
BRANCH  77  80
ATOM     80  S   UNL A   1      35.264  32.719  30.265  1.00  0.00     0.127 S 
ATOM     81  O   UNL A   1      34.773  31.900  29.161  1.00  0.00    -0.237 OA
ATOM     82  O   UNL A   1      34.341  32.856  31.391  1.00  0.00    -0.237 OA
ATOM     83  O   UNL A   1      35.938  33.954  29.885  1.00  0.00    -0.744 OA
ENDBRANCH  77  80
ENDBRANCH  49  73
BRANCH  61  84
ATOM     84  C   UNL A   1      44.825  33.477  29.454  1.00  0.00     0.023 A 
ATOM     85  C   UNL A   1      45.532  33.687  30.655  1.00  0.00     0.012 A 
ATOM     86  C   UNL A   1      44.716  34.528  28.522  1.00  0.00     0.148 A 
ATOM     87  C   UNL A   1      46.083  34.935  30.942  1.00  0.00     0.002 A 
ATOM     88  C   UNL A   1      45.316  35.752  28.791  1.00  0.00     0.091 A 
ATOM     89  F   UNL A   1      44.026  34.313  27.393  1.00  0.00    -0.205 F 
ATOM     90  C   UNL A   1      45.986  35.962  30.007  1.00  0.00     0.022 A 
BRANCH  88  91
ATOM     91  S   UNL A   1      45.330  37.096  27.600  1.00  0.00     0.127 S 
ATOM     92  O   UNL A   1      46.033  38.142  28.341  1.00  0.00    -0.237 OA
ATOM     93  O   UNL A   1      46.090  36.519  26.491  1.00  0.00    -0.237 OA
ATOM     94  O   UNL A   1      43.934  37.378  27.295  1.00  0.00    -0.744 OA
ENDBRANCH  88  91
ENDBRANCH  61  84
ENDBRANCH  35  36
ENDBRANCH  27  30
ENDBRANCH  25  26
ENDBRANCH  24  25
ENDBRANCH   1  24
TORSDOF 19
ENDMDL
MODEL 3
REMARK VINA RESULT:     -11.0      5.326     10.264
REMARK SMILES C[C@](NC(=O)CSCc1cccs1)(C(=O)NCCCNC(=O)c1ccc(-c2c3nc(c(-c4cccc(S(=O)(=O)[O-])c4F)c4ccc([nH]4)c(-c4cccc(S(=O)(=O)[O-])c4F)c4nc(c(-c5cccc(S(=O)(=O)[O-])c5F)c5ccc2[nH]5)C=C4)C=C3)cc1)C(F)(F)F
REMARK SMILES IDX 17 1 16 2 14 3 15 4 2 6 1 7 86 8 87 9 88 10 89 11 3 12 4 13
REMARK SMILES IDX 5 15 6 16 7 17 8 18 9 19 10 20 13 21 11 22 12 23 18 24 19 25
REMARK SMILES IDX 20 26 21 27 22 29 23 30 24 31 85 32 25 33 84 34 26 35 27 36
REMARK SMILES IDX 28 37 78 38 29 39 83 40 77 41 79 42 30 43 82 44 76 45 75 46
REMARK SMILES IDX 31 48 63 49 43 50 62 51 44 52 47 53 61 54 80 55 45 56 46 57
REMARK SMILES IDX 60 59 81 60 48 61 32 62 33 63 41 64 34 65 36 66 42 67 35 68
REMARK SMILES IDX 37 69 38 70 39 71 40 72 64 73 65 74 73 75 66 76 68 77 74 78
REMARK SMILES IDX 67 79 69 80 70 81 71 82 72 83 49 84 50 85 58 86 51 87 53 88
REMARK SMILES IDX 59 89 52 90 54 91 55 92 56 93 57 94
REMARK H PARENT 16 5 3 14 20 28 79 47 47 58
REMARK Flexibility Score: inf
ROOT
ATOM      1  C   UNL A   1      35.707  23.572  23.608  1.00  0.00     0.117 C 
ENDROOT
BRANCH   1   2
ATOM      2  N   UNL A   1      34.818  23.988  24.661  1.00  0.00    -0.354 N 
ATOM      3  C   UNL A   1      33.497  23.685  24.823  1.00  0.00     0.254 C 
ATOM      4  O   UNL A   1      33.119  23.637  25.998  1.00  0.00    -0.272 OA
ATOM      5  H   UNL A   1      35.214  24.566  25.353  1.00  0.00     0.163 HD
BRANCH   3   6
ATOM      6  C   UNL A   1      32.579  23.277  23.632  1.00  0.00     0.212 C 
ATOM      7  C   UNL A   1      32.584  21.762  23.466  1.00  0.00     0.056 C 
BRANCH   6   8
ATOM      8  C   UNL A   1      31.169  23.708  24.124  1.00  0.00     0.420 C 
ATOM      9  F   UNL A   1      30.282  23.770  23.102  1.00  0.00    -0.168 F 
ATOM     10  F   UNL A   1      30.679  22.802  25.008  1.00  0.00    -0.168 F 
ATOM     11  F   UNL A   1      31.158  24.900  24.762  1.00  0.00    -0.168 F 
ENDBRANCH   6   8
BRANCH   6  12
ATOM     12  N   UNL A   1      32.979  24.055  22.395  1.00  0.00    -0.334 N 
ATOM     13  C   UNL A   1      32.932  25.310  21.883  1.00  0.00     0.231 C 
ATOM     14  H   UNL A   1      33.417  23.452  21.753  1.00  0.00     0.164 HD
ATOM     15  O   UNL A   1      33.192  25.364  20.673  1.00  0.00    -0.274 OA
BRANCH  13  16
ATOM     16  C   UNL A   1      32.728  26.607  22.640  1.00  0.00     0.169 C 
BRANCH  16  17
ATOM     17  S   UNL A   1      31.168  27.516  22.470  1.00  0.00    -0.146 SA
BRANCH  17  18
ATOM     18  C   UNL A   1      30.719  28.049  24.146  1.00  0.00     0.116 C 
BRANCH  18  19
ATOM     19  C   UNL A   1      31.784  28.336  25.147  1.00  0.00     0.014 A 
ATOM     20  C   UNL A   1      32.793  29.279  25.042  1.00  0.00     0.016 A 
ATOM     21  S   UNL A   1      31.742  27.649  26.715  1.00  0.00    -0.148 S 
ATOM     22  C   UNL A   1      33.502  29.462  26.262  1.00  0.00     0.012 A 
ATOM     23  C   UNL A   1      33.030  28.637  27.256  1.00  0.00     0.065 A 
ENDBRANCH  18  19
ENDBRANCH  17  18
ENDBRANCH  16  17
ENDBRANCH  13  16
ENDBRANCH   6  12
ENDBRANCH   3   6
ENDBRANCH   1   2
BRANCH   1  24
ATOM     24  C   UNL A   1      36.394  22.241  23.876  1.00  0.00     0.042 C 
BRANCH  24  25
ATOM     25  C   UNL A   1      36.713  21.998  25.345  1.00  0.00     0.118 C 
BRANCH  25  26
ATOM     26  N   UNL A   1      37.671  20.920  25.577  1.00  0.00    -0.352 N 
ATOM     27  C   UNL A   1      38.965  20.935  26.038  1.00  0.00     0.251 C 
ATOM     28  H   UNL A   1      37.327  20.022  25.366  1.00  0.00     0.163 HD
ATOM     29  O   UNL A   1      39.596  19.883  26.042  1.00  0.00    -0.269 OA
BRANCH  27  30
ATOM     30  C   UNL A   1      39.594  22.190  26.507  1.00  0.00     0.039 A 
ATOM     31  C   UNL A   1      40.620  22.122  27.455  1.00  0.00     0.014 A 
ATOM     32  C   UNL A   1      39.166  23.430  26.039  1.00  0.00     0.014 A 
ATOM     33  C   UNL A   1      41.249  23.295  27.883  1.00  0.00     0.010 A 
ATOM     34  C   UNL A   1      39.873  24.578  26.366  1.00  0.00     0.010 A 
ATOM     35  C   UNL A   1      40.903  24.530  27.313  1.00  0.00    -0.014 A 
BRANCH  35  36
ATOM     36  C   UNL A   1      41.576  25.796  27.695  1.00  0.00     0.031 A 
ATOM     37  C   UNL A   1      40.816  26.847  28.463  1.00  0.00     0.074 A 
ATOM     38  C   UNL A   1      42.824  26.047  27.251  1.00  0.00     0.049 A 
ATOM     39  N   UNL A   1      41.183  28.058  28.789  1.00  0.00    -0.248 NA
ATOM     40  C   UNL A   1      39.443  26.509  28.881  1.00  0.00     0.031 C 
ATOM     41  C   UNL A   1      43.625  25.146  26.419  1.00  0.00     0.029 A 
ATOM     42  N   UNL A   1      43.623  27.150  27.408  1.00  0.00    -0.354 N 
ATOM     43  C   UNL A   1      40.076  28.639  29.400  1.00  0.00     0.074 A 
ATOM     44  C   UNL A   1      39.009  27.666  29.358  1.00  0.00     0.031 C 
ATOM     45  C   UNL A   1      44.804  25.728  26.149  1.00  0.00     0.029 A 
ATOM     46  C   UNL A   1      44.829  27.054  26.755  1.00  0.00     0.049 A 
ATOM     47  H   UNL A   1      43.358  27.936  27.938  1.00  0.00     0.167 HD
ATOM     48  C   UNL A   1      39.967  29.859  29.977  1.00  0.00     0.034 A 
ATOM     49  C   UNL A   1      45.836  27.942  26.648  1.00  0.00     0.034 A 
ATOM     50  C   UNL A   1      41.050  30.800  30.064  1.00  0.00     0.049 A 
ATOM     51  C   UNL A   1      45.713  29.267  27.351  1.00  0.00     0.074 A 
ATOM     52  C   UNL A   1      41.081  32.020  30.712  1.00  0.00     0.029 A 
ATOM     53  N   UNL A   1      42.296  30.623  29.481  1.00  0.00    -0.354 N 
ATOM     54  N   UNL A   1      44.714  29.737  28.058  1.00  0.00    -0.248 NA
ATOM     55  C   UNL A   1      46.871  30.168  27.273  1.00  0.00     0.031 C 
ATOM     56  C   UNL A   1      42.336  32.596  30.496  1.00  0.00     0.029 A 
ATOM     57  C   UNL A   1      43.101  31.717  29.747  1.00  0.00     0.049 A 
ATOM     58  H   UNL A   1      42.567  29.836  28.955  1.00  0.00     0.167 HD
ATOM     59  C   UNL A   1      45.137  30.969  28.543  1.00  0.00     0.074 A 
ATOM     60  C   UNL A   1      46.491  31.161  28.066  1.00  0.00     0.031 C 
ATOM     61  C   UNL A   1      44.463  31.866  29.304  1.00  0.00     0.034 A 
BRANCH  48  62
ATOM     62  C   UNL A   1      38.645  30.223  30.605  1.00  0.00     0.023 A 
ATOM     63  C   UNL A   1      38.351  29.793  31.916  1.00  0.00     0.012 A 
ATOM     64  C   UNL A   1      37.715  31.030  29.920  1.00  0.00     0.148 A 
ATOM     65  C   UNL A   1      37.137  30.122  32.519  1.00  0.00     0.002 A 
ATOM     66  C   UNL A   1      36.530  31.397  30.547  1.00  0.00     0.091 A 
ATOM     67  F   UNL A   1      38.000  31.414  28.668  1.00  0.00    -0.205 F 
ATOM     68  C   UNL A   1      36.232  30.932  31.839  1.00  0.00     0.022 A 
BRANCH  66  69
ATOM     69  S   UNL A   1      35.334  32.506  29.793  1.00  0.00     0.127 S 
ATOM     70  O   UNL A   1      34.799  31.673  28.716  1.00  0.00    -0.237 OA
ATOM     71  O   UNL A   1      34.403  32.749  30.896  1.00  0.00    -0.237 OA
ATOM     72  O   UNL A   1      36.085  33.675  29.361  1.00  0.00    -0.744 OA
ENDBRANCH  66  69
ENDBRANCH  48  62
BRANCH  49  73
ATOM     73  C   UNL A   1      47.078  27.578  25.908  1.00  0.00     0.023 A 
ATOM     74  C   UNL A   1      48.140  26.962  26.599  1.00  0.00     0.012 A 
ATOM     75  C   UNL A   1      47.202  27.813  24.525  1.00  0.00     0.148 A 
ATOM     76  C   UNL A   1      49.319  26.623  25.935  1.00  0.00     0.002 A 
ATOM     77  C   UNL A   1      48.358  27.421  23.858  1.00  0.00     0.091 A 
ATOM     78  F   UNL A   1      46.184  28.404  23.887  1.00  0.00    -0.205 F 
ATOM     79  C   UNL A   1      49.425  26.843  24.565  1.00  0.00     0.022 A 
BRANCH  77  80
ATOM     80  S   UNL A   1      48.533  27.544  22.075  1.00  0.00     0.127 S 
ATOM     81  O   UNL A   1      49.757  28.329  21.948  1.00  0.00    -0.237 OA
ATOM     82  O   UNL A   1      48.658  26.138  21.688  1.00  0.00    -0.237 OA
ATOM     83  O   UNL A   1      47.315  28.190  21.605  1.00  0.00    -0.744 OA
ENDBRANCH  77  80
ENDBRANCH  49  73
BRANCH  61  84
ATOM     84  C   UNL A   1      45.194  33.118  29.712  1.00  0.00     0.023 A 
ATOM     85  C   UNL A   1      45.983  33.128  30.879  1.00  0.00     0.012 A 
ATOM     86  C   UNL A   1      45.148  34.267  28.898  1.00  0.00     0.148 A 
ATOM     87  C   UNL A   1      46.681  34.276  31.252  1.00  0.00     0.002 A 
ATOM     88  C   UNL A   1      45.890  35.389  29.248  1.00  0.00     0.091 A 
ATOM     89  F   UNL A   1      44.379  34.244  27.800  1.00  0.00    -0.205 F 
ATOM     90  C   UNL A   1      46.644  35.400  30.432  1.00  0.00     0.022 A 
BRANCH  88  91
ATOM     91  S   UNL A   1      45.985  36.843  28.198  1.00  0.00     0.127 S 
ATOM     92  O   UNL A   1      46.224  36.246  26.885  1.00  0.00    -0.237 OA
ATOM     93  O   UNL A   1      44.656  37.434  28.367  1.00  0.00    -0.237 OA
ATOM     94  O   UNL A   1      47.076  37.650  28.726  1.00  0.00    -0.744 OA
ENDBRANCH  88  91
ENDBRANCH  61  84
ENDBRANCH  35  36
ENDBRANCH  27  30
ENDBRANCH  25  26
ENDBRANCH  24  25
ENDBRANCH   1  24
TORSDOF 19
ENDMDL
