MODEL 1
REMARK VINA RESULT:      -9.2      0.000      0.000
REMARK SMILES Cc1c(CC(=O)N[C@H](CO)C(=O)NCCCNC(=O)c2ccc(-c3c4nc(c(-c5cccc(S(=O)(=O)[O-])c5F)c5ccc([nH]5)c(-c5cccc(S(=O)(=O)[O-])c5F)c5nc(c(-c6cccc(S(=O)(=O)[O-])c6F)c6ccc3[nH]6)C=C5)C=C4)cc2)cc(-c2ccc(S(C)(=O)=O)cc2)n1-c1ccc(F)cc1
REMARK SMILES IDX 14 1 13 2 11 3 12 4 8 6 7 7 5 8 6 9 4 11 3 12 1 13 2 14
REMARK SMILES IDX 95 15 83 16 84 17 96 18 97 19 102 20 98 21 101 22 99 23
REMARK SMILES IDX 100 24 85 25 86 26 94 27 87 28 93 29 88 30 89 31 90 32 91 33
REMARK SMILES IDX 92 34 9 35 10 36 15 38 16 39 17 40 18 41 19 43 20 44 21 45
REMARK SMILES IDX 82 46 22 47 81 48 23 49 24 50 25 51 75 52 26 53 80 54 74 55
REMARK SMILES IDX 76 56 27 57 79 58 73 59 72 60 28 62 60 63 40 64 59 65 41 66
REMARK SMILES IDX 44 67 58 68 77 69 42 70 43 71 57 73 78 74 45 75 29 76 30 77
REMARK SMILES IDX 38 78 31 79 33 80 39 81 32 82 34 83 35 84 36 85 37 86 61 87
REMARK SMILES IDX 62 88 70 89 63 90 65 91 71 92 64 93 66 94 67 95 68 96 69 97
REMARK SMILES IDX 46 98 47 99 55 100 48 101 50 102 56 103 49 104 51 105 52 106
REMARK SMILES IDX 53 107 54 108
REMARK H PARENT 13 5 7 10 10 37 17 42 76 61 44 72
REMARK Flexibility Score: inf
ROOT
ATOM      1  C   UNL A   1      36.636  33.896  34.476  1.00  0.00     0.117 C 
ENDROOT
BRANCH   1   2
ATOM      2  N   UNL A   1      35.262  33.566  34.135  1.00  0.00    -0.354 N 
ATOM      3  C   UNL A   1      34.697  32.918  33.081  1.00  0.00     0.244 C 
ATOM      4  O   UNL A   1      33.467  32.958  32.984  1.00  0.00    -0.273 OA
ATOM      5  H   UNL A   1      34.607  33.874  34.803  1.00  0.00     0.163 HD
BRANCH   3   6
ATOM      6  C   UNL A   1      35.529  32.355  31.935  1.00  0.00     0.197 C 
BRANCH   6   7
ATOM      7  N   UNL A   1      34.804  32.285  30.667  1.00  0.00    -0.342 N 
ATOM      8  C   UNL A   1      35.270  32.420  29.393  1.00  0.00     0.225 C 
ATOM      9  O   UNL A   1      34.479  32.186  28.474  1.00  0.00    -0.275 OA
ATOM     10  H   UNL A   1      33.838  32.114  30.745  1.00  0.00     0.164 HD
BRANCH   8  11
ATOM     11  C   UNL A   1      36.724  32.789  29.108  1.00  0.00     0.137 C 
BRANCH  11  12
ATOM     12  C   UNL A   1      37.724  31.670  29.226  1.00  0.00    -0.017 A 
ATOM     13  C   UNL A   1      36.921  29.956  27.433  1.00  0.00     0.065 C 
ATOM     14  C   UNL A   1      37.789  30.461  28.539  1.00  0.00     0.024 A 
ATOM     15  N   UNL A   1      38.899  29.747  29.004  1.00  0.00    -0.314 N 
ATOM     16  C   UNL A   1      38.836  31.675  30.117  1.00  0.00     0.033 A 
ATOM     17  C   UNL A   1      39.622  30.566  29.858  1.00  0.00     0.053 A 
BRANCH  15  18
ATOM     18  C   UNL A   1      39.389  28.550  28.430  1.00  0.00     0.046 A 
ATOM     19  C   UNL A   1      39.137  27.309  29.007  1.00  0.00     0.029 A 
ATOM     20  C   UNL A   1      40.166  28.654  27.278  1.00  0.00     0.029 A 
ATOM     21  C   UNL A   1      39.648  26.165  28.380  1.00  0.00     0.041 A 
ATOM     22  C   UNL A   1      40.625  27.516  26.625  1.00  0.00     0.041 A 
ATOM     23  C   UNL A   1      40.360  26.277  27.185  1.00  0.00     0.123 A 
ATOM     24  F   UNL A   1      40.793  25.171  26.566  1.00  0.00    -0.207 F 
ENDBRANCH  15  18
BRANCH  17  25
ATOM     25  C   UNL A   1      40.999  30.319  30.300  1.00  0.00    -0.001 A 
ATOM     26  C   UNL A   1      42.059  30.843  29.545  1.00  0.00     0.011 A 
ATOM     27  C   UNL A   1      41.292  29.626  31.475  1.00  0.00     0.011 A 
ATOM     28  C   UNL A   1      43.385  30.701  29.948  1.00  0.00     0.021 A 
ATOM     29  C   UNL A   1      42.625  29.483  31.894  1.00  0.00     0.021 A 
ATOM     30  C   UNL A   1      43.666  30.025  31.130  1.00  0.00     0.067 A 
BRANCH  30  31
ATOM     31  S   UNL A   1      45.328  30.062  31.783  1.00  0.00     0.175 S 
ATOM     32  C   UNL A   1      45.392  28.810  33.031  1.00  0.00     0.163 C 
ATOM     33  O   UNL A   1      46.209  29.674  30.688  1.00  0.00    -0.224 OA
ATOM     34  O   UNL A   1      45.482  31.369  32.393  1.00  0.00    -0.224 OA
ENDBRANCH  30  31
ENDBRANCH  17  25
ENDBRANCH  11  12
ENDBRANCH   8  11
ENDBRANCH   6   7
BRANCH   6  35
ATOM     35  C   UNL A   1      36.002  30.967  32.408  1.00  0.00     0.191 C 
BRANCH  35  36
ATOM     36  O   UNL A   1      36.924  31.080  33.494  1.00  0.00    -0.394 OA
ATOM     37  H   UNL A   1      36.602  30.561  34.246  1.00  0.00     0.210 HD
ENDBRANCH  35  36
ENDBRANCH   6  35
ENDBRANCH   3   6
ENDBRANCH   1   2
BRANCH   1  38
ATOM     38  C   UNL A   1      36.906  33.709  35.986  1.00  0.00     0.042 C 
BRANCH  38  39
ATOM     39  C   UNL A   1      38.362  33.321  36.272  1.00  0.00     0.118 C 
BRANCH  39  40
ATOM     40  N   UNL A   1      38.705  31.931  36.078  1.00  0.00    -0.352 N 
ATOM     41  C   UNL A   1      39.858  31.380  35.546  1.00  0.00     0.251 C 
ATOM     42  H   UNL A   1      38.023  31.283  36.368  1.00  0.00     0.163 HD
ATOM     43  O   UNL A   1      40.220  30.302  36.019  1.00  0.00    -0.269 OA
BRANCH  41  44
ATOM     44  C   UNL A   1      40.573  31.908  34.337  1.00  0.00     0.039 A 
ATOM     45  C   UNL A   1      41.952  32.114  34.473  1.00  0.00     0.014 A 
ATOM     46  C   UNL A   1      39.937  32.578  33.288  1.00  0.00     0.014 A 
ATOM     47  C   UNL A   1      42.684  32.926  33.565  1.00  0.00     0.010 A 
ATOM     48  C   UNL A   1      40.675  33.436  32.403  1.00  0.00     0.010 A 
ATOM     49  C   UNL A   1      42.071  33.637  32.505  1.00  0.00    -0.014 A 
BRANCH  49  50
ATOM     50  C   UNL A   1      42.768  34.941  32.078  1.00  0.00     0.031 A 
ATOM     51  C   UNL A   1      42.869  34.884  30.593  1.00  0.00     0.074 A 
ATOM     52  C   UNL A   1      43.243  36.097  32.656  1.00  0.00     0.049 A 
ATOM     53  N   UNL A   1      43.540  33.980  29.935  1.00  0.00    -0.248 NA
ATOM     54  C   UNL A   1      41.961  35.698  29.781  1.00  0.00     0.031 C 
ATOM     55  C   UNL A   1      43.383  36.407  34.083  1.00  0.00     0.029 A 
ATOM     56  N   UNL A   1      43.706  37.301  32.075  1.00  0.00    -0.354 N 
ATOM     57  C   UNL A   1      43.427  34.370  28.622  1.00  0.00     0.074 A 
ATOM     58  C   UNL A   1      42.251  35.217  28.574  1.00  0.00     0.031 C 
ATOM     59  C   UNL A   1      43.768  37.701  34.264  1.00  0.00     0.029 A 
ATOM     60  C   UNL A   1      43.948  38.370  32.981  1.00  0.00     0.049 A 
ATOM     61  H   UNL A   1      43.851  37.392  31.106  1.00  0.00     0.167 HD
ATOM     62  C   UNL A   1      44.554  34.496  27.870  1.00  0.00     0.034 A 
ATOM     63  C   UNL A   1      44.298  39.679  32.738  1.00  0.00     0.034 A 
ATOM     64  C   UNL A   1      44.789  35.829  27.384  1.00  0.00     0.049 A 
ATOM     65  C   UNL A   1      44.732  39.795  31.330  1.00  0.00     0.074 A 
ATOM     66  C   UNL A   1      44.024  36.802  26.768  1.00  0.00     0.029 A 
ATOM     67  N   UNL A   1      45.912  36.465  27.867  1.00  0.00    -0.354 N 
ATOM     68  N   UNL A   1      45.933  39.490  30.946  1.00  0.00    -0.248 NA
ATOM     69  C   UNL A   1      43.891  40.429  30.320  1.00  0.00     0.031 C 
ATOM     70  C   UNL A   1      44.530  38.054  27.204  1.00  0.00     0.029 A 
ATOM     71  C   UNL A   1      45.677  37.826  27.946  1.00  0.00     0.049 A 
ATOM     72  H   UNL A   1      46.753  36.019  28.117  1.00  0.00     0.167 HD
ATOM     73  C   UNL A   1      45.885  39.542  29.582  1.00  0.00     0.074 A 
ATOM     74  C   UNL A   1      44.695  40.305  29.263  1.00  0.00     0.031 C 
ATOM     75  C   UNL A   1      46.502  38.564  28.878  1.00  0.00     0.034 A 
BRANCH  62  76
ATOM     76  C   UNL A   1      45.625  33.471  28.093  1.00  0.00     0.023 A 
ATOM     77  C   UNL A   1      46.728  33.861  28.875  1.00  0.00     0.012 A 
ATOM     78  C   UNL A   1      45.638  32.202  27.475  1.00  0.00     0.148 A 
ATOM     79  C   UNL A   1      47.833  33.019  29.017  1.00  0.00     0.002 A 
ATOM     80  C   UNL A   1      46.770  31.397  27.566  1.00  0.00     0.091 A 
ATOM     81  F   UNL A   1      44.554  31.811  26.788  1.00  0.00    -0.205 F 
ATOM     82  C   UNL A   1      47.862  31.797  28.349  1.00  0.00     0.022 A 
BRANCH  80  83
ATOM     83  S   UNL A   1      46.958  29.889  26.610  1.00  0.00     0.127 S 
ATOM     84  O   UNL A   1      46.220  28.920  27.425  1.00  0.00    -0.237 OA
ATOM     85  O   UNL A   1      46.313  30.217  25.341  1.00  0.00    -0.237 OA
ATOM     86  O   UNL A   1      48.390  29.636  26.525  1.00  0.00    -0.744 OA
ENDBRANCH  80  83
ENDBRANCH  62  76
BRANCH  63  87
ATOM     87  C   UNL A   1      44.504  41.024  33.448  1.00  0.00     0.023 A 
ATOM     88  C   UNL A   1      45.808  41.273  33.994  1.00  0.00     0.012 A 
ATOM     89  C   UNL A   1      43.685  42.157  33.293  1.00  0.00     0.148 A 
ATOM     90  C   UNL A   1      46.322  42.554  34.227  1.00  0.00     0.002 A 
ATOM     91  C   UNL A   1      44.190  43.448  33.583  1.00  0.00     0.091 A 
ATOM     92  F   UNL A   1      42.463  42.000  32.765  1.00  0.00    -0.205 F 
ATOM     93  C   UNL A   1      45.513  43.648  34.007  1.00  0.00     0.022 A 
BRANCH  91  94
ATOM     94  S   UNL A   1      43.204  44.946  33.392  1.00  0.00     0.127 S 
ATOM     95  O   UNL A   1      44.091  45.991  33.911  1.00  0.00    -0.237 OA
ATOM     96  O   UNL A   1      42.997  44.993  31.947  1.00  0.00    -0.237 OA
ATOM     97  O   UNL A   1      42.019  44.715  34.206  1.00  0.00    -0.744 OA
ENDBRANCH  91  94
ENDBRANCH  63  87
BRANCH  75  98
ATOM     98  C   UNL A   1      47.856  38.061  29.343  1.00  0.00     0.023 A 
ATOM     99  C   UNL A   1      48.066  37.018  30.272  1.00  0.00     0.012 A 
ATOM    100  C   UNL A   1      48.995  38.667  28.784  1.00  0.00     0.148 A 
ATOM    101  C   UNL A   1      49.354  36.618  30.647  1.00  0.00     0.002 A 
ATOM    102  C   UNL A   1      50.275  38.235  29.120  1.00  0.00     0.091 A 
ATOM    103  F   UNL A   1      48.819  39.685  27.926  1.00  0.00    -0.205 F 
ATOM    104  C   UNL A   1      50.462  37.217  30.060  1.00  0.00     0.022 A 
BRANCH 102 105
ATOM    105  S   UNL A   1      51.695  38.961  28.304  1.00  0.00     0.127 S 
ATOM    106  O   UNL A   1      51.677  40.330  28.817  1.00  0.00    -0.237 OA
ATOM    107  O   UNL A   1      52.816  38.151  28.780  1.00  0.00    -0.237 OA
ATOM    108  O   UNL A   1      51.413  38.815  26.879  1.00  0.00    -0.744 OA
ENDBRANCH 102 105
ENDBRANCH  75  98
ENDBRANCH  49  50
ENDBRANCH  41  44
ENDBRANCH  39  40
ENDBRANCH  38  39
ENDBRANCH   1  38
TORSDOF 21
ENDMDL
MODEL 2
REMARK VINA RESULT:      -8.9      5.264     10.478
REMARK SMILES Cc1c(CC(=O)N[C@H](CO)C(=O)NCCCNC(=O)c2ccc(-c3c4nc(c(-c5cccc(S(=O)(=O)[O-])c5F)c5ccc([nH]5)c(-c5cccc(S(=O)(=O)[O-])c5F)c5nc(c(-c6cccc(S(=O)(=O)[O-])c6F)c6ccc3[nH]6)C=C5)C=C4)cc2)cc(-c2ccc(S(C)(=O)=O)cc2)n1-c1ccc(F)cc1
REMARK SMILES IDX 14 1 13 2 11 3 12 4 8 6 7 7 5 8 6 9 4 11 3 12 1 13 2 14
REMARK SMILES IDX 95 15 83 16 84 17 96 18 97 19 102 20 98 21 101 22 99 23
REMARK SMILES IDX 100 24 85 25 86 26 94 27 87 28 93 29 88 30 89 31 90 32 91 33
REMARK SMILES IDX 92 34 9 35 10 36 15 38 16 39 17 40 18 41 19 43 20 44 21 45
REMARK SMILES IDX 82 46 22 47 81 48 23 49 24 50 25 51 75 52 26 53 80 54 74 55
REMARK SMILES IDX 76 56 27 57 79 58 73 59 72 60 28 62 60 63 40 64 59 65 41 66
REMARK SMILES IDX 44 67 58 68 77 69 42 70 43 71 57 73 78 74 45 75 29 76 30 77
REMARK SMILES IDX 38 78 31 79 33 80 39 81 32 82 34 83 35 84 36 85 37 86 61 87
REMARK SMILES IDX 62 88 70 89 63 90 65 91 71 92 64 93 66 94 67 95 68 96 69 97
REMARK SMILES IDX 46 98 47 99 55 100 48 101 50 102 56 103 49 104 51 105 52 106
REMARK SMILES IDX 53 107 54 108
REMARK H PARENT 13 5 7 10 10 37 17 42 76 61 44 72
REMARK Flexibility Score: inf
ROOT
ATOM      1  C   UNL A   1      34.561  33.648  33.639  1.00  0.00     0.117 C 
ENDROOT
BRANCH   1   2
ATOM      2  N   UNL A   1      34.613  35.100  33.589  1.00  0.00    -0.354 N 
ATOM      3  C   UNL A   1      34.065  36.020  32.750  1.00  0.00     0.244 C 
ATOM      4  O   UNL A   1      34.450  37.188  32.860  1.00  0.00    -0.273 OA
ATOM      5  H   UNL A   1      35.156  35.498  34.307  1.00  0.00     0.163 HD
BRANCH   3   6
ATOM      6  C   UNL A   1      33.184  35.620  31.572  1.00  0.00     0.197 C 
BRANCH   6   7
ATOM      7  N   UNL A   1      33.653  36.144  30.290  1.00  0.00    -0.342 N 
ATOM      8  C   UNL A   1      33.985  35.476  29.149  1.00  0.00     0.225 C 
ATOM      9  O   UNL A   1      34.228  36.155  28.146  1.00  0.00    -0.275 OA
ATOM     10  H   UNL A   1      33.741  37.123  30.243  1.00  0.00     0.164 HD
BRANCH   8  11
ATOM     11  C   UNL A   1      33.999  33.950  29.091  1.00  0.00     0.137 C 
BRANCH  11  12
ATOM     12  C   UNL A   1      35.299  33.288  29.464  1.00  0.00    -0.017 A 
ATOM     13  C   UNL A   1      34.973  30.832  28.650  1.00  0.00     0.065 C 
ATOM     14  C   UNL A   1      35.697  31.964  29.304  1.00  0.00     0.024 A 
ATOM     15  N   UNL A   1      36.993  31.827  29.813  1.00  0.00    -0.314 N 
ATOM     16  C   UNL A   1      36.398  33.956  30.076  1.00  0.00     0.033 A 
ATOM     17  C   UNL A   1      37.471  33.087  30.141  1.00  0.00     0.053 A 
BRANCH  15  18
ATOM     18  C   UNL A   1      37.798  30.671  29.677  1.00  0.00     0.046 A 
ATOM     19  C   UNL A   1      38.480  30.394  28.496  1.00  0.00     0.029 A 
ATOM     20  C   UNL A   1      37.865  29.796  30.759  1.00  0.00     0.029 A 
ATOM     21  C   UNL A   1      39.264  29.235  28.434  1.00  0.00     0.041 A 
ATOM     22  C   UNL A   1      38.689  28.677  30.718  1.00  0.00     0.041 A 
ATOM     23  C   UNL A   1      39.384  28.406  29.550  1.00  0.00     0.123 A 
ATOM     24  F   UNL A   1      40.183  27.333  29.497  1.00  0.00    -0.207 F 
ENDBRANCH  15  18
BRANCH  17  25
ATOM     25  C   UNL A   1      38.878  33.415  30.401  1.00  0.00    -0.001 A 
ATOM     26  C   UNL A   1      39.501  32.885  31.541  1.00  0.00     0.011 A 
ATOM     27  C   UNL A   1      39.635  34.194  29.525  1.00  0.00     0.011 A 
ATOM     28  C   UNL A   1      40.849  33.105  31.807  1.00  0.00     0.021 A 
ATOM     29  C   UNL A   1      40.998  34.416  29.780  1.00  0.00     0.021 A 
ATOM     30  C   UNL A   1      41.601  33.867  30.919  1.00  0.00     0.067 A 
BRANCH  30  31
ATOM     31  S   UNL A   1      43.375  33.937  31.113  1.00  0.00     0.175 S 
ATOM     32  C   UNL A   1      43.858  35.566  30.619  1.00  0.00     0.163 C 
ATOM     33  O   UNL A   1      43.639  33.786  32.539  1.00  0.00    -0.224 OA
ATOM     34  O   UNL A   1      43.912  32.964  30.181  1.00  0.00    -0.224 OA
ENDBRANCH  30  31
ENDBRANCH  17  25
ENDBRANCH  11  12
ENDBRANCH   8  11
ENDBRANCH   6   7
BRANCH   6  35
ATOM     35  C   UNL A   1      31.771  36.123  31.920  1.00  0.00     0.191 C 
BRANCH  35  36
ATOM     36  O   UNL A   1      31.737  36.699  33.227  1.00  0.00    -0.394 OA
ATOM     37  H   UNL A   1      30.971  36.356  33.712  1.00  0.00     0.210 HD
ENDBRANCH  35  36
ENDBRANCH   6  35
ENDBRANCH   3   6
ENDBRANCH   1   2
BRANCH   1  38
ATOM     38  C   UNL A   1      35.928  33.046  34.039  1.00  0.00     0.042 C 
BRANCH  38  39
ATOM     39  C   UNL A   1      37.099  33.961  33.661  1.00  0.00     0.118 C 
BRANCH  39  40
ATOM     40  N   UNL A   1      37.892  34.473  34.754  1.00  0.00    -0.352 N 
ATOM     41  C   UNL A   1      39.144  34.074  35.190  1.00  0.00     0.251 C 
ATOM     42  H   UNL A   1      37.485  35.213  35.261  1.00  0.00     0.163 HD
ATOM     43  O   UNL A   1      39.871  34.955  35.650  1.00  0.00    -0.269 OA
BRANCH  41  44
ATOM     44  C   UNL A   1      39.590  32.645  35.302  1.00  0.00     0.039 A 
ATOM     45  C   UNL A   1      40.955  32.438  35.534  1.00  0.00     0.014 A 
ATOM     46  C   UNL A   1      38.866  31.563  34.794  1.00  0.00     0.014 A 
ATOM     47  C   UNL A   1      41.573  31.178  35.309  1.00  0.00     0.010 A 
ATOM     48  C   UNL A   1      39.507  30.306  34.523  1.00  0.00     0.010 A 
ATOM     49  C   UNL A   1      40.878  30.067  34.775  1.00  0.00    -0.014 A 
BRANCH  49  50
ATOM     50  C   UNL A   1      41.723  29.074  33.958  1.00  0.00     0.031 A 
ATOM     51  C   UNL A   1      41.943  27.897  34.844  1.00  0.00     0.074 A 
ATOM     52  C   UNL A   1      42.251  28.962  32.691  1.00  0.00     0.049 A 
ATOM     53  N   UNL A   1      42.582  27.939  35.980  1.00  0.00    -0.248 NA
ATOM     54  C   UNL A   1      41.184  26.667  34.603  1.00  0.00     0.031 C 
ATOM     55  C   UNL A   1      42.298  29.980  31.636  1.00  0.00     0.029 A 
ATOM     56  N   UNL A   1      42.869  27.870  32.037  1.00  0.00    -0.354 N 
ATOM     57  C   UNL A   1      42.615  26.629  36.394  1.00  0.00     0.074 A 
ATOM     58  C   UNL A   1      41.530  25.977  35.688  1.00  0.00     0.031 C 
ATOM     59  C   UNL A   1      42.783  29.455  30.475  1.00  0.00     0.029 A 
ATOM     60  C   UNL A   1      43.130  28.050  30.650  1.00  0.00     0.049 A 
ATOM     61  H   UNL A   1      43.102  27.040  32.511  1.00  0.00     0.167 HD
ATOM     62  C   UNL A   1      43.808  26.077  36.745  1.00  0.00     0.034 A 
ATOM     63  C   UNL A   1      43.617  27.163  29.716  1.00  0.00     0.034 A 
ATOM     64  C   UNL A   1      44.203  24.963  35.924  1.00  0.00     0.049 A 
ATOM     65  C   UNL A   1      44.175  25.994  30.425  1.00  0.00     0.074 A 
ATOM     66  C   UNL A   1      43.584  23.823  35.446  1.00  0.00     0.029 A 
ATOM     67  N   UNL A   1      45.335  25.142  35.159  1.00  0.00    -0.354 N 
ATOM     68  N   UNL A   1      45.372  25.993  30.926  1.00  0.00    -0.248 NA
ATOM     69  C   UNL A   1      43.483  24.709  30.447  1.00  0.00     0.031 C 
ATOM     70  C   UNL A   1      44.163  23.547  34.181  1.00  0.00     0.029 A 
ATOM     71  C   UNL A   1      45.218  24.421  33.983  1.00  0.00     0.049 A 
ATOM     72  H   UNL A   1      46.108  25.697  35.410  1.00  0.00     0.167 HD
ATOM     73  C   UNL A   1      45.444  24.837  31.651  1.00  0.00     0.074 A 
ATOM     74  C   UNL A   1      44.358  24.006  31.167  1.00  0.00     0.031 C 
ATOM     75  C   UNL A   1      46.026  24.876  32.872  1.00  0.00     0.034 A 
BRANCH  62  76
ATOM     76  C   UNL A   1      44.759  26.959  37.495  1.00  0.00     0.023 A 
ATOM     77  C   UNL A   1      44.879  26.737  38.879  1.00  0.00     0.012 A 
ATOM     78  C   UNL A   1      45.436  28.055  36.916  1.00  0.00     0.148 A 
ATOM     79  C   UNL A   1      45.634  27.600  39.677  1.00  0.00     0.002 A 
ATOM     80  C   UNL A   1      46.131  28.948  37.727  1.00  0.00     0.091 A 
ATOM     81  F   UNL A   1      45.372  28.220  35.587  1.00  0.00    -0.205 F 
ATOM     82  C   UNL A   1      46.244  28.713  39.105  1.00  0.00     0.022 A 
BRANCH  80  83
ATOM     83  S   UNL A   1      46.806  30.490  37.101  1.00  0.00     0.127 S 
ATOM     84  O   UNL A   1      47.256  31.144  38.333  1.00  0.00    -0.237 OA
ATOM     85  O   UNL A   1      47.890  30.048  36.228  1.00  0.00    -0.237 OA
ATOM     86  O   UNL A   1      45.709  31.170  36.426  1.00  0.00    -0.744 OA
ENDBRANCH  80  83
ENDBRANCH  62  76
BRANCH  63  87
ATOM     87  C   UNL A   1      43.884  27.024  28.211  1.00  0.00     0.023 A 
ATOM     88  C   UNL A   1      42.744  26.780  27.373  1.00  0.00     0.012 A 
ATOM     89  C   UNL A   1      45.040  27.472  27.547  1.00  0.00     0.148 A 
ATOM     90  C   UNL A   1      42.698  27.098  26.011  1.00  0.00     0.002 A 
ATOM     91  C   UNL A   1      45.007  27.739  26.157  1.00  0.00     0.091 A 
ATOM     92  F   UNL A   1      46.133  27.743  28.273  1.00  0.00    -0.205 F 
ATOM     93  C   UNL A   1      43.832  27.593  25.402  1.00  0.00     0.022 A 
BRANCH  91  94
ATOM     94  S   UNL A   1      46.444  28.331  25.243  1.00  0.00     0.127 S 
ATOM     95  O   UNL A   1      47.563  27.697  25.945  1.00  0.00    -0.237 OA
ATOM     96  O   UNL A   1      46.194  27.801  23.905  1.00  0.00    -0.237 OA
ATOM     97  O   UNL A   1      46.400  29.780  25.382  1.00  0.00    -0.744 OA
ENDBRANCH  91  94
ENDBRANCH  63  87
BRANCH  75  98
ATOM     98  C   UNL A   1      47.285  25.701  33.064  1.00  0.00     0.023 A 
ATOM     99  C   UNL A   1      47.381  27.100  32.893  1.00  0.00     0.012 A 
ATOM    100  C   UNL A   1      48.446  25.019  33.468  1.00  0.00     0.148 A 
ATOM    101  C   UNL A   1      48.586  27.782  33.089  1.00  0.00     0.002 A 
ATOM    102  C   UNL A   1      49.633  25.705  33.712  1.00  0.00     0.091 A 
ATOM    103  F   UNL A   1      48.388  23.684  33.601  1.00  0.00    -0.205 F 
ATOM    104  C   UNL A   1      49.712  27.088  33.514  1.00  0.00     0.022 A 
BRANCH 102 105
ATOM    105  S   UNL A   1      51.059  24.814  34.330  1.00  0.00     0.127 S 
ATOM    106  O   UNL A   1      51.899  25.896  34.841  1.00  0.00    -0.237 OA
ATOM    107  O   UNL A   1      50.500  23.943  35.362  1.00  0.00    -0.237 OA
ATOM    108  O   UNL A   1      51.580  24.106  33.164  1.00  0.00    -0.744 OA
ENDBRANCH 102 105
ENDBRANCH  75  98
ENDBRANCH  49  50
ENDBRANCH  41  44
ENDBRANCH  39  40
ENDBRANCH  38  39
ENDBRANCH   1  38
TORSDOF 21
ENDMDL
MODEL 3
REMARK VINA RESULT:      -8.4      4.667     11.246
REMARK SMILES Cc1c(CC(=O)N[C@H](CO)C(=O)NCCCNC(=O)c2ccc(-c3c4nc(c(-c5cccc(S(=O)(=O)[O-])c5F)c5ccc([nH]5)c(-c5cccc(S(=O)(=O)[O-])c5F)c5nc(c(-c6cccc(S(=O)(=O)[O-])c6F)c6ccc3[nH]6)C=C5)C=C4)cc2)cc(-c2ccc(S(C)(=O)=O)cc2)n1-c1ccc(F)cc1
REMARK SMILES IDX 14 1 13 2 11 3 12 4 8 6 7 7 5 8 6 9 4 11 3 12 1 13 2 14
REMARK SMILES IDX 95 15 83 16 84 17 96 18 97 19 102 20 98 21 101 22 99 23
REMARK SMILES IDX 100 24 85 25 86 26 94 27 87 28 93 29 88 30 89 31 90 32 91 33
REMARK SMILES IDX 92 34 9 35 10 36 15 38 16 39 17 40 18 41 19 43 20 44 21 45
REMARK SMILES IDX 82 46 22 47 81 48 23 49 24 50 25 51 75 52 26 53 80 54 74 55
REMARK SMILES IDX 76 56 27 57 79 58 73 59 72 60 28 62 60 63 40 64 59 65 41 66
REMARK SMILES IDX 44 67 58 68 77 69 42 70 43 71 57 73 78 74 45 75 29 76 30 77
REMARK SMILES IDX 38 78 31 79 33 80 39 81 32 82 34 83 35 84 36 85 37 86 61 87
REMARK SMILES IDX 62 88 70 89 63 90 65 91 71 92 64 93 66 94 67 95 68 96 69 97
REMARK SMILES IDX 46 98 47 99 55 100 48 101 50 102 56 103 49 104 51 105 52 106
REMARK SMILES IDX 53 107 54 108
REMARK H PARENT 13 5 7 10 10 37 17 42 76 61 44 72
REMARK Flexibility Score: inf
ROOT
ATOM      1  C   UNL A   1      45.922  26.247  26.488  1.00  0.00     0.117 C 
ENDROOT
BRANCH   1   2
ATOM      2  N   UNL A   1      46.079  27.327  25.528  1.00  0.00    -0.354 N 
ATOM      3  C   UNL A   1      47.099  27.702  24.710  1.00  0.00     0.244 C 
ATOM      4  O   UNL A   1      46.997  28.790  24.137  1.00  0.00    -0.273 OA
ATOM      5  H   UNL A   1      45.285  27.906  25.455  1.00  0.00     0.163 HD
BRANCH   3   6
ATOM      6  C   UNL A   1      48.419  26.940  24.660  1.00  0.00     0.197 C 
BRANCH   6   7
ATOM      7  N   UNL A   1      49.592  27.794  24.840  1.00  0.00    -0.342 N 
ATOM      8  C   UNL A   1      50.298  28.071  25.973  1.00  0.00     0.225 C 
ATOM      9  O   UNL A   1      51.339  28.723  25.846  1.00  0.00    -0.275 OA
ATOM     10  H   UNL A   1      49.921  28.233  24.023  1.00  0.00     0.164 HD
BRANCH   8  11
ATOM     11  C   UNL A   1      49.855  27.550  27.338  1.00  0.00     0.137 C 
BRANCH  11  12
ATOM     12  C   UNL A   1      49.021  28.491  28.166  1.00  0.00    -0.017 A 
ATOM     13  C   UNL A   1      49.539  27.757  30.614  1.00  0.00     0.065 C 
ATOM     14  C   UNL A   1      48.865  28.558  29.548  1.00  0.00     0.024 A 
ATOM     15  N   UNL A   1      47.977  29.598  29.844  1.00  0.00    -0.314 N 
ATOM     16  C   UNL A   1      48.208  29.531  27.630  1.00  0.00     0.033 A 
ATOM     17  C   UNL A   1      47.702  30.287  28.672  1.00  0.00     0.053 A 
BRANCH  15  18
ATOM     18  C   UNL A   1      47.701  30.081  31.144  1.00  0.00     0.046 A 
ATOM     19  C   UNL A   1      46.511  29.773  31.798  1.00  0.00     0.029 A 
ATOM     20  C   UNL A   1      48.649  30.906  31.746  1.00  0.00     0.029 A 
ATOM     21  C   UNL A   1      46.307  30.279  33.087  1.00  0.00     0.041 A 
ATOM     22  C   UNL A   1      48.473  31.361  33.047  1.00  0.00     0.041 A 
ATOM     23  C   UNL A   1      47.297  31.042  33.708  1.00  0.00     0.123 A 
ATOM     24  F   UNL A   1      47.114  31.472  34.963  1.00  0.00    -0.207 F 
ENDBRANCH  15  18
BRANCH  17  25
ATOM     25  C   UNL A   1      47.082  31.615  28.599  1.00  0.00    -0.001 A 
ATOM     26  C   UNL A   1      47.859  32.745  28.897  1.00  0.00     0.011 A 
ATOM     27  C   UNL A   1      45.761  31.799  28.191  1.00  0.00     0.011 A 
ATOM     28  C   UNL A   1      47.348  34.035  28.782  1.00  0.00     0.021 A 
ATOM     29  C   UNL A   1      45.238  33.096  28.064  1.00  0.00     0.021 A 
ATOM     30  C   UNL A   1      46.036  34.210  28.357  1.00  0.00     0.067 A 
BRANCH  30  31
ATOM     31  S   UNL A   1      45.458  35.853  27.959  1.00  0.00     0.175 S 
ATOM     32  C   UNL A   1      46.706  36.965  28.536  1.00  0.00     0.163 C 
ATOM     33  O   UNL A   1      45.403  35.928  26.504  1.00  0.00    -0.224 OA
ATOM     34  O   UNL A   1      44.243  36.040  28.729  1.00  0.00    -0.224 OA
ENDBRANCH  30  31
ENDBRANCH  17  25
ENDBRANCH  11  12
ENDBRANCH   8  11
ENDBRANCH   6   7
BRANCH   6  35
ATOM     35  C   UNL A   1      48.432  26.219  23.299  1.00  0.00     0.191 C 
BRANCH  35  36
ATOM     36  O   UNL A   1      48.164  27.130  22.232  1.00  0.00    -0.394 OA
ATOM     37  H   UNL A   1      48.478  28.015  22.474  1.00  0.00     0.210 HD
ENDBRANCH  35  36
ENDBRANCH   6  35
ENDBRANCH   3   6
ENDBRANCH   1   2
BRANCH   1  38
ATOM     38  C   UNL A   1      44.581  25.504  26.291  1.00  0.00     0.042 C 
BRANCH  38  39
ATOM     39  C   UNL A   1      44.110  24.805  27.573  1.00  0.00     0.118 C 
BRANCH  39  40
ATOM     40  N   UNL A   1      43.256  23.654  27.399  1.00  0.00    -0.352 N 
ATOM     41  C   UNL A   1      41.983  23.582  26.862  1.00  0.00     0.251 C 
ATOM     42  H   UNL A   1      43.634  22.798  27.705  1.00  0.00     0.163 HD
ATOM     43  O   UNL A   1      41.704  22.551  26.246  1.00  0.00    -0.269 OA
BRANCH  41  44
ATOM     44  C   UNL A   1      40.889  24.574  27.129  1.00  0.00     0.039 A 
ATOM     45  C   UNL A   1      40.939  25.765  26.393  1.00  0.00     0.014 A 
ATOM     46  C   UNL A   1      40.117  24.585  28.294  1.00  0.00     0.014 A 
ATOM     47  C   UNL A   1      40.207  26.919  26.782  1.00  0.00     0.010 A 
ATOM     48  C   UNL A   1      39.418  25.770  28.707  1.00  0.00     0.010 A 
ATOM     49  C   UNL A   1      39.432  26.974  27.966  1.00  0.00    -0.014 A 
BRANCH  49  50
ATOM     50  C   UNL A   1      39.292  28.363  28.614  1.00  0.00     0.031 A 
ATOM     51  C   UNL A   1      40.662  28.750  29.053  1.00  0.00     0.074 A 
ATOM     52  C   UNL A   1      38.316  29.308  28.834  1.00  0.00     0.049 A 
ATOM     53  N   UNL A   1      41.363  28.099  29.938  1.00  0.00    -0.248 NA
ATOM     54  C   UNL A   1      41.408  29.746  28.279  1.00  0.00     0.031 C 
ATOM     55  C   UNL A   1      36.870  29.186  28.617  1.00  0.00     0.029 A 
ATOM     56  N   UNL A   1      38.403  30.642  29.299  1.00  0.00    -0.354 N 
ATOM     57  C   UNL A   1      42.500  28.856  30.088  1.00  0.00     0.074 A 
ATOM     58  C   UNL A   1      42.593  29.650  28.879  1.00  0.00     0.031 C 
ATOM     59  C   UNL A   1      36.243  30.378  28.827  1.00  0.00     0.029 A 
ATOM     60  C   UNL A   1      37.203  31.401  29.228  1.00  0.00     0.049 A 
ATOM     61  H   UNL A   1      39.242  31.019  29.650  1.00  0.00     0.167 HD
ATOM     62  C   UNL A   1      42.887  29.227  31.339  1.00  0.00     0.034 A 
ATOM     63  C   UNL A   1      36.975  32.731  29.497  1.00  0.00     0.034 A 
ATOM     64  C   UNL A   1      42.906  30.650  31.550  1.00  0.00     0.049 A 
ATOM     65  C   UNL A   1      38.143  33.269  30.225  1.00  0.00     0.074 A 
ATOM     66  C   UNL A   1      43.392  31.742  30.855  1.00  0.00     0.029 A 
ATOM     67  N   UNL A   1      42.005  31.142  32.469  1.00  0.00    -0.354 N 
ATOM     68  N   UNL A   1      38.292  33.121  31.505  1.00  0.00    -0.248 NA
ATOM     69  C   UNL A   1      39.108  34.152  29.577  1.00  0.00     0.031 C 
ATOM     70  C   UNL A   1      42.511  32.821  31.128  1.00  0.00     0.029 A 
ATOM     71  C   UNL A   1      41.607  32.413  32.093  1.00  0.00     0.049 A 
ATOM     72  H   UNL A   1      41.694  30.663  33.270  1.00  0.00     0.167 HD
ATOM     73  C   UNL A   1      39.555  33.572  31.762  1.00  0.00     0.074 A 
ATOM     74  C   UNL A   1      39.928  34.366  30.608  1.00  0.00     0.031 C 
ATOM     75  C   UNL A   1      40.333  32.862  32.613  1.00  0.00     0.034 A 
BRANCH  62  76
ATOM     76  C   UNL A   1      42.707  28.209  32.424  1.00  0.00     0.023 A 
ATOM     77  C   UNL A   1      41.592  28.366  33.267  1.00  0.00     0.012 A 
ATOM     78  C   UNL A   1      43.643  27.191  32.710  1.00  0.00     0.148 A 
ATOM     79  C   UNL A   1      41.424  27.549  34.387  1.00  0.00     0.002 A 
ATOM     80  C   UNL A   1      43.505  26.425  33.863  1.00  0.00     0.091 A 
ATOM     81  F   UNL A   1      44.666  27.004  31.863  1.00  0.00    -0.205 F 
ATOM     82  C   UNL A   1      42.388  26.591  34.695  1.00  0.00     0.022 A 
BRANCH  80  83
ATOM     83  S   UNL A   1      44.778  25.287  34.421  1.00  0.00     0.127 S 
ATOM     84  O   UNL A   1      44.586  24.152  33.514  1.00  0.00    -0.237 OA
ATOM     85  O   UNL A   1      46.013  26.034  34.194  1.00  0.00    -0.237 OA
ATOM     86  O   UNL A   1      44.482  24.998  35.818  1.00  0.00    -0.744 OA
ENDBRANCH  80  83
ENDBRANCH  62  76
BRANCH  63  87
ATOM     87  C   UNL A   1      35.888  33.811  29.408  1.00  0.00     0.023 A 
ATOM     88  C   UNL A   1      35.203  33.935  28.153  1.00  0.00     0.012 A 
ATOM     89  C   UNL A   1      35.253  34.416  30.509  1.00  0.00     0.148 A 
ATOM     90  C   UNL A   1      33.920  34.478  28.018  1.00  0.00     0.002 A 
ATOM     91  C   UNL A   1      33.980  35.015  30.357  1.00  0.00     0.091 A 
ATOM     92  F   UNL A   1      35.827  34.317  31.715  1.00  0.00    -0.205 F 
ATOM     93  C   UNL A   1      33.299  35.010  29.129  1.00  0.00     0.022 A 
BRANCH  91  94
ATOM     94  S   UNL A   1      33.100  35.795  31.724  1.00  0.00     0.127 S 
ATOM     95  O   UNL A   1      32.592  34.649  32.484  1.00  0.00    -0.237 OA
ATOM     96  O   UNL A   1      34.169  36.535  32.392  1.00  0.00    -0.237 OA
ATOM     97  O   UNL A   1      32.062  36.594  31.089  1.00  0.00    -0.744 OA
ENDBRANCH  91  94
ENDBRANCH  63  87
BRANCH  75  98
ATOM     98  C   UNL A   1      39.713  32.278  33.868  1.00  0.00     0.023 A 
ATOM     99  C   UNL A   1      39.040  31.038  33.948  1.00  0.00     0.012 A 
ATOM    100  C   UNL A   1      39.839  33.022  35.055  1.00  0.00     0.148 A 
ATOM    101  C   UNL A   1      38.495  30.576  35.150  1.00  0.00     0.002 A 
ATOM    102  C   UNL A   1      39.340  32.537  36.261  1.00  0.00     0.091 A 
ATOM    103  F   UNL A   1      40.442  34.220  34.995  1.00  0.00    -0.205 F 
ATOM    104  C   UNL A   1      38.657  31.318  36.314  1.00  0.00     0.022 A 
BRANCH 102 105
ATOM    105  S   UNL A   1      39.616  33.465  37.768  1.00  0.00     0.127 S 
ATOM    106  O   UNL A   1      41.024  33.840  37.644  1.00  0.00    -0.237 OA
ATOM    107  O   UNL A   1      38.681  34.583  37.661  1.00  0.00    -0.237 OA
ATOM    108  O   UNL A   1      39.305  32.523  38.840  1.00  0.00    -0.744 OA
ENDBRANCH 102 105
ENDBRANCH  75  98
ENDBRANCH  49  50
ENDBRANCH  41  44
ENDBRANCH  39  40
ENDBRANCH  38  39
ENDBRANCH   1  38
TORSDOF 21
ENDMDL
