MODEL 1
REMARK VINA RESULT:     -12.4      0.000      0.000
REMARK SMILES COc1ccc([C@@H]2C(C#N)=C(N)N3C(=O)[C@H](CC(=O)NCCCNC(=O)c4ccc(-c5c6nc(c(-c7cccc(S(=O)(=O)[O-])c7F)c7ccc([nH]7)c(-c7cccc(S(=O)(=O)[O-])c7F)c7nc(c(-c8cccc(S(=O)(=O)[O-])c8F)c8ccc5[nH]8)C=C7)C=C6)cc4)SC3=C2C#N)cc1
REMARK SMILES IDX 22 1 21 2 20 3 18 4 19 5 17 7 16 8 7 9 8 10 92 11 11 12
REMARK SMILES IDX 91 13 13 14 90 15 14 16 15 17 6 18 3 19 4 20 96 21 5 22
REMARK SMILES IDX 95 23 2 24 1 25 9 26 10 27 93 28 94 29 12 30 23 33 24 34
REMARK SMILES IDX 25 35 26 37 27 38 28 39 89 40 29 41 88 42 30 43 31 44 32 45
REMARK SMILES IDX 82 46 33 47 87 48 81 49 83 50 34 51 86 52 80 53 79 54 35 56
REMARK SMILES IDX 67 57 47 58 66 59 48 60 51 61 65 62 84 63 49 64 50 65 64 67
REMARK SMILES IDX 85 68 52 69 36 70 37 71 45 72 38 73 40 74 46 75 39 76 41 77
REMARK SMILES IDX 42 78 43 79 44 80 68 81 69 82 77 83 70 84 72 85 78 86 71 87
REMARK SMILES IDX 73 88 74 89 75 90 76 91 53 92 54 93 62 94 55 95 57 96 63 97
REMARK SMILES IDX 56 98 58 99 59 100 60 101 61 102
REMARK H PARENT 20 6 12 31 12 32 24 36 83 55 51 66
REMARK Flexibility Score: inf
ROOT
ATOM      1  C   UNL A   1      30.793  31.922  25.724  1.00  0.00     0.042 C 
ENDROOT
BRANCH   1   2
ATOM      2  C   UNL A   1      30.648  30.549  25.071  1.00  0.00     0.117 C 
BRANCH   2   3
ATOM      3  N   UNL A   1      30.300  30.615  23.657  1.00  0.00    -0.356 N 
ATOM      4  C   UNL A   1      30.028  29.630  22.761  1.00  0.00     0.221 C 
ATOM      5  O   UNL A   1      29.748  29.945  21.603  1.00  0.00    -0.275 OA
ATOM      6  H   UNL A   1      30.255  31.527  23.290  1.00  0.00     0.163 HD
BRANCH   4   7
ATOM      7  C   UNL A   1      30.077  28.179  23.167  1.00  0.00     0.125 C 
BRANCH   7   8
ATOM      8  C   UNL A   1      31.527  27.733  23.276  1.00  0.00     0.152 C 
ATOM      9  C   UNL A   1      33.317  23.425  24.793  1.00  0.00     0.107 C 
ATOM     10  C   UNL A   1      32.565  23.920  26.013  1.00  0.00     0.083 C 
ATOM     11  C   UNL A   1      32.801  24.099  23.541  1.00  0.00     0.073 C 
ATOM     12  C   UNL A   1      32.007  25.164  26.000  1.00  0.00     0.126 C 
ATOM     13  C   UNL A   1      32.205  25.282  23.612  1.00  0.00     0.099 C 
ATOM     14  N   UNL A   1      32.003  25.915  24.805  1.00  0.00    -0.258 N 
ATOM     15  S   UNL A   1      31.768  26.248  22.252  1.00  0.00    -0.093 SA
ATOM     16  C   UNL A   1      31.871  27.290  24.691  1.00  0.00     0.247 C 
ATOM     17  O   UNL A   1      32.061  28.091  25.601  1.00  0.00    -0.273 OA
BRANCH   9  18
ATOM     18  C   UNL A   1      33.427  21.907  24.735  1.00  0.00    -0.034 A 
ATOM     19  C   UNL A   1      33.582  19.119  24.339  1.00  0.00     0.118 A 
ATOM     20  C   UNL A   1      32.368  19.785  24.187  1.00  0.00     0.047 A 
ATOM     21  C   UNL A   1      34.721  19.847  24.691  1.00  0.00     0.047 A 
ATOM     22  C   UNL A   1      32.286  21.163  24.387  1.00  0.00     0.008 A 
ATOM     23  C   UNL A   1      34.646  21.232  24.893  1.00  0.00     0.008 A 
BRANCH  19  24
ATOM     24  O   UNL A   1      33.528  17.777  24.084  1.00  0.00    -0.497 OA
ATOM     25  C   UNL A   1      34.766  17.101  23.944  1.00  0.00     0.278 C 
ENDBRANCH  19  24
ENDBRANCH   9  18
BRANCH  10  26
ATOM     26  C   UNL A   1      32.641  23.072  27.272  1.00  0.00     0.100 C 
ATOM     27  N   UNL A   1      32.704  22.368  28.317  1.00  0.00    -0.193 NA
ENDBRANCH  10  26
BRANCH  11  28
ATOM     28  C   UNL A   1      33.072  23.461  22.188  1.00  0.00     0.098 C 
ATOM     29  N   UNL A   1      33.295  22.932  21.065  1.00  0.00    -0.193 NA
ENDBRANCH  11  28
BRANCH  12  30
ATOM     30  N   UNL A   1      31.429  25.705  27.120  1.00  0.00    -0.384 N 
ATOM     31  H   UNL A   1      31.943  25.769  27.958  1.00  0.00     0.158 HD
ATOM     32  H   UNL A   1      30.500  26.030  27.088  1.00  0.00     0.158 HD
ENDBRANCH  12  30
ENDBRANCH   7   8
ENDBRANCH   4   7
ENDBRANCH   2   3
ENDBRANCH   1   2
BRANCH   1  33
ATOM     33  C   UNL A   1      31.947  32.042  26.701  1.00  0.00     0.118 C 
BRANCH  33  34
ATOM     34  N   UNL A   1      32.159  33.424  27.073  1.00  0.00    -0.352 N 
ATOM     35  C   UNL A   1      33.046  33.975  27.966  1.00  0.00     0.251 C 
ATOM     36  H   UNL A   1      31.576  34.070  26.615  1.00  0.00     0.163 HD
ATOM     37  O   UNL A   1      32.802  35.106  28.385  1.00  0.00    -0.269 OA
BRANCH  35  38
ATOM     38  C   UNL A   1      34.263  33.262  28.447  1.00  0.00     0.039 A 
ATOM     39  C   UNL A   1      34.106  31.976  28.982  1.00  0.00     0.014 A 
ATOM     40  C   UNL A   1      35.524  33.859  28.505  1.00  0.00     0.014 A 
ATOM     41  C   UNL A   1      35.189  31.308  29.570  1.00  0.00     0.010 A 
ATOM     42  C   UNL A   1      36.625  33.153  28.999  1.00  0.00     0.010 A 
ATOM     43  C   UNL A   1      36.466  31.888  29.582  1.00  0.00    -0.014 A 
BRANCH  43  44
ATOM     44  C   UNL A   1      37.623  31.225  30.249  1.00  0.00     0.031 A 
ATOM     45  C   UNL A   1      37.965  31.551  31.687  1.00  0.00     0.074 A 
ATOM     46  C   UNL A   1      38.422  30.390  29.553  1.00  0.00     0.049 A 
ATOM     47  N   UNL A   1      38.976  31.139  32.409  1.00  0.00    -0.248 NA
ATOM     48  C   UNL A   1      37.076  32.489  32.394  1.00  0.00     0.031 C 
ATOM     49  C   UNL A   1      38.265  30.052  28.137  1.00  0.00     0.029 A 
ATOM     50  N   UNL A   1      39.547  29.699  29.934  1.00  0.00    -0.354 N 
ATOM     51  C   UNL A   1      38.882  31.815  33.623  1.00  0.00     0.074 A 
ATOM     52  C   UNL A   1      37.725  32.677  33.535  1.00  0.00     0.031 C 
ATOM     53  C   UNL A   1      39.259  29.230  27.768  1.00  0.00     0.029 A 
ATOM     54  C   UNL A   1      40.139  28.996  28.909  1.00  0.00     0.049 A 
ATOM     55  H   UNL A   1      39.899  29.708  30.854  1.00  0.00     0.167 HD
ATOM     56  C   UNL A   1      39.666  31.709  34.722  1.00  0.00     0.034 A 
ATOM     57  C   UNL A   1      41.263  28.252  28.887  1.00  0.00     0.034 A 
ATOM     58  C   UNL A   1      40.752  30.776  34.852  1.00  0.00     0.049 A 
ATOM     59  C   UNL A   1      42.049  28.064  30.158  1.00  0.00     0.074 A 
ATOM     60  C   UNL A   1      41.509  30.491  35.975  1.00  0.00     0.029 A 
ATOM     61  N   UNL A   1      41.232  29.974  33.831  1.00  0.00    -0.354 N 
ATOM     62  N   UNL A   1      41.826  28.566  31.347  1.00  0.00    -0.248 NA
ATOM     63  C   UNL A   1      43.219  27.174  30.094  1.00  0.00     0.031 C 
ATOM     64  C   UNL A   1      42.456  29.523  35.630  1.00  0.00     0.029 A 
ATOM     65  C   UNL A   1      42.281  29.200  34.294  1.00  0.00     0.049 A 
ATOM     66  H   UNL A   1      40.880  29.959  32.911  1.00  0.00     0.167 HD
ATOM     67  C   UNL A   1      42.804  28.030  32.178  1.00  0.00     0.074 A 
ATOM     68  C   UNL A   1      43.607  27.145  31.362  1.00  0.00     0.031 C 
ATOM     69  C   UNL A   1      43.030  28.268  33.492  1.00  0.00     0.034 A 
BRANCH  56  70
ATOM     70  C   UNL A   1      39.343  32.571  35.915  1.00  0.00     0.023 A 
ATOM     71  C   UNL A   1      39.809  33.900  35.960  1.00  0.00     0.012 A 
ATOM     72  C   UNL A   1      38.496  32.100  36.939  1.00  0.00     0.148 A 
ATOM     73  C   UNL A   1      39.461  34.740  37.016  1.00  0.00     0.002 A 
ATOM     74  C   UNL A   1      38.120  32.955  37.968  1.00  0.00     0.091 A 
ATOM     75  F   UNL A   1      38.076  30.828  36.886  1.00  0.00    -0.205 F 
ATOM     76  C   UNL A   1      38.608  34.272  38.012  1.00  0.00     0.022 A 
BRANCH  74  77
ATOM     77  S   UNL A   1      36.964  32.476  39.258  1.00  0.00     0.127 S 
ATOM     78  O   UNL A   1      37.327  33.398  40.334  1.00  0.00    -0.237 OA
ATOM     79  O   UNL A   1      35.671  32.752  38.630  1.00  0.00    -0.237 OA
ATOM     80  O   UNL A   1      37.222  31.069  39.527  1.00  0.00    -0.744 OA
ENDBRANCH  74  77
ENDBRANCH  56  70
BRANCH  57  81
ATOM     81  C   UNL A   1      41.679  27.572  27.627  1.00  0.00     0.023 A 
ATOM     82  C   UNL A   1      42.111  28.347  26.534  1.00  0.00     0.012 A 
ATOM     83  C   UNL A   1      41.667  26.169  27.511  1.00  0.00     0.148 A 
ATOM     84  C   UNL A   1      42.494  27.738  25.338  1.00  0.00     0.002 A 
ATOM     85  C   UNL A   1      42.099  25.566  26.334  1.00  0.00     0.091 A 
ATOM     86  F   UNL A   1      41.235  25.443  28.552  1.00  0.00    -0.205 F 
ATOM     87  C   UNL A   1      42.498  26.349  25.240  1.00  0.00     0.022 A 
BRANCH  85  88
ATOM     88  S   UNL A   1      42.238  23.778  26.199  1.00  0.00     0.127 S 
ATOM     89  O   UNL A   1      42.867  23.621  24.893  1.00  0.00    -0.237 OA
ATOM     90  O   UNL A   1      43.093  23.437  27.337  1.00  0.00    -0.237 OA
ATOM     91  O   UNL A   1      40.870  23.285  26.321  1.00  0.00    -0.744 OA
ENDBRANCH  85  88
ENDBRANCH  57  81
BRANCH  69  92
ATOM     92  C   UNL A   1      44.173  27.546  34.154  1.00  0.00     0.023 A 
ATOM     93  C   UNL A   1      45.436  28.163  34.227  1.00  0.00     0.012 A 
ATOM     94  C   UNL A   1      43.974  26.300  34.783  1.00  0.00     0.148 A 
ATOM     95  C   UNL A   1      46.492  27.541  34.892  1.00  0.00     0.002 A 
ATOM     96  C   UNL A   1      45.018  25.707  35.482  1.00  0.00     0.091 A 
ATOM     97  F   UNL A   1      42.769  25.719  34.686  1.00  0.00    -0.205 F 
ATOM     98  C   UNL A   1      46.280  26.321  35.530  1.00  0.00     0.022 A 
BRANCH  96  99
ATOM     99  S   UNL A   1      44.804  24.184  36.412  1.00  0.00     0.127 S 
ATOM    100  O   UNL A   1      44.085  24.654  37.594  1.00  0.00    -0.237 OA
ATOM    101  O   UNL A   1      44.004  23.367  35.497  1.00  0.00    -0.237 OA
ATOM    102  O   UNL A   1      46.147  23.674  36.653  1.00  0.00    -0.744 OA
ENDBRANCH  96  99
ENDBRANCH  69  92
ENDBRANCH  43  44
ENDBRANCH  35  38
ENDBRANCH  33  34
ENDBRANCH   1  33
TORSDOF 19
ENDMDL
MODEL 2
REMARK VINA RESULT:     -12.4      1.411      7.499
REMARK SMILES COc1ccc([C@@H]2C(C#N)=C(N)N3C(=O)[C@H](CC(=O)NCCCNC(=O)c4ccc(-c5c6nc(c(-c7cccc(S(=O)(=O)[O-])c7F)c7ccc([nH]7)c(-c7cccc(S(=O)(=O)[O-])c7F)c7nc(c(-c8cccc(S(=O)(=O)[O-])c8F)c8ccc5[nH]8)C=C7)C=C6)cc4)SC3=C2C#N)cc1
REMARK SMILES IDX 22 1 21 2 20 3 18 4 19 5 17 7 16 8 7 9 8 10 92 11 11 12
REMARK SMILES IDX 91 13 13 14 90 15 14 16 15 17 6 18 3 19 4 20 96 21 5 22
REMARK SMILES IDX 95 23 2 24 1 25 9 26 10 27 93 28 94 29 12 30 23 33 24 34
REMARK SMILES IDX 25 35 26 37 27 38 28 39 89 40 29 41 88 42 30 43 31 44 32 45
REMARK SMILES IDX 82 46 33 47 87 48 81 49 83 50 34 51 86 52 80 53 79 54 35 56
REMARK SMILES IDX 67 57 47 58 66 59 48 60 51 61 65 62 84 63 49 64 50 65 64 67
REMARK SMILES IDX 85 68 52 69 36 70 37 71 45 72 38 73 40 74 46 75 39 76 41 77
REMARK SMILES IDX 42 78 43 79 44 80 68 81 69 82 77 83 70 84 72 85 78 86 71 87
REMARK SMILES IDX 73 88 74 89 75 90 76 91 53 92 54 93 62 94 55 95 57 96 63 97
REMARK SMILES IDX 56 98 58 99 59 100 60 101 61 102
REMARK H PARENT 20 6 12 31 12 32 24 36 83 55 51 66
REMARK Flexibility Score: inf
ROOT
ATOM      1  C   UNL A   1      31.169  31.736  26.490  1.00  0.00     0.042 C 
ENDROOT
BRANCH   1   2
ATOM      2  C   UNL A   1      31.248  30.441  25.682  1.00  0.00     0.117 C 
BRANCH   2   3
ATOM      3  N   UNL A   1      30.715  30.569  24.332  1.00  0.00    -0.356 N 
ATOM      4  C   UNL A   1      30.288  29.626  23.451  1.00  0.00     0.221 C 
ATOM      5  O   UNL A   1      29.866  29.991  22.352  1.00  0.00    -0.275 OA
ATOM      6  H   UNL A   1      30.656  31.494  24.002  1.00  0.00     0.163 HD
BRANCH   4   7
ATOM      7  C   UNL A   1      30.336  28.161  23.803  1.00  0.00     0.125 C 
BRANCH   7   8
ATOM      8  C   UNL A   1      31.780  27.683  23.781  1.00  0.00     0.152 C 
ATOM      9  C   UNL A   1      33.551  23.198  24.684  1.00  0.00     0.107 C 
ATOM     10  C   UNL A   1      32.873  23.558  25.993  1.00  0.00     0.083 C 
ATOM     11  C   UNL A   1      32.987  24.024  23.549  1.00  0.00     0.073 C 
ATOM     12  C   UNL A   1      32.342  24.803  26.156  1.00  0.00     0.126 C 
ATOM     13  C   UNL A   1      32.421  25.199  23.790  1.00  0.00     0.099 C 
ATOM     14  N   UNL A   1      32.294  25.690  25.059  1.00  0.00    -0.258 N 
ATOM     15  S   UNL A   1      31.935  26.326  22.578  1.00  0.00    -0.093 SA
ATOM     16  C   UNL A   1      32.185  27.070  25.113  1.00  0.00     0.247 C 
ATOM     17  O   UNL A   1      32.439  27.755  26.100  1.00  0.00    -0.273 OA
BRANCH   9  18
ATOM     18  C   UNL A   1      33.626  21.697  24.443  1.00  0.00    -0.034 A 
ATOM     19  C   UNL A   1      33.787  18.885  24.287  1.00  0.00     0.118 A 
ATOM     20  C   UNL A   1      34.894  19.632  24.682  1.00  0.00     0.047 A 
ATOM     21  C   UNL A   1      32.598  19.543  23.967  1.00  0.00     0.047 A 
ATOM     22  C   UNL A   1      34.820  21.023  24.755  1.00  0.00     0.008 A 
ATOM     23  C   UNL A   1      32.516  20.941  24.040  1.00  0.00     0.008 A 
BRANCH  19  24
ATOM     24  O   UNL A   1      33.987  17.533  24.288  1.00  0.00    -0.497 OA
ATOM     25  C   UNL A   1      33.372  16.794  25.330  1.00  0.00     0.278 C 
ENDBRANCH  19  24
ENDBRANCH   9  18
BRANCH  10  26
ATOM     26  C   UNL A   1      32.996  22.566  27.138  1.00  0.00     0.100 C 
ATOM     27  N   UNL A   1      33.098  21.741  28.087  1.00  0.00    -0.193 NA
ENDBRANCH  10  26
BRANCH  11  28
ATOM     28  C   UNL A   1      33.174  23.546  22.119  1.00  0.00     0.098 C 
ATOM     29  N   UNL A   1      33.329  23.151  20.931  1.00  0.00    -0.193 NA
ENDBRANCH  11  28
BRANCH  12  30
ATOM     30  N   UNL A   1      31.835  25.216  27.361  1.00  0.00    -0.384 N 
ATOM     31  H   UNL A   1      31.916  24.639  28.154  1.00  0.00     0.158 HD
ATOM     32  H   UNL A   1      31.388  26.091  27.433  1.00  0.00     0.158 HD
ENDBRANCH  12  30
ENDBRANCH   7   8
ENDBRANCH   4   7
ENDBRANCH   2   3
ENDBRANCH   1   2
BRANCH   1  33
ATOM     33  C   UNL A   1      32.483  32.186  27.097  1.00  0.00     0.118 C 
BRANCH  33  34
ATOM     34  N   UNL A   1      32.486  33.618  27.302  1.00  0.00    -0.352 N 
ATOM     35  C   UNL A   1      33.070  34.371  28.293  1.00  0.00     0.251 C 
ATOM     36  H   UNL A   1      31.992  34.135  26.626  1.00  0.00     0.163 HD
ATOM     37  O   UNL A   1      32.642  35.512  28.468  1.00  0.00    -0.269 OA
BRANCH  35  38
ATOM     38  C   UNL A   1      34.174  33.862  29.154  1.00  0.00     0.039 A 
ATOM     39  C   UNL A   1      35.460  34.382  28.956  1.00  0.00     0.014 A 
ATOM     40  C   UNL A   1      34.013  32.809  30.057  1.00  0.00     0.014 A 
ATOM     41  C   UNL A   1      36.562  33.851  29.641  1.00  0.00     0.010 A 
ATOM     42  C   UNL A   1      35.094  32.348  30.815  1.00  0.00     0.010 A 
ATOM     43  C   UNL A   1      36.390  32.828  30.585  1.00  0.00    -0.014 A 
BRANCH  43  44
ATOM     44  C   UNL A   1      37.550  32.206  31.289  1.00  0.00     0.031 A 
ATOM     45  C   UNL A   1      38.331  31.088  30.632  1.00  0.00     0.074 A 
ATOM     46  C   UNL A   1      37.862  32.579  32.546  1.00  0.00     0.049 A 
ATOM     47  N   UNL A   1      39.314  30.373  31.116  1.00  0.00    -0.248 NA
ATOM     48  C   UNL A   1      37.933  30.700  29.268  1.00  0.00     0.031 C 
ATOM     49  C   UNL A   1      37.141  33.581  33.335  1.00  0.00     0.029 A 
ATOM     50  N   UNL A   1      38.846  32.136  33.396  1.00  0.00    -0.354 N 
ATOM     51  C   UNL A   1      39.604  29.414  30.149  1.00  0.00     0.074 A 
ATOM     52  C   UNL A   1      38.683  29.627  29.056  1.00  0.00     0.031 C 
ATOM     53  C   UNL A   1      37.700  33.667  34.553  1.00  0.00     0.029 A 
ATOM     54  C   UNL A   1      38.803  32.715  34.644  1.00  0.00     0.049 A 
ATOM     55  H   UNL A   1      39.518  31.464  33.137  1.00  0.00     0.167 HD
ATOM     56  C   UNL A   1      40.567  28.462  30.153  1.00  0.00     0.034 A 
ATOM     57  C   UNL A   1      39.560  32.503  35.739  1.00  0.00     0.034 A 
ATOM     58  C   UNL A   1      41.554  28.316  31.189  1.00  0.00     0.049 A 
ATOM     59  C   UNL A   1      40.696  31.516  35.672  1.00  0.00     0.074 A 
ATOM     60  C   UNL A   1      42.657  27.480  31.212  1.00  0.00     0.029 A 
ATOM     61  N   UNL A   1      41.562  29.023  32.379  1.00  0.00    -0.354 N 
ATOM     62  N   UNL A   1      41.069  30.756  34.672  1.00  0.00    -0.248 NA
ATOM     63  C   UNL A   1      41.540  31.387  36.869  1.00  0.00     0.031 C 
ATOM     64  C   UNL A   1      43.327  27.673  32.423  1.00  0.00     0.029 A 
ATOM     65  C   UNL A   1      42.645  28.637  33.148  1.00  0.00     0.049 A 
ATOM     66  H   UNL A   1      40.894  29.699  32.639  1.00  0.00     0.167 HD
ATOM     67  C   UNL A   1      42.207  30.084  35.106  1.00  0.00     0.074 A 
ATOM     68  C   UNL A   1      42.477  30.546  36.451  1.00  0.00     0.031 C 
ATOM     69  C   UNL A   1      42.947  29.153  34.458  1.00  0.00     0.034 A 
BRANCH  56  70
ATOM     70  C   UNL A   1      40.662  27.538  28.967  1.00  0.00     0.023 A 
ATOM     71  C   UNL A   1      39.731  26.489  28.827  1.00  0.00     0.012 A 
ATOM     72  C   UNL A   1      41.605  27.768  27.944  1.00  0.00     0.148 A 
ATOM     73  C   UNL A   1      39.750  25.668  27.701  1.00  0.00     0.002 A 
ATOM     74  C   UNL A   1      41.593  26.969  26.806  1.00  0.00     0.091 A 
ATOM     75  F   UNL A   1      42.492  28.760  28.105  1.00  0.00    -0.205 F 
ATOM     76  C   UNL A   1      40.672  25.915  26.687  1.00  0.00     0.022 A 
BRANCH  74  77
ATOM     77  S   UNL A   1      42.685  27.254  25.408  1.00  0.00     0.127 S 
ATOM     78  O   UNL A   1      43.964  27.490  26.078  1.00  0.00    -0.237 OA
ATOM     79  O   UNL A   1      42.601  25.983  24.687  1.00  0.00    -0.237 OA
ATOM     80  O   UNL A   1      42.135  28.396  24.693  1.00  0.00    -0.744 OA
ENDBRANCH  74  77
ENDBRANCH  56  70
BRANCH  57  81
ATOM     81  C   UNL A   1      39.309  33.291  36.979  1.00  0.00     0.023 A 
ATOM     82  C   UNL A   1      39.857  34.581  37.101  1.00  0.00     0.012 A 
ATOM     83  C   UNL A   1      38.518  32.781  38.027  1.00  0.00     0.148 A 
ATOM     84  C   UNL A   1      39.650  35.337  38.256  1.00  0.00     0.002 A 
ATOM     85  C   UNL A   1      38.272  33.559  39.153  1.00  0.00     0.091 A 
ATOM     86  F   UNL A   1      38.017  31.543  37.908  1.00  0.00    -0.205 F 
ATOM     87  C   UNL A   1      38.850  34.831  39.277  1.00  0.00     0.022 A 
BRANCH  85  88
ATOM     88  S   UNL A   1      37.150  33.002  40.443  1.00  0.00     0.127 S 
ATOM     89  O   UNL A   1      35.930  32.734  39.689  1.00  0.00    -0.237 OA
ATOM     90  O   UNL A   1      37.824  31.812  40.963  1.00  0.00    -0.237 OA
ATOM     91  O   UNL A   1      37.091  34.108  41.393  1.00  0.00    -0.744 OA
ENDBRANCH  85  88
ENDBRANCH  57  81
BRANCH  69  92
ATOM     92  C   UNL A   1      44.142  28.580  35.171  1.00  0.00     0.023 A 
ATOM     93  C   UNL A   1      45.415  29.143  34.957  1.00  0.00     0.012 A 
ATOM     94  C   UNL A   1      43.993  27.548  36.119  1.00  0.00     0.148 A 
ATOM     95  C   UNL A   1      46.526  28.671  35.655  1.00  0.00     0.002 A 
ATOM     96  C   UNL A   1      45.096  27.113  36.844  1.00  0.00     0.091 A 
ATOM     97  F   UNL A   1      42.776  27.011  36.295  1.00  0.00    -0.205 F 
ATOM     98  C   UNL A   1      46.364  27.667  36.607  1.00  0.00     0.022 A 
BRANCH  96  99
ATOM     99  S   UNL A   1      44.958  25.892  38.155  1.00  0.00     0.127 S 
ATOM    100  O   UNL A   1      44.456  24.729  37.428  1.00  0.00    -0.237 OA
ATOM    101  O   UNL A   1      46.342  25.771  38.618  1.00  0.00    -0.237 OA
ATOM    102  O   UNL A   1      44.046  26.464  39.136  1.00  0.00    -0.744 OA
ENDBRANCH  96  99
ENDBRANCH  69  92
ENDBRANCH  43  44
ENDBRANCH  35  38
ENDBRANCH  33  34
ENDBRANCH   1  33
TORSDOF 19
ENDMDL
MODEL 3
REMARK VINA RESULT:     -12.1      5.296      9.320
REMARK SMILES COc1ccc([C@@H]2C(C#N)=C(N)N3C(=O)[C@H](CC(=O)NCCCNC(=O)c4ccc(-c5c6nc(c(-c7cccc(S(=O)(=O)[O-])c7F)c7ccc([nH]7)c(-c7cccc(S(=O)(=O)[O-])c7F)c7nc(c(-c8cccc(S(=O)(=O)[O-])c8F)c8ccc5[nH]8)C=C7)C=C6)cc4)SC3=C2C#N)cc1
REMARK SMILES IDX 22 1 21 2 20 3 18 4 19 5 17 7 16 8 7 9 8 10 92 11 11 12
REMARK SMILES IDX 91 13 13 14 90 15 14 16 15 17 6 18 3 19 4 20 96 21 5 22
REMARK SMILES IDX 95 23 2 24 1 25 9 26 10 27 93 28 94 29 12 30 23 33 24 34
REMARK SMILES IDX 25 35 26 37 27 38 28 39 89 40 29 41 88 42 30 43 31 44 32 45
REMARK SMILES IDX 82 46 33 47 87 48 81 49 83 50 34 51 86 52 80 53 79 54 35 56
REMARK SMILES IDX 67 57 47 58 66 59 48 60 51 61 65 62 84 63 49 64 50 65 64 67
REMARK SMILES IDX 85 68 52 69 36 70 37 71 45 72 38 73 40 74 46 75 39 76 41 77
REMARK SMILES IDX 42 78 43 79 44 80 68 81 69 82 77 83 70 84 72 85 78 86 71 87
REMARK SMILES IDX 73 88 74 89 75 90 76 91 53 92 54 93 62 94 55 95 57 96 63 97
REMARK SMILES IDX 56 98 58 99 59 100 60 101 61 102
REMARK H PARENT 20 6 12 31 12 32 24 36 83 55 51 66
REMARK Flexibility Score: inf
ROOT
ATOM      1  C   UNL A   1      38.676  21.251  26.006  1.00  0.00     0.042 C 
ENDROOT
BRANCH   1   2
ATOM      2  C   UNL A   1      37.628  22.147  25.346  1.00  0.00     0.117 C 
BRANCH   2   3
ATOM      3  N   UNL A   1      36.434  22.334  26.159  1.00  0.00    -0.356 N 
ATOM      4  C   UNL A   1      35.260  21.651  26.186  1.00  0.00     0.221 C 
ATOM      5  O   UNL A   1      34.388  22.003  26.983  1.00  0.00    -0.275 OA
ATOM      6  H   UNL A   1      36.486  23.084  26.795  1.00  0.00     0.163 HD
BRANCH   4   7
ATOM      7  C   UNL A   1      35.019  20.489  25.255  1.00  0.00     0.125 C 
BRANCH   7   8
ATOM      8  C   UNL A   1      33.964  20.874  24.229  1.00  0.00     0.152 C 
ATOM      9  C   UNL A   1      31.171  24.903  24.048  1.00  0.00     0.107 C 
ATOM     10  C   UNL A   1      30.773  24.282  25.374  1.00  0.00     0.083 C 
ATOM     11  C   UNL A   1      32.533  24.406  23.616  1.00  0.00     0.073 C 
ATOM     12  C   UNL A   1      31.281  23.067  25.727  1.00  0.00     0.126 C 
ATOM     13  C   UNL A   1      32.994  23.242  24.056  1.00  0.00     0.099 C 
ATOM     14  N   UNL A   1      32.283  22.471  24.932  1.00  0.00    -0.258 N 
ATOM     15  S   UNL A   1      34.423  22.467  23.478  1.00  0.00    -0.093 SA
ATOM     16  C   UNL A   1      32.614  21.127  24.884  1.00  0.00     0.247 C 
ATOM     17  O   UNL A   1      31.891  20.213  25.268  1.00  0.00    -0.273 OA
BRANCH   9  18
ATOM     18  C   UNL A   1      30.970  26.412  24.011  1.00  0.00    -0.034 A 
ATOM     19  C   UNL A   1      30.323  29.157  24.036  1.00  0.00     0.118 A 
ATOM     20  C   UNL A   1      29.731  28.303  23.109  1.00  0.00     0.047 A 
ATOM     21  C   UNL A   1      31.242  28.639  24.952  1.00  0.00     0.047 A 
ATOM     22  C   UNL A   1      30.053  26.946  23.090  1.00  0.00     0.008 A 
ATOM     23  C   UNL A   1      31.568  27.276  24.939  1.00  0.00     0.008 A 
BRANCH  19  24
ATOM     24  O   UNL A   1      29.897  30.454  23.964  1.00  0.00    -0.497 OA
ATOM     25  C   UNL A   1      28.579  30.671  23.490  1.00  0.00     0.278 C 
ENDBRANCH  19  24
ENDBRANCH   9  18
BRANCH  10  26
ATOM     26  C   UNL A   1      29.665  24.963  26.159  1.00  0.00     0.100 C 
ATOM     27  N   UNL A   1      28.745  25.530  26.810  1.00  0.00    -0.193 NA
ENDBRANCH  10  26
BRANCH  11  28
ATOM     28  C   UNL A   1      33.322  25.199  22.587  1.00  0.00     0.098 C 
ATOM     29  N   UNL A   1      33.977  25.858  21.733  1.00  0.00    -0.193 NA
ENDBRANCH  11  28
BRANCH  12  30
ATOM     30  N   UNL A   1      30.854  22.408  26.851  1.00  0.00    -0.384 N 
ATOM     31  H   UNL A   1      30.850  22.869  27.721  1.00  0.00     0.158 HD
ATOM     32  H   UNL A   1      30.551  21.473  26.789  1.00  0.00     0.158 HD
ENDBRANCH  12  30
ENDBRANCH   7   8
ENDBRANCH   4   7
ENDBRANCH   2   3
ENDBRANCH   1   2
BRANCH   1  33
ATOM     33  C   UNL A   1      38.988  19.976  25.248  1.00  0.00     0.118 C 
BRANCH  33  34
ATOM     34  N   UNL A   1      40.036  19.231  25.912  1.00  0.00    -0.352 N 
ATOM     35  C   UNL A   1      41.243  19.655  26.415  1.00  0.00     0.251 C 
ATOM     36  H   UNL A   1      39.856  18.270  26.021  1.00  0.00     0.163 HD
ATOM     37  O   UNL A   1      42.113  18.804  26.600  1.00  0.00    -0.269 OA
BRANCH  35  38
ATOM     38  C   UNL A   1      41.536  21.083  26.726  1.00  0.00     0.039 A 
ATOM     39  C   UNL A   1      41.796  21.951  25.657  1.00  0.00     0.014 A 
ATOM     40  C   UNL A   1      41.688  21.564  28.028  1.00  0.00     0.014 A 
ATOM     41  C   UNL A   1      42.207  23.271  25.890  1.00  0.00     0.010 A 
ATOM     42  C   UNL A   1      41.998  22.908  28.260  1.00  0.00     0.010 A 
ATOM     43  C   UNL A   1      42.309  23.767  27.198  1.00  0.00    -0.014 A 
BRANCH  43  44
ATOM     44  C   UNL A   1      42.796  25.150  27.478  1.00  0.00     0.031 A 
ATOM     45  C   UNL A   1      41.876  26.168  28.117  1.00  0.00     0.074 A 
ATOM     46  C   UNL A   1      44.031  25.527  27.090  1.00  0.00     0.049 A 
ATOM     47  N   UNL A   1      42.092  27.435  28.364  1.00  0.00    -0.248 NA
ATOM     48  C   UNL A   1      40.528  25.712  28.498  1.00  0.00     0.031 C 
ATOM     49  C   UNL A   1      44.993  24.678  26.384  1.00  0.00     0.029 A 
ATOM     50  N   UNL A   1      44.678  26.733  27.204  1.00  0.00    -0.354 N 
ATOM     51  C   UNL A   1      40.893  27.939  28.861  1.00  0.00     0.074 A 
ATOM     52  C   UNL A   1      39.948  26.846  28.867  1.00  0.00     0.031 C 
ATOM     53  C   UNL A   1      46.100  25.391  26.121  1.00  0.00     0.029 A 
ATOM     54  C   UNL A   1      45.923  26.753  26.616  1.00  0.00     0.049 A 
ATOM     55  H   UNL A   1      44.288  27.513  27.663  1.00  0.00     0.167 HD
ATOM     56  C   UNL A   1      40.610  29.188  29.302  1.00  0.00     0.034 A 
ATOM     57  C   UNL A   1      46.819  27.751  26.485  1.00  0.00     0.034 A 
ATOM     58  C   UNL A   1      41.576  30.248  29.399  1.00  0.00     0.049 A 
ATOM     59  C   UNL A   1      46.516  29.098  27.088  1.00  0.00     0.074 A 
ATOM     60  C   UNL A   1      41.421  31.501  29.968  1.00  0.00     0.029 A 
ATOM     61  N   UNL A   1      42.873  30.183  28.920  1.00  0.00    -0.354 N 
ATOM     62  N   UNL A   1      45.443  29.493  27.727  1.00  0.00    -0.248 NA
ATOM     63  C   UNL A   1      47.565  30.125  26.988  1.00  0.00     0.031 C 
ATOM     64  C   UNL A   1      42.625  32.197  29.824  1.00  0.00     0.029 A 
ATOM     65  C   UNL A   1      43.529  31.374  29.174  1.00  0.00     0.049 A 
ATOM     66  H   UNL A   1      43.269  29.404  28.466  1.00  0.00     0.167 HD
ATOM     67  C   UNL A   1      45.698  30.799  28.132  1.00  0.00     0.074 A 
ATOM     68  C   UNL A   1      47.038  31.120  27.688  1.00  0.00     0.031 C 
ATOM     69  C   UNL A   1      44.887  31.661  28.791  1.00  0.00     0.034 A 
BRANCH  56  70
ATOM     70  C   UNL A   1      39.213  29.472  29.790  1.00  0.00     0.023 A 
ATOM     71  C   UNL A   1      38.890  29.248  31.144  1.00  0.00     0.012 A 
ATOM     72  C   UNL A   1      38.253  30.055  28.937  1.00  0.00     0.148 A 
ATOM     73  C   UNL A   1      37.628  29.574  31.636  1.00  0.00     0.002 A 
ATOM     74  C   UNL A   1      37.010  30.414  29.445  1.00  0.00     0.091 A 
ATOM     75  F   UNL A   1      38.575  30.244  27.649  1.00  0.00    -0.205 F 
ATOM     76  C   UNL A   1      36.693  30.167  30.791  1.00  0.00     0.022 A 
BRANCH  74  77
ATOM     77  S   UNL A   1      35.764  31.255  28.460  1.00  0.00     0.127 S 
ATOM     78  O   UNL A   1      35.443  30.236  27.460  1.00  0.00    -0.237 OA
ATOM     79  O   UNL A   1      34.707  31.498  29.442  1.00  0.00    -0.237 OA
ATOM     80  O   UNL A   1      36.403  32.456  27.943  1.00  0.00    -0.744 OA
ENDBRANCH  74  77
ENDBRANCH  56  70
BRANCH  57  81
ATOM     81  C   UNL A   1      48.121  27.496  25.806  1.00  0.00     0.023 A 
ATOM     82  C   UNL A   1      49.237  27.116  26.574  1.00  0.00     0.012 A 
ATOM     83  C   UNL A   1      48.256  27.608  24.409  1.00  0.00     0.148 A 
ATOM     84  C   UNL A   1      50.473  26.883  25.967  1.00  0.00     0.002 A 
ATOM     85  C   UNL A   1      49.477  27.325  23.805  1.00  0.00     0.091 A 
ATOM     86  F   UNL A   1      47.191  27.990  23.690  1.00  0.00    -0.205 F 
ATOM     87  C   UNL A   1      50.591  26.977  24.583  1.00  0.00     0.022 A 
BRANCH  85  88
ATOM     88  S   UNL A   1      49.650  27.313  22.015  1.00  0.00     0.127 S 
ATOM     89  O   UNL A   1      49.304  28.688  21.669  1.00  0.00    -0.237 OA
ATOM     90  O   UNL A   1      51.061  26.972  21.833  1.00  0.00    -0.237 OA
ATOM     91  O   UNL A   1      48.729  26.281  21.555  1.00  0.00    -0.744 OA
ENDBRANCH  85  88
ENDBRANCH  57  81
BRANCH  69  92
ATOM     92  C   UNL A   1      45.422  33.032  29.106  1.00  0.00     0.023 A 
ATOM     93  C   UNL A   1      46.150  33.238  30.293  1.00  0.00     0.012 A 
ATOM     94  C   UNL A   1      45.283  34.092  28.187  1.00  0.00     0.148 A 
ATOM     95  C   UNL A   1      46.711  34.483  30.575  1.00  0.00     0.002 A 
ATOM     96  C   UNL A   1      45.882  35.317  28.453  1.00  0.00     0.091 A 
ATOM     97  F   UNL A   1      44.569  33.882  27.071  1.00  0.00    -0.205 F 
ATOM     98  C   UNL A   1      46.588  35.518  29.650  1.00  0.00     0.022 A 
BRANCH  96  99
ATOM     99  S   UNL A   1      45.853  36.672  27.272  1.00  0.00     0.127 S 
ATOM    100  O   UNL A   1      46.475  36.059  26.100  1.00  0.00    -0.237 OA
ATOM    101  O   UNL A   1      44.421  36.938  27.134  1.00  0.00    -0.237 OA
ATOM    102  O   UNL A   1      46.607  37.754  27.892  1.00  0.00    -0.744 OA
ENDBRANCH  96  99
ENDBRANCH  69  92
ENDBRANCH  43  44
ENDBRANCH  35  38
ENDBRANCH  33  34
ENDBRANCH   1  33
TORSDOF 19
ENDMDL
