MODEL 1
REMARK VINA RESULT:     -12.7      0.000      0.000
REMARK SMILES CNC(=O)c1cc(S(=O)(=O)N2CCC(C(=O)NCCCNC(=O)c3ccc(-c4c5nc(c(-c6cccc(S(=O)(=O)[O-])c6F)c6ccc([nH]6)c(-c6cccc(S(=O)(=O)[O-])c6F)c6nc(c(-c7cccc(S(=O)(=O)[O-])c7F)c7ccc4[nH]7)C=C6)C=C5)cc3)CC2)ccc1OC
REMARK SMILES IDX 19 1 18 2 17 3 15 4 16 5 14 7 11 8 12 9 88 10 13 11 87 12
REMARK SMILES IDX 8 13 9 14 10 15 7 16 5 17 6 18 91 19 90 20 89 21 3 22 1 23
REMARK SMILES IDX 2 24 4 26 92 27 93 28 20 29 21 30 22 31 23 33 24 34 25 35
REMARK SMILES IDX 86 36 26 37 85 38 27 39 28 40 29 41 79 42 30 43 84 44 78 45
REMARK SMILES IDX 80 46 31 47 83 48 77 49 76 50 32 52 64 53 44 54 63 55 45 56
REMARK SMILES IDX 48 57 62 58 81 59 46 60 47 61 61 63 82 64 49 65 33 66 34 67
REMARK SMILES IDX 42 68 35 69 37 70 43 71 36 72 38 73 39 74 40 75 41 76 65 77
REMARK SMILES IDX 66 78 74 79 67 80 69 81 75 82 68 83 70 84 71 85 72 86 73 87
REMARK SMILES IDX 50 88 51 89 59 90 52 91 54 92 60 93 53 94 55 95 56 96 57 97
REMARK SMILES IDX 58 98
REMARK H PARENT 17 6 2 25 21 32 80 51 48 62
REMARK Flexibility Score: inf
ROOT
ATOM      1  C   UNL A   1      31.539  32.442  26.674  1.00  0.00     0.042 C 
ENDROOT
BRANCH   1   2
ATOM      2  C   UNL A   1      31.609  30.925  26.613  1.00  0.00     0.117 C 
BRANCH   2   3
ATOM      3  N   UNL A   1      32.817  30.397  27.233  1.00  0.00    -0.356 N 
ATOM      4  C   UNL A   1      33.512  29.251  27.014  1.00  0.00     0.223 C 
ATOM      5  O   UNL A   1      34.524  29.046  27.688  1.00  0.00    -0.275 OA
ATOM      6  H   UNL A   1      33.194  30.972  27.938  1.00  0.00     0.163 HD
BRANCH   4   7
ATOM      7  C   UNL A   1      33.093  28.254  25.948  1.00  0.00     0.081 C 
ATOM      8  N   UNL A   1      33.454  25.969  24.228  1.00  0.00    -0.198 NA
ATOM      9  C   UNL A   1      33.558  27.331  23.657  1.00  0.00     0.103 C 
ATOM     10  C   UNL A   1      32.707  25.777  25.491  1.00  0.00     0.103 C 
ATOM     11  C   UNL A   1      33.975  28.339  24.708  1.00  0.00     0.030 C 
ATOM     12  C   UNL A   1      32.974  26.849  26.529  1.00  0.00     0.030 C 
BRANCH   8  13
ATOM     13  S   UNL A   1      33.296  24.704  23.086  1.00  0.00     0.243 S 
ATOM     14  O   UNL A   1      33.929  25.153  21.858  1.00  0.00    -0.207 OA
ATOM     15  O   UNL A   1      31.933  24.235  23.110  1.00  0.00    -0.207 OA
BRANCH  13  16
ATOM     16  C   UNL A   1      34.298  23.345  23.674  1.00  0.00     0.083 A 
ATOM     17  C   UNL A   1      34.338  21.198  24.793  1.00  0.00     0.083 A 
ATOM     18  C   UNL A   1      33.625  22.315  24.339  1.00  0.00     0.039 A 
ATOM     19  C   UNL A   1      35.708  21.077  24.522  1.00  0.00     0.131 A 
ATOM     20  C   UNL A   1      36.379  22.129  23.904  1.00  0.00     0.048 A 
ATOM     21  C   UNL A   1      35.679  23.261  23.486  1.00  0.00     0.025 A 
BRANCH  17  22
ATOM     22  C   UNL A   1      33.581  20.190  25.556  1.00  0.00     0.254 C 
ATOM     23  C   UNL A   1      33.758  21.490  27.725  1.00  0.00     0.143 C 
ATOM     24  N   UNL A   1      33.359  20.375  26.896  1.00  0.00    -0.355 N 
ATOM     25  H   UNL A   1      32.865  19.656  27.352  1.00  0.00     0.163 HD
ATOM     26  O   UNL A   1      33.140  19.203  24.975  1.00  0.00    -0.269 OA
ENDBRANCH  17  22
BRANCH  19  27
ATOM     27  O   UNL A   1      36.489  20.006  24.858  1.00  0.00    -0.496 OA
ATOM     28  C   UNL A   1      37.875  20.340  24.933  1.00  0.00     0.278 C 
ENDBRANCH  19  27
ENDBRANCH  13  16
ENDBRANCH   8  13
ENDBRANCH   4   7
ENDBRANCH   2   3
ENDBRANCH   1   2
BRANCH   1  29
ATOM     29  C   UNL A   1      32.785  33.079  27.264  1.00  0.00     0.118 C 
BRANCH  29  30
ATOM     30  N   UNL A   1      32.545  34.440  27.727  1.00  0.00    -0.352 N 
ATOM     31  C   UNL A   1      33.077  35.112  28.799  1.00  0.00     0.251 C 
ATOM     32  H   UNL A   1      31.904  34.957  27.187  1.00  0.00     0.163 HD
ATOM     33  O   UNL A   1      32.585  36.183  29.146  1.00  0.00    -0.269 OA
BRANCH  31  34
ATOM     34  C   UNL A   1      34.223  34.545  29.539  1.00  0.00     0.039 A 
ATOM     35  C   UNL A   1      34.007  33.965  30.791  1.00  0.00     0.014 A 
ATOM     36  C   UNL A   1      35.513  34.600  29.005  1.00  0.00     0.014 A 
ATOM     37  C   UNL A   1      35.076  33.384  31.479  1.00  0.00     0.010 A 
ATOM     38  C   UNL A   1      36.556  33.942  29.646  1.00  0.00     0.010 A 
ATOM     39  C   UNL A   1      36.353  33.341  30.896  1.00  0.00    -0.014 A 
BRANCH  39  40
ATOM     40  C   UNL A   1      37.503  32.696  31.580  1.00  0.00     0.031 A 
ATOM     41  C   UNL A   1      38.209  31.538  30.924  1.00  0.00     0.074 A 
ATOM     42  C   UNL A   1      37.850  33.089  32.821  1.00  0.00     0.049 A 
ATOM     43  N   UNL A   1      39.159  30.776  31.397  1.00  0.00    -0.248 NA
ATOM     44  C   UNL A   1      37.765  31.168  29.569  1.00  0.00     0.031 C 
ATOM     45  C   UNL A   1      37.196  34.150  33.590  1.00  0.00     0.029 A 
ATOM     46  N   UNL A   1      38.825  32.622  33.666  1.00  0.00    -0.354 N 
ATOM     47  C   UNL A   1      39.401  29.818  30.420  1.00  0.00     0.074 A 
ATOM     48  C   UNL A   1      38.470  30.068  29.341  1.00  0.00     0.031 C 
ATOM     49  C   UNL A   1      37.793  34.256  34.789  1.00  0.00     0.029 A 
ATOM     50  C   UNL A   1      38.852  33.258  34.885  1.00  0.00     0.049 A 
ATOM     51  H   UNL A   1      39.447  31.898  33.422  1.00  0.00     0.167 HD
ATOM     52  C   UNL A   1      40.340  28.843  30.399  1.00  0.00     0.034 A 
ATOM     53  C   UNL A   1      39.642  33.056  35.957  1.00  0.00     0.034 A 
ATOM     54  C   UNL A   1      41.305  28.637  31.443  1.00  0.00     0.049 A 
ATOM     55  C   UNL A   1      40.711  31.999  35.885  1.00  0.00     0.074 A 
ATOM     56  C   UNL A   1      42.337  27.717  31.493  1.00  0.00     0.029 A 
ATOM     57  N   UNL A   1      41.368  29.373  32.615  1.00  0.00    -0.354 N 
ATOM     58  N   UNL A   1      41.008  31.190  34.897  1.00  0.00    -0.248 NA
ATOM     59  C   UNL A   1      41.578  31.849  37.064  1.00  0.00     0.031 C 
ATOM     60  C   UNL A   1      43.027  27.901  32.696  1.00  0.00     0.029 A 
ATOM     61  C   UNL A   1      42.429  28.939  33.390  1.00  0.00     0.049 A 
ATOM     62  H   UNL A   1      40.750  30.100  32.860  1.00  0.00     0.167 HD
ATOM     63  C   UNL A   1      42.119  30.468  35.317  1.00  0.00     0.074 A 
ATOM     64  C   UNL A   1      42.454  30.947  36.641  1.00  0.00     0.031 C 
ATOM     65  C   UNL A   1      42.790  29.481  34.674  1.00  0.00     0.034 A 
BRANCH  52  66
ATOM     66  C   UNL A   1      40.422  27.979  29.168  1.00  0.00     0.023 A 
ATOM     67  C   UNL A   1      39.507  26.917  29.016  1.00  0.00     0.012 A 
ATOM     68  C   UNL A   1      41.352  28.243  28.145  1.00  0.00     0.148 A 
ATOM     69  C   UNL A   1      39.535  26.111  27.880  1.00  0.00     0.002 A 
ATOM     70  C   UNL A   1      41.349  27.459  26.996  1.00  0.00     0.091 A 
ATOM     71  F   UNL A   1      42.229  29.243  28.318  1.00  0.00    -0.205 F 
ATOM     72  C   UNL A   1      40.447  26.389  26.866  1.00  0.00     0.022 A 
BRANCH  70  73
ATOM     73  S   UNL A   1      42.435  27.777  25.601  1.00  0.00     0.127 S 
ATOM     74  O   UNL A   1      41.912  29.049  25.103  1.00  0.00    -0.237 OA
ATOM     75  O   UNL A   1      43.746  27.867  26.244  1.00  0.00    -0.237 OA
ATOM     76  O   UNL A   1      42.277  26.642  24.703  1.00  0.00    -0.744 OA
ENDBRANCH  70  73
ENDBRANCH  52  66
BRANCH  53  77
ATOM     77  C   UNL A   1      39.515  33.930  37.157  1.00  0.00     0.023 A 
ATOM     78  C   UNL A   1      40.037  35.238  37.109  1.00  0.00     0.012 A 
ATOM     79  C   UNL A   1      38.881  33.489  38.334  1.00  0.00     0.148 A 
ATOM     80  C   UNL A   1      39.960  36.077  38.221  1.00  0.00     0.002 A 
ATOM     81  C   UNL A   1      38.763  34.348  39.421  1.00  0.00     0.091 A 
ATOM     82  F   UNL A   1      38.407  32.235  38.371  1.00  0.00    -0.205 F 
ATOM     83  C   UNL A   1      39.315  35.637  39.373  1.00  0.00     0.022 A 
BRANCH  81  84
ATOM     84  S   UNL A   1      37.836  33.891  40.891  1.00  0.00     0.127 S 
ATOM     85  O   UNL A   1      36.711  33.157  40.321  1.00  0.00    -0.237 OA
ATOM     86  O   UNL A   1      38.801  33.072  41.625  1.00  0.00    -0.237 OA
ATOM     87  O   UNL A   1      37.514  35.155  41.543  1.00  0.00    -0.744 OA
ENDBRANCH  81  84
ENDBRANCH  53  77
BRANCH  65  88
ATOM     88  C   UNL A   1      43.980  28.881  35.369  1.00  0.00     0.023 A 
ATOM     89  C   UNL A   1      45.263  29.414  35.140  1.00  0.00     0.012 A 
ATOM     90  C   UNL A   1      43.818  27.843  36.307  1.00  0.00     0.148 A 
ATOM     91  C   UNL A   1      46.372  28.905  35.814  1.00  0.00     0.002 A 
ATOM     92  C   UNL A   1      44.921  27.369  37.006  1.00  0.00     0.091 A 
ATOM     93  F   UNL A   1      42.591  27.334  36.494  1.00  0.00    -0.205 F 
ATOM     94  C   UNL A   1      46.200  27.893  36.755  1.00  0.00     0.022 A 
BRANCH  92  95
ATOM     95  S   UNL A   1      44.775  26.131  38.300  1.00  0.00     0.127 S 
ATOM     96  O   UNL A   1      44.360  24.954  37.541  1.00  0.00    -0.237 OA
ATOM     97  O   UNL A   1      46.139  26.067  38.829  1.00  0.00    -0.237 OA
ATOM     98  O   UNL A   1      43.792  26.653  39.240  1.00  0.00    -0.744 OA
ENDBRANCH  92  95
ENDBRANCH  65  88
ENDBRANCH  39  40
ENDBRANCH  31  34
ENDBRANCH  29  30
ENDBRANCH   1  29
TORSDOF 17
ENDMDL
MODEL 2
REMARK VINA RESULT:     -12.6      0.718      7.637
REMARK SMILES CNC(=O)c1cc(S(=O)(=O)N2CCC(C(=O)NCCCNC(=O)c3ccc(-c4c5nc(c(-c6cccc(S(=O)(=O)[O-])c6F)c6ccc([nH]6)c(-c6cccc(S(=O)(=O)[O-])c6F)c6nc(c(-c7cccc(S(=O)(=O)[O-])c7F)c7ccc4[nH]7)C=C6)C=C5)cc3)CC2)ccc1OC
REMARK SMILES IDX 19 1 18 2 17 3 15 4 16 5 14 7 11 8 12 9 88 10 13 11 87 12
REMARK SMILES IDX 8 13 9 14 10 15 7 16 5 17 6 18 91 19 90 20 89 21 3 22 1 23
REMARK SMILES IDX 2 24 4 26 92 27 93 28 20 29 21 30 22 31 23 33 24 34 25 35
REMARK SMILES IDX 86 36 26 37 85 38 27 39 28 40 29 41 79 42 30 43 84 44 78 45
REMARK SMILES IDX 80 46 31 47 83 48 77 49 76 50 32 52 64 53 44 54 63 55 45 56
REMARK SMILES IDX 48 57 62 58 81 59 46 60 47 61 61 63 82 64 49 65 33 66 34 67
REMARK SMILES IDX 42 68 35 69 37 70 43 71 36 72 38 73 39 74 40 75 41 76 65 77
REMARK SMILES IDX 66 78 74 79 67 80 69 81 75 82 68 83 70 84 71 85 72 86 73 87
REMARK SMILES IDX 50 88 51 89 59 90 52 91 54 92 60 93 53 94 55 95 56 96 57 97
REMARK SMILES IDX 58 98
REMARK H PARENT 17 6 2 25 21 32 80 51 48 62
REMARK Flexibility Score: inf
ROOT
ATOM      1  C   UNL A   1      31.636  32.350  26.854  1.00  0.00     0.042 C 
ENDROOT
BRANCH   1   2
ATOM      2  C   UNL A   1      31.894  30.969  26.274  1.00  0.00     0.117 C 
BRANCH   2   3
ATOM      3  N   UNL A   1      31.588  29.902  27.217  1.00  0.00    -0.356 N 
ATOM      4  C   UNL A   1      31.678  28.551  27.105  1.00  0.00     0.223 C 
ATOM      5  O   UNL A   1      31.353  27.864  28.077  1.00  0.00    -0.275 OA
ATOM      6  H   UNL A   1      31.254  30.216  28.089  1.00  0.00     0.163 HD
BRANCH   4   7
ATOM      7  C   UNL A   1      32.196  27.887  25.843  1.00  0.00     0.081 C 
ATOM      8  N   UNL A   1      32.717  25.653  24.096  1.00  0.00    -0.198 NA
ATOM      9  C   UNL A   1      33.831  26.245  24.871  1.00  0.00     0.103 C 
ATOM     10  C   UNL A   1      31.511  26.472  23.837  1.00  0.00     0.103 C 
ATOM     11  C   UNL A   1      33.331  26.913  26.134  1.00  0.00     0.030 C 
ATOM     12  C   UNL A   1      31.054  27.283  25.033  1.00  0.00     0.030 C 
BRANCH   8  13
ATOM     13  S   UNL A   1      33.180  24.611  22.820  1.00  0.00     0.243 S 
ATOM     14  O   UNL A   1      33.980  25.396  21.895  1.00  0.00    -0.207 OA
ATOM     15  O   UNL A   1      32.018  23.878  22.385  1.00  0.00    -0.207 OA
BRANCH  13  16
ATOM     16  C   UNL A   1      34.297  23.402  23.515  1.00  0.00     0.083 A 
ATOM     17  C   UNL A   1      34.523  21.321  24.732  1.00  0.00     0.083 A 
ATOM     18  C   UNL A   1      33.712  22.328  24.194  1.00  0.00     0.039 A 
ATOM     19  C   UNL A   1      35.909  21.348  24.532  1.00  0.00     0.131 A 
ATOM     20  C   UNL A   1      36.488  22.445  23.898  1.00  0.00     0.048 A 
ATOM     21  C   UNL A   1      35.687  23.471  23.397  1.00  0.00     0.025 A 
BRANCH  17  22
ATOM     22  C   UNL A   1      33.846  20.263  25.502  1.00  0.00     0.254 C 
ATOM     23  C   UNL A   1      33.776  21.653  27.622  1.00  0.00     0.143 C 
ATOM     24  N   UNL A   1      33.542  20.470  26.823  1.00  0.00    -0.355 N 
ATOM     25  H   UNL A   1      33.109  19.718  27.287  1.00  0.00     0.163 HD
ATOM     26  O   UNL A   1      33.544  19.212  24.945  1.00  0.00    -0.269 OA
ENDBRANCH  17  22
BRANCH  19  27
ATOM     27  O   UNL A   1      36.789  20.388  24.952  1.00  0.00    -0.496 OA
ATOM     28  C   UNL A   1      38.064  20.927  25.300  1.00  0.00     0.278 C 
ENDBRANCH  19  27
ENDBRANCH  13  16
ENDBRANCH   8  13
ENDBRANCH   4   7
ENDBRANCH   2   3
ENDBRANCH   1   2
BRANCH   1  29
ATOM     29  C   UNL A   1      32.905  33.080  27.261  1.00  0.00     0.118 C 
BRANCH  29  30
ATOM     30  N   UNL A   1      32.630  34.383  27.852  1.00  0.00    -0.352 N 
ATOM     31  C   UNL A   1      33.125  34.952  28.999  1.00  0.00     0.251 C 
ATOM     32  H   UNL A   1      31.991  34.940  27.352  1.00  0.00     0.163 HD
ATOM     33  O   UNL A   1      32.606  35.973  29.440  1.00  0.00    -0.269 OA
BRANCH  31  34
ATOM     34  C   UNL A   1      34.266  34.331  29.704  1.00  0.00     0.039 A 
ATOM     35  C   UNL A   1      34.018  33.467  30.774  1.00  0.00     0.014 A 
ATOM     36  C   UNL A   1      35.579  34.615  29.322  1.00  0.00     0.014 A 
ATOM     37  C   UNL A   1      35.087  32.840  31.418  1.00  0.00     0.010 A 
ATOM     38  C   UNL A   1      36.634  33.920  29.902  1.00  0.00     0.010 A 
ATOM     39  C   UNL A   1      36.402  33.037  30.966  1.00  0.00    -0.014 A 
BRANCH  39  40
ATOM     40  C   UNL A   1      37.558  32.355  31.600  1.00  0.00     0.031 A 
ATOM     41  C   UNL A   1      38.085  32.851  32.921  1.00  0.00     0.074 A 
ATOM     42  C   UNL A   1      38.188  31.357  30.949  1.00  0.00     0.049 A 
ATOM     43  N   UNL A   1      39.142  32.464  33.586  1.00  0.00    -0.248 NA
ATOM     44  C   UNL A   1      37.344  33.949  33.565  1.00  0.00     0.031 C 
ATOM     45  C   UNL A   1      37.816  30.837  29.631  1.00  0.00     0.029 A 
ATOM     46  N   UNL A   1      39.290  30.619  31.297  1.00  0.00    -0.354 N 
ATOM     47  C   UNL A   1      39.214  33.291  34.701  1.00  0.00     0.074 A 
ATOM     48  C   UNL A   1      38.117  34.229  34.605  1.00  0.00     0.031 C 
ATOM     49  C   UNL A   1      38.672  29.859  29.287  1.00  0.00     0.029 A 
ATOM     50  C   UNL A   1      39.665  29.701  30.344  1.00  0.00     0.049 A 
ATOM     51  H   UNL A   1      39.769  30.736  32.151  1.00  0.00     0.167 HD
ATOM     52  C   UNL A   1      40.087  33.249  35.735  1.00  0.00     0.034 A 
ATOM     53  C   UNL A   1      40.694  28.832  30.326  1.00  0.00     0.034 A 
ATOM     54  C   UNL A   1      41.136  32.276  35.860  1.00  0.00     0.049 A 
ATOM     55  C   UNL A   1      41.618  28.773  31.514  1.00  0.00     0.074 A 
ATOM     56  C   UNL A   1      42.037  32.108  36.897  1.00  0.00     0.029 A 
ATOM     57  N   UNL A   1      41.416  31.293  34.924  1.00  0.00    -0.354 N 
ATOM     58  N   UNL A   1      41.588  29.478  32.619  1.00  0.00    -0.248 NA
ATOM     59  C   UNL A   1      42.697  27.776  31.467  1.00  0.00     0.031 C 
ATOM     60  C   UNL A   1      42.860  31.020  36.588  1.00  0.00     0.029 A 
ATOM     61  C   UNL A   1      42.466  30.507  35.362  1.00  0.00     0.049 A 
ATOM     62  H   UNL A   1      40.937  31.172  34.071  1.00  0.00     0.167 HD
ATOM     63  C   UNL A   1      42.614  28.980  33.415  1.00  0.00     0.074 A 
ATOM     64  C   UNL A   1      43.235  27.903  32.672  1.00  0.00     0.031 C 
ATOM     65  C   UNL A   1      43.020  29.391  34.641  1.00  0.00     0.034 A 
BRANCH  52  66
ATOM     66  C   UNL A   1      39.888  34.235  36.856  1.00  0.00     0.023 A 
ATOM     67  C   UNL A   1      40.173  35.597  36.628  1.00  0.00     0.012 A 
ATOM     68  C   UNL A   1      39.374  33.836  38.104  1.00  0.00     0.148 A 
ATOM     69  C   UNL A   1      39.978  36.543  37.632  1.00  0.00     0.002 A 
ATOM     70  C   UNL A   1      39.145  34.791  39.089  1.00  0.00     0.091 A 
ATOM     71  F   UNL A   1      39.131  32.533  38.310  1.00  0.00    -0.205 F 
ATOM     72  C   UNL A   1      39.454  36.142  38.857  1.00  0.00     0.022 A 
BRANCH  70  73
ATOM     73  S   UNL A   1      38.407  34.390  40.677  1.00  0.00     0.127 S 
ATOM     74  O   UNL A   1      38.234  35.718  41.265  1.00  0.00    -0.237 OA
ATOM     75  O   UNL A   1      37.162  33.732  40.282  1.00  0.00    -0.237 OA
ATOM     76  O   UNL A   1      39.362  33.525  41.355  1.00  0.00    -0.744 OA
ENDBRANCH  70  73
ENDBRANCH  52  66
BRANCH  53  77
ATOM     77  C   UNL A   1      40.855  27.883  29.189  1.00  0.00     0.023 A 
ATOM     78  C   UNL A   1      40.142  26.668  29.205  1.00  0.00     0.012 A 
ATOM     79  C   UNL A   1      41.692  28.172  28.095  1.00  0.00     0.148 A 
ATOM     80  C   UNL A   1      40.287  25.743  28.171  1.00  0.00     0.002 A 
ATOM     81  C   UNL A   1      41.792  27.267  27.042  1.00  0.00     0.091 A 
ATOM     82  F   UNL A   1      42.379  29.323  28.103  1.00  0.00    -0.205 F 
ATOM     83  C   UNL A   1      41.104  26.046  27.085  1.00  0.00     0.022 A 
BRANCH  81  84
ATOM     84  S   UNL A   1      42.727  27.647  25.555  1.00  0.00     0.127 S 
ATOM     85  O   UNL A   1      44.086  27.757  26.075  1.00  0.00    -0.237 OA
ATOM     86  O   UNL A   1      42.478  26.470  24.722  1.00  0.00    -0.237 OA
ATOM     87  O   UNL A   1      42.135  28.875  25.039  1.00  0.00    -0.744 OA
ENDBRANCH  81  84
ENDBRANCH  53  77
BRANCH  65  88
ATOM     88  C   UNL A   1      44.161  28.651  35.281  1.00  0.00     0.023 A 
ATOM     89  C   UNL A   1      45.486  29.045  35.010  1.00  0.00     0.012 A 
ATOM     90  C   UNL A   1      43.920  27.619  36.209  1.00  0.00     0.148 A 
ATOM     91  C   UNL A   1      46.556  28.405  35.633  1.00  0.00     0.002 A 
ATOM     92  C   UNL A   1      44.990  27.015  36.858  1.00  0.00     0.091 A 
ATOM     93  F   UNL A   1      42.653  27.245  36.436  1.00  0.00    -0.205 F 
ATOM     94  C   UNL A   1      46.308  27.400  36.565  1.00  0.00     0.022 A 
BRANCH  92  95
ATOM     95  S   UNL A   1      44.756  25.776  38.139  1.00  0.00     0.127 S 
ATOM     96  O   UNL A   1      46.135  25.477  38.519  1.00  0.00    -0.237 OA
ATOM     97  O   UNL A   1      43.988  26.508  39.147  1.00  0.00    -0.237 OA
ATOM     98  O   UNL A   1      44.027  24.684  37.506  1.00  0.00    -0.744 OA
ENDBRANCH  92  95
ENDBRANCH  65  88
ENDBRANCH  39  40
ENDBRANCH  31  34
ENDBRANCH  29  30
ENDBRANCH   1  29
TORSDOF 17
ENDMDL
MODEL 3
REMARK VINA RESULT:     -12.6      5.776     12.204
REMARK SMILES CNC(=O)c1cc(S(=O)(=O)N2CCC(C(=O)NCCCNC(=O)c3ccc(-c4c5nc(c(-c6cccc(S(=O)(=O)[O-])c6F)c6ccc([nH]6)c(-c6cccc(S(=O)(=O)[O-])c6F)c6nc(c(-c7cccc(S(=O)(=O)[O-])c7F)c7ccc4[nH]7)C=C6)C=C5)cc3)CC2)ccc1OC
REMARK SMILES IDX 19 1 18 2 17 3 15 4 16 5 14 7 11 8 12 9 88 10 13 11 87 12
REMARK SMILES IDX 8 13 9 14 10 15 7 16 5 17 6 18 91 19 90 20 89 21 3 22 1 23
REMARK SMILES IDX 2 24 4 26 92 27 93 28 20 29 21 30 22 31 23 33 24 34 25 35
REMARK SMILES IDX 86 36 26 37 85 38 27 39 28 40 29 41 79 42 30 43 84 44 78 45
REMARK SMILES IDX 80 46 31 47 83 48 77 49 76 50 32 52 64 53 44 54 63 55 45 56
REMARK SMILES IDX 48 57 62 58 81 59 46 60 47 61 61 63 82 64 49 65 33 66 34 67
REMARK SMILES IDX 42 68 35 69 37 70 43 71 36 72 38 73 39 74 40 75 41 76 65 77
REMARK SMILES IDX 66 78 74 79 67 80 69 81 75 82 68 83 70 84 71 85 72 86 73 87
REMARK SMILES IDX 50 88 51 89 59 90 52 91 54 92 60 93 53 94 55 95 56 96 57 97
REMARK SMILES IDX 58 98
REMARK H PARENT 17 6 2 25 21 32 80 51 48 62
REMARK Flexibility Score: inf
ROOT
ATOM      1  C   UNL A   1      38.392  19.583  25.039  1.00  0.00     0.042 C 
ENDROOT
BRANCH   1   2
ATOM      2  C   UNL A   1      37.199  20.523  25.075  1.00  0.00     0.117 C 
BRANCH   2   3
ATOM      3  N   UNL A   1      37.278  21.564  24.059  1.00  0.00    -0.356 N 
ATOM      4  C   UNL A   1      36.384  22.511  23.671  1.00  0.00     0.223 C 
ATOM      5  O   UNL A   1      36.714  23.288  22.772  1.00  0.00    -0.275 OA
ATOM      6  H   UNL A   1      38.130  21.584  23.565  1.00  0.00     0.163 HD
BRANCH   4   7
ATOM      7  C   UNL A   1      35.027  22.649  24.337  1.00  0.00     0.081 C 
ATOM      8  N   UNL A   1      32.647  24.064  25.139  1.00  0.00    -0.198 NA
ATOM      9  C   UNL A   1      33.696  23.777  26.145  1.00  0.00     0.103 C 
ATOM     10  C   UNL A   1      32.583  23.234  23.915  1.00  0.00     0.103 C 
ATOM     11  C   UNL A   1      35.057  23.636  25.497  1.00  0.00     0.030 C 
ATOM     12  C   UNL A   1      33.938  22.935  23.307  1.00  0.00     0.030 C 
BRANCH   8  13
ATOM     13  S   UNL A   1      31.133  24.549  25.774  1.00  0.00     0.243 S 
ATOM     14  O   UNL A   1      31.331  24.832  27.184  1.00  0.00    -0.207 OA
ATOM     15  O   UNL A   1      30.130  23.619  25.319  1.00  0.00    -0.207 OA
BRANCH  13  16
ATOM     16  C   UNL A   1      30.732  26.119  25.019  1.00  0.00     0.083 A 
ATOM     17  C   UNL A   1      31.455  28.383  24.557  1.00  0.00     0.083 A 
ATOM     18  C   UNL A   1      31.682  27.137  25.155  1.00  0.00     0.039 A 
ATOM     19  C   UNL A   1      30.316  28.590  23.767  1.00  0.00     0.131 A 
ATOM     20  C   UNL A   1      29.352  27.589  23.678  1.00  0.00     0.048 A 
ATOM     21  C   UNL A   1      29.556  26.360  24.306  1.00  0.00     0.025 A 
BRANCH  17  22
ATOM     22  C   UNL A   1      32.457  29.434  24.807  1.00  0.00     0.254 C 
ATOM     23  C   UNL A   1      33.881  28.746  22.826  1.00  0.00     0.143 C 
ATOM     24  N   UNL A   1      33.551  29.540  23.987  1.00  0.00    -0.355 N 
ATOM     25  H   UNL A   1      34.194  30.249  24.220  1.00  0.00     0.163 HD
ATOM     26  O   UNL A   1      32.290  30.215  25.739  1.00  0.00    -0.269 OA
ENDBRANCH  17  22
BRANCH  19  27
ATOM     27  O   UNL A   1      30.025  29.739  23.084  1.00  0.00    -0.496 OA
ATOM     28  C   UNL A   1      29.032  29.543  22.077  1.00  0.00     0.278 C 
ENDBRANCH  19  27
ENDBRANCH  13  16
ENDBRANCH   8  13
ENDBRANCH   4   7
ENDBRANCH   2   3
ENDBRANCH   1   2
BRANCH   1  29
ATOM     29  C   UNL A   1      39.537  20.027  25.933  1.00  0.00     0.118 C 
BRANCH  29  30
ATOM     30  N   UNL A   1      40.588  19.023  26.028  1.00  0.00    -0.352 N 
ATOM     31  C   UNL A   1      41.949  19.178  26.120  1.00  0.00     0.251 C 
ATOM     32  H   UNL A   1      40.274  18.090  26.026  1.00  0.00     0.163 HD
ATOM     33  O   UNL A   1      42.681  18.203  25.975  1.00  0.00    -0.269 OA
BRANCH  31  34
ATOM     34  C   UNL A   1      42.529  20.513  26.380  1.00  0.00     0.039 A 
ATOM     35  C   UNL A   1      43.037  21.255  25.311  1.00  0.00     0.014 A 
ATOM     36  C   UNL A   1      42.587  21.024  27.679  1.00  0.00     0.014 A 
ATOM     37  C   UNL A   1      43.546  22.536  25.538  1.00  0.00     0.010 A 
ATOM     38  C   UNL A   1      43.008  22.332  27.889  1.00  0.00     0.010 A 
ATOM     39  C   UNL A   1      43.506  23.096  26.825  1.00  0.00    -0.014 A 
BRANCH  39  40
ATOM     40  C   UNL A   1      44.000  24.470  27.096  1.00  0.00     0.031 A 
ATOM     41  C   UNL A   1      43.047  25.521  27.602  1.00  0.00     0.074 A 
ATOM     42  C   UNL A   1      45.274  24.794  26.800  1.00  0.00     0.049 A 
ATOM     43  N   UNL A   1      43.254  26.797  27.799  1.00  0.00    -0.248 NA
ATOM     44  C   UNL A   1      41.670  25.087  27.896  1.00  0.00     0.031 C 
ATOM     45  C   UNL A   1      46.273  23.882  26.236  1.00  0.00     0.029 A 
ATOM     46  N   UNL A   1      45.941  25.989  26.908  1.00  0.00    -0.354 N 
ATOM     47  C   UNL A   1      42.032  27.323  28.201  1.00  0.00     0.074 A 
ATOM     48  C   UNL A   1      41.076  26.237  28.182  1.00  0.00     0.031 C 
ATOM     49  C   UNL A   1      47.426  24.550  26.056  1.00  0.00     0.029 A 
ATOM     50  C   UNL A   1      47.242  25.938  26.465  1.00  0.00     0.049 A 
ATOM     51  H   UNL A   1      45.525  26.806  27.270  1.00  0.00     0.167 HD
ATOM     52  C   UNL A   1      41.737  28.584  28.592  1.00  0.00     0.034 A 
ATOM     53  C   UNL A   1      48.179  26.904  26.397  1.00  0.00     0.034 A 
ATOM     54  C   UNL A   1      42.702  29.646  28.671  1.00  0.00     0.049 A 
ATOM     55  C   UNL A   1      47.836  28.285  26.887  1.00  0.00     0.074 A 
ATOM     56  C   UNL A   1      42.521  30.945  29.112  1.00  0.00     0.029 A 
ATOM     57  N   UNL A   1      44.037  29.526  28.316  1.00  0.00    -0.354 N 
ATOM     58  N   UNL A   1      46.709  28.729  27.388  1.00  0.00    -0.248 NA
ATOM     59  C   UNL A   1      48.907  29.292  26.836  1.00  0.00     0.031 C 
ATOM     60  C   UNL A   1      43.749  31.610  29.026  1.00  0.00     0.029 A 
ATOM     61  C   UNL A   1      44.694  30.722  28.539  1.00  0.00     0.049 A 
ATOM     62  H   UNL A   1      44.455  28.710  27.957  1.00  0.00     0.167 HD
ATOM     63  C   UNL A   1      46.947  30.050  27.750  1.00  0.00     0.074 A 
ATOM     64  C   UNL A   1      48.330  30.329  27.428  1.00  0.00     0.031 C 
ATOM     65  C   UNL A   1      46.091  30.957  28.281  1.00  0.00     0.034 A 
BRANCH  52  66
ATOM     66  C   UNL A   1      40.329  28.863  29.047  1.00  0.00     0.023 A 
ATOM     67  C   UNL A   1      39.347  29.170  28.082  1.00  0.00     0.012 A 
ATOM     68  C   UNL A   1      39.961  28.771  30.402  1.00  0.00     0.148 A 
ATOM     69  C   UNL A   1      38.027  29.409  28.461  1.00  0.00     0.002 A 
ATOM     70  C   UNL A   1      38.635  28.972  30.769  1.00  0.00     0.091 A 
ATOM     71  F   UNL A   1      40.913  28.501  31.307  1.00  0.00    -0.205 F 
ATOM     72  C   UNL A   1      37.670  29.299  29.801  1.00  0.00     0.022 A 
BRANCH  70  73
ATOM     73  S   UNL A   1      38.056  28.785  32.459  1.00  0.00     0.127 S 
ATOM     74  O   UNL A   1      38.941  29.701  33.177  1.00  0.00    -0.237 OA
ATOM     75  O   UNL A   1      36.666  29.233  32.361  1.00  0.00    -0.237 OA
ATOM     76  O   UNL A   1      38.217  27.375  32.784  1.00  0.00    -0.744 OA
ENDBRANCH  70  73
ENDBRANCH  52  66
BRANCH  53  77
ATOM     77  C   UNL A   1      49.556  26.581  25.929  1.00  0.00     0.023 A 
ATOM     78  C   UNL A   1      50.397  25.811  26.757  1.00  0.00     0.012 A 
ATOM     79  C   UNL A   1      50.037  27.016  24.680  1.00  0.00     0.148 A 
ATOM     80  C   UNL A   1      51.701  25.510  26.365  1.00  0.00     0.002 A 
ATOM     81  C   UNL A   1      51.321  26.669  24.273  1.00  0.00     0.091 A 
ATOM     82  F   UNL A   1      49.231  27.764  23.912  1.00  0.00    -0.205 F 
ATOM     83  C   UNL A   1      52.161  25.930  25.120  1.00  0.00     0.022 A 
BRANCH  81  84
ATOM     84  S   UNL A   1      51.933  27.070  22.632  1.00  0.00     0.127 S 
ATOM     85  O   UNL A   1      53.048  26.138  22.492  1.00  0.00    -0.237 OA
ATOM     86  O   UNL A   1      50.774  26.777  21.788  1.00  0.00    -0.237 OA
ATOM     87  O   UNL A   1      52.281  28.484  22.693  1.00  0.00    -0.744 OA
ENDBRANCH  81  84
ENDBRANCH  53  77
BRANCH  65  88
ATOM     88  C   UNL A   1      46.632  32.326  28.591  1.00  0.00     0.023 A 
ATOM     89  C   UNL A   1      47.179  32.587  29.861  1.00  0.00     0.012 A 
ATOM     90  C   UNL A   1      46.670  33.326  27.600  1.00  0.00     0.148 A 
ATOM     91  C   UNL A   1      47.732  33.834  30.151  1.00  0.00     0.002 A 
ATOM     92  C   UNL A   1      47.261  34.551  27.882  1.00  0.00     0.091 A 
ATOM     93  F   UNL A   1      46.123  33.064  26.403  1.00  0.00    -0.205 F 
ATOM     94  C   UNL A   1      47.784  34.810  29.159  1.00  0.00     0.022 A 
BRANCH  92  95
ATOM     95  S   UNL A   1      47.452  35.832  26.636  1.00  0.00     0.127 S 
ATOM     96  O   UNL A   1      48.201  36.851  27.368  1.00  0.00    -0.237 OA
ATOM     97  O   UNL A   1      48.214  35.143  25.593  1.00  0.00    -0.237 OA
ATOM     98  O   UNL A   1      46.100  36.206  26.242  1.00  0.00    -0.744 OA
ENDBRANCH  92  95
ENDBRANCH  65  88
ENDBRANCH  39  40
ENDBRANCH  31  34
ENDBRANCH  29  30
ENDBRANCH   1  29
TORSDOF 17
ENDMDL
