MODEL 1
REMARK VINA RESULT:     -12.1      0.000      0.000
REMARK SMILES CC(C)[NH2+][C@@]1(C(=O)NCCCNC(=O)c2ccc(-c3c4nc(c(-c5cccc(S(=O)(=O)[O-])c5F)c5ccc([nH]5)c(-c5cccc(S(=O)(=O)[O-])c5F)c5nc(c(-c6cccc(S(=O)(=O)[O-])c6F)c6ccc3[nH]6)C=C5)C=C4)cc2)CCC[C@@H]1CCOC1CCOCC1
REMARK SMILES IDX 9 1 8 2 6 3 7 4 5 6 78 7 81 8 79 9 80 10 4 11 2 14 1 15 3 16
REMARK SMILES IDX 82 17 83 18 84 19 85 20 86 21 90 22 87 23 89 24 88 25 10 26
REMARK SMILES IDX 11 27 12 28 13 29 14 31 15 32 16 33 77 34 17 35 76 36 18 37
REMARK SMILES IDX 19 38 20 39 70 40 21 41 75 42 69 43 71 44 22 45 74 46 68 47
REMARK SMILES IDX 67 48 23 50 55 51 35 52 54 53 36 54 39 55 53 56 72 57 37 58
REMARK SMILES IDX 38 59 52 61 73 62 40 63 24 64 25 65 33 66 26 67 28 68 34 69
REMARK SMILES IDX 27 70 29 71 30 72 31 73 32 74 56 75 57 76 65 77 58 78 60 79
REMARK SMILES IDX 66 80 59 81 61 82 62 83 63 84 64 85 41 86 42 87 50 88 43 89
REMARK SMILES IDX 45 90 51 91 44 92 46 93 47 94 48 95 49 96
REMARK H PARENT 8 5 4 12 4 13 12 30 71 49 39 60
REMARK Flexibility Score: inf
ROOT
ATOM      1  C   UNL A   1      31.716  30.498  25.516  1.00  0.00     0.118 C 
ENDROOT
BRANCH   1   2
ATOM      2  N   UNL A   1      31.058  29.244  25.883  1.00  0.00    -0.351 N 
ATOM      3  C   UNL A   1      31.353  28.049  25.262  1.00  0.00     0.281 C 
ATOM      4  O   UNL A   1      30.793  27.941  24.170  1.00  0.00    -0.268 OA
ATOM      5  H   UNL A   1      30.382  29.253  26.599  1.00  0.00     0.163 HD
BRANCH   3   6
ATOM      6  C   UNL A   1      32.378  26.835  26.000  1.00  0.00     0.178 C 
ATOM      7  C   UNL A   1      33.325  27.977  27.021  1.00  0.00     0.079 C 
ATOM      8  C   UNL A   1      33.590  26.953  24.696  1.00  0.00     0.063 C 
ATOM      9  C   UNL A   1      34.474  28.612  26.256  1.00  0.00     0.008 C 
ATOM     10  C   UNL A   1      34.254  28.347  24.808  1.00  0.00     0.011 C 
BRANCH   6  11
ATOM     11  N   UNL A   1      31.613  25.114  26.713  1.00  0.00    -0.331 N 
ATOM     12  H   UNL A   1      32.122  25.045  27.593  1.00  0.00     0.347 HD
ATOM     13  H   UNL A   1      30.703  25.343  26.314  1.00  0.00     0.347 HD
BRANCH  11  14
ATOM     14  C   UNL A   1      31.372  23.536  26.401  1.00  0.00     0.176 C 
ATOM     15  C   UNL A   1      32.652  22.798  26.894  1.00  0.00     0.075 C 
ATOM     16  C   UNL A   1      30.185  22.602  26.785  1.00  0.00     0.075 C 
ENDBRANCH  11  14
ENDBRANCH   6  11
BRANCH   8  17
ATOM     17  C   UNL A   1      33.289  26.827  23.171  1.00  0.00     0.039 C 
BRANCH  17  18
ATOM     18  C   UNL A   1      33.017  25.483  22.537  1.00  0.00     0.161 C 
BRANCH  18  19
ATOM     19  O   UNL A   1      32.810  24.504  23.521  1.00  0.00    -0.378 OA
BRANCH  19  20
ATOM     20  C   UNL A   1      33.428  23.276  23.234  1.00  0.00     0.122 C 
ATOM     21  C   UNL A   1      32.208  21.765  23.083  1.00  0.00     0.060 C 
ATOM     22  C   UNL A   1      35.211  22.944  23.922  1.00  0.00     0.060 C 
ATOM     23  C   UNL A   1      32.637  20.116  24.028  1.00  0.00     0.163 C 
ATOM     24  C   UNL A   1      35.569  21.261  24.823  1.00  0.00     0.163 C 
ATOM     25  O   UNL A   1      34.288  19.912  24.826  1.00  0.00    -0.381 OA
ENDBRANCH  19  20
ENDBRANCH  18  19
ENDBRANCH  17  18
ENDBRANCH   8  17
ENDBRANCH   3   6
ENDBRANCH   1   2
BRANCH   1  26
ATOM     26  C   UNL A   1      31.398  31.685  26.423  1.00  0.00     0.042 C 
BRANCH  26  27
ATOM     27  C   UNL A   1      32.590  32.176  27.228  1.00  0.00     0.118 C 
BRANCH  27  28
ATOM     28  N   UNL A   1      32.502  33.607  27.483  1.00  0.00    -0.352 N 
ATOM     29  C   UNL A   1      33.117  34.349  28.461  1.00  0.00     0.251 C 
ATOM     30  H   UNL A   1      31.923  34.112  26.868  1.00  0.00     0.163 HD
ATOM     31  O   UNL A   1      32.675  35.456  28.756  1.00  0.00    -0.269 OA
BRANCH  29  32
ATOM     32  C   UNL A   1      34.306  33.810  29.153  1.00  0.00     0.039 A 
ATOM     33  C   UNL A   1      35.578  34.284  28.819  1.00  0.00     0.014 A 
ATOM     34  C   UNL A   1      34.164  32.800  30.106  1.00  0.00     0.014 A 
ATOM     35  C   UNL A   1      36.700  33.771  29.474  1.00  0.00     0.010 A 
ATOM     36  C   UNL A   1      35.266  32.368  30.829  1.00  0.00     0.010 A 
ATOM     37  C   UNL A   1      36.549  32.820  30.497  1.00  0.00    -0.014 A 
BRANCH  37  38
ATOM     38  C   UNL A   1      37.715  32.237  31.209  1.00  0.00     0.031 A 
ATOM     39  C   UNL A   1      38.480  31.104  30.575  1.00  0.00     0.074 A 
ATOM     40  C   UNL A   1      38.011  32.646  32.457  1.00  0.00     0.049 A 
ATOM     41  N   UNL A   1      39.461  30.392  31.066  1.00  0.00    -0.248 NA
ATOM     42  C   UNL A   1      38.055  30.682  29.228  1.00  0.00     0.031 C 
ATOM     43  C   UNL A   1      37.281  33.668  33.210  1.00  0.00     0.029 A 
ATOM     44  N   UNL A   1      38.989  32.231  33.324  1.00  0.00    -0.354 N 
ATOM     45  C   UNL A   1      39.726  29.409  30.120  1.00  0.00     0.074 A 
ATOM     46  C   UNL A   1      38.778  29.588  29.044  1.00  0.00     0.031 C 
ATOM     47  C   UNL A   1      37.843  33.809  34.421  1.00  0.00     0.029 A 
ATOM     48  C   UNL A   1      38.957  32.873  34.540  1.00  0.00     0.049 A 
ATOM     49  H   UNL A   1      39.651  31.538  33.098  1.00  0.00     0.167 HD
ATOM     50  C   UNL A   1      40.697  28.465  30.124  1.00  0.00     0.034 A 
ATOM     51  C   UNL A   1      39.742  32.724  35.625  1.00  0.00     0.034 A 
ATOM     52  C   UNL A   1      41.687  28.351  31.158  1.00  0.00     0.049 A 
ATOM     53  C   UNL A   1      40.874  31.735  35.568  1.00  0.00     0.074 A 
ATOM     54  C   UNL A   1      42.789  27.518  31.209  1.00  0.00     0.029 A 
ATOM     55  N   UNL A   1      41.695  29.101  32.324  1.00  0.00    -0.354 N 
ATOM     56  N   UNL A   1      41.218  30.929  34.591  1.00  0.00    -0.248 NA
ATOM     57  C   UNL A   1      41.753  31.660  36.745  1.00  0.00     0.031 C 
ATOM     58  C   UNL A   1      43.460  27.759  32.414  1.00  0.00     0.029 A 
ATOM     59  C   UNL A   1      42.782  28.751  33.105  1.00  0.00     0.049 A 
ATOM     60  H   UNL A   1      41.026  29.783  32.562  1.00  0.00     0.167 HD
ATOM     61  C   UNL A   1      42.369  30.279  35.018  1.00  0.00     0.074 A 
ATOM     62  C   UNL A   1      42.675  30.799  36.336  1.00  0.00     0.031 C 
ATOM     63  C   UNL A   1      43.098  29.325  34.388  1.00  0.00     0.034 A 
BRANCH  50  64
ATOM     64  C   UNL A   1      40.772  27.534  28.941  1.00  0.00     0.023 A 
ATOM     65  C   UNL A   1      39.881  26.443  28.858  1.00  0.00     0.012 A 
ATOM     66  C   UNL A   1      41.697  27.748  27.901  1.00  0.00     0.148 A 
ATOM     67  C   UNL A   1      39.941  25.554  27.785  1.00  0.00     0.002 A 
ATOM     68  C   UNL A   1      41.718  26.884  26.810  1.00  0.00     0.091 A 
ATOM     69  F   UNL A   1      42.552  28.776  28.004  1.00  0.00    -0.205 F 
ATOM     70  C   UNL A   1      40.853  25.780  26.758  1.00  0.00     0.022 A 
BRANCH  68  71
ATOM     71  S   UNL A   1      42.801  27.138  25.399  1.00  0.00     0.127 S 
ATOM     72  O   UNL A   1      42.636  25.882  24.669  1.00  0.00    -0.237 OA
ATOM     73  O   UNL A   1      42.195  28.302  24.749  1.00  0.00    -0.237 OA
ATOM     74  O   UNL A   1      44.126  27.378  25.951  1.00  0.00    -0.744 OA
ENDBRANCH  68  71
ENDBRANCH  50  64
BRANCH  51  75
ATOM     75  C   UNL A   1      39.547  33.611  36.807  1.00  0.00     0.023 A 
ATOM     76  C   UNL A   1      39.957  34.956  36.725  1.00  0.00     0.012 A 
ATOM     77  C   UNL A   1      38.919  33.155  37.982  1.00  0.00     0.148 A 
ATOM     78  C   UNL A   1      39.768  35.825  37.800  1.00  0.00     0.002 A 
ATOM     79  C   UNL A   1      38.687  34.039  39.030  1.00  0.00     0.091 A 
ATOM     80  F   UNL A   1      38.544  31.870  38.044  1.00  0.00    -0.205 F 
ATOM     81  C   UNL A   1      39.125  35.370  38.948  1.00  0.00     0.022 A 
BRANCH  79  82
ATOM     82  S   UNL A   1      37.752  33.579  40.494  1.00  0.00     0.127 S 
ATOM     83  O   UNL A   1      36.528  33.038  39.910  1.00  0.00    -0.237 OA
ATOM     84  O   UNL A   1      38.630  32.588  41.116  1.00  0.00    -0.237 OA
ATOM     85  O   UNL A   1      37.597  34.808  41.263  1.00  0.00    -0.744 OA
ENDBRANCH  79  82
ENDBRANCH  51  75
BRANCH  63  86
ATOM     86  C   UNL A   1      44.318  28.799  35.095  1.00  0.00     0.023 A 
ATOM     87  C   UNL A   1      45.577  29.371  34.830  1.00  0.00     0.012 A 
ATOM     88  C   UNL A   1      44.203  27.802  36.083  1.00  0.00     0.148 A 
ATOM     89  C   UNL A   1      46.710  28.940  35.520  1.00  0.00     0.002 A 
ATOM     90  C   UNL A   1      45.326  27.411  36.800  1.00  0.00     0.091 A 
ATOM     91  F   UNL A   1      42.997  27.256  36.305  1.00  0.00    -0.205 F 
ATOM     92  C   UNL A   1      46.582  27.971  36.513  1.00  0.00     0.022 A 
BRANCH  90  93
ATOM     93  S   UNL A   1      45.237  26.242  38.161  1.00  0.00     0.127 S 
ATOM     94  O   UNL A   1      44.826  25.018  37.477  1.00  0.00    -0.237 OA
ATOM     95  O   UNL A   1      46.614  26.233  38.655  1.00  0.00    -0.237 OA
ATOM     96  O   UNL A   1      44.266  26.795  39.097  1.00  0.00    -0.744 OA
ENDBRANCH  90  93
ENDBRANCH  63  86
ENDBRANCH  37  38
ENDBRANCH  29  32
ENDBRANCH  27  28
ENDBRANCH  26  27
ENDBRANCH   1  26
TORSDOF 19
ENDMDL
MODEL 2
REMARK VINA RESULT:     -12.0      2.426      8.060
REMARK SMILES CC(C)[NH2+][C@@]1(C(=O)NCCCNC(=O)c2ccc(-c3c4nc(c(-c5cccc(S(=O)(=O)[O-])c5F)c5ccc([nH]5)c(-c5cccc(S(=O)(=O)[O-])c5F)c5nc(c(-c6cccc(S(=O)(=O)[O-])c6F)c6ccc3[nH]6)C=C5)C=C4)cc2)CCC[C@@H]1CCOC1CCOCC1
REMARK SMILES IDX 9 1 8 2 6 3 7 4 5 6 78 7 81 8 79 9 80 10 4 11 2 14 1 15 3 16
REMARK SMILES IDX 82 17 83 18 84 19 85 20 86 21 90 22 87 23 89 24 88 25 10 26
REMARK SMILES IDX 11 27 12 28 13 29 14 31 15 32 16 33 77 34 17 35 76 36 18 37
REMARK SMILES IDX 19 38 20 39 70 40 21 41 75 42 69 43 71 44 22 45 74 46 68 47
REMARK SMILES IDX 67 48 23 50 55 51 35 52 54 53 36 54 39 55 53 56 72 57 37 58
REMARK SMILES IDX 38 59 52 61 73 62 40 63 24 64 25 65 33 66 26 67 28 68 34 69
REMARK SMILES IDX 27 70 29 71 30 72 31 73 32 74 56 75 57 76 65 77 58 78 60 79
REMARK SMILES IDX 66 80 59 81 61 82 62 83 63 84 64 85 41 86 42 87 50 88 43 89
REMARK SMILES IDX 45 90 51 91 44 92 46 93 47 94 48 95 49 96
REMARK H PARENT 8 5 4 12 4 13 12 30 71 49 39 60
REMARK Flexibility Score: inf
ROOT
ATOM      1  C   UNL A   1      31.975  28.160  27.508  1.00  0.00     0.118 C 
ENDROOT
BRANCH   1   2
ATOM      2  N   UNL A   1      32.086  27.135  26.470  1.00  0.00    -0.351 N 
ATOM      3  C   UNL A   1      30.992  26.677  25.767  1.00  0.00     0.281 C 
ATOM      4  O   UNL A   1      30.336  25.855  26.410  1.00  0.00    -0.268 OA
ATOM      5  H   UNL A   1      32.974  26.759  26.265  1.00  0.00     0.163 HD
BRANCH   3   6
ATOM      6  C   UNL A   1      30.638  27.201  24.134  1.00  0.00     0.178 C 
ATOM      7  C   UNL A   1      29.524  25.844  23.734  1.00  0.00     0.079 C 
ATOM      8  C   UNL A   1      32.022  26.300  23.461  1.00  0.00     0.063 C 
ATOM      9  C   UNL A   1      30.272  24.606  23.270  1.00  0.00     0.008 C 
ATOM     10  C   UNL A   1      31.708  24.791  23.613  1.00  0.00     0.011 C 
BRANCH   6  11
ATOM     11  N   UNL A   1      30.204  29.124  23.725  1.00  0.00    -0.331 N 
ATOM     12  H   UNL A   1      30.296  29.529  24.657  1.00  0.00     0.347 HD
ATOM     13  H   UNL A   1      30.670  29.047  22.822  1.00  0.00     0.347 HD
BRANCH  11  14
ATOM     14  C   UNL A   1      29.097  30.131  23.088  1.00  0.00     0.176 C 
ATOM     15  C   UNL A   1      27.823  29.271  22.839  1.00  0.00     0.075 C 
ATOM     16  C   UNL A   1      28.572  31.507  23.599  1.00  0.00     0.075 C 
ENDBRANCH  11  14
ENDBRANCH   6  11
BRANCH   8  17
ATOM     17  C   UNL A   1      33.496  26.405  23.959  1.00  0.00     0.039 C 
BRANCH  17  18
ATOM     18  C   UNL A   1      34.283  25.172  24.337  1.00  0.00     0.161 C 
BRANCH  18  19
ATOM     19  O   UNL A   1      34.402  25.070  25.732  1.00  0.00    -0.378 OA
BRANCH  19  20
ATOM     20  C   UNL A   1      34.612  23.757  26.185  1.00  0.00     0.122 C 
ATOM     21  C   UNL A   1      36.367  23.023  25.767  1.00  0.00     0.060 C 
ATOM     22  C   UNL A   1      33.104  22.538  26.250  1.00  0.00     0.060 C 
ATOM     23  C   UNL A   1      36.477  21.236  24.997  1.00  0.00     0.163 C 
ATOM     24  C   UNL A   1      33.303  20.761  25.490  1.00  0.00     0.163 C 
ATOM     25  O   UNL A   1      34.972  20.172  24.915  1.00  0.00    -0.381 OA
ENDBRANCH  19  20
ENDBRANCH  18  19
ENDBRANCH  17  18
ENDBRANCH   8  17
ENDBRANCH   3   6
ENDBRANCH   1   2
BRANCH   1  26
ATOM     26  C   UNL A   1      31.703  29.573  26.996  1.00  0.00     0.042 C 
BRANCH  26  27
ATOM     27  C   UNL A   1      32.925  30.255  26.403  1.00  0.00     0.118 C 
BRANCH  27  28
ATOM     28  N   UNL A   1      32.869  31.698  26.593  1.00  0.00    -0.352 N 
ATOM     29  C   UNL A   1      33.539  32.475  27.506  1.00  0.00     0.251 C 
ATOM     30  H   UNL A   1      32.268  32.183  25.982  1.00  0.00     0.163 HD
ATOM     31  O   UNL A   1      33.125  33.601  27.768  1.00  0.00    -0.269 OA
BRANCH  29  32
ATOM     32  C   UNL A   1      34.751  31.950  28.168  1.00  0.00     0.039 A 
ATOM     33  C   UNL A   1      35.943  32.677  28.110  1.00  0.00     0.014 A 
ATOM     34  C   UNL A   1      34.716  30.712  28.813  1.00  0.00     0.014 A 
ATOM     35  C   UNL A   1      37.088  32.176  28.736  1.00  0.00     0.010 A 
ATOM     36  C   UNL A   1      35.822  30.268  29.522  1.00  0.00     0.010 A 
ATOM     37  C   UNL A   1      37.030  30.975  29.462  1.00  0.00    -0.014 A 
BRANCH  37  38
ATOM     38  C   UNL A   1      38.225  30.399  30.128  1.00  0.00     0.031 A 
ATOM     39  C   UNL A   1      38.596  30.860  31.514  1.00  0.00     0.074 A 
ATOM     40  C   UNL A   1      39.028  29.556  29.452  1.00  0.00     0.049 A 
ATOM     41  N   UNL A   1      39.647  30.560  32.232  1.00  0.00    -0.248 NA
ATOM     42  C   UNL A   1      37.691  31.826  32.161  1.00  0.00     0.031 C 
ATOM     43  C   UNL A   1      38.822  29.113  28.071  1.00  0.00     0.029 A 
ATOM     44  N   UNL A   1      40.196  28.941  29.827  1.00  0.00    -0.354 N 
ATOM     45  C   UNL A   1      39.558  31.340  33.379  1.00  0.00     0.074 A 
ATOM     46  C   UNL A   1      38.374  32.157  33.246  1.00  0.00     0.031 C 
ATOM     47  C   UNL A   1      39.822  28.290  27.719  1.00  0.00     0.029 A 
ATOM     48  C   UNL A   1      40.752  28.164  28.838  1.00  0.00     0.049 A 
ATOM     49  H   UNL A   1      40.598  29.048  30.718  1.00  0.00     0.167 HD
ATOM     50  C   UNL A   1      40.366  31.347  34.465  1.00  0.00     0.034 A 
ATOM     51  C   UNL A   1      41.882  27.430  28.838  1.00  0.00     0.034 A 
ATOM     52  C   UNL A   1      41.491  30.469  34.623  1.00  0.00     0.049 A 
ATOM     53  C   UNL A   1      42.711  27.381  30.092  1.00  0.00     0.074 A 
ATOM     54  C   UNL A   1      42.305  30.300  35.728  1.00  0.00     0.029 A 
ATOM     55  N   UNL A   1      41.956  29.604  33.644  1.00  0.00    -0.354 N 
ATOM     56  N   UNL A   1      42.516  27.995  31.235  1.00  0.00    -0.248 NA
ATOM     57  C   UNL A   1      43.894  26.507  30.074  1.00  0.00     0.031 C 
ATOM     58  C   UNL A   1      43.271  29.338  35.412  1.00  0.00     0.029 A 
ATOM     59  C   UNL A   1      43.049  28.899  34.116  1.00  0.00     0.049 A 
ATOM     60  H   UNL A   1      41.567  29.507  32.745  1.00  0.00     0.167 HD
ATOM     61  C   UNL A   1      43.528  27.558  32.082  1.00  0.00     0.074 A 
ATOM     62  C   UNL A   1      44.323  26.611  31.325  1.00  0.00     0.031 C 
ATOM     63  C   UNL A   1      43.789  27.918  33.363  1.00  0.00     0.034 A 
BRANCH  50  64
ATOM     64  C   UNL A   1      40.015  32.286  35.591  1.00  0.00     0.023 A 
ATOM     65  C   UNL A   1      39.286  31.803  36.698  1.00  0.00     0.012 A 
ATOM     66  C   UNL A   1      40.426  33.634  35.572  1.00  0.00     0.148 A 
ATOM     67  C   UNL A   1      38.931  32.655  37.744  1.00  0.00     0.002 A 
ATOM     68  C   UNL A   1      40.108  34.465  36.642  1.00  0.00     0.091 A 
ATOM     69  F   UNL A   1      41.099  34.085  34.503  1.00  0.00    -0.205 F 
ATOM     70  C   UNL A   1      39.349  33.981  37.720  1.00  0.00     0.022 A 
BRANCH  68  71
ATOM     71  S   UNL A   1      40.672  36.168  36.742  1.00  0.00     0.127 S 
ATOM     72  O   UNL A   1      39.924  36.792  35.650  1.00  0.00    -0.237 OA
ATOM     73  O   UNL A   1      40.233  36.562  38.082  1.00  0.00    -0.237 OA
ATOM     74  O   UNL A   1      42.117  36.121  36.570  1.00  0.00    -0.744 OA
ENDBRANCH  68  71
ENDBRANCH  50  64
BRANCH  51  75
ATOM     75  C   UNL A   1      42.227  26.602  27.648  1.00  0.00     0.023 A 
ATOM     76  C   UNL A   1      42.989  27.180  26.614  1.00  0.00     0.012 A 
ATOM     77  C   UNL A   1      41.857  25.247  27.553  1.00  0.00     0.148 A 
ATOM     78  C   UNL A   1      43.355  26.431  25.495  1.00  0.00     0.002 A 
ATOM     79  C   UNL A   1      42.269  24.492  26.460  1.00  0.00     0.091 A 
ATOM     80  F   UNL A   1      41.125  24.717  28.543  1.00  0.00    -0.205 F 
ATOM     81  C   UNL A   1      43.004  25.086  25.422  1.00  0.00     0.022 A 
BRANCH  79  82
ATOM     82  S   UNL A   1      41.977  22.722  26.341  1.00  0.00     0.127 S 
ATOM     83  O   UNL A   1      42.589  22.234  27.573  1.00  0.00    -0.237 OA
ATOM     84  O   UNL A   1      40.516  22.658  26.310  1.00  0.00    -0.237 OA
ATOM     85  O   UNL A   1      42.622  22.301  25.104  1.00  0.00    -0.744 OA
ENDBRANCH  79  82
ENDBRANCH  51  75
BRANCH  63  86
ATOM     86  C   UNL A   1      44.961  27.268  34.046  1.00  0.00     0.023 A 
ATOM     87  C   UNL A   1      46.226  27.884  33.994  1.00  0.00     0.012 A 
ATOM     88  C   UNL A   1      44.789  26.097  34.810  1.00  0.00     0.148 A 
ATOM     89  C   UNL A   1      47.311  27.331  34.673  1.00  0.00     0.002 A 
ATOM     90  C   UNL A   1      45.863  25.578  35.522  1.00  0.00     0.091 A 
ATOM     91  F   UNL A   1      43.580  25.516  34.829  1.00  0.00    -0.205 F 
ATOM     92  C   UNL A   1      47.126  26.186  35.447  1.00  0.00     0.022 A 
BRANCH  90  93
ATOM     93  S   UNL A   1      45.691  24.167  36.621  1.00  0.00     0.127 S 
ATOM     94  O   UNL A   1      45.330  23.103  35.686  1.00  0.00    -0.237 OA
ATOM     95  O   UNL A   1      47.035  24.049  37.190  1.00  0.00    -0.237 OA
ATOM     96  O   UNL A   1      44.661  24.534  37.584  1.00  0.00    -0.744 OA
ENDBRANCH  90  93
ENDBRANCH  63  86
ENDBRANCH  37  38
ENDBRANCH  29  32
ENDBRANCH  27  28
ENDBRANCH  26  27
ENDBRANCH   1  26
TORSDOF 19
ENDMDL
MODEL 3
REMARK VINA RESULT:     -11.7      2.149      8.188
REMARK SMILES CC(C)[NH2+][C@@]1(C(=O)NCCCNC(=O)c2ccc(-c3c4nc(c(-c5cccc(S(=O)(=O)[O-])c5F)c5ccc([nH]5)c(-c5cccc(S(=O)(=O)[O-])c5F)c5nc(c(-c6cccc(S(=O)(=O)[O-])c6F)c6ccc3[nH]6)C=C5)C=C4)cc2)CCC[C@@H]1CCOC1CCOCC1
REMARK SMILES IDX 9 1 8 2 6 3 7 4 5 6 78 7 81 8 79 9 80 10 4 11 2 14 1 15 3 16
REMARK SMILES IDX 82 17 83 18 84 19 85 20 86 21 90 22 87 23 89 24 88 25 10 26
REMARK SMILES IDX 11 27 12 28 13 29 14 31 15 32 16 33 77 34 17 35 76 36 18 37
REMARK SMILES IDX 19 38 20 39 70 40 21 41 75 42 69 43 71 44 22 45 74 46 68 47
REMARK SMILES IDX 67 48 23 50 55 51 35 52 54 53 36 54 39 55 53 56 72 57 37 58
REMARK SMILES IDX 38 59 52 61 73 62 40 63 24 64 25 65 33 66 26 67 28 68 34 69
REMARK SMILES IDX 27 70 29 71 30 72 31 73 32 74 56 75 57 76 65 77 58 78 60 79
REMARK SMILES IDX 66 80 59 81 61 82 62 83 63 84 64 85 41 86 42 87 50 88 43 89
REMARK SMILES IDX 45 90 51 91 44 92 46 93 47 94 48 95 49 96
REMARK H PARENT 8 5 4 12 4 13 12 30 71 49 39 60
REMARK Flexibility Score: inf
ROOT
ATOM      1  C   UNL A   1      32.876  28.729  23.780  1.00  0.00     0.118 C 
ENDROOT
BRANCH   1   2
ATOM      2  N   UNL A   1      32.635  27.287  23.828  1.00  0.00    -0.351 N 
ATOM      3  C   UNL A   1      31.830  26.706  24.785  1.00  0.00     0.281 C 
ATOM      4  O   UNL A   1      32.410  26.574  25.864  1.00  0.00    -0.268 OA
ATOM      5  H   UNL A   1      33.063  26.710  23.153  1.00  0.00     0.163 HD
BRANCH   3   6
ATOM      6  C   UNL A   1      30.190  26.193  24.446  1.00  0.00     0.178 C 
ATOM      7  C   UNL A   1      29.891  25.432  26.050  1.00  0.00     0.079 C 
ATOM      8  C   UNL A   1      30.732  24.632  23.775  1.00  0.00     0.063 C 
ATOM      9  C   UNL A   1      30.418  24.009  26.116  1.00  0.00     0.008 C 
ATOM     10  C   UNL A   1      31.315  23.804  24.947  1.00  0.00     0.011 C 
BRANCH   6  11
ATOM     11  N   UNL A   1      28.869  27.432  23.565  1.00  0.00    -0.331 N 
ATOM     12  H   UNL A   1      28.497  26.812  22.846  1.00  0.00     0.347 HD
ATOM     13  H   UNL A   1      28.651  27.856  24.466  1.00  0.00     0.347 HD
BRANCH  11  14
ATOM     14  C   UNL A   1      28.682  28.867  22.825  1.00  0.00     0.176 C 
ATOM     15  C   UNL A   1      27.155  29.176  22.858  1.00  0.00     0.075 C 
ATOM     16  C   UNL A   1      29.383  30.235  23.083  1.00  0.00     0.075 C 
ENDBRANCH  11  14
ENDBRANCH   6  11
BRANCH   8  17
ATOM     17  C   UNL A   1      31.800  24.455  22.653  1.00  0.00     0.039 C 
BRANCH  17  18
ATOM     18  C   UNL A   1      32.995  23.551  22.847  1.00  0.00     0.161 C 
BRANCH  18  19
ATOM     19  O   UNL A   1      34.188  24.248  22.599  1.00  0.00    -0.378 OA
BRANCH  19  20
ATOM     20  C   UNL A   1      35.156  24.085  23.604  1.00  0.00     0.122 C 
ATOM     21  C   UNL A   1      36.620  22.888  23.137  1.00  0.00     0.060 C 
ATOM     22  C   UNL A   1      34.598  24.164  25.460  1.00  0.00     0.060 C 
ATOM     23  C   UNL A   1      37.150  21.513  24.413  1.00  0.00     0.163 C 
ATOM     24  C   UNL A   1      35.196  22.773  26.678  1.00  0.00     0.163 C 
ATOM     25  O   UNL A   1      36.455  21.521  26.121  1.00  0.00    -0.381 OA
ENDBRANCH  19  20
ENDBRANCH  18  19
ENDBRANCH  17  18
ENDBRANCH   8  17
ENDBRANCH   3   6
ENDBRANCH   1   2
BRANCH   1  26
ATOM     26  C   UNL A   1      33.601  29.305  24.995  1.00  0.00     0.042 C 
BRANCH  26  27
ATOM     27  C   UNL A   1      32.675  29.673  26.142  1.00  0.00     0.118 C 
BRANCH  27  28
ATOM     28  N   UNL A   1      32.568  31.118  26.292  1.00  0.00    -0.352 N 
ATOM     29  C   UNL A   1      33.186  31.939  27.202  1.00  0.00     0.251 C 
ATOM     30  H   UNL A   1      31.971  31.567  25.651  1.00  0.00     0.163 HD
ATOM     31  O   UNL A   1      32.731  33.058  27.422  1.00  0.00    -0.269 OA
BRANCH  29  32
ATOM     32  C   UNL A   1      34.395  31.470  27.911  1.00  0.00     0.039 A 
ATOM     33  C   UNL A   1      35.483  32.332  28.073  1.00  0.00     0.014 A 
ATOM     34  C   UNL A   1      34.465  30.158  28.381  1.00  0.00     0.014 A 
ATOM     35  C   UNL A   1      36.625  31.884  28.743  1.00  0.00     0.010 A 
ATOM     36  C   UNL A   1      35.554  29.749  29.137  1.00  0.00     0.010 A 
ATOM     37  C   UNL A   1      36.661  30.593  29.295  1.00  0.00    -0.014 A 
BRANCH  37  38
ATOM     38  C   UNL A   1      37.858  30.072  30.001  1.00  0.00     0.031 A 
ATOM     39  C   UNL A   1      38.137  30.512  31.415  1.00  0.00     0.074 A 
ATOM     40  C   UNL A   1      38.742  29.300  29.340  1.00  0.00     0.049 A 
ATOM     41  N   UNL A   1      39.172  30.254  32.172  1.00  0.00    -0.248 NA
ATOM     42  C   UNL A   1      37.145  31.400  32.046  1.00  0.00     0.031 C 
ATOM     43  C   UNL A   1      38.627  28.889  27.939  1.00  0.00     0.029 A 
ATOM     44  N   UNL A   1      39.928  28.748  29.751  1.00  0.00    -0.354 N 
ATOM     45  C   UNL A   1      38.983  30.992  33.335  1.00  0.00     0.074 A 
ATOM     46  C   UNL A   1      37.757  31.739  33.170  1.00  0.00     0.031 C 
ATOM     47  C   UNL A   1      39.691  28.140  27.611  1.00  0.00     0.029 A 
ATOM     48  C   UNL A   1      40.576  28.037  28.768  1.00  0.00     0.049 A 
ATOM     49  H   UNL A   1      40.283  28.852  30.663  1.00  0.00     0.167 HD
ATOM     50  C   UNL A   1      39.738  31.015  34.458  1.00  0.00     0.034 A 
ATOM     51  C   UNL A   1      41.749  27.374  28.801  1.00  0.00     0.034 A 
ATOM     52  C   UNL A   1      40.908  30.203  34.644  1.00  0.00     0.049 A 
ATOM     53  C   UNL A   1      42.522  27.338  30.091  1.00  0.00     0.074 A 
ATOM     54  C   UNL A   1      41.680  30.051  35.781  1.00  0.00     0.029 A 
ATOM     55  N   UNL A   1      41.470  29.400  33.664  1.00  0.00    -0.354 N 
ATOM     56  N   UNL A   1      42.238  27.903  31.239  1.00  0.00    -0.248 NA
ATOM     57  C   UNL A   1      43.757  26.539  30.103  1.00  0.00     0.031 C 
ATOM     58  C   UNL A   1      42.718  29.160  35.484  1.00  0.00     0.029 A 
ATOM     59  C   UNL A   1      42.582  28.748  34.166  1.00  0.00     0.049 A 
ATOM     60  H   UNL A   1      41.128  29.306  32.746  1.00  0.00     0.167 HD
ATOM     61  C   UNL A   1      43.236  27.503  32.120  1.00  0.00     0.074 A 
ATOM     62  C   UNL A   1      44.122  26.631  31.376  1.00  0.00     0.031 C 
ATOM     63  C   UNL A   1      43.416  27.839  33.422  1.00  0.00     0.034 A 
BRANCH  50  64
ATOM     64  C   UNL A   1      39.278  31.896  35.592  1.00  0.00     0.023 A 
ATOM     65  C   UNL A   1      39.637  33.261  35.602  1.00  0.00     0.012 A 
ATOM     66  C   UNL A   1      38.471  31.389  36.629  1.00  0.00     0.148 A 
ATOM     67  C   UNL A   1      39.242  34.094  36.648  1.00  0.00     0.002 A 
ATOM     68  C   UNL A   1      38.042  32.238  37.644  1.00  0.00     0.091 A 
ATOM     69  F   UNL A   1      38.157  30.085  36.619  1.00  0.00    -0.205 F 
ATOM     70  C   UNL A   1      38.438  33.585  37.663  1.00  0.00     0.022 A 
BRANCH  68  71
ATOM     71  S   UNL A   1      36.936  31.696  38.953  1.00  0.00     0.127 S 
ATOM     72  O   UNL A   1      37.801  31.789  40.129  1.00  0.00    -0.237 OA
ATOM     73  O   UNL A   1      35.874  32.702  38.898  1.00  0.00    -0.237 OA
ATOM     74  O   UNL A   1      36.514  30.351  38.586  1.00  0.00    -0.744 OA
ENDBRANCH  68  71
ENDBRANCH  50  64
BRANCH  51  75
ATOM     75  C   UNL A   1      42.198  26.606  27.605  1.00  0.00     0.023 A 
ATOM     76  C   UNL A   1      42.988  27.254  26.636  1.00  0.00     0.012 A 
ATOM     77  C   UNL A   1      41.900  25.239  27.445  1.00  0.00     0.148 A 
ATOM     78  C   UNL A   1      43.450  26.564  25.515  1.00  0.00     0.002 A 
ATOM     79  C   UNL A   1      42.407  24.544  26.353  1.00  0.00     0.091 A 
ATOM     80  F   UNL A   1      41.141  24.641  28.374  1.00  0.00    -0.205 F 
ATOM     81  C   UNL A   1      43.169  25.208  25.379  1.00  0.00     0.022 A 
BRANCH  79  82
ATOM     82  S   UNL A   1      42.208  22.768  26.159  1.00  0.00     0.127 S 
ATOM     83  O   UNL A   1      42.741  22.551  24.817  1.00  0.00    -0.237 OA
ATOM     84  O   UNL A   1      43.041  22.249  27.245  1.00  0.00    -0.237 OA
ATOM     85  O   UNL A   1      40.783  22.513  26.324  1.00  0.00    -0.744 OA
ENDBRANCH  79  82
ENDBRANCH  51  75
BRANCH  63  86
ATOM     86  C   UNL A   1      44.595  27.241  34.140  1.00  0.00     0.023 A 
ATOM     87  C   UNL A   1      45.831  27.914  34.129  1.00  0.00     0.012 A 
ATOM     88  C   UNL A   1      44.453  26.062  34.898  1.00  0.00     0.148 A 
ATOM     89  C   UNL A   1      46.919  27.409  34.841  1.00  0.00     0.002 A 
ATOM     90  C   UNL A   1      45.526  25.590  35.643  1.00  0.00     0.091 A 
ATOM     91  F   UNL A   1      43.271  25.426  34.879  1.00  0.00    -0.205 F 
ATOM     92  C   UNL A   1      46.762  26.256  35.608  1.00  0.00     0.022 A 
BRANCH  90  93
ATOM     93  S   UNL A   1      45.385  24.170  36.734  1.00  0.00     0.127 S 
ATOM     94  O   UNL A   1      46.753  24.040  37.231  1.00  0.00    -0.237 OA
ATOM     95  O   UNL A   1      44.416  24.635  37.728  1.00  0.00    -0.237 OA
ATOM     96  O   UNL A   1      44.912  23.073  35.901  1.00  0.00    -0.744 OA
ENDBRANCH  90  93
ENDBRANCH  63  86
ENDBRANCH  37  38
ENDBRANCH  29  32
ENDBRANCH  27  28
ENDBRANCH  26  27
ENDBRANCH   1  26
TORSDOF 19
ENDMDL
