MODEL 1
REMARK VINA RESULT:     -10.7      0.000      0.000
REMARK SMILES C[C@@H](CNC(=O)N(C)CC(C)(C)O)C(=O)NCCCNC(=O)c1ccc(-c2c3nc(c(-c4cccc(S(=O)(=O)[O-])c4F)c4ccc([nH]4)c(-c4cccc(S(=O)(=O)[O-])c4F)c4nc(c(-c5cccc(S(=O)(=O)[O-])c5F)c5ccc2[nH]5)C=C4)C=C3)cc1
REMARK SMILES IDX 14 1 15 2 16 3 2 5 1 6 3 7 4 8 5 9 6 11 7 12 8 13 9 14 10 15
REMARK SMILES IDX 11 16 12 17 13 18 17 20 18 21 19 22 20 23 21 24 22 26 23 27
REMARK SMILES IDX 24 28 85 29 25 30 84 31 26 32 27 33 28 34 78 35 29 36 83 37
REMARK SMILES IDX 77 38 79 39 30 40 82 41 76 42 75 43 31 45 63 46 43 47 62 48
REMARK SMILES IDX 44 49 47 50 61 51 80 52 45 53 46 54 60 56 81 57 48 58 32 59
REMARK SMILES IDX 33 60 41 61 34 62 36 63 42 64 35 65 37 66 38 67 39 68 40 69
REMARK SMILES IDX 64 70 65 71 73 72 66 73 68 74 74 75 67 76 69 77 70 78 71 79
REMARK SMILES IDX 72 80 49 81 50 82 58 83 51 84 53 85 59 86 52 87 54 88 55 89
REMARK SMILES IDX 56 90 57 91
REMARK H PARENT 16 4 4 10 13 19 20 25 79 44 47 55
REMARK Flexibility Score: inf
ROOT
ATOM      1  C   UNL A   1      30.812  24.769  26.247  1.00  0.00     0.224 C 
ATOM      2  O   UNL A   1      30.453  23.957  27.107  1.00  0.00    -0.275 OA
ATOM      3  N   UNL A   1      31.318  25.956  26.682  1.00  0.00    -0.356 N 
ATOM      4  H   UNL A   1      31.115  26.177  27.619  1.00  0.00     0.163 HD
ENDROOT
BRANCH   1   5
ATOM      5  C   UNL A   1      30.653  24.423  24.770  1.00  0.00     0.094 C 
ATOM      6  C   UNL A   1      30.324  25.631  23.891  1.00  0.00     0.020 C 
BRANCH   5   7
ATOM      7  C   UNL A   1      31.714  23.473  24.182  1.00  0.00     0.130 C 
BRANCH   7   8
ATOM      8  N   UNL A   1      31.712  22.121  24.704  1.00  0.00    -0.337 N 
ATOM      9  C   UNL A   1      32.506  21.351  25.464  1.00  0.00     0.317 C 
ATOM     10  H   UNL A   1      30.905  21.631  24.421  1.00  0.00     0.165 HD
ATOM     11  O   UNL A   1      32.259  20.144  25.364  1.00  0.00    -0.249 OA
BRANCH   9  12
ATOM     12  N   UNL A   1      33.511  21.813  26.256  1.00  0.00    -0.325 N 
ATOM     13  C   UNL A   1      33.406  22.237  27.642  1.00  0.00     0.148 C 
BRANCH  12  14
ATOM     14  C   UNL A   1      34.882  21.807  25.698  1.00  0.00     0.155 C 
BRANCH  14  15
ATOM     15  C   UNL A   1      35.439  23.152  25.128  1.00  0.00     0.077 C 
ATOM     16  C   UNL A   1      36.905  23.416  25.500  1.00  0.00     0.043 C 
ATOM     17  C   UNL A   1      35.347  23.117  23.594  1.00  0.00     0.043 C 
BRANCH  15  18
ATOM     18  O   UNL A   1      34.614  24.249  25.549  1.00  0.00    -0.389 OA
ATOM     19  H   UNL A   1      33.734  23.919  25.789  1.00  0.00     0.211 HD
ENDBRANCH  15  18
ENDBRANCH  14  15
ENDBRANCH  12  14
ENDBRANCH   9  12
ENDBRANCH   7   8
ENDBRANCH   5   7
ENDBRANCH   1   5
BRANCH   3  20
ATOM     20  C   UNL A   1      32.113  26.944  25.974  1.00  0.00     0.117 C 
BRANCH  20  21
ATOM     21  C   UNL A   1      31.870  28.376  26.409  1.00  0.00     0.042 C 
BRANCH  21  22
ATOM     22  C   UNL A   1      32.855  29.370  25.815  1.00  0.00     0.118 C 
BRANCH  22  23
ATOM     23  N   UNL A   1      32.645  30.744  26.269  1.00  0.00    -0.352 N 
ATOM     24  C   UNL A   1      33.377  31.537  27.124  1.00  0.00     0.251 C 
ATOM     25  H   UNL A   1      31.841  31.176  25.901  1.00  0.00     0.163 HD
ATOM     26  O   UNL A   1      32.942  32.630  27.460  1.00  0.00    -0.269 OA
BRANCH  24  27
ATOM     27  C   UNL A   1      34.673  31.064  27.657  1.00  0.00     0.039 A 
ATOM     28  C   UNL A   1      35.648  32.003  28.007  1.00  0.00     0.014 A 
ATOM     29  C   UNL A   1      34.926  29.703  27.824  1.00  0.00     0.014 A 
ATOM     30  C   UNL A   1      36.835  31.578  28.609  1.00  0.00     0.010 A 
ATOM     31  C   UNL A   1      36.053  29.291  28.523  1.00  0.00     0.010 A 
ATOM     32  C   UNL A   1      37.025  30.222  28.920  1.00  0.00    -0.014 A 
BRANCH  32  33
ATOM     33  C   UNL A   1      38.218  29.747  29.667  1.00  0.00     0.031 A 
ATOM     34  C   UNL A   1      38.508  30.279  31.046  1.00  0.00     0.074 A 
ATOM     35  C   UNL A   1      39.101  28.927  29.060  1.00  0.00     0.049 A 
ATOM     36  N   UNL A   1      39.545  30.065  31.812  1.00  0.00    -0.248 NA
ATOM     37  C   UNL A   1      37.520  31.208  31.625  1.00  0.00     0.031 C 
ATOM     38  C   UNL A   1      38.986  28.421  27.691  1.00  0.00     0.029 A 
ATOM     39  N   UNL A   1      40.288  28.401  29.507  1.00  0.00    -0.354 N 
ATOM     40  C   UNL A   1      39.361  30.866  32.933  1.00  0.00     0.074 A 
ATOM     41  C   UNL A   1      38.133  31.602  32.731  1.00  0.00     0.031 C 
ATOM     42  C   UNL A   1      40.049  27.651  27.413  1.00  0.00     0.029 A 
ATOM     43  C   UNL A   1      40.939  27.632  28.570  1.00  0.00     0.049 A 
ATOM     44  H   UNL A   1      40.640  28.559  30.412  1.00  0.00     0.167 HD
ATOM     45  C   UNL A   1      40.125  30.955  34.048  1.00  0.00     0.034 A 
ATOM     46  C   UNL A   1      42.120  26.987  28.634  1.00  0.00     0.034 A 
ATOM     47  C   UNL A   1      41.306  30.169  34.274  1.00  0.00     0.049 A 
ATOM     48  C   UNL A   1      42.909  27.040  29.914  1.00  0.00     0.074 A 
ATOM     49  C   UNL A   1      42.090  30.102  35.412  1.00  0.00     0.029 A 
ATOM     50  N   UNL A   1      41.872  29.309  33.346  1.00  0.00    -0.354 N 
ATOM     51  N   UNL A   1      42.632  27.672  31.028  1.00  0.00    -0.248 NA
ATOM     52  C   UNL A   1      44.155  26.261  29.960  1.00  0.00     0.031 C 
ATOM     53  C   UNL A   1      43.139  29.210  35.165  1.00  0.00     0.029 A 
ATOM     54  C   UNL A   1      42.997  28.709  33.881  1.00  0.00     0.049 A 
ATOM     55  H   UNL A   1      41.525  29.149  32.438  1.00  0.00     0.167 HD
ATOM     56  C   UNL A   1      43.646  27.341  31.918  1.00  0.00     0.074 A 
ATOM     57  C   UNL A   1      44.533  26.434  31.220  1.00  0.00     0.031 C 
ATOM     58  C   UNL A   1      43.837  27.762  33.192  1.00  0.00     0.034 A 
BRANCH  45  59
ATOM     59  C   UNL A   1      39.664  31.886  35.139  1.00  0.00     0.023 A 
ATOM     60  C   UNL A   1      39.961  33.262  35.049  1.00  0.00     0.012 A 
ATOM     61  C   UNL A   1      38.897  31.416  36.223  1.00  0.00     0.148 A 
ATOM     62  C   UNL A   1      39.537  34.148  36.037  1.00  0.00     0.002 A 
ATOM     63  C   UNL A   1      38.438  32.313  37.181  1.00  0.00     0.091 A 
ATOM     64  F   UNL A   1      38.642  30.103  36.305  1.00  0.00    -0.205 F 
ATOM     65  C   UNL A   1      38.768  33.676  37.097  1.00  0.00     0.022 A 
BRANCH  63  66
ATOM     66  S   UNL A   1      37.374  31.818  38.541  1.00  0.00     0.127 S 
ATOM     67  O   UNL A   1      36.317  32.826  38.470  1.00  0.00    -0.237 OA
ATOM     68  O   UNL A   1      36.961  30.474  38.137  1.00  0.00    -0.237 OA
ATOM     69  O   UNL A   1      38.204  31.863  39.736  1.00  0.00    -0.744 OA
ENDBRANCH  63  66
ENDBRANCH  45  59
BRANCH  46  70
ATOM     70  C   UNL A   1      42.583  26.164  27.479  1.00  0.00     0.023 A 
ATOM     71  C   UNL A   1      43.436  26.744  26.521  1.00  0.00     0.012 A 
ATOM     72  C   UNL A   1      42.217  24.811  27.343  1.00  0.00     0.148 A 
ATOM     73  C   UNL A   1      43.892  26.003  25.431  1.00  0.00     0.002 A 
ATOM     74  C   UNL A   1      42.718  24.062  26.283  1.00  0.00     0.091 A 
ATOM     75  F   UNL A   1      41.394  24.279  28.258  1.00  0.00    -0.205 F 
ATOM     76  C   UNL A   1      43.542  24.660  25.317  1.00  0.00     0.022 A 
BRANCH  74  77
ATOM     77  S   UNL A   1      42.427  22.296  26.131  1.00  0.00     0.127 S 
ATOM     78  O   UNL A   1      40.977  22.245  25.964  1.00  0.00    -0.237 OA
ATOM     79  O   UNL A   1      43.198  21.962  24.933  1.00  0.00    -0.237 OA
ATOM     80  O   UNL A   1      42.946  21.708  27.359  1.00  0.00    -0.744 OA
ENDBRANCH  74  77
ENDBRANCH  46  70
BRANCH  58  81
ATOM     81  C   UNL A   1      45.031  27.226  33.934  1.00  0.00     0.023 A 
ATOM     82  C   UNL A   1      46.241  27.948  33.925  1.00  0.00     0.012 A 
ATOM     83  C   UNL A   1      44.930  26.052  34.705  1.00  0.00     0.148 A 
ATOM     84  C   UNL A   1      47.342  27.492  34.650  1.00  0.00     0.002 A 
ATOM     85  C   UNL A   1      46.016  25.631  35.463  1.00  0.00     0.091 A 
ATOM     86  F   UNL A   1      43.776  25.370  34.686  1.00  0.00    -0.205 F 
ATOM     87  C   UNL A   1      47.226  26.343  35.427  1.00  0.00     0.022 A 
BRANCH  85  88
ATOM     88  S   UNL A   1      45.926  24.217  36.568  1.00  0.00     0.127 S 
ATOM     89  O   UNL A   1      45.561  23.142  35.646  1.00  0.00    -0.237 OA
ATOM     90  O   UNL A   1      47.292  24.139  37.086  1.00  0.00    -0.237 OA
ATOM     91  O   UNL A   1      44.921  24.554  37.567  1.00  0.00    -0.744 OA
ENDBRANCH  85  88
ENDBRANCH  58  81
ENDBRANCH  32  33
ENDBRANCH  24  27
ENDBRANCH  22  23
ENDBRANCH  21  22
ENDBRANCH  20  21
ENDBRANCH   3  20
TORSDOF 19
ENDMDL
MODEL 2
REMARK VINA RESULT:     -10.6      2.183      8.066
REMARK SMILES C[C@@H](CNC(=O)N(C)CC(C)(C)O)C(=O)NCCCNC(=O)c1ccc(-c2c3nc(c(-c4cccc(S(=O)(=O)[O-])c4F)c4ccc([nH]4)c(-c4cccc(S(=O)(=O)[O-])c4F)c4nc(c(-c5cccc(S(=O)(=O)[O-])c5F)c5ccc2[nH]5)C=C4)C=C3)cc1
REMARK SMILES IDX 14 1 15 2 16 3 2 5 1 6 3 7 4 8 5 9 6 11 7 12 8 13 9 14 10 15
REMARK SMILES IDX 11 16 12 17 13 18 17 20 18 21 19 22 20 23 21 24 22 26 23 27
REMARK SMILES IDX 24 28 85 29 25 30 84 31 26 32 27 33 28 34 78 35 29 36 83 37
REMARK SMILES IDX 77 38 79 39 30 40 82 41 76 42 75 43 31 45 63 46 43 47 62 48
REMARK SMILES IDX 44 49 47 50 61 51 80 52 45 53 46 54 60 56 81 57 48 58 32 59
REMARK SMILES IDX 33 60 41 61 34 62 36 63 42 64 35 65 37 66 38 67 39 68 40 69
REMARK SMILES IDX 64 70 65 71 73 72 66 73 68 74 74 75 67 76 69 77 70 78 71 79
REMARK SMILES IDX 72 80 49 81 50 82 58 83 51 84 53 85 59 86 52 87 54 88 55 89
REMARK SMILES IDX 56 90 57 91
REMARK H PARENT 16 4 4 10 13 19 20 25 79 44 47 55
REMARK Flexibility Score: inf
ROOT
ATOM      1  C   UNL A   1      30.972  24.462  26.348  1.00  0.00     0.224 C 
ATOM      2  O   UNL A   1      30.566  23.643  27.180  1.00  0.00    -0.275 OA
ATOM      3  N   UNL A   1      31.342  25.689  26.808  1.00  0.00    -0.356 N 
ATOM      4  H   UNL A   1      31.011  25.914  27.707  1.00  0.00     0.163 HD
ENDROOT
BRANCH   1   5
ATOM      5  C   UNL A   1      31.019  24.077  24.873  1.00  0.00     0.094 C 
ATOM      6  C   UNL A   1      30.356  25.105  23.952  1.00  0.00     0.020 C 
BRANCH   5   7
ATOM      7  C   UNL A   1      32.364  23.532  24.360  1.00  0.00     0.130 C 
BRANCH   7   8
ATOM      8  N   UNL A   1      32.570  22.105  24.515  1.00  0.00    -0.337 N 
ATOM      9  C   UNL A   1      33.399  21.291  25.187  1.00  0.00     0.317 C 
ATOM     10  H   UNL A   1      31.923  21.592  23.979  1.00  0.00     0.165 HD
ATOM     11  O   UNL A   1      33.419  20.138  24.744  1.00  0.00    -0.249 OA
BRANCH   9  12
ATOM     12  N   UNL A   1      34.179  21.668  26.237  1.00  0.00    -0.325 N 
ATOM     13  C   UNL A   1      33.729  22.052  27.564  1.00  0.00     0.148 C 
BRANCH  12  14
ATOM     14  C   UNL A   1      35.647  21.601  26.061  1.00  0.00     0.155 C 
BRANCH  14  15
ATOM     15  C   UNL A   1      36.372  22.879  25.527  1.00  0.00     0.077 C 
ATOM     16  C   UNL A   1      36.825  22.761  24.064  1.00  0.00     0.043 C 
ATOM     17  C   UNL A   1      35.408  24.072  25.620  1.00  0.00     0.043 C 
BRANCH  15  18
ATOM     18  O   UNL A   1      37.488  23.205  26.369  1.00  0.00    -0.389 OA
ATOM     19  H   UNL A   1      37.260  23.021  27.294  1.00  0.00     0.211 HD
ENDBRANCH  15  18
ENDBRANCH  14  15
ENDBRANCH  12  14
ENDBRANCH   9  12
ENDBRANCH   7   8
ENDBRANCH   5   7
ENDBRANCH   1   5
BRANCH   3  20
ATOM     20  C   UNL A   1      32.149  26.717  26.175  1.00  0.00     0.117 C 
BRANCH  20  21
ATOM     21  C   UNL A   1      31.724  28.137  26.493  1.00  0.00     0.042 C 
BRANCH  21  22
ATOM     22  C   UNL A   1      32.616  29.196  25.865  1.00  0.00     0.118 C 
BRANCH  22  23
ATOM     23  N   UNL A   1      32.279  30.559  26.271  1.00  0.00    -0.352 N 
ATOM     24  C   UNL A   1      32.940  31.452  27.084  1.00  0.00     0.251 C 
ATOM     25  H   UNL A   1      31.432  30.897  25.899  1.00  0.00     0.163 HD
ATOM     26  O   UNL A   1      32.405  32.510  27.386  1.00  0.00    -0.269 OA
BRANCH  24  27
ATOM     27  C   UNL A   1      34.282  31.127  27.615  1.00  0.00     0.039 A 
ATOM     28  C   UNL A   1      35.223  32.151  27.759  1.00  0.00     0.014 A 
ATOM     29  C   UNL A   1      34.612  29.823  27.981  1.00  0.00     0.014 A 
ATOM     30  C   UNL A   1      36.457  31.880  28.356  1.00  0.00     0.010 A 
ATOM     31  C   UNL A   1      35.790  29.578  28.676  1.00  0.00     0.010 A 
ATOM     32  C   UNL A   1      36.730  30.601  28.867  1.00  0.00    -0.014 A 
BRANCH  32  33
ATOM     33  C   UNL A   1      37.979  30.304  29.614  1.00  0.00     0.031 A 
ATOM     34  C   UNL A   1      39.002  29.364  29.032  1.00  0.00     0.074 A 
ATOM     35  C   UNL A   1      38.139  30.786  30.864  1.00  0.00     0.049 A 
ATOM     36  N   UNL A   1      40.101  28.905  29.571  1.00  0.00    -0.248 NA
ATOM     37  C   UNL A   1      38.736  28.839  27.681  1.00  0.00     0.031 C 
ATOM     38  C   UNL A   1      37.174  31.626  31.578  1.00  0.00     0.029 A 
ATOM     39  N   UNL A   1      39.158  30.613  31.767  1.00  0.00    -0.354 N 
ATOM     40  C   UNL A   1      40.627  28.003  28.652  1.00  0.00     0.074 A 
ATOM     41  C   UNL A   1      39.707  27.950  27.538  1.00  0.00     0.031 C 
ATOM     42  C   UNL A   1      37.651  31.902  32.802  1.00  0.00     0.029 A 
ATOM     43  C   UNL A   1      38.938  31.237  32.974  1.00  0.00     0.049 A 
ATOM     44  H   UNL A   1      39.969  30.092  31.571  1.00  0.00     0.167 HD
ATOM     45  C   UNL A   1      41.788  27.310  28.711  1.00  0.00     0.034 A 
ATOM     46  C   UNL A   1      39.688  31.268  34.093  1.00  0.00     0.034 A 
ATOM     47  C   UNL A   1      42.733  27.421  29.789  1.00  0.00     0.049 A 
ATOM     48  C   UNL A   1      41.012  30.552  34.101  1.00  0.00     0.074 A 
ATOM     49  C   UNL A   1      43.987  26.847  29.895  1.00  0.00     0.029 A 
ATOM     50  N   UNL A   1      42.529  28.158  30.945  1.00  0.00    -0.354 N 
ATOM     51  N   UNL A   1      41.570  29.840  33.154  1.00  0.00    -0.248 NA
ATOM     52  C   UNL A   1      41.827  30.675  35.319  1.00  0.00     0.031 C 
ATOM     53  C   UNL A   1      44.536  27.228  31.124  1.00  0.00     0.029 A 
ATOM     54  C   UNL A   1      43.632  28.053  31.773  1.00  0.00     0.049 A 
ATOM     55  H   UNL A   1      41.718  28.679  31.147  1.00  0.00     0.167 HD
ATOM     56  C   UNL A   1      42.813  29.459  33.644  1.00  0.00     0.074 A 
ATOM     57  C   UNL A   1      42.935  30.038  34.966  1.00  0.00     0.031 C 
ATOM     58  C   UNL A   1      43.761  28.685  33.061  1.00  0.00     0.034 A 
BRANCH  45  59
ATOM     59  C   UNL A   1      42.135  26.424  27.542  1.00  0.00     0.023 A 
ATOM     60  C   UNL A   1      42.871  26.956  26.464  1.00  0.00     0.012 A 
ATOM     61  C   UNL A   1      41.781  25.061  27.531  1.00  0.00     0.148 A 
ATOM     62  C   UNL A   1      43.216  26.157  25.375  1.00  0.00     0.002 A 
ATOM     63  C   UNL A   1      42.168  24.259  26.463  1.00  0.00     0.091 A 
ATOM     64  F   UNL A   1      41.062  24.577  28.553  1.00  0.00    -0.205 F 
ATOM     65  C   UNL A   1      42.874  24.808  25.380  1.00  0.00     0.022 A 
BRANCH  63  66
ATOM     66  S   UNL A   1      41.846  22.492  26.411  1.00  0.00     0.127 S 
ATOM     67  O   UNL A   1      42.515  22.034  27.628  1.00  0.00    -0.237 OA
ATOM     68  O   UNL A   1      40.385  22.443  26.464  1.00  0.00    -0.237 OA
ATOM     69  O   UNL A   1      42.423  22.018  25.161  1.00  0.00    -0.744 OA
ENDBRANCH  63  66
ENDBRANCH  45  59
BRANCH  46  70
ATOM     70  C   UNL A   1      39.243  32.075  35.266  1.00  0.00     0.023 A 
ATOM     71  C   UNL A   1      38.380  31.492  36.213  1.00  0.00     0.012 A 
ATOM     72  C   UNL A   1      39.694  33.394  35.467  1.00  0.00     0.148 A 
ATOM     73  C   UNL A   1      37.948  32.216  37.324  1.00  0.00     0.002 A 
ATOM     74  C   UNL A   1      39.302  34.093  36.605  1.00  0.00     0.091 A 
ATOM     75  F   UNL A   1      40.506  33.937  34.549  1.00  0.00    -0.205 F 
ATOM     76  C   UNL A   1      38.416  33.512  37.526  1.00  0.00     0.022 A 
BRANCH  74  77
ATOM     77  S   UNL A   1      39.961  35.714  37.012  1.00  0.00     0.127 S 
ATOM     78  O   UNL A   1      41.388  35.433  37.144  1.00  0.00    -0.237 OA
ATOM     79  O   UNL A   1      39.593  36.497  35.832  1.00  0.00    -0.237 OA
ATOM     80  O   UNL A   1      39.277  36.118  38.233  1.00  0.00    -0.744 OA
ENDBRANCH  74  77
ENDBRANCH  46  70
BRANCH  58  81
ATOM     81  C   UNL A   1      45.033  28.442  33.828  1.00  0.00     0.023 A 
ATOM     82  C   UNL A   1      45.140  27.312  34.663  1.00  0.00     0.012 A 
ATOM     83  C   UNL A   1      46.147  29.286  33.658  1.00  0.00     0.148 A 
ATOM     84  C   UNL A   1      46.328  27.043  35.341  1.00  0.00     0.002 A 
ATOM     85  C   UNL A   1      47.343  28.984  34.298  1.00  0.00     0.091 A 
ATOM     86  F   UNL A   1      46.019  30.365  32.874  1.00  0.00    -0.205 F 
ATOM     87  C   UNL A   1      47.432  27.870  35.149  1.00  0.00     0.022 A 
BRANCH  85  88
ATOM     88  S   UNL A   1      48.842  29.939  34.033  1.00  0.00     0.127 S 
ATOM     89  O   UNL A   1      49.867  29.034  34.549  1.00  0.00    -0.237 OA
ATOM     90  O   UNL A   1      48.851  30.106  32.579  1.00  0.00    -0.237 OA
ATOM     91  O   UNL A   1      48.664  31.176  34.781  1.00  0.00    -0.744 OA
ENDBRANCH  85  88
ENDBRANCH  58  81
ENDBRANCH  32  33
ENDBRANCH  24  27
ENDBRANCH  22  23
ENDBRANCH  21  22
ENDBRANCH  20  21
ENDBRANCH   3  20
TORSDOF 19
ENDMDL
MODEL 3
REMARK VINA RESULT:     -10.6      1.582      2.229
REMARK SMILES C[C@@H](CNC(=O)N(C)CC(C)(C)O)C(=O)NCCCNC(=O)c1ccc(-c2c3nc(c(-c4cccc(S(=O)(=O)[O-])c4F)c4ccc([nH]4)c(-c4cccc(S(=O)(=O)[O-])c4F)c4nc(c(-c5cccc(S(=O)(=O)[O-])c5F)c5ccc2[nH]5)C=C4)C=C3)cc1
REMARK SMILES IDX 14 1 15 2 16 3 2 5 1 6 3 7 4 8 5 9 6 11 7 12 8 13 9 14 10 15
REMARK SMILES IDX 11 16 12 17 13 18 17 20 18 21 19 22 20 23 21 24 22 26 23 27
REMARK SMILES IDX 24 28 85 29 25 30 84 31 26 32 27 33 28 34 78 35 29 36 83 37
REMARK SMILES IDX 77 38 79 39 30 40 82 41 76 42 75 43 31 45 63 46 43 47 62 48
REMARK SMILES IDX 44 49 47 50 61 51 80 52 45 53 46 54 60 56 81 57 48 58 32 59
REMARK SMILES IDX 33 60 41 61 34 62 36 63 42 64 35 65 37 66 38 67 39 68 40 69
REMARK SMILES IDX 64 70 65 71 73 72 66 73 68 74 74 75 67 76 69 77 70 78 71 79
REMARK SMILES IDX 72 80 49 81 50 82 58 83 51 84 53 85 59 86 52 87 54 88 55 89
REMARK SMILES IDX 56 90 57 91
REMARK H PARENT 16 4 4 10 13 19 20 25 79 44 47 55
REMARK Flexibility Score: inf
ROOT
ATOM      1  C   UNL A   1      33.328  25.957  25.522  1.00  0.00     0.224 C 
ATOM      2  O   UNL A   1      34.433  25.506  25.843  1.00  0.00    -0.275 OA
ATOM      3  N   UNL A   1      33.275  27.262  25.139  1.00  0.00    -0.356 N 
ATOM      4  H   UNL A   1      34.053  27.806  25.399  1.00  0.00     0.163 HD
ENDROOT
BRANCH   1   5
ATOM      5  C   UNL A   1      32.098  25.058  25.590  1.00  0.00     0.094 C 
ATOM      6  C   UNL A   1      30.863  25.755  26.165  1.00  0.00     0.020 C 
BRANCH   5   7
ATOM      7  C   UNL A   1      31.824  24.195  24.344  1.00  0.00     0.130 C 
BRANCH   7   8
ATOM      8  N   UNL A   1      32.965  23.480  23.805  1.00  0.00    -0.337 N 
ATOM      9  C   UNL A   1      33.750  22.453  24.164  1.00  0.00     0.317 C 
ATOM     10  H   UNL A   1      33.239  23.853  22.935  1.00  0.00     0.165 HD
ATOM     11  O   UNL A   1      34.818  22.413  23.545  1.00  0.00    -0.249 OA
BRANCH   9  12
ATOM     12  N   UNL A   1      33.447  21.542  25.129  1.00  0.00    -0.325 N 
ATOM     13  C   UNL A   1      33.855  21.579  26.523  1.00  0.00     0.148 C 
BRANCH  12  14
ATOM     14  C   UNL A   1      32.534  20.435  24.766  1.00  0.00     0.155 C 
BRANCH  14  15
ATOM     15  C   UNL A   1      33.133  18.993  24.699  1.00  0.00     0.077 C 
ATOM     16  C   UNL A   1      32.663  18.080  25.841  1.00  0.00     0.043 C 
ATOM     17  C   UNL A   1      32.705  18.339  23.375  1.00  0.00     0.043 C 
BRANCH  15  18
ATOM     18  O   UNL A   1      34.567  19.051  24.665  1.00  0.00    -0.389 OA
ATOM     19  H   UNL A   1      34.863  19.912  25.000  1.00  0.00     0.211 HD
ENDBRANCH  15  18
ENDBRANCH  14  15
ENDBRANCH  12  14
ENDBRANCH   9  12
ENDBRANCH   7   8
ENDBRANCH   5   7
ENDBRANCH   1   5
BRANCH   3  20
ATOM     20  C   UNL A   1      32.244  27.976  24.406  1.00  0.00     0.117 C 
BRANCH  20  21
ATOM     21  C   UNL A   1      31.592  29.107  25.177  1.00  0.00     0.042 C 
BRANCH  21  22
ATOM     22  C   UNL A   1      32.394  29.565  26.386  1.00  0.00     0.118 C 
BRANCH  22  23
ATOM     23  N   UNL A   1      32.345  31.009  26.607  1.00  0.00    -0.352 N 
ATOM     24  C   UNL A   1      33.209  31.854  27.266  1.00  0.00     0.251 C 
ATOM     25  H   UNL A   1      31.557  31.454  26.218  1.00  0.00     0.163 HD
ATOM     26  O   UNL A   1      32.901  33.026  27.432  1.00  0.00    -0.269 OA
BRANCH  24  27
ATOM     27  C   UNL A   1      34.493  31.346  27.795  1.00  0.00     0.039 A 
ATOM     28  C   UNL A   1      35.527  32.250  28.054  1.00  0.00     0.014 A 
ATOM     29  C   UNL A   1      34.678  29.987  28.046  1.00  0.00     0.014 A 
ATOM     30  C   UNL A   1      36.708  31.801  28.652  1.00  0.00     0.010 A 
ATOM     31  C   UNL A   1      35.802  29.560  28.742  1.00  0.00     0.010 A 
ATOM     32  C   UNL A   1      36.833  30.459  29.048  1.00  0.00    -0.014 A 
BRANCH  32  33
ATOM     33  C   UNL A   1      38.021  29.969  29.793  1.00  0.00     0.031 A 
ATOM     34  C   UNL A   1      38.284  30.448  31.197  1.00  0.00     0.074 A 
ATOM     35  C   UNL A   1      38.925  29.187  29.168  1.00  0.00     0.049 A 
ATOM     36  N   UNL A   1      39.312  30.216  31.970  1.00  0.00    -0.248 NA
ATOM     37  C   UNL A   1      37.276  31.340  31.798  1.00  0.00     0.031 C 
ATOM     38  C   UNL A   1      38.836  28.735  27.777  1.00  0.00     0.029 A 
ATOM     39  N   UNL A   1      40.112  28.657  29.610  1.00  0.00    -0.354 N 
ATOM     40  C   UNL A   1      39.102  30.968  33.120  1.00  0.00     0.074 A 
ATOM     41  C   UNL A   1      37.867  31.695  32.929  1.00  0.00     0.031 C 
ATOM     42  C   UNL A   1      39.914  27.991  27.484  1.00  0.00     0.029 A 
ATOM     43  C   UNL A   1      40.787  27.936  28.652  1.00  0.00     0.049 A 
ATOM     44  H   UNL A   1      40.448  28.782  30.526  1.00  0.00     0.167 HD
ATOM     45  C   UNL A   1      39.847  31.020  34.249  1.00  0.00     0.034 A 
ATOM     46  C   UNL A   1      41.975  27.303  28.709  1.00  0.00     0.034 A 
ATOM     47  C   UNL A   1      41.036  30.241  34.461  1.00  0.00     0.049 A 
ATOM     48  C   UNL A   1      42.744  27.314  30.002  1.00  0.00     0.074 A 
ATOM     49  C   UNL A   1      41.804  30.137  35.607  1.00  0.00     0.029 A 
ATOM     50  N   UNL A   1      41.626  29.427  33.507  1.00  0.00    -0.354 N 
ATOM     51  N   UNL A   1      42.442  27.896  31.137  1.00  0.00    -0.248 NA
ATOM     52  C   UNL A   1      44.000  26.549  30.035  1.00  0.00     0.031 C 
ATOM     53  C   UNL A   1      42.868  29.270  35.340  1.00  0.00     0.029 A 
ATOM     54  C   UNL A   1      42.751  28.819  34.035  1.00  0.00     0.049 A 
ATOM     55  H   UNL A   1      41.295  29.300  32.588  1.00  0.00     0.167 HD
ATOM     56  C   UNL A   1      43.448  27.541  32.027  1.00  0.00     0.074 A 
ATOM     57  C   UNL A   1      44.357  26.675  31.306  1.00  0.00     0.031 C 
ATOM     58  C   UNL A   1      43.614  27.913  33.321  1.00  0.00     0.034 A 
BRANCH  45  59
ATOM     59  C   UNL A   1      39.358  31.900  35.370  1.00  0.00     0.023 A 
ATOM     60  C   UNL A   1      38.444  31.381  36.310  1.00  0.00     0.012 A 
ATOM     61  C   UNL A   1      39.836  33.216  35.526  1.00  0.00     0.148 A 
ATOM     62  C   UNL A   1      37.983  32.168  37.364  1.00  0.00     0.002 A 
ATOM     63  C   UNL A   1      39.408  33.979  36.606  1.00  0.00     0.091 A 
ATOM     64  F   UNL A   1      40.687  33.701  34.612  1.00  0.00    -0.205 F 
ATOM     65  C   UNL A   1      38.472  33.462  37.518  1.00  0.00     0.022 A 
BRANCH  63  66
ATOM     66  S   UNL A   1      40.038  35.628  36.939  1.00  0.00     0.127 S 
ATOM     67  O   UNL A   1      39.565  36.367  35.769  1.00  0.00    -0.237 OA
ATOM     68  O   UNL A   1      39.362  35.971  38.190  1.00  0.00    -0.237 OA
ATOM     69  O   UNL A   1      41.483  35.489  37.050  1.00  0.00    -0.744 OA
ENDBRANCH  63  66
ENDBRANCH  45  59
BRANCH  46  70
ATOM     70  C   UNL A   1      42.466  26.535  27.528  1.00  0.00     0.023 A 
ATOM     71  C   UNL A   1      43.274  27.183  26.575  1.00  0.00     0.012 A 
ATOM     72  C   UNL A   1      42.171  25.168  27.363  1.00  0.00     0.148 A 
ATOM     73  C   UNL A   1      43.754  26.494  25.461  1.00  0.00     0.002 A 
ATOM     74  C   UNL A   1      42.697  24.473  26.279  1.00  0.00     0.091 A 
ATOM     75  F   UNL A   1      41.390  24.571  28.274  1.00  0.00    -0.205 F 
ATOM     76  C   UNL A   1      43.475  25.137  25.318  1.00  0.00     0.022 A 
BRANCH  74  77
ATOM     77  S   UNL A   1      42.499  22.698  26.087  1.00  0.00     0.127 S 
ATOM     78  O   UNL A   1      43.154  22.460  24.803  1.00  0.00    -0.237 OA
ATOM     79  O   UNL A   1      43.220  22.183  27.252  1.00  0.00    -0.237 OA
ATOM     80  O   UNL A   1      41.062  22.459  26.121  1.00  0.00    -0.744 OA
ENDBRANCH  74  77
ENDBRANCH  46  70
BRANCH  58  81
ATOM     81  C   UNL A   1      44.803  27.361  34.058  1.00  0.00     0.023 A 
ATOM     82  C   UNL A   1      45.985  28.124  34.146  1.00  0.00     0.012 A 
ATOM     83  C   UNL A   1      44.723  26.128  34.732  1.00  0.00     0.148 A 
ATOM     84  C   UNL A   1      47.080  27.651  34.869  1.00  0.00     0.002 A 
ATOM     85  C   UNL A   1      45.801  25.686  35.491  1.00  0.00     0.091 A 
ATOM     86  F   UNL A   1      43.597  25.409  34.621  1.00  0.00    -0.205 F 
ATOM     87  C   UNL A   1      46.984  26.441  35.551  1.00  0.00     0.022 A 
BRANCH  85  88
ATOM     88  S   UNL A   1      45.729  24.188  36.479  1.00  0.00     0.127 S 
ATOM     89  O   UNL A   1      47.057  24.170  37.091  1.00  0.00    -0.237 OA
ATOM     90  O   UNL A   1      44.634  24.477  37.405  1.00  0.00    -0.237 OA
ATOM     91  O   UNL A   1      45.456  23.105  35.543  1.00  0.00    -0.744 OA
ENDBRANCH  85  88
ENDBRANCH  58  81
ENDBRANCH  32  33
ENDBRANCH  24  27
ENDBRANCH  22  23
ENDBRANCH  21  22
ENDBRANCH  20  21
ENDBRANCH   3  20
TORSDOF 19
ENDMDL
