MODEL 1
REMARK VINA RESULT:     -12.6      0.000      0.000
REMARK SMILES O=C(COc1cc(-c2ccccc2)nc(NCc2ccc(Cl)cc2)n1)NCCCNC(=O)c1ccc(-c2c3nc(c(-c4cccc(S(=O)(=O)[O-])c4F)c4ccc([nH]4)c(-c4cccc(S(=O)(=O)[O-])c4F)c4nc(c(-c5cccc(S(=O)(=O)[O-])c5F)c5ccc2[nH]5)C=C4)C=C3)cc1
REMARK SMILES IDX 27 1 26 2 1 3 2 4 3 6 4 7 5 8 6 9 25 10 7 11 15 12 14 13
REMARK SMILES IDX 8 14 9 15 13 16 10 17 12 18 11 19 16 20 17 22 18 23 19 24
REMARK SMILES IDX 24 25 20 26 23 27 21 28 22 29 28 30 29 31 30 32 31 33 32 35
REMARK SMILES IDX 33 36 34 37 95 38 35 39 94 40 36 41 37 42 38 43 88 44 39 45
REMARK SMILES IDX 93 46 87 47 89 48 40 49 92 50 86 51 85 52 41 54 73 55 53 56
REMARK SMILES IDX 72 57 54 58 57 59 71 60 90 61 55 62 56 63 70 65 91 66 58 67
REMARK SMILES IDX 42 68 43 69 51 70 44 71 46 72 52 73 45 74 47 75 48 76 49 77
REMARK SMILES IDX 50 78 74 79 75 80 83 81 76 82 78 83 84 84 77 85 79 86 80 87
REMARK SMILES IDX 81 88 82 89 59 90 60 91 68 92 61 93 63 94 69 95 62 96 64 97
REMARK SMILES IDX 65 98 66 99 67 100
REMARK H PARENT 26 5 16 21 30 34 89 53 57 64
REMARK Flexibility Score: inf
ROOT
ATOM      1  C   UNL A   1      32.303  27.189  23.345  1.00  0.00     0.117 C 
ENDROOT
BRANCH   1   2
ATOM      2  N   UNL A   1      32.411  25.751  23.177  1.00  0.00    -0.353 N 
ATOM      3  O   UNL A   1      33.282  25.798  21.046  1.00  0.00    -0.271 OA
ATOM      4  C   UNL A   1      33.021  25.183  22.074  1.00  0.00     0.258 C 
ATOM      5  H   UNL A   1      32.038  25.162  23.871  1.00  0.00     0.163 HD
BRANCH   4   6
ATOM      6  C   UNL A   1      33.431  23.719  22.283  1.00  0.00     0.331 C 
BRANCH   6   7
ATOM      7  O   UNL A   1      32.380  22.773  22.061  1.00  0.00    -0.467 OA
BRANCH   7   8
ATOM      8  C   UNL A   1      32.173  21.964  23.156  1.00  0.00     0.219 A 
ATOM      9  C   UNL A   1      32.597  20.664  23.150  1.00  0.00     0.097 A 
ATOM     10  N   UNL A   1      31.647  22.551  24.236  1.00  0.00    -0.177 NA
ATOM     11  C   UNL A   1      32.360  19.930  24.285  1.00  0.00     0.080 A 
ATOM     12  C   UNL A   1      31.483  21.778  25.320  1.00  0.00     0.226 A 
ATOM     13  N   UNL A   1      31.786  20.471  25.374  1.00  0.00    -0.213 NA
BRANCH  11  14
ATOM     14  C   UNL A   1      32.693  18.499  24.303  1.00  0.00     0.000 A 
ATOM     15  C   UNL A   1      33.282  17.885  23.189  1.00  0.00     0.010 A 
ATOM     16  C   UNL A   1      32.551  17.739  25.481  1.00  0.00     0.010 A 
ATOM     17  C   UNL A   1      33.752  16.570  23.263  1.00  0.00     0.001 A 
ATOM     18  C   UNL A   1      33.017  16.426  25.555  1.00  0.00     0.001 A 
ATOM     19  C   UNL A   1      33.628  15.845  24.448  1.00  0.00     0.000 A 
ENDBRANCH  11  14
BRANCH  12  20
ATOM     20  N   UNL A   1      30.982  22.306  26.475  1.00  0.00    -0.350 N 
ATOM     21  H   UNL A   1      30.131  21.957  26.824  1.00  0.00     0.164 HD
BRANCH  20  22
ATOM     22  C   UNL A   1      31.645  23.351  27.201  1.00  0.00     0.152 C 
BRANCH  22  23
ATOM     23  C   UNL A   1      33.106  23.371  26.815  1.00  0.00    -0.029 A 
ATOM     24  C   UNL A   1      33.926  22.281  27.150  1.00  0.00     0.007 A 
ATOM     25  C   UNL A   1      33.660  24.450  26.110  1.00  0.00     0.007 A 
ATOM     26  C   UNL A   1      35.279  22.277  26.806  1.00  0.00     0.021 A 
ATOM     27  C   UNL A   1      35.014  24.446  25.766  1.00  0.00     0.021 A 
ATOM     28  C   UNL A   1      35.817  23.362  26.119  1.00  0.00     0.041 A 
ATOM     29  Cl  UNL A   1      37.487  23.365  25.699  1.00  0.00    -0.084 Cl
ENDBRANCH  22  23
ENDBRANCH  20  22
ENDBRANCH  12  20
ENDBRANCH   7   8
ENDBRANCH   6   7
ENDBRANCH   4   6
ENDBRANCH   1   2
BRANCH   1  30
ATOM     30  C   UNL A   1      33.033  27.717  24.565  1.00  0.00     0.042 C 
BRANCH  30  31
ATOM     31  C   UNL A   1      33.444  29.180  24.461  1.00  0.00     0.118 C 
BRANCH  31  32
ATOM     32  N   UNL A   1      32.592  30.080  25.227  1.00  0.00    -0.352 N 
ATOM     33  C   UNL A   1      32.777  30.610  26.481  1.00  0.00     0.251 C 
ATOM     34  H   UNL A   1      31.758  30.350  24.778  1.00  0.00     0.163 HD
ATOM     35  O   UNL A   1      31.865  31.258  26.997  1.00  0.00    -0.269 OA
BRANCH  33  36
ATOM     36  C   UNL A   1      34.041  30.391  27.221  1.00  0.00     0.039 A 
ATOM     37  C   UNL A   1      34.861  31.490  27.494  1.00  0.00     0.014 A 
ATOM     38  C   UNL A   1      34.433  29.115  27.631  1.00  0.00     0.014 A 
ATOM     39  C   UNL A   1      36.043  31.313  28.218  1.00  0.00     0.010 A 
ATOM     40  C   UNL A   1      35.561  28.956  28.433  1.00  0.00     0.010 A 
ATOM     41  C   UNL A   1      36.392  30.048  28.717  1.00  0.00    -0.014 A 
BRANCH  41  42
ATOM     42  C   UNL A   1      37.633  29.846  29.511  1.00  0.00     0.031 A 
ATOM     43  C   UNL A   1      38.733  28.960  28.983  1.00  0.00     0.074 A 
ATOM     44  C   UNL A   1      37.750  30.405  30.732  1.00  0.00     0.049 A 
ATOM     45  N   UNL A   1      39.873  28.640  29.540  1.00  0.00    -0.248 NA
ATOM     46  C   UNL A   1      38.514  28.329  27.671  1.00  0.00     0.031 C 
ATOM     47  C   UNL A   1      36.727  31.220  31.391  1.00  0.00     0.029 A 
ATOM     48  N   UNL A   1      38.773  30.354  31.647  1.00  0.00    -0.354 N 
ATOM     49  C   UNL A   1      40.486  27.747  28.669  1.00  0.00     0.074 A 
ATOM     50  C   UNL A   1      39.575  27.542  27.566  1.00  0.00     0.031 C 
ATOM     51  C   UNL A   1      37.178  31.601  32.597  1.00  0.00     0.029 A 
ATOM     52  C   UNL A   1      38.507  31.036  32.812  1.00  0.00     0.049 A 
ATOM     53  H   UNL A   1      39.617  29.876  31.483  1.00  0.00     0.167 HD
ATOM     54  C   UNL A   1      41.710  27.174  28.758  1.00  0.00     0.034 A 
ATOM     55  C   UNL A   1      39.247  31.185  33.928  1.00  0.00     0.034 A 
ATOM     56  C   UNL A   1      42.633  27.410  29.835  1.00  0.00     0.049 A 
ATOM     57  C   UNL A   1      40.619  30.568  33.986  1.00  0.00     0.074 A 
ATOM     58  C   UNL A   1      43.927  26.942  29.975  1.00  0.00     0.029 A 
ATOM     59  N   UNL A   1      42.359  28.173  30.959  1.00  0.00    -0.354 N 
ATOM     60  N   UNL A   1      41.242  29.852  33.082  1.00  0.00    -0.248 NA
ATOM     61  C   UNL A   1      41.408  30.816  35.201  1.00  0.00     0.031 C 
ATOM     62  C   UNL A   1      44.425  27.397  31.201  1.00  0.00     0.029 A 
ATOM     63  C   UNL A   1      43.455  28.183  31.803  1.00  0.00     0.049 A 
ATOM     64  H   UNL A   1      41.509  28.638  31.132  1.00  0.00     0.167 HD
ATOM     65  C   UNL A   1      42.507  29.601  33.599  1.00  0.00     0.074 A 
ATOM     66  C   UNL A   1      42.569  30.257  34.888  1.00  0.00     0.031 C 
ATOM     67  C   UNL A   1      43.524  28.886  33.058  1.00  0.00     0.034 A 
BRANCH  54  68
ATOM     68  C   UNL A   1      42.141  26.265  27.634  1.00  0.00     0.023 A 
ATOM     69  C   UNL A   1      42.944  26.775  26.593  1.00  0.00     0.012 A 
ATOM     70  C   UNL A   1      41.798  24.899  27.636  1.00  0.00     0.148 A 
ATOM     71  C   UNL A   1      43.364  25.951  25.550  1.00  0.00     0.002 A 
ATOM     72  C   UNL A   1      42.263  24.072  26.620  1.00  0.00     0.091 A 
ATOM     73  F   UNL A   1      41.019  24.435  28.623  1.00  0.00    -0.205 F 
ATOM     74  C   UNL A   1      43.033  24.599  25.569  1.00  0.00     0.022 A 
BRANCH  72  75
ATOM     75  S   UNL A   1      41.963  22.301  26.596  1.00  0.00     0.127 S 
ATOM     76  O   UNL A   1      42.629  21.907  25.356  1.00  0.00    -0.237 OA
ATOM     77  O   UNL A   1      42.639  21.860  27.817  1.00  0.00    -0.237 OA
ATOM     78  O   UNL A   1      40.517  22.137  26.607  1.00  0.00    -0.744 OA
ENDBRANCH  72  75
ENDBRANCH  54  68
BRANCH  55  79
ATOM     79  C   UNL A   1      38.733  32.007  35.061  1.00  0.00     0.023 A 
ATOM     80  C   UNL A   1      38.695  33.411  34.939  1.00  0.00     0.012 A 
ATOM     81  C   UNL A   1      38.273  31.409  36.249  1.00  0.00     0.148 A 
ATOM     82  C   UNL A   1      38.244  34.204  35.993  1.00  0.00     0.002 A 
ATOM     83  C   UNL A   1      37.771  32.202  37.273  1.00  0.00     0.091 A 
ATOM     84  F   UNL A   1      38.324  30.073  36.348  1.00  0.00    -0.205 F 
ATOM     85  C   UNL A   1      37.774  33.601  37.156  1.00  0.00     0.022 A 
BRANCH  83  86
ATOM     86  S   UNL A   1      37.027  31.510  38.754  1.00  0.00     0.127 S 
ATOM     87  O   UNL A   1      38.053  31.776  39.758  1.00  0.00    -0.237 OA
ATOM     88  O   UNL A   1      35.813  32.315  38.884  1.00  0.00    -0.237 OA
ATOM     89  O   UNL A   1      36.786  30.105  38.453  1.00  0.00    -0.744 OA
ENDBRANCH  83  86
ENDBRANCH  55  79
BRANCH  67  90
ATOM     90  C   UNL A   1      44.819  28.816  33.826  1.00  0.00     0.023 A 
ATOM     91  C   UNL A   1      45.817  29.790  33.628  1.00  0.00     0.012 A 
ATOM     92  C   UNL A   1      45.015  27.814  34.800  1.00  0.00     0.148 A 
ATOM     93  C   UNL A   1      47.005  29.748  34.358  1.00  0.00     0.002 A 
ATOM     94  C   UNL A   1      46.177  27.811  35.562  1.00  0.00     0.091 A 
ATOM     95  F   UNL A   1      44.063  26.884  34.962  1.00  0.00    -0.205 F 
ATOM     96  C   UNL A   1      47.179  28.767  35.332  1.00  0.00     0.022 A 
BRANCH  94  97
ATOM     97  S   UNL A   1      46.442  26.649  36.906  1.00  0.00     0.127 S 
ATOM     98  O   UNL A   1      46.488  25.374  36.192  1.00  0.00    -0.237 OA
ATOM     99  O   UNL A   1      47.727  27.092  37.448  1.00  0.00    -0.237 OA
ATOM    100  O   UNL A   1      45.314  26.819  37.812  1.00  0.00    -0.744 OA
ENDBRANCH  94  97
ENDBRANCH  67  90
ENDBRANCH  41  42
ENDBRANCH  33  36
ENDBRANCH  31  32
ENDBRANCH  30  31
ENDBRANCH   1  30
TORSDOF 19
ENDMDL
MODEL 2
REMARK VINA RESULT:     -12.6      2.587      7.894
REMARK SMILES O=C(COc1cc(-c2ccccc2)nc(NCc2ccc(Cl)cc2)n1)NCCCNC(=O)c1ccc(-c2c3nc(c(-c4cccc(S(=O)(=O)[O-])c4F)c4ccc([nH]4)c(-c4cccc(S(=O)(=O)[O-])c4F)c4nc(c(-c5cccc(S(=O)(=O)[O-])c5F)c5ccc2[nH]5)C=C4)C=C3)cc1
REMARK SMILES IDX 27 1 26 2 1 3 2 4 3 6 4 7 5 8 6 9 25 10 7 11 15 12 14 13
REMARK SMILES IDX 8 14 9 15 13 16 10 17 12 18 11 19 16 20 17 22 18 23 19 24
REMARK SMILES IDX 24 25 20 26 23 27 21 28 22 29 28 30 29 31 30 32 31 33 32 35
REMARK SMILES IDX 33 36 34 37 95 38 35 39 94 40 36 41 37 42 38 43 88 44 39 45
REMARK SMILES IDX 93 46 87 47 89 48 40 49 92 50 86 51 85 52 41 54 73 55 53 56
REMARK SMILES IDX 72 57 54 58 57 59 71 60 90 61 55 62 56 63 70 65 91 66 58 67
REMARK SMILES IDX 42 68 43 69 51 70 44 71 46 72 52 73 45 74 47 75 48 76 49 77
REMARK SMILES IDX 50 78 74 79 75 80 83 81 76 82 78 83 84 84 77 85 79 86 80 87
REMARK SMILES IDX 81 88 82 89 59 90 60 91 68 92 61 93 63 94 69 95 62 96 64 97
REMARK SMILES IDX 65 98 66 99 67 100
REMARK H PARENT 26 5 16 21 30 34 89 53 57 64
REMARK Flexibility Score: inf
ROOT
ATOM      1  C   UNL A   1      31.817  27.837  26.332  1.00  0.00     0.117 C 
ENDROOT
BRANCH   1   2
ATOM      2  N   UNL A   1      31.460  26.502  26.777  1.00  0.00    -0.353 N 
ATOM      3  O   UNL A   1      29.876  26.099  25.155  1.00  0.00    -0.271 OA
ATOM      4  C   UNL A   1      30.599  25.693  26.058  1.00  0.00     0.258 C 
ATOM      5  H   UNL A   1      31.842  26.163  27.618  1.00  0.00     0.163 HD
BRANCH   4   6
ATOM      6  C   UNL A   1      30.696  24.208  26.431  1.00  0.00     0.331 C 
BRANCH   6   7
ATOM      7  O   UNL A   1      30.855  23.327  25.313  1.00  0.00    -0.467 OA
BRANCH   7   8
ATOM      8  C   UNL A   1      32.014  22.588  25.398  1.00  0.00     0.219 A 
ATOM      9  C   UNL A   1      32.107  21.367  24.791  1.00  0.00     0.097 A 
ATOM     10  N   UNL A   1      33.051  23.181  26.000  1.00  0.00    -0.177 NA
ATOM     11  C   UNL A   1      33.301  20.701  24.916  1.00  0.00     0.080 A 
ATOM     12  C   UNL A   1      34.196  22.484  26.047  1.00  0.00     0.226 A 
ATOM     13  N   UNL A   1      34.351  21.243  25.559  1.00  0.00    -0.213 NA
BRANCH  11  14
ATOM     14  C   UNL A   1      33.429  19.339  24.381  1.00  0.00     0.000 A 
ATOM     15  C   UNL A   1      32.528  18.857  23.421  1.00  0.00     0.010 A 
ATOM     16  C   UNL A   1      34.532  18.531  24.719  1.00  0.00     0.010 A 
ATOM     17  C   UNL A   1      32.746  17.629  22.788  1.00  0.00     0.001 A 
ATOM     18  C   UNL A   1      34.750  17.304  24.091  1.00  0.00     0.001 A 
ATOM     19  C   UNL A   1      33.861  16.858  23.117  1.00  0.00     0.000 A 
ENDBRANCH  11  14
BRANCH  12  20
ATOM     20  N   UNL A   1      35.312  23.027  26.615  1.00  0.00    -0.350 N 
ATOM     21  H   UNL A   1      35.477  22.875  27.573  1.00  0.00     0.164 HD
BRANCH  20  22
ATOM     22  C   UNL A   1      36.256  23.813  25.873  1.00  0.00     0.152 C 
BRANCH  22  23
ATOM     23  C   UNL A   1      37.635  23.220  26.044  1.00  0.00    -0.029 A 
ATOM     24  C   UNL A   1      38.655  23.994  26.621  1.00  0.00     0.007 A 
ATOM     25  C   UNL A   1      37.915  21.902  25.655  1.00  0.00     0.007 A 
ATOM     26  C   UNL A   1      39.937  23.468  26.788  1.00  0.00     0.021 A 
ATOM     27  C   UNL A   1      39.199  21.376  25.822  1.00  0.00     0.021 A 
ATOM     28  C   UNL A   1      40.204  22.162  26.383  1.00  0.00     0.041 A 
ATOM     29  Cl  UNL A   1      41.786  21.513  26.580  1.00  0.00    -0.084 Cl
ENDBRANCH  22  23
ENDBRANCH  20  22
ENDBRANCH  12  20
ENDBRANCH   7   8
ENDBRANCH   6   7
ENDBRANCH   4   6
ENDBRANCH   1   2
BRANCH   1  30
ATOM     30  C   UNL A   1      33.093  27.886  25.514  1.00  0.00     0.042 C 
BRANCH  30  31
ATOM     31  C   UNL A   1      34.152  28.830  26.065  1.00  0.00     0.118 C 
BRANCH  31  32
ATOM     32  N   UNL A   1      33.647  30.165  26.358  1.00  0.00    -0.352 N 
ATOM     33  C   UNL A   1      34.044  31.064  27.318  1.00  0.00     0.251 C 
ATOM     34  H   UNL A   1      32.910  30.470  25.779  1.00  0.00     0.163 HD
ATOM     35  O   UNL A   1      33.393  32.099  27.475  1.00  0.00    -0.269 OA
BRANCH  33  36
ATOM     36  C   UNL A   1      35.220  30.791  28.176  1.00  0.00     0.039 A 
ATOM     37  C   UNL A   1      35.188  29.686  29.031  1.00  0.00     0.014 A 
ATOM     38  C   UNL A   1      36.343  31.622  28.158  1.00  0.00     0.014 A 
ATOM     39  C   UNL A   1      36.298  29.390  29.827  1.00  0.00     0.010 A 
ATOM     40  C   UNL A   1      37.481  31.271  28.879  1.00  0.00     0.010 A 
ATOM     41  C   UNL A   1      37.466  30.165  29.740  1.00  0.00    -0.014 A 
BRANCH  41  42
ATOM     42  C   UNL A   1      38.665  29.849  30.561  1.00  0.00     0.031 A 
ATOM     43  C   UNL A   1      38.851  30.496  31.910  1.00  0.00     0.074 A 
ATOM     44  C   UNL A   1      39.619  29.031  30.072  1.00  0.00     0.049 A 
ATOM     45  N   UNL A   1      39.841  30.370  32.756  1.00  0.00    -0.248 NA
ATOM     46  C   UNL A   1      37.803  31.429  32.355  1.00  0.00     0.031 C 
ATOM     47  C   UNL A   1      39.598  28.401  28.750  1.00  0.00     0.029 A 
ATOM     48  N   UNL A   1      40.803  28.606  30.623  1.00  0.00    -0.354 N 
ATOM     49  C   UNL A   1      39.554  31.229  33.810  1.00  0.00     0.074 A 
ATOM     50  C   UNL A   1      38.319  31.904  33.479  1.00  0.00     0.031 C 
ATOM     51  C   UNL A   1      40.709  27.663  28.597  1.00  0.00     0.029 A 
ATOM     52  C   UNL A   1      41.536  27.789  29.794  1.00  0.00     0.049 A 
ATOM     53  H   UNL A   1      41.099  28.862  31.526  1.00  0.00     0.167 HD
ATOM     54  C   UNL A   1      40.235  31.418  34.965  1.00  0.00     0.034 A 
ATOM     55  C   UNL A   1      42.740  27.210  29.975  1.00  0.00     0.034 A 
ATOM     56  C   UNL A   1      41.442  30.717  35.312  1.00  0.00     0.049 A 
ATOM     57  C   UNL A   1      43.458  27.406  31.283  1.00  0.00     0.074 A 
ATOM     58  C   UNL A   1      42.161  30.776  36.492  1.00  0.00     0.029 A 
ATOM     59  N   UNL A   1      42.110  29.834  34.480  1.00  0.00    -0.354 N 
ATOM     60  N   UNL A   1      43.092  28.104  32.330  1.00  0.00    -0.248 NA
ATOM     61  C   UNL A   1      44.737  26.700  31.451  1.00  0.00     0.031 C 
ATOM     62  C   UNL A   1      43.283  29.952  36.361  1.00  0.00     0.029 A 
ATOM     63  C   UNL A   1      43.239  29.347  35.115  1.00  0.00     0.049 A 
ATOM     64  H   UNL A   1      41.825  29.589  33.570  1.00  0.00     0.167 HD
ATOM     65  C   UNL A   1      44.069  27.887  33.295  1.00  0.00     0.074 A 
ATOM     66  C   UNL A   1      45.035  26.978  32.713  1.00  0.00     0.031 C 
ATOM     67  C   UNL A   1      44.163  28.400  34.546  1.00  0.00     0.034 A 
BRANCH  54  68
ATOM     68  C   UNL A   1      39.666  32.395  35.963  1.00  0.00     0.023 A 
ATOM     69  C   UNL A   1      38.714  31.956  36.906  1.00  0.00     0.012 A 
ATOM     70  C   UNL A   1      40.109  33.732  36.001  1.00  0.00     0.148 A 
ATOM     71  C   UNL A   1      38.182  32.839  37.845  1.00  0.00     0.002 A 
ATOM     72  C   UNL A   1      39.613  34.594  36.972  1.00  0.00     0.091 A 
ATOM     73  F   UNL A   1      41.000  34.138  35.086  1.00  0.00    -0.205 F 
ATOM     74  C   UNL A   1      38.639  34.153  37.885  1.00  0.00     0.022 A 
BRANCH  72  75
ATOM     75  S   UNL A   1      40.197  36.281  37.163  1.00  0.00     0.127 S 
ATOM     76  O   UNL A   1      39.882  36.851  35.853  1.00  0.00    -0.237 OA
ATOM     77  O   UNL A   1      39.361  36.774  38.258  1.00  0.00    -0.237 OA
ATOM     78  O   UNL A   1      41.615  36.183  37.475  1.00  0.00    -0.744 OA
ENDBRANCH  72  75
ENDBRANCH  54  68
BRANCH  55  79
ATOM     79  C   UNL A   1      43.315  26.334  28.914  1.00  0.00     0.023 A 
ATOM     80  C   UNL A   1      42.986  24.964  28.891  1.00  0.00     0.012 A 
ATOM     81  C   UNL A   1      44.172  26.851  27.924  1.00  0.00     0.148 A 
ATOM     82  C   UNL A   1      43.531  24.118  27.926  1.00  0.00     0.002 A 
ATOM     83  C   UNL A   1      44.666  26.013  26.931  1.00  0.00     0.091 A 
ATOM     84  F   UNL A   1      44.478  28.155  27.968  1.00  0.00    -0.205 F 
ATOM     85  C   UNL A   1      44.363  24.643  26.941  1.00  0.00     0.022 A 
BRANCH  83  86
ATOM     86  S   UNL A   1      45.639  26.624  25.551  1.00  0.00     0.127 S 
ATOM     87  O   UNL A   1      46.888  26.999  26.208  1.00  0.00    -0.237 OA
ATOM     88  O   UNL A   1      45.724  25.440  24.696  1.00  0.00    -0.237 OA
ATOM     89  O   UNL A   1      44.870  27.722  24.981  1.00  0.00    -0.744 OA
ENDBRANCH  83  86
ENDBRANCH  55  79
BRANCH  67  90
ATOM     90  C   UNL A   1      45.319  27.951  35.404  1.00  0.00     0.023 A 
ATOM     91  C   UNL A   1      46.526  28.678  35.407  1.00  0.00     0.012 A 
ATOM     92  C   UNL A   1      45.178  26.841  36.262  1.00  0.00     0.148 A 
ATOM     93  C   UNL A   1      47.587  28.285  36.222  1.00  0.00     0.002 A 
ATOM     94  C   UNL A   1      46.220  26.489  37.111  1.00  0.00     0.091 A 
ATOM     95  F   UNL A   1      44.029  26.150  36.232  1.00  0.00    -0.205 F 
ATOM     96  C   UNL A   1      47.430  27.200  37.081  1.00  0.00     0.022 A 
BRANCH  94  97
ATOM     97  S   UNL A   1      46.070  25.171  38.321  1.00  0.00     0.127 S 
ATOM     98  O   UNL A   1      44.917  25.614  39.103  1.00  0.00    -0.237 OA
ATOM     99  O   UNL A   1      45.821  24.002  37.476  1.00  0.00    -0.237 OA
ATOM    100  O   UNL A   1      47.337  25.137  39.039  1.00  0.00    -0.744 OA
ENDBRANCH  94  97
ENDBRANCH  67  90
ENDBRANCH  41  42
ENDBRANCH  33  36
ENDBRANCH  31  32
ENDBRANCH  30  31
ENDBRANCH   1  30
TORSDOF 19
ENDMDL
MODEL 3
REMARK VINA RESULT:     -12.1      5.556     10.546
REMARK SMILES O=C(COc1cc(-c2ccccc2)nc(NCc2ccc(Cl)cc2)n1)NCCCNC(=O)c1ccc(-c2c3nc(c(-c4cccc(S(=O)(=O)[O-])c4F)c4ccc([nH]4)c(-c4cccc(S(=O)(=O)[O-])c4F)c4nc(c(-c5cccc(S(=O)(=O)[O-])c5F)c5ccc2[nH]5)C=C4)C=C3)cc1
REMARK SMILES IDX 27 1 26 2 1 3 2 4 3 6 4 7 5 8 6 9 25 10 7 11 15 12 14 13
REMARK SMILES IDX 8 14 9 15 13 16 10 17 12 18 11 19 16 20 17 22 18 23 19 24
REMARK SMILES IDX 24 25 20 26 23 27 21 28 22 29 28 30 29 31 30 32 31 33 32 35
REMARK SMILES IDX 33 36 34 37 95 38 35 39 94 40 36 41 37 42 38 43 88 44 39 45
REMARK SMILES IDX 93 46 87 47 89 48 40 49 92 50 86 51 85 52 41 54 73 55 53 56
REMARK SMILES IDX 72 57 54 58 57 59 71 60 90 61 55 62 56 63 70 65 91 66 58 67
REMARK SMILES IDX 42 68 43 69 51 70 44 71 46 72 52 73 45 74 47 75 48 76 49 77
REMARK SMILES IDX 50 78 74 79 75 80 83 81 76 82 78 83 84 84 77 85 79 86 80 87
REMARK SMILES IDX 81 88 82 89 59 90 60 91 68 92 61 93 63 94 69 95 62 96 64 97
REMARK SMILES IDX 65 98 66 99 67 100
REMARK H PARENT 26 5 16 21 30 34 89 53 57 64
REMARK Flexibility Score: inf
ROOT
ATOM      1  C   UNL A   1      37.305  21.207  24.531  1.00  0.00     0.117 C 
ENDROOT
BRANCH   1   2
ATOM      2  N   UNL A   1      36.250  21.617  25.439  1.00  0.00    -0.353 N 
ATOM      3  O   UNL A   1      37.165  23.654  26.002  1.00  0.00    -0.271 OA
ATOM      4  C   UNL A   1      36.214  22.880  26.001  1.00  0.00     0.258 C 
ATOM      5  H   UNL A   1      35.538  20.976  25.663  1.00  0.00     0.163 HD
BRANCH   4   6
ATOM      6  C   UNL A   1      34.836  23.270  26.552  1.00  0.00     0.331 C 
BRANCH   6   7
ATOM      7  O   UNL A   1      34.352  24.537  26.093  1.00  0.00    -0.467 OA
BRANCH   7   8
ATOM      8  C   UNL A   1      33.469  24.405  25.045  1.00  0.00     0.219 A 
ATOM      9  C   UNL A   1      32.613  25.422  24.725  1.00  0.00     0.097 A 
ATOM     10  N   UNL A   1      33.582  23.292  24.312  1.00  0.00    -0.177 NA
ATOM     11  C   UNL A   1      31.772  25.212  23.661  1.00  0.00     0.080 A 
ATOM     12  C   UNL A   1      32.753  23.178  23.263  1.00  0.00     0.226 A 
ATOM     13  N   UNL A   1      31.820  24.084  22.930  1.00  0.00    -0.213 NA
BRANCH  11  14
ATOM     14  C   UNL A   1      30.754  26.219  23.333  1.00  0.00     0.000 A 
ATOM     15  C   UNL A   1      29.445  26.103  23.820  1.00  0.00     0.010 A 
ATOM     16  C   UNL A   1      31.099  27.392  22.633  1.00  0.00     0.010 A 
ATOM     17  C   UNL A   1      28.524  27.141  23.651  1.00  0.00     0.001 A 
ATOM     18  C   UNL A   1      30.180  28.429  22.461  1.00  0.00     0.001 A 
ATOM     19  C   UNL A   1      28.895  28.306  22.980  1.00  0.00     0.000 A 
ENDBRANCH  11  14
BRANCH  12  20
ATOM     20  N   UNL A   1      32.823  22.088  22.444  1.00  0.00    -0.350 N 
ATOM     21  H   UNL A   1      33.611  21.984  21.863  1.00  0.00     0.164 HD
BRANCH  20  22
ATOM     22  C   UNL A   1      31.796  21.087  22.394  1.00  0.00     0.152 C 
BRANCH  22  23
ATOM     23  C   UNL A   1      32.257  19.869  23.161  1.00  0.00    -0.029 A 
ATOM     24  C   UNL A   1      32.510  18.672  22.472  1.00  0.00     0.007 A 
ATOM     25  C   UNL A   1      32.456  19.913  24.548  1.00  0.00     0.007 A 
ATOM     26  C   UNL A   1      32.935  17.533  23.158  1.00  0.00     0.021 A 
ATOM     27  C   UNL A   1      32.881  18.772  25.235  1.00  0.00     0.021 A 
ATOM     28  C   UNL A   1      33.114  17.588  24.538  1.00  0.00     0.041 A 
ATOM     29  Cl  UNL A   1      33.630  16.184  25.390  1.00  0.00    -0.084 Cl
ENDBRANCH  22  23
ENDBRANCH  20  22
ENDBRANCH  12  20
ENDBRANCH   7   8
ENDBRANCH   6   7
ENDBRANCH   4   6
ENDBRANCH   1   2
BRANCH   1  30
ATOM     30  C   UNL A   1      38.061  19.975  24.991  1.00  0.00     0.042 C 
BRANCH  30  31
ATOM     31  C   UNL A   1      39.175  20.263  25.989  1.00  0.00     0.118 C 
BRANCH  31  32
ATOM     32  N   UNL A   1      40.240  19.268  25.977  1.00  0.00    -0.352 N 
ATOM     33  C   UNL A   1      41.598  19.433  26.101  1.00  0.00     0.251 C 
ATOM     34  H   UNL A   1      39.940  18.337  25.864  1.00  0.00     0.163 HD
ATOM     35  O   UNL A   1      42.336  18.460  25.937  1.00  0.00    -0.269 OA
BRANCH  33  36
ATOM     36  C   UNL A   1      42.178  20.762  26.401  1.00  0.00     0.039 A 
ATOM     37  C   UNL A   1      42.541  21.594  25.338  1.00  0.00     0.014 A 
ATOM     38  C   UNL A   1      42.384  21.188  27.715  1.00  0.00     0.014 A 
ATOM     39  C   UNL A   1      43.062  22.865  25.595  1.00  0.00     0.010 A 
ATOM     40  C   UNL A   1      42.813  22.488  27.968  1.00  0.00     0.010 A 
ATOM     41  C   UNL A   1      43.179  23.335  26.913  1.00  0.00    -0.014 A 
BRANCH  41  42
ATOM     42  C   UNL A   1      43.707  24.694  27.204  1.00  0.00     0.031 A 
ATOM     43  C   UNL A   1      42.787  25.769  27.726  1.00  0.00     0.074 A 
ATOM     44  C   UNL A   1      44.998  24.985  26.943  1.00  0.00     0.049 A 
ATOM     45  N   UNL A   1      43.055  27.017  28.011  1.00  0.00    -0.248 NA
ATOM     46  C   UNL A   1      41.376  25.401  27.929  1.00  0.00     0.031 C 
ATOM     47  C   UNL A   1      45.974  24.060  26.364  1.00  0.00     0.029 A 
ATOM     48  N   UNL A   1      45.705  26.151  27.110  1.00  0.00    -0.354 N 
ATOM     49  C   UNL A   1      41.846  27.590  28.390  1.00  0.00     0.074 A 
ATOM     50  C   UNL A   1      40.835  26.565  28.257  1.00  0.00     0.031 C 
ATOM     51  C   UNL A   1      47.153  24.688  26.235  1.00  0.00     0.029 A 
ATOM     52  C   UNL A   1      47.013  26.068  26.692  1.00  0.00     0.049 A 
ATOM     53  H   UNL A   1      45.312  26.968  27.493  1.00  0.00     0.167 HD
ATOM     54  C   UNL A   1      41.601  28.844  28.838  1.00  0.00     0.034 A 
ATOM     55  C   UNL A   1      47.988  26.999  26.675  1.00  0.00     0.034 A 
ATOM     56  C   UNL A   1      42.613  29.850  29.009  1.00  0.00     0.049 A 
ATOM     57  C   UNL A   1      47.698  28.374  27.214  1.00  0.00     0.074 A 
ATOM     58  C   UNL A   1      42.479  31.123  29.534  1.00  0.00     0.029 A 
ATOM     59  N   UNL A   1      43.944  29.702  28.651  1.00  0.00    -0.354 N 
ATOM     60  N   UNL A   1      46.582  28.848  27.711  1.00  0.00    -0.248 NA
ATOM     61  C   UNL A   1      48.815  29.330  27.230  1.00  0.00     0.031 C 
ATOM     62  C   UNL A   1      43.725  31.756  29.465  1.00  0.00     0.029 A 
ATOM     63  C   UNL A   1      44.642  30.862  28.937  1.00  0.00     0.049 A 
ATOM     64  H   UNL A   1      44.334  28.892  28.253  1.00  0.00     0.167 HD
ATOM     65  C   UNL A   1      46.872  30.139  28.137  1.00  0.00     0.074 A 
ATOM     66  C   UNL A   1      48.274  30.366  27.857  1.00  0.00     0.031 C 
ATOM     67  C   UNL A   1      46.050  31.057  28.703  1.00  0.00     0.034 A 
BRANCH  54  68
ATOM     68  C   UNL A   1      40.182  29.186  29.220  1.00  0.00     0.023 A 
ATOM     69  C   UNL A   1      39.254  29.539  28.219  1.00  0.00     0.012 A 
ATOM     70  C   UNL A   1      39.755  29.108  30.561  1.00  0.00     0.148 A 
ATOM     71  C   UNL A   1      37.935  29.848  28.548  1.00  0.00     0.002 A 
ATOM     72  C   UNL A   1      38.426  29.368  30.875  1.00  0.00     0.091 A 
ATOM     73  F   UNL A   1      40.654  28.790  31.502  1.00  0.00    -0.205 F 
ATOM     74  C   UNL A   1      37.519  29.752  29.873  1.00  0.00     0.022 A 
BRANCH  72  75
ATOM     75  S   UNL A   1      37.770  29.191  32.538  1.00  0.00     0.127 S 
ATOM     76  O   UNL A   1      38.692  30.024  33.308  1.00  0.00    -0.237 OA
ATOM     77  O   UNL A   1      36.422  29.743  32.396  1.00  0.00    -0.237 OA
ATOM     78  O   UNL A   1      37.816  27.768  32.839  1.00  0.00    -0.744 OA
ENDBRANCH  72  75
ENDBRANCH  54  68
BRANCH  55  79
ATOM     79  C   UNL A   1      49.351  26.643  26.187  1.00  0.00     0.023 A 
ATOM     80  C   UNL A   1      50.181  25.825  26.979  1.00  0.00     0.012 A 
ATOM     81  C   UNL A   1      49.824  27.099  24.942  1.00  0.00     0.148 A 
ATOM     82  C   UNL A   1      51.470  25.500  26.558  1.00  0.00     0.002 A 
ATOM     83  C   UNL A   1      51.088  26.724  24.503  1.00  0.00     0.091 A 
ATOM     84  F   UNL A   1      49.023  27.882  24.206  1.00  0.00    -0.205 F 
ATOM     85  C   UNL A   1      51.920  25.941  25.318  1.00  0.00     0.022 A 
BRANCH  83  86
ATOM     86  S   UNL A   1      51.703  27.137  22.867  1.00  0.00     0.127 S 
ATOM     87  O   UNL A   1      52.876  26.273  22.761  1.00  0.00    -0.237 OA
ATOM     88  O   UNL A   1      50.576  26.754  22.017  1.00  0.00    -0.237 OA
ATOM     89  O   UNL A   1      51.973  28.568  22.897  1.00  0.00    -0.744 OA
ENDBRANCH  83  86
ENDBRANCH  55  79
BRANCH  67  90
ATOM     90  C   UNL A   1      46.649  32.377  29.115  1.00  0.00     0.023 A 
ATOM     91  C   UNL A   1      47.207  32.534  30.399  1.00  0.00     0.012 A 
ATOM     92  C   UNL A   1      46.719  33.444  28.196  1.00  0.00     0.148 A 
ATOM     93  C   UNL A   1      47.791  33.744  30.775  1.00  0.00     0.002 A 
ATOM     94  C   UNL A   1      47.350  34.627  28.559  1.00  0.00     0.091 A 
ATOM     95  F   UNL A   1      46.166  33.283  26.985  1.00  0.00    -0.205 F 
ATOM     96  C   UNL A   1      47.873  34.785  29.852  1.00  0.00     0.022 A 
BRANCH  94  97
ATOM     97  S   UNL A   1      47.592  35.981  27.404  1.00  0.00     0.127 S 
ATOM     98  O   UNL A   1      48.600  36.784  28.093  1.00  0.00    -0.237 OA
ATOM     99  O   UNL A   1      48.077  35.286  26.210  1.00  0.00    -0.237 OA
ATOM    100  O   UNL A   1      46.289  36.613  27.246  1.00  0.00    -0.744 OA
ENDBRANCH  94  97
ENDBRANCH  67  90
ENDBRANCH  41  42
ENDBRANCH  33  36
ENDBRANCH  31  32
ENDBRANCH  30  31
ENDBRANCH   1  30
TORSDOF 19
ENDMDL
