MODEL 1
REMARK VINA RESULT:     -11.2      0.000      0.000
REMARK SMILES C[NH+](C)CC(C)(C)CNc1cccc(F)c1C(=O)NCCCNC(=O)c1ccc(-c2c3nc(c(-c4cccc(S(=O)(=O)[O-])c4F)c4ccc([nH]4)c(-c4cccc(S(=O)(=O)[O-])c4F)c4nc(c(-c5cccc(S(=O)(=O)[O-])c5F)c5ccc2[nH]5)C=C4)C=C3)cc1
REMARK SMILES IDX 20 1 19 2 17 3 18 4 16 6 10 7 11 8 12 9 14 10 13 11 15 12
REMARK SMILES IDX 9 13 8 15 5 16 6 17 7 18 4 19 2 20 1 21 3 22 21 24 22 25
REMARK SMILES IDX 23 26 24 27 25 29 26 30 27 31 88 32 28 33 87 34 29 35 30 36
REMARK SMILES IDX 31 37 81 38 32 39 86 40 80 41 82 42 33 43 85 44 79 45 78 46
REMARK SMILES IDX 34 48 66 49 46 50 65 51 47 52 50 53 64 54 83 55 48 56 49 57
REMARK SMILES IDX 63 59 84 60 51 61 35 62 36 63 44 64 37 65 39 66 45 67 38 68
REMARK SMILES IDX 40 69 41 70 42 71 43 72 67 73 68 74 76 75 69 76 71 77 77 78
REMARK SMILES IDX 70 79 72 80 73 81 74 82 75 83 52 84 53 85 61 86 54 87 56 88
REMARK SMILES IDX 62 89 55 90 57 91 58 92 59 93 60 94
REMARK H PARENT 19 5 9 14 2 23 23 28 82 47 50 58
REMARK Flexibility Score: inf
ROOT
ATOM      1  C   UNL A   1      32.024  28.050  27.581  1.00  0.00     0.118 C 
ENDROOT
BRANCH   1   2
ATOM      2  N   UNL A   1      31.064  27.186  26.921  1.00  0.00    -0.352 N 
ATOM      3  C   UNL A   1      30.866  26.804  25.619  1.00  0.00     0.256 C 
ATOM      4  O   UNL A   1      29.873  26.093  25.426  1.00  0.00    -0.269 OA
ATOM      5  H   UNL A   1      30.414  26.785  27.543  1.00  0.00     0.163 HD
BRANCH   3   6
ATOM      6  C   UNL A   1      31.780  27.103  24.472  1.00  0.00     0.098 A 
ATOM      7  C   UNL A   1      32.671  26.079  24.035  1.00  0.00     0.050 A 
ATOM      8  C   UNL A   1      33.546  26.349  22.966  1.00  0.00     0.027 A 
ATOM      9  C   UNL A   1      33.567  27.590  22.336  1.00  0.00     0.005 A 
ATOM     10  C   UNL A   1      31.784  28.320  23.784  1.00  0.00     0.138 A 
ATOM     11  C   UNL A   1      32.684  28.576  22.748  1.00  0.00     0.040 A 
ATOM     12  F   UNL A   1      30.905  29.290  24.050  1.00  0.00    -0.206 F 
BRANCH   7  13
ATOM     13  N   UNL A   1      32.724  24.854  24.687  1.00  0.00    -0.384 N 
ATOM     14  H   UNL A   1      32.021  24.203  24.463  1.00  0.00     0.160 HD
BRANCH  13  15
ATOM     15  C   UNL A   1      33.709  24.437  25.664  1.00  0.00     0.125 C 
BRANCH  15  16
ATOM     16  C   UNL A   1      33.700  22.902  25.894  1.00  0.00     0.031 C 
ATOM     17  C   UNL A   1      32.232  22.458  26.036  1.00  0.00     0.019 C 
ATOM     18  C   UNL A   1      34.384  22.584  27.251  1.00  0.00     0.019 C 
BRANCH  16  19
ATOM     19  C   UNL A   1      34.464  22.082  24.795  1.00  0.00     0.269 C 
BRANCH  19  20
ATOM     20  N   UNL A   1      35.908  21.820  24.790  1.00  0.00    -0.339 N 
ATOM     21  C   UNL A   1      36.319  20.446  25.001  1.00  0.00     0.332 C 
ATOM     22  C   UNL A   1      36.669  22.477  23.746  1.00  0.00     0.332 C 
ATOM     23  H   UNL A   1      36.172  22.296  25.653  1.00  0.00     0.347 HD
ENDBRANCH  19  20
ENDBRANCH  16  19
ENDBRANCH  15  16
ENDBRANCH  13  15
ENDBRANCH   7  13
ENDBRANCH   3   6
ENDBRANCH   1   2
BRANCH   1  24
ATOM     24  C   UNL A   1      31.763  29.519  27.233  1.00  0.00     0.042 C 
BRANCH  24  25
ATOM     25  C   UNL A   1      32.928  30.212  26.525  1.00  0.00     0.118 C 
BRANCH  25  26
ATOM     26  N   UNL A   1      32.961  31.642  26.791  1.00  0.00    -0.352 N 
ATOM     27  C   UNL A   1      33.768  32.372  27.626  1.00  0.00     0.251 C 
ATOM     28  H   UNL A   1      32.298  32.170  26.291  1.00  0.00     0.163 HD
ATOM     29  O   UNL A   1      33.473  33.544  27.856  1.00  0.00    -0.269 OA
BRANCH  27  30
ATOM     30  C   UNL A   1      34.975  31.783  28.254  1.00  0.00     0.039 A 
ATOM     31  C   UNL A   1      36.148  32.545  28.276  1.00  0.00     0.014 A 
ATOM     32  C   UNL A   1      34.994  30.476  28.749  1.00  0.00     0.014 A 
ATOM     33  C   UNL A   1      37.319  32.015  28.824  1.00  0.00     0.010 A 
ATOM     34  C   UNL A   1      36.147  29.970  29.356  1.00  0.00     0.010 A 
ATOM     35  C   UNL A   1      37.324  30.730  29.390  1.00  0.00    -0.014 A 
BRANCH  35  36
ATOM     36  C   UNL A   1      38.552  30.198  30.041  1.00  0.00     0.031 A 
ATOM     37  C   UNL A   1      38.947  30.632  31.428  1.00  0.00     0.074 A 
ATOM     38  C   UNL A   1      39.339  29.343  29.357  1.00  0.00     0.049 A 
ATOM     39  N   UNL A   1      39.960  30.234  32.155  1.00  0.00    -0.248 NA
ATOM     40  C   UNL A   1      38.114  31.658  32.077  1.00  0.00     0.031 C 
ATOM     41  C   UNL A   1      39.109  28.913  27.977  1.00  0.00     0.029 A 
ATOM     42  N   UNL A   1      40.491  28.690  29.719  1.00  0.00    -0.354 N 
ATOM     43  C   UNL A   1      39.901  30.973  33.330  1.00  0.00     0.074 A 
ATOM     44  C   UNL A   1      38.772  31.868  33.210  1.00  0.00     0.031 C 
ATOM     45  C   UNL A   1      40.072  28.051  27.617  1.00  0.00     0.029 A 
ATOM     46  C   UNL A   1      41.002  27.881  28.731  1.00  0.00     0.049 A 
ATOM     47  H   UNL A   1      40.912  28.790  30.604  1.00  0.00     0.167 HD
ATOM     48  C   UNL A   1      40.696  30.889  34.423  1.00  0.00     0.034 A 
ATOM     49  C   UNL A   1      42.088  27.082  28.720  1.00  0.00     0.034 A 
ATOM     50  C   UNL A   1      41.786  29.959  34.557  1.00  0.00     0.049 A 
ATOM     51  C   UNL A   1      42.917  26.958  29.970  1.00  0.00     0.074 A 
ATOM     52  C   UNL A   1      42.592  29.737  35.659  1.00  0.00     0.029 A 
ATOM     53  N   UNL A   1      42.222  29.099  33.561  1.00  0.00    -0.354 N 
ATOM     54  N   UNL A   1      42.748  27.549  31.128  1.00  0.00    -0.248 NA
ATOM     55  C   UNL A   1      44.059  26.033  29.930  1.00  0.00     0.031 C 
ATOM     56  C   UNL A   1      43.528  28.756  35.324  1.00  0.00     0.029 A 
ATOM     57  C   UNL A   1      43.288  28.348  34.022  1.00  0.00     0.049 A 
ATOM     58  H   UNL A   1      41.830  29.032  32.660  1.00  0.00     0.167 HD
ATOM     59  C   UNL A   1      43.736  27.042  31.964  1.00  0.00     0.074 A 
ATOM     60  C   UNL A   1      44.494  26.086  31.184  1.00  0.00     0.031 C 
ATOM     61  C   UNL A   1      43.995  27.352  33.257  1.00  0.00     0.034 A 
BRANCH  48  62
ATOM     62  C   UNL A   1      40.382  31.768  35.606  1.00  0.00     0.023 A 
ATOM     63  C   UNL A   1      41.172  32.911  35.845  1.00  0.00     0.012 A 
ATOM     64  C   UNL A   1      39.245  31.536  36.407  1.00  0.00     0.148 A 
ATOM     65  C   UNL A   1      40.849  33.797  36.870  1.00  0.00     0.002 A 
ATOM     66  C   UNL A   1      38.905  32.448  37.400  1.00  0.00     0.091 A 
ATOM     67  F   UNL A   1      38.514  30.436  36.174  1.00  0.00    -0.205 F 
ATOM     68  C   UNL A   1      39.710  33.573  37.638  1.00  0.00     0.022 A 
BRANCH  66  69
ATOM     69  S   UNL A   1      37.411  32.298  38.388  1.00  0.00     0.127 S 
ATOM     70  O   UNL A   1      37.825  32.918  39.645  1.00  0.00    -0.237 OA
ATOM     71  O   UNL A   1      36.448  33.080  37.611  1.00  0.00    -0.237 OA
ATOM     72  O   UNL A   1      37.118  30.874  38.463  1.00  0.00    -0.744 OA
ENDBRANCH  66  69
ENDBRANCH  48  62
BRANCH  49  73
ATOM     73  C   UNL A   1      42.378  26.260  27.511  1.00  0.00     0.023 A 
ATOM     74  C   UNL A   1      43.187  26.796  26.491  1.00  0.00     0.012 A 
ATOM     75  C   UNL A   1      41.933  24.926  27.405  1.00  0.00     0.148 A 
ATOM     76  C   UNL A   1      43.537  26.026  25.381  1.00  0.00     0.002 A 
ATOM     77  C   UNL A   1      42.332  24.147  26.324  1.00  0.00     0.091 A 
ATOM     78  F   UNL A   1      41.153  24.438  28.379  1.00  0.00    -0.205 F 
ATOM     79  C   UNL A   1      43.123  24.700  25.304  1.00  0.00     0.022 A 
BRANCH  77  80
ATOM     80  S   UNL A   1      41.970  22.391  26.220  1.00  0.00     0.127 S 
ATOM     81  O   UNL A   1      42.715  22.002  25.024  1.00  0.00    -0.237 OA
ATOM     82  O   UNL A   1      42.528  21.892  27.479  1.00  0.00    -0.237 OA
ATOM     83  O   UNL A   1      40.523  22.291  26.125  1.00  0.00    -0.744 OA
ENDBRANCH  77  80
ENDBRANCH  49  73
BRANCH  61  84
ATOM     84  C   UNL A   1      45.126  26.643  33.952  1.00  0.00     0.023 A 
ATOM     85  C   UNL A   1      46.417  27.206  33.929  1.00  0.00     0.012 A 
ATOM     86  C   UNL A   1      44.875  25.513  34.753  1.00  0.00     0.148 A 
ATOM     87  C   UNL A   1      47.443  26.648  34.690  1.00  0.00     0.002 A 
ATOM     88  C   UNL A   1      45.890  24.990  35.545  1.00  0.00     0.091 A 
ATOM     89  F   UNL A   1      43.641  24.988  34.748  1.00  0.00    -0.205 F 
ATOM     90  C   UNL A   1      47.177  25.553  35.509  1.00  0.00     0.022 A 
BRANCH  88  91
ATOM     91  S   UNL A   1      45.618  23.650  36.710  1.00  0.00     0.127 S 
ATOM     92  O   UNL A   1      44.827  24.313  37.747  1.00  0.00    -0.237 OA
ATOM     93  O   UNL A   1      44.876  22.683  35.901  1.00  0.00    -0.237 OA
ATOM     94  O   UNL A   1      46.940  23.204  37.130  1.00  0.00    -0.744 OA
ENDBRANCH  88  91
ENDBRANCH  61  84
ENDBRANCH  35  36
ENDBRANCH  27  30
ENDBRANCH  25  26
ENDBRANCH  24  25
ENDBRANCH   1  24
TORSDOF 18
ENDMDL
MODEL 2
REMARK VINA RESULT:     -11.1      2.338      2.774
REMARK SMILES C[NH+](C)CC(C)(C)CNc1cccc(F)c1C(=O)NCCCNC(=O)c1ccc(-c2c3nc(c(-c4cccc(S(=O)(=O)[O-])c4F)c4ccc([nH]4)c(-c4cccc(S(=O)(=O)[O-])c4F)c4nc(c(-c5cccc(S(=O)(=O)[O-])c5F)c5ccc2[nH]5)C=C4)C=C3)cc1
REMARK SMILES IDX 20 1 19 2 17 3 18 4 16 6 10 7 11 8 12 9 14 10 13 11 15 12
REMARK SMILES IDX 9 13 8 15 5 16 6 17 7 18 4 19 2 20 1 21 3 22 21 24 22 25
REMARK SMILES IDX 23 26 24 27 25 29 26 30 27 31 88 32 28 33 87 34 29 35 30 36
REMARK SMILES IDX 31 37 81 38 32 39 86 40 80 41 82 42 33 43 85 44 79 45 78 46
REMARK SMILES IDX 34 48 66 49 46 50 65 51 47 52 50 53 64 54 83 55 48 56 49 57
REMARK SMILES IDX 63 59 84 60 51 61 35 62 36 63 44 64 37 65 39 66 45 67 38 68
REMARK SMILES IDX 40 69 41 70 42 71 43 72 67 73 68 74 76 75 69 76 71 77 77 78
REMARK SMILES IDX 70 79 72 80 73 81 74 82 75 83 52 84 53 85 61 86 54 87 56 88
REMARK SMILES IDX 62 89 55 90 57 91 58 92 59 93 60 94
REMARK H PARENT 19 5 9 14 2 23 23 28 82 47 50 58
REMARK Flexibility Score: inf
ROOT
ATOM      1  C   UNL A   1      31.758  28.356  27.304  1.00  0.00     0.118 C 
ENDROOT
BRANCH   1   2
ATOM      2  N   UNL A   1      31.029  27.109  27.176  1.00  0.00    -0.352 N 
ATOM      3  C   UNL A   1      30.741  26.280  26.122  1.00  0.00     0.256 C 
ATOM      4  O   UNL A   1      30.013  25.318  26.395  1.00  0.00    -0.269 OA
ATOM      5  H   UNL A   1      30.662  26.786  28.031  1.00  0.00     0.163 HD
BRANCH   3   6
ATOM      6  C   UNL A   1      31.293  26.404  24.737  1.00  0.00     0.098 A 
ATOM      7  C   UNL A   1      32.486  25.688  24.421  1.00  0.00     0.050 A 
ATOM      8  C   UNL A   1      33.026  25.804  23.126  1.00  0.00     0.027 A 
ATOM      9  C   UNL A   1      32.430  26.605  22.156  1.00  0.00     0.005 A 
ATOM     10  C   UNL A   1      30.686  27.155  23.726  1.00  0.00     0.138 A 
ATOM     11  C   UNL A   1      31.258  27.281  22.459  1.00  0.00     0.040 A 
ATOM     12  F   UNL A   1      29.508  27.760  23.900  1.00  0.00    -0.206 F 
BRANCH   7  13
ATOM     13  N   UNL A   1      33.144  24.936  25.386  1.00  0.00    -0.384 N 
ATOM     14  H   UNL A   1      32.590  24.567  26.111  1.00  0.00     0.160 HD
BRANCH  13  15
ATOM     15  C   UNL A   1      34.561  24.640  25.433  1.00  0.00     0.125 C 
BRANCH  15  16
ATOM     16  C   UNL A   1      34.842  23.133  25.670  1.00  0.00     0.031 C 
ATOM     17  C   UNL A   1      34.131  22.724  26.974  1.00  0.00     0.019 C 
ATOM     18  C   UNL A   1      36.361  22.928  25.920  1.00  0.00     0.019 C 
BRANCH  16  19
ATOM     19  C   UNL A   1      34.450  22.207  24.466  1.00  0.00     0.269 C 
BRANCH  19  20
ATOM     20  N   UNL A   1      33.096  21.710  24.191  1.00  0.00    -0.339 N 
ATOM     21  C   UNL A   1      32.504  22.103  22.928  1.00  0.00     0.332 C 
ATOM     22  C   UNL A   1      32.854  20.317  24.512  1.00  0.00     0.332 C 
ATOM     23  H   UNL A   1      32.573  22.239  24.888  1.00  0.00     0.347 HD
ENDBRANCH  19  20
ENDBRANCH  16  19
ENDBRANCH  15  16
ENDBRANCH  13  15
ENDBRANCH   7  13
ENDBRANCH   3   6
ENDBRANCH   1   2
BRANCH   1  24
ATOM     24  C   UNL A   1      33.256  28.137  27.070  1.00  0.00     0.042 C 
BRANCH  24  25
ATOM     25  C   UNL A   1      33.878  29.093  26.052  1.00  0.00     0.118 C 
BRANCH  25  26
ATOM     26  N   UNL A   1      33.847  30.476  26.505  1.00  0.00    -0.352 N 
ATOM     27  C   UNL A   1      34.598  31.117  27.455  1.00  0.00     0.251 C 
ATOM     28  H   UNL A   1      33.178  31.042  26.056  1.00  0.00     0.163 HD
ATOM     29  O   UNL A   1      34.251  32.236  27.828  1.00  0.00    -0.269 OA
BRANCH  27  30
ATOM     30  C   UNL A   1      35.810  30.493  28.042  1.00  0.00     0.039 A 
ATOM     31  C   UNL A   1      37.030  30.667  27.380  1.00  0.00     0.014 A 
ATOM     32  C   UNL A   1      35.753  29.684  29.181  1.00  0.00     0.014 A 
ATOM     33  C   UNL A   1      38.189  30.065  27.876  1.00  0.00     0.010 A 
ATOM     34  C   UNL A   1      36.923  29.137  29.713  1.00  0.00     0.010 A 
ATOM     35  C   UNL A   1      38.152  29.313  29.061  1.00  0.00    -0.014 A 
BRANCH  35  36
ATOM     36  C   UNL A   1      39.402  28.738  29.629  1.00  0.00     0.031 A 
ATOM     37  C   UNL A   1      40.018  29.303  30.880  1.00  0.00     0.074 A 
ATOM     38  C   UNL A   1      40.006  27.718  28.985  1.00  0.00     0.049 A 
ATOM     39  N   UNL A   1      41.079  28.893  31.529  1.00  0.00    -0.248 NA
ATOM     40  C   UNL A   1      39.380  30.491  31.471  1.00  0.00     0.031 C 
ATOM     41  C   UNL A   1      39.551  27.140  27.718  1.00  0.00     0.029 A 
ATOM     42  N   UNL A   1      41.130  26.995  29.295  1.00  0.00    -0.354 N 
ATOM     43  C   UNL A   1      41.249  29.781  32.584  1.00  0.00     0.074 A 
ATOM     44  C   UNL A   1      40.202  30.773  32.474  1.00  0.00     0.031 C 
ATOM     45  C   UNL A   1      40.373  26.137  27.373  1.00  0.00     0.029 A 
ATOM     46  C   UNL A   1      41.425  26.012  28.378  1.00  0.00     0.049 A 
ATOM     47  H   UNL A   1      41.674  27.162  30.098  1.00  0.00     0.167 HD
ATOM     48  C   UNL A   1      42.173  29.753  33.573  1.00  0.00     0.034 A 
ATOM     49  C   UNL A   1      42.420  25.103  28.351  1.00  0.00     0.034 A 
ATOM     50  C   UNL A   1      43.180  28.734  33.707  1.00  0.00     0.049 A 
ATOM     51  C   UNL A   1      43.395  25.052  29.496  1.00  0.00     0.074 A 
ATOM     52  C   UNL A   1      44.103  28.569  34.724  1.00  0.00     0.029 A 
ATOM     53  N   UNL A   1      43.395  27.707  32.800  1.00  0.00    -0.354 N 
ATOM     54  N   UNL A   1      43.440  25.804  30.569  1.00  0.00    -0.248 NA
ATOM     55  C   UNL A   1      44.430  24.009  29.452  1.00  0.00     0.031 C 
ATOM     56  C   UNL A   1      44.890  27.455  34.422  1.00  0.00     0.029 A 
ATOM     57  C   UNL A   1      44.439  26.910  33.231  1.00  0.00     0.049 A 
ATOM     58  H   UNL A   1      42.881  27.568  31.972  1.00  0.00     0.167 HD
ATOM     59  C   UNL A   1      44.481  25.305  31.343  1.00  0.00     0.074 A 
ATOM     60  C   UNL A   1      45.034  24.177  30.623  1.00  0.00     0.031 C 
ATOM     61  C   UNL A   1      44.940  25.750  32.537  1.00  0.00     0.034 A 
BRANCH  48  62
ATOM     62  C   UNL A   1      42.105  30.809  34.647  1.00  0.00     0.023 A 
ATOM     63  C   UNL A   1      41.407  30.533  35.841  1.00  0.00     0.012 A 
ATOM     64  C   UNL A   1      42.822  32.017  34.530  1.00  0.00     0.148 A 
ATOM     65  C   UNL A   1      41.406  31.448  36.891  1.00  0.00     0.002 A 
ATOM     66  C   UNL A   1      42.852  32.906  35.599  1.00  0.00     0.091 A 
ATOM     67  F   UNL A   1      43.467  32.267  33.382  1.00  0.00    -0.205 F 
ATOM     68  C   UNL A   1      42.139  32.627  36.776  1.00  0.00     0.022 A 
BRANCH  66  69
ATOM     69  S   UNL A   1      43.835  34.410  35.585  1.00  0.00     0.127 S 
ATOM     70  O   UNL A   1      43.315  35.091  34.399  1.00  0.00    -0.237 OA
ATOM     71  O   UNL A   1      43.463  35.033  36.856  1.00  0.00    -0.237 OA
ATOM     72  O   UNL A   1      45.224  33.984  35.499  1.00  0.00    -0.744 OA
ENDBRANCH  66  69
ENDBRANCH  48  62
BRANCH  49  73
ATOM     73  C   UNL A   1      42.466  24.102  27.247  1.00  0.00     0.023 A 
ATOM     74  C   UNL A   1      43.346  24.308  26.168  1.00  0.00     0.012 A 
ATOM     75  C   UNL A   1      41.713  22.912  27.302  1.00  0.00     0.148 A 
ATOM     76  C   UNL A   1      43.466  23.355  25.155  1.00  0.00     0.002 A 
ATOM     77  C   UNL A   1      41.880  21.942  26.319  1.00  0.00     0.091 A 
ATOM     78  F   UNL A   1      40.872  22.740  28.331  1.00  0.00    -0.205 F 
ATOM     79  C   UNL A   1      42.746  22.168  25.238  1.00  0.00     0.022 A 
BRANCH  77  80
ATOM     80  S   UNL A   1      41.107  20.323  26.426  1.00  0.00     0.127 S 
ATOM     81  O   UNL A   1      41.811  19.586  25.378  1.00  0.00    -0.237 OA
ATOM     82  O   UNL A   1      41.442  19.918  27.793  1.00  0.00    -0.237 OA
ATOM     83  O   UNL A   1      39.689  20.548  26.199  1.00  0.00    -0.744 OA
ENDBRANCH  77  80
ENDBRANCH  49  73
BRANCH  61  84
ATOM     84  C   UNL A   1      46.084  25.017  33.185  1.00  0.00     0.023 A 
ATOM     85  C   UNL A   1      47.384  25.554  33.111  1.00  0.00     0.012 A 
ATOM     86  C   UNL A   1      45.842  23.890  33.995  1.00  0.00     0.148 A 
ATOM     87  C   UNL A   1      48.429  24.973  33.830  1.00  0.00     0.002 A 
ATOM     88  C   UNL A   1      46.878  23.345  34.744  1.00  0.00     0.091 A 
ATOM     89  F   UNL A   1      44.599  23.389  34.038  1.00  0.00    -0.205 F 
ATOM     90  C   UNL A   1      48.173  23.882  34.657  1.00  0.00     0.022 A 
BRANCH  88  91
ATOM     91  S   UNL A   1      46.626  22.008  35.917  1.00  0.00     0.127 S 
ATOM     92  O   UNL A   1      45.993  20.991  35.077  1.00  0.00    -0.237 OA
ATOM     93  O   UNL A   1      47.995  21.695  36.327  1.00  0.00    -0.237 OA
ATOM     94  O   UNL A   1      45.784  22.550  36.974  1.00  0.00    -0.744 OA
ENDBRANCH  88  91
ENDBRANCH  61  84
ENDBRANCH  35  36
ENDBRANCH  27  30
ENDBRANCH  25  26
ENDBRANCH  24  25
ENDBRANCH   1  24
TORSDOF 18
ENDMDL
MODEL 3
REMARK VINA RESULT:     -11.0      5.300     10.251
REMARK SMILES C[NH+](C)CC(C)(C)CNc1cccc(F)c1C(=O)NCCCNC(=O)c1ccc(-c2c3nc(c(-c4cccc(S(=O)(=O)[O-])c4F)c4ccc([nH]4)c(-c4cccc(S(=O)(=O)[O-])c4F)c4nc(c(-c5cccc(S(=O)(=O)[O-])c5F)c5ccc2[nH]5)C=C4)C=C3)cc1
REMARK SMILES IDX 20 1 19 2 17 3 18 4 16 6 10 7 11 8 12 9 14 10 13 11 15 12
REMARK SMILES IDX 9 13 8 15 5 16 6 17 7 18 4 19 2 20 1 21 3 22 21 24 22 25
REMARK SMILES IDX 23 26 24 27 25 29 26 30 27 31 88 32 28 33 87 34 29 35 30 36
REMARK SMILES IDX 31 37 81 38 32 39 86 40 80 41 82 42 33 43 85 44 79 45 78 46
REMARK SMILES IDX 34 48 66 49 46 50 65 51 47 52 50 53 64 54 83 55 48 56 49 57
REMARK SMILES IDX 63 59 84 60 51 61 35 62 36 63 44 64 37 65 39 66 45 67 38 68
REMARK SMILES IDX 40 69 41 70 42 71 43 72 67 73 68 74 76 75 69 76 71 77 77 78
REMARK SMILES IDX 70 79 72 80 73 81 74 82 75 83 52 84 53 85 61 86 54 87 56 88
REMARK SMILES IDX 62 89 55 90 57 91 58 92 59 93 60 94
REMARK H PARENT 19 5 9 14 2 23 23 28 82 47 50 58
REMARK Flexibility Score: inf
ROOT
ATOM      1  C   UNL A   1      35.946  23.517  23.819  1.00  0.00     0.118 C 
ENDROOT
BRANCH   1   2
ATOM      2  N   UNL A   1      34.839  23.434  22.885  1.00  0.00    -0.352 N 
ATOM      3  C   UNL A   1      33.477  23.371  23.029  1.00  0.00     0.256 C 
ATOM      4  O   UNL A   1      32.844  23.232  21.975  1.00  0.00    -0.269 OA
ATOM      5  H   UNL A   1      35.128  23.422  21.944  1.00  0.00     0.163 HD
BRANCH   3   6
ATOM      6  C   UNL A   1      32.724  23.540  24.311  1.00  0.00     0.098 A 
ATOM      7  C   UNL A   1      32.381  22.370  25.051  1.00  0.00     0.050 A 
ATOM      8  C   UNL A   1      31.663  22.511  26.253  1.00  0.00     0.027 A 
ATOM      9  C   UNL A   1      31.272  23.760  26.727  1.00  0.00     0.005 A 
ATOM     10  C   UNL A   1      32.368  24.784  24.840  1.00  0.00     0.138 A 
ATOM     11  C   UNL A   1      31.627  24.897  26.017  1.00  0.00     0.040 A 
ATOM     12  F   UNL A   1      32.750  25.933  24.276  1.00  0.00    -0.206 F 
BRANCH   7  13
ATOM     13  N   UNL A   1      32.694  21.105  24.570  1.00  0.00    -0.384 N 
ATOM     14  H   UNL A   1      33.359  21.060  23.845  1.00  0.00     0.160 HD
BRANCH  13  15
ATOM     15  C   UNL A   1      32.143  19.846  25.027  1.00  0.00     0.125 C 
BRANCH  15  16
ATOM     16  C   UNL A   1      33.010  18.632  24.601  1.00  0.00     0.031 C 
ATOM     17  C   UNL A   1      34.481  19.090  24.584  1.00  0.00     0.019 C 
ATOM     18  C   UNL A   1      32.660  18.240  23.139  1.00  0.00     0.019 C 
BRANCH  16  19
ATOM     19  C   UNL A   1      32.798  17.350  25.480  1.00  0.00     0.269 C 
BRANCH  19  20
ATOM     20  N   UNL A   1      33.279  16.005  25.139  1.00  0.00    -0.339 N 
ATOM     21  C   UNL A   1      34.698  15.762  25.303  1.00  0.00     0.332 C 
ATOM     22  C   UNL A   1      32.465  14.901  25.610  1.00  0.00     0.332 C 
ATOM     23  H   UNL A   1      33.144  16.025  24.129  1.00  0.00     0.347 HD
ENDBRANCH  19  20
ENDBRANCH  16  19
ENDBRANCH  15  16
ENDBRANCH  13  15
ENDBRANCH   7  13
ENDBRANCH   3   6
ENDBRANCH   1   2
BRANCH   1  24
ATOM     24  C   UNL A   1      36.332  22.125  24.329  1.00  0.00     0.042 C 
BRANCH  24  25
ATOM     25  C   UNL A   1      36.796  22.097  25.786  1.00  0.00     0.118 C 
BRANCH  25  26
ATOM     26  N   UNL A   1      37.868  21.138  26.004  1.00  0.00    -0.352 N 
ATOM     27  C   UNL A   1      39.194  21.337  26.291  1.00  0.00     0.251 C 
ATOM     28  H   UNL A   1      37.597  20.194  25.934  1.00  0.00     0.163 HD
ATOM     29  O   UNL A   1      39.964  20.381  26.218  1.00  0.00    -0.269 OA
BRANCH  27  30
ATOM     30  C   UNL A   1      39.715  22.670  26.680  1.00  0.00     0.039 A 
ATOM     31  C   UNL A   1      40.661  22.736  27.709  1.00  0.00     0.014 A 
ATOM     32  C   UNL A   1      39.238  23.852  26.106  1.00  0.00     0.014 A 
ATOM     33  C   UNL A   1      41.150  23.974  28.133  1.00  0.00     0.010 A 
ATOM     34  C   UNL A   1      39.776  25.085  26.486  1.00  0.00     0.010 A 
ATOM     35  C   UNL A   1      40.730  25.160  27.510  1.00  0.00    -0.014 A 
BRANCH  35  36
ATOM     36  C   UNL A   1      41.310  26.470  27.913  1.00  0.00     0.031 A 
ATOM     37  C   UNL A   1      42.735  26.823  27.581  1.00  0.00     0.074 A 
ATOM     38  C   UNL A   1      40.552  27.334  28.619  1.00  0.00     0.049 A 
ATOM     39  N   UNL A   1      43.381  27.936  27.820  1.00  0.00    -0.248 NA
ATOM     40  C   UNL A   1      43.549  25.793  26.914  1.00  0.00     0.031 C 
ATOM     41  C   UNL A   1      39.185  27.072  29.074  1.00  0.00     0.029 A 
ATOM     42  N   UNL A   1      40.820  28.596  29.085  1.00  0.00    -0.354 N 
ATOM     43  C   UNL A   1      44.676  27.734  27.359  1.00  0.00     0.074 A 
ATOM     44  C   UNL A   1      44.737  26.380  26.853  1.00  0.00     0.031 C 
ATOM     45  C   UNL A   1      38.727  28.148  29.731  1.00  0.00     0.029 A 
ATOM     46  C   UNL A   1      39.770  29.169  29.765  1.00  0.00     0.049 A 
ATOM     47  H   UNL A   1      41.682  29.051  28.945  1.00  0.00     0.167 HD
ATOM     48  C   UNL A   1      45.710  28.607  27.329  1.00  0.00     0.034 A 
ATOM     49  C   UNL A   1      39.650  30.382  30.342  1.00  0.00     0.034 A 
ATOM     50  C   UNL A   1      45.628  29.969  27.785  1.00  0.00     0.049 A 
ATOM     51  C   UNL A   1      40.792  31.356  30.237  1.00  0.00     0.074 A 
ATOM     52  C   UNL A   1      46.594  30.956  27.714  1.00  0.00     0.029 A 
ATOM     53  N   UNL A   1      44.520  30.535  28.395  1.00  0.00    -0.354 N 
ATOM     54  N   UNL A   1      41.955  31.198  29.653  1.00  0.00    -0.248 NA
ATOM     55  C   UNL A   1      40.597  32.686  30.832  1.00  0.00     0.031 C 
ATOM     56  C   UNL A   1      46.078  32.115  28.299  1.00  0.00     0.029 A 
ATOM     57  C   UNL A   1      44.780  31.857  28.710  1.00  0.00     0.049 A 
ATOM     58  H   UNL A   1      43.673  30.067  28.577  1.00  0.00     0.167 HD
ATOM     59  C   UNL A   1      42.614  32.415  29.778  1.00  0.00     0.074 A 
ATOM     60  C   UNL A   1      41.717  33.307  30.482  1.00  0.00     0.031 C 
ATOM     61  C   UNL A   1      43.856  32.755  29.355  1.00  0.00     0.034 A 
BRANCH  48  62
ATOM     62  C   UNL A   1      47.010  28.156  26.713  1.00  0.00     0.023 A 
ATOM     63  C   UNL A   1      48.025  27.641  27.545  1.00  0.00     0.012 A 
ATOM     64  C   UNL A   1      47.185  28.130  25.314  1.00  0.00     0.148 A 
ATOM     65  C   UNL A   1      49.199  27.126  27.000  1.00  0.00     0.002 A 
ATOM     66  C   UNL A   1      48.341  27.575  24.775  1.00  0.00     0.091 A 
ATOM     67  F   UNL A   1      46.216  28.638  24.540  1.00  0.00    -0.205 F 
ATOM     68  C   UNL A   1      49.351  27.081  25.616  1.00  0.00     0.022 A 
BRANCH  66  69
ATOM     69  S   UNL A   1      48.598  27.390  23.006  1.00  0.00     0.127 S 
ATOM     70  O   UNL A   1      48.355  25.960  22.821  1.00  0.00    -0.237 OA
ATOM     71  O   UNL A   1      47.559  28.260  22.452  1.00  0.00    -0.237 OA
ATOM     72  O   UNL A   1      49.961  27.829  22.748  1.00  0.00    -0.744 OA
ENDBRANCH  66  69
ENDBRANCH  48  62
BRANCH  49  73
ATOM     73  C   UNL A   1      38.355  30.767  30.972  1.00  0.00     0.023 A 
ATOM     74  C   UNL A   1      38.158  30.524  32.345  1.00  0.00     0.012 A 
ATOM     75  C   UNL A   1      37.358  31.447  30.245  1.00  0.00     0.148 A 
ATOM     76  C   UNL A   1      36.987  30.938  32.980  1.00  0.00     0.002 A 
ATOM     77  C   UNL A   1      36.219  31.907  30.897  1.00  0.00     0.091 A 
ATOM     78  F   UNL A   1      37.558  31.657  28.937  1.00  0.00    -0.205 F 
ATOM     79  C   UNL A   1      36.025  31.641  32.261  1.00  0.00     0.022 A 
BRANCH  77  80
ATOM     80  S   UNL A   1      35.001  32.949  30.084  1.00  0.00     0.127 S 
ATOM     81  O   UNL A   1      35.836  34.024  29.550  1.00  0.00    -0.237 OA
ATOM     82  O   UNL A   1      34.450  32.041  29.076  1.00  0.00    -0.237 OA
ATOM     83  O   UNL A   1      34.058  33.336  31.120  1.00  0.00    -0.744 OA
ENDBRANCH  77  80
ENDBRANCH  49  73
BRANCH  61  84
ATOM     84  C   UNL A   1      44.339  34.159  29.601  1.00  0.00     0.023 A 
ATOM     85  C   UNL A   1      44.960  34.475  30.824  1.00  0.00     0.012 A 
ATOM     86  C   UNL A   1      44.318  35.113  28.565  1.00  0.00     0.148 A 
ATOM     87  C   UNL A   1      45.549  35.725  31.014  1.00  0.00     0.002 A 
ATOM     88  C   UNL A   1      44.946  36.340  28.745  1.00  0.00     0.091 A 
ATOM     89  F   UNL A   1      43.707  34.793  27.414  1.00  0.00    -0.205 F 
ATOM     90  C   UNL A   1      45.556  36.649  29.972  1.00  0.00     0.022 A 
BRANCH  88  91
ATOM     91  S   UNL A   1      45.101  37.552  27.428  1.00  0.00     0.127 S 
ATOM     92  O   UNL A   1      43.703  37.766  27.056  1.00  0.00    -0.237 OA
ATOM     93  O   UNL A   1      45.728  38.679  28.118  1.00  0.00    -0.237 OA
ATOM     94  O   UNL A   1      45.928  36.930  26.402  1.00  0.00    -0.744 OA
ENDBRANCH  88  91
ENDBRANCH  61  84
ENDBRANCH  35  36
ENDBRANCH  27  30
ENDBRANCH  25  26
ENDBRANCH  24  25
ENDBRANCH   1  24
TORSDOF 18
ENDMDL
