MODEL 1
REMARK VINA RESULT:     -11.8      0.000      0.000
REMARK SMILES O=C(CCC(=O)Nc1ncc([N+](=O)[O-])s1)NCCCNC(=O)c1ccc(-c2c3nc(c(-c4cccc(S(=O)(=O)[O-])c4F)c4ccc([nH]4)c(-c4cccc(S(=O)(=O)[O-])c4F)c4nc(c(-c5cccc(S(=O)(=O)[O-])c5F)c5ccc2[nH]5)C=C4)C=C3)cc1
REMARK SMILES IDX 17 1 16 2 1 3 2 4 3 6 4 7 5 8 6 9 7 10 8 12 9 13 15 14 10 15
REMARK SMILES IDX 11 16 12 17 13 18 14 19 18 20 19 21 20 22 21 23 22 25 23 26
REMARK SMILES IDX 24 27 85 28 25 29 84 30 26 31 27 32 28 33 78 34 29 35 83 36
REMARK SMILES IDX 77 37 79 38 30 39 82 40 76 41 75 42 31 44 63 45 43 46 62 47
REMARK SMILES IDX 44 48 47 49 61 50 80 51 45 52 46 53 60 55 81 56 48 57 32 58
REMARK SMILES IDX 33 59 41 60 34 61 36 62 42 63 35 64 37 65 38 66 39 67 40 68
REMARK SMILES IDX 64 69 65 70 73 71 66 72 68 73 74 74 67 75 69 76 70 77 71 78
REMARK SMILES IDX 72 79 49 80 50 81 58 82 51 83 53 84 59 85 52 86 54 87 55 88
REMARK SMILES IDX 56 89 57 90
REMARK H PARENT 16 5 7 11 20 24 79 43 47 54
REMARK Flexibility Score: inf
ROOT
ATOM      1  C   UNL A   1      32.120  27.269  26.810  1.00  0.00     0.117 C 
ENDROOT
BRANCH   1   2
ATOM      2  N   UNL A   1      31.568  26.731  25.584  1.00  0.00    -0.356 N 
ATOM      3  O   UNL A   1      29.907  25.484  26.579  1.00  0.00    -0.275 OA
ATOM      4  C   UNL A   1      30.448  25.926  25.572  1.00  0.00     0.220 C 
ATOM      5  H   UNL A   1      32.007  26.946  24.729  1.00  0.00     0.163 HD
BRANCH   4   6
ATOM      6  C   UNL A   1      29.896  25.681  24.184  1.00  0.00     0.110 C 
BRANCH   6   7
ATOM      7  C   UNL A   1      29.473  26.977  23.496  1.00  0.00     0.110 C 
BRANCH   7   8
ATOM      8  C   UNL A   1      30.521  27.481  22.520  1.00  0.00     0.226 C 
ATOM      9  O   UNL A   1      31.383  26.701  22.100  1.00  0.00    -0.275 OA
ATOM     10  N   UNL A   1      30.603  28.778  22.120  1.00  0.00    -0.302 N 
ATOM     11  H   UNL A   1      31.247  28.978  21.402  1.00  0.00     0.172 HD
BRANCH  10  12
ATOM     12  C   UNL A   1      29.886  29.831  22.606  1.00  0.00     0.195 A 
ATOM     13  N   UNL A   1      29.714  30.201  23.846  1.00  0.00    -0.221 NA
ATOM     14  S   UNL A   1      29.230  30.861  21.410  1.00  0.00    -0.024 S 
ATOM     15  C   UNL A   1      29.184  31.479  23.873  1.00  0.00     0.212 A 
ATOM     16  C   UNL A   1      28.886  31.995  22.635  1.00  0.00     0.345 A 
BRANCH  16  17
ATOM     17  N   UNL A   1      28.384  33.298  22.345  1.00  0.00     0.076 N 
ATOM     18  O   UNL A   1      27.663  33.435  21.349  1.00  0.00    -0.257 OA
ATOM     19  O   UNL A   1      28.703  34.198  23.132  1.00  0.00    -0.257 OA
ENDBRANCH  16  17
ENDBRANCH  10  12
ENDBRANCH   7   8
ENDBRANCH   6   7
ENDBRANCH   4   6
ENDBRANCH   1   2
BRANCH   1  20
ATOM     20  C   UNL A   1      31.755  28.720  27.066  1.00  0.00     0.042 C 
BRANCH  20  21
ATOM     21  C   UNL A   1      32.490  29.739  26.204  1.00  0.00     0.118 C 
BRANCH  21  22
ATOM     22  N   UNL A   1      32.351  31.124  26.644  1.00  0.00    -0.352 N 
ATOM     23  C   UNL A   1      33.250  31.915  27.330  1.00  0.00     0.251 C 
ATOM     24  H   UNL A   1      31.494  31.554  26.419  1.00  0.00     0.163 HD
ATOM     25  O   UNL A   1      32.936  33.054  27.656  1.00  0.00    -0.269 OA
BRANCH  23  26
ATOM     26  C   UNL A   1      34.567  31.357  27.713  1.00  0.00     0.039 A 
ATOM     27  C   UNL A   1      35.624  32.235  27.971  1.00  0.00     0.014 A 
ATOM     28  C   UNL A   1      34.730  29.985  27.908  1.00  0.00     0.014 A 
ATOM     29  C   UNL A   1      36.801  31.747  28.546  1.00  0.00     0.010 A 
ATOM     30  C   UNL A   1      35.864  29.516  28.562  1.00  0.00     0.010 A 
ATOM     31  C   UNL A   1      36.903  30.394  28.911  1.00  0.00    -0.014 A 
BRANCH  31  32
ATOM     32  C   UNL A   1      38.040  29.881  29.723  1.00  0.00     0.031 A 
ATOM     33  C   UNL A   1      38.277  30.396  31.116  1.00  0.00     0.074 A 
ATOM     34  C   UNL A   1      38.943  29.055  29.152  1.00  0.00     0.049 A 
ATOM     35  N   UNL A   1      39.285  30.171  31.918  1.00  0.00    -0.248 NA
ATOM     36  C   UNL A   1      37.268  31.316  31.666  1.00  0.00     0.031 C 
ATOM     37  C   UNL A   1      38.886  28.556  27.776  1.00  0.00     0.029 A 
ATOM     38  N   UNL A   1      40.108  28.520  29.647  1.00  0.00    -0.354 N 
ATOM     39  C   UNL A   1      39.059  30.954  33.042  1.00  0.00     0.074 A 
ATOM     40  C   UNL A   1      37.830  31.682  32.808  1.00  0.00     0.031 C 
ATOM     41  C   UNL A   1      39.961  27.787  27.539  1.00  0.00     0.029 A 
ATOM     42  C   UNL A   1      40.802  27.764  28.730  1.00  0.00     0.049 A 
ATOM     43  H   UNL A   1      40.417  28.664  30.571  1.00  0.00     0.167 HD
ATOM     44  C   UNL A   1      39.787  31.036  34.181  1.00  0.00     0.034 A 
ATOM     45  C   UNL A   1      41.987  27.129  28.831  1.00  0.00     0.034 A 
ATOM     46  C   UNL A   1      40.966  30.259  34.445  1.00  0.00     0.049 A 
ATOM     47  C   UNL A   1      42.742  27.185  30.131  1.00  0.00     0.074 A 
ATOM     48  C   UNL A   1      41.704  30.186  35.613  1.00  0.00     0.029 A 
ATOM     49  N   UNL A   1      41.581  29.418  33.529  1.00  0.00    -0.354 N 
ATOM     50  N   UNL A   1      42.420  27.797  31.244  1.00  0.00    -0.248 NA
ATOM     51  C   UNL A   1      44.008  26.441  30.198  1.00  0.00     0.031 C 
ATOM     52  C   UNL A   1      42.771  29.303  35.402  1.00  0.00     0.029 A 
ATOM     53  C   UNL A   1      42.692  28.826  34.104  1.00  0.00     0.049 A 
ATOM     54  H   UNL A   1      41.273  29.266  32.608  1.00  0.00     0.167 HD
ATOM     55  C   UNL A   1      43.428  27.491  32.151  1.00  0.00     0.074 A 
ATOM     56  C   UNL A   1      44.358  26.618  31.465  1.00  0.00     0.031 C 
ATOM     57  C   UNL A   1      43.581  27.915  33.430  1.00  0.00     0.034 A 
BRANCH  44  58
ATOM     58  C   UNL A   1      39.280  31.949  35.266  1.00  0.00     0.023 A 
ATOM     59  C   UNL A   1      38.304  31.471  36.166  1.00  0.00     0.012 A 
ATOM     60  C   UNL A   1      39.799  33.247  35.432  1.00  0.00     0.148 A 
ATOM     61  C   UNL A   1      37.830  32.283  37.194  1.00  0.00     0.002 A 
ATOM     62  C   UNL A   1      39.347  34.037  36.484  1.00  0.00     0.091 A 
ATOM     63  F   UNL A   1      40.707  33.693  34.553  1.00  0.00    -0.205 F 
ATOM     64  C   UNL A   1      38.358  33.560  37.360  1.00  0.00     0.022 A 
BRANCH  62  65
ATOM     65  S   UNL A   1      40.017  35.670  36.820  1.00  0.00     0.127 S 
ATOM     66  O   UNL A   1      41.444  35.383  36.954  1.00  0.00    -0.237 OA
ATOM     67  O   UNL A   1      39.655  36.410  35.610  1.00  0.00    -0.237 OA
ATOM     68  O   UNL A   1      39.350  36.130  38.030  1.00  0.00    -0.744 OA
ENDBRANCH  62  65
ENDBRANCH  44  58
BRANCH  45  69
ATOM     69  C   UNL A   1      42.496  26.320  27.687  1.00  0.00     0.023 A 
ATOM     70  C   UNL A   1      43.444  26.888  26.815  1.00  0.00     0.012 A 
ATOM     71  C   UNL A   1      42.081  24.991  27.479  1.00  0.00     0.148 A 
ATOM     72  C   UNL A   1      43.952  26.157  25.741  1.00  0.00     0.002 A 
ATOM     73  C   UNL A   1      42.630  24.251  26.437  1.00  0.00     0.091 A 
ATOM     74  F   UNL A   1      41.164  24.471  28.308  1.00  0.00    -0.205 F 
ATOM     75  C   UNL A   1      43.554  24.836  25.559  1.00  0.00     0.022 A 
BRANCH  73  76
ATOM     76  S   UNL A   1      42.270  22.503  26.215  1.00  0.00     0.127 S 
ATOM     77  O   UNL A   1      43.007  22.199  24.992  1.00  0.00    -0.237 OA
ATOM     78  O   UNL A   1      42.829  21.917  27.434  1.00  0.00    -0.237 OA
ATOM     79  O   UNL A   1      40.818  22.418  26.126  1.00  0.00    -0.744 OA
ENDBRANCH  73  76
ENDBRANCH  45  69
BRANCH  57  80
ATOM     80  C   UNL A   1      44.792  27.434  34.183  1.00  0.00     0.023 A 
ATOM     81  C   UNL A   1      45.968  28.209  34.167  1.00  0.00     0.012 A 
ATOM     82  C   UNL A   1      44.743  26.265  34.966  1.00  0.00     0.148 A 
ATOM     83  C   UNL A   1      47.085  27.816  34.901  1.00  0.00     0.002 A 
ATOM     84  C   UNL A   1      45.848  25.901  35.729  1.00  0.00     0.091 A 
ATOM     85  F   UNL A   1      43.622  25.529  34.951  1.00  0.00    -0.205 F 
ATOM     86  C   UNL A   1      47.022  26.670  35.690  1.00  0.00     0.022 A 
BRANCH  84  87
ATOM     87  S   UNL A   1      45.820  24.489  36.840  1.00  0.00     0.127 S 
ATOM     88  O   UNL A   1      45.864  23.369  35.901  1.00  0.00    -0.237 OA
ATOM     89  O   UNL A   1      47.043  24.679  37.621  1.00  0.00    -0.237 OA
ATOM     90  O   UNL A   1      44.590  24.617  37.611  1.00  0.00    -0.744 OA
ENDBRANCH  84  87
ENDBRANCH  57  80
ENDBRANCH  31  32
ENDBRANCH  23  26
ENDBRANCH  21  22
ENDBRANCH  20  21
ENDBRANCH   1  20
TORSDOF 17
ENDMDL
MODEL 2
REMARK VINA RESULT:     -11.5      2.271      4.129
REMARK SMILES O=C(CCC(=O)Nc1ncc([N+](=O)[O-])s1)NCCCNC(=O)c1ccc(-c2c3nc(c(-c4cccc(S(=O)(=O)[O-])c4F)c4ccc([nH]4)c(-c4cccc(S(=O)(=O)[O-])c4F)c4nc(c(-c5cccc(S(=O)(=O)[O-])c5F)c5ccc2[nH]5)C=C4)C=C3)cc1
REMARK SMILES IDX 17 1 16 2 1 3 2 4 3 6 4 7 5 8 6 9 7 10 8 12 9 13 15 14 10 15
REMARK SMILES IDX 11 16 12 17 13 18 14 19 18 20 19 21 20 22 21 23 22 25 23 26
REMARK SMILES IDX 24 27 85 28 25 29 84 30 26 31 27 32 28 33 78 34 29 35 83 36
REMARK SMILES IDX 77 37 79 38 30 39 82 40 76 41 75 42 31 44 63 45 43 46 62 47
REMARK SMILES IDX 44 48 47 49 61 50 80 51 45 52 46 53 60 55 81 56 48 57 32 58
REMARK SMILES IDX 33 59 41 60 34 61 36 62 42 63 35 64 37 65 38 66 39 67 40 68
REMARK SMILES IDX 64 69 65 70 73 71 66 72 68 73 74 74 67 75 69 76 70 77 71 78
REMARK SMILES IDX 72 79 49 80 50 81 58 82 51 83 53 84 59 85 52 86 54 87 55 88
REMARK SMILES IDX 56 89 57 90
REMARK H PARENT 16 5 7 11 20 24 79 43 47 54
REMARK Flexibility Score: inf
ROOT
ATOM      1  C   UNL A   1      32.194  27.700  27.046  1.00  0.00     0.117 C 
ENDROOT
BRANCH   1   2
ATOM      2  N   UNL A   1      31.122  26.757  26.797  1.00  0.00    -0.356 N 
ATOM      3  O   UNL A   1      31.343  26.718  24.505  1.00  0.00    -0.275 OA
ATOM      4  C   UNL A   1      30.831  26.289  25.533  1.00  0.00     0.220 C 
ATOM      5  H   UNL A   1      30.582  26.440  27.557  1.00  0.00     0.163 HD
BRANCH   4   6
ATOM      6  C   UNL A   1      29.851  25.135  25.528  1.00  0.00     0.110 C 
BRANCH   6   7
ATOM      7  C   UNL A   1      30.556  23.783  25.462  1.00  0.00     0.110 C 
BRANCH   7   8
ATOM      8  C   UNL A   1      30.738  23.159  26.835  1.00  0.00     0.226 C 
ATOM      9  O   UNL A   1      29.788  23.149  27.626  1.00  0.00    -0.275 OA
ATOM     10  N   UNL A   1      31.923  22.655  27.272  1.00  0.00    -0.302 N 
ATOM     11  H   UNL A   1      31.907  22.176  28.132  1.00  0.00     0.172 HD
BRANCH  10  12
ATOM     12  C   UNL A   1      33.130  22.743  26.646  1.00  0.00     0.195 A 
ATOM     13  N   UNL A   1      33.889  23.792  26.474  1.00  0.00    -0.221 NA
ATOM     14  S   UNL A   1      33.776  21.247  26.126  1.00  0.00    -0.024 S 
ATOM     15  C   UNL A   1      35.148  23.384  26.068  1.00  0.00     0.212 A 
ATOM     16  C   UNL A   1      35.264  22.031  25.857  1.00  0.00     0.345 A 
BRANCH  16  17
ATOM     17  N   UNL A   1      36.443  21.316  25.491  1.00  0.00     0.076 N 
ATOM     18  O   UNL A   1      36.311  20.187  25.004  1.00  0.00    -0.257 OA
ATOM     19  O   UNL A   1      37.519  21.899  25.678  1.00  0.00    -0.257 OA
ENDBRANCH  16  17
ENDBRANCH  10  12
ENDBRANCH   7   8
ENDBRANCH   6   7
ENDBRANCH   4   6
ENDBRANCH   1   2
BRANCH   1  20
ATOM     20  C   UNL A   1      31.735  29.144  27.140  1.00  0.00     0.042 C 
BRANCH  20  21
ATOM     21  C   UNL A   1      32.535  30.138  26.307  1.00  0.00     0.118 C 
BRANCH  21  22
ATOM     22  N   UNL A   1      32.478  31.517  26.782  1.00  0.00    -0.352 N 
ATOM     23  C   UNL A   1      33.420  32.234  27.491  1.00  0.00     0.251 C 
ATOM     24  H   UNL A   1      31.650  32.004  26.566  1.00  0.00     0.163 HD
ATOM     25  O   UNL A   1      33.176  33.382  27.845  1.00  0.00    -0.269 OA
BRANCH  23  26
ATOM     26  C   UNL A   1      34.700  31.587  27.864  1.00  0.00     0.039 A 
ATOM     27  C   UNL A   1      35.836  32.383  28.034  1.00  0.00     0.014 A 
ATOM     28  C   UNL A   1      34.753  30.219  28.135  1.00  0.00     0.014 A 
ATOM     29  C   UNL A   1      36.988  31.829  28.599  1.00  0.00     0.010 A 
ATOM     30  C   UNL A   1      35.868  29.692  28.779  1.00  0.00     0.010 A 
ATOM     31  C   UNL A   1      36.989  30.495  29.041  1.00  0.00    -0.014 A 
BRANCH  31  32
ATOM     32  C   UNL A   1      38.109  29.933  29.844  1.00  0.00     0.031 A 
ATOM     33  C   UNL A   1      38.353  30.409  31.250  1.00  0.00     0.074 A 
ATOM     34  C   UNL A   1      38.991  29.097  29.257  1.00  0.00     0.049 A 
ATOM     35  N   UNL A   1      39.351  30.138  32.050  1.00  0.00    -0.248 NA
ATOM     36  C   UNL A   1      37.367  31.342  31.818  1.00  0.00     0.031 C 
ATOM     37  C   UNL A   1      38.927  28.632  27.869  1.00  0.00     0.029 A 
ATOM     38  N   UNL A   1      40.140  28.519  29.743  1.00  0.00    -0.354 N 
ATOM     39  C   UNL A   1      39.142  30.899  33.192  1.00  0.00     0.074 A 
ATOM     40  C   UNL A   1      37.934  31.665  32.971  1.00  0.00     0.031 C 
ATOM     41  C   UNL A   1      39.983  27.841  27.618  1.00  0.00     0.029 A 
ATOM     42  C   UNL A   1      40.818  27.767  28.812  1.00  0.00     0.049 A 
ATOM     43  H   UNL A   1      40.449  28.633  30.672  1.00  0.00     0.167 HD
ATOM     44  C   UNL A   1      39.866  30.935  34.335  1.00  0.00     0.034 A 
ATOM     45  C   UNL A   1      41.985  27.099  28.902  1.00  0.00     0.034 A 
ATOM     46  C   UNL A   1      41.024  30.120  34.585  1.00  0.00     0.049 A 
ATOM     47  C   UNL A   1      42.736  27.104  30.205  1.00  0.00     0.074 A 
ATOM     48  C   UNL A   1      41.754  30.000  35.753  1.00  0.00     0.029 A 
ATOM     49  N   UNL A   1      41.619  29.286  33.652  1.00  0.00    -0.354 N 
ATOM     50  N   UNL A   1      42.425  27.697  31.332  1.00  0.00    -0.248 NA
ATOM     51  C   UNL A   1      43.981  26.324  30.259  1.00  0.00     0.031 C 
ATOM     52  C   UNL A   1      42.798  29.094  35.526  1.00  0.00     0.029 A 
ATOM     53  C   UNL A   1      42.712  28.650  34.217  1.00  0.00     0.049 A 
ATOM     54  H   UNL A   1      41.312  29.163  32.726  1.00  0.00     0.167 HD
ATOM     55  C   UNL A   1      43.421  27.343  32.235  1.00  0.00     0.074 A 
ATOM     56  C   UNL A   1      44.330  26.462  31.531  1.00  0.00     0.031 C 
ATOM     57  C   UNL A   1      43.579  27.732  33.524  1.00  0.00     0.034 A 
BRANCH  44  58
ATOM     58  C   UNL A   1      39.379  31.835  35.440  1.00  0.00     0.023 A 
ATOM     59  C   UNL A   1      38.458  31.330  36.381  1.00  0.00     0.012 A 
ATOM     60  C   UNL A   1      39.866  33.148  35.582  1.00  0.00     0.148 A 
ATOM     61  C   UNL A   1      38.004  32.130  37.428  1.00  0.00     0.002 A 
ATOM     62  C   UNL A   1      39.436  33.926  36.652  1.00  0.00     0.091 A 
ATOM     63  F   UNL A   1      40.721  33.619  34.664  1.00  0.00    -0.205 F 
ATOM     64  C   UNL A   1      38.499  33.423  37.569  1.00  0.00     0.022 A 
BRANCH  62  65
ATOM     65  S   UNL A   1      40.070  35.580  36.956  1.00  0.00     0.127 S 
ATOM     66  O   UNL A   1      39.425  35.915  38.225  1.00  0.00    -0.237 OA
ATOM     67  O   UNL A   1      41.513  35.349  37.047  1.00  0.00    -0.237 OA
ATOM     68  O   UNL A   1      39.658  36.378  35.809  1.00  0.00    -0.744 OA
ENDBRANCH  62  65
ENDBRANCH  44  58
BRANCH  45  69
ATOM     69  C   UNL A   1      42.477  26.304  27.741  1.00  0.00     0.023 A 
ATOM     70  C   UNL A   1      43.398  26.890  26.851  1.00  0.00     0.012 A 
ATOM     71  C   UNL A   1      42.074  24.971  27.532  1.00  0.00     0.148 A 
ATOM     72  C   UNL A   1      43.890  26.172  25.760  1.00  0.00     0.002 A 
ATOM     73  C   UNL A   1      42.607  24.245  26.473  1.00  0.00     0.091 A 
ATOM     74  F   UNL A   1      41.183  24.435  28.379  1.00  0.00    -0.205 F 
ATOM     75  C   UNL A   1      43.504  24.848  25.578  1.00  0.00     0.022 A 
BRANCH  73  76
ATOM     76  S   UNL A   1      42.264  22.495  26.247  1.00  0.00     0.127 S 
ATOM     77  O   UNL A   1      42.976  22.208  25.005  1.00  0.00    -0.237 OA
ATOM     78  O   UNL A   1      42.858  21.907  27.449  1.00  0.00    -0.237 OA
ATOM     79  O   UNL A   1      40.811  22.392  26.190  1.00  0.00    -0.744 OA
ENDBRANCH  73  76
ENDBRANCH  45  69
BRANCH  57  80
ATOM     80  C   UNL A   1      44.773  27.201  34.269  1.00  0.00     0.023 A 
ATOM     81  C   UNL A   1      45.973  27.939  34.266  1.00  0.00     0.012 A 
ATOM     82  C   UNL A   1      44.687  26.022  35.034  1.00  0.00     0.148 A 
ATOM     83  C   UNL A   1      47.077  27.499  34.994  1.00  0.00     0.002 A 
ATOM     84  C   UNL A   1      45.779  25.611  35.791  1.00  0.00     0.091 A 
ATOM     85  F   UNL A   1      43.543  25.322  35.007  1.00  0.00    -0.205 F 
ATOM     86  C   UNL A   1      46.977  26.343  35.765  1.00  0.00     0.022 A 
BRANCH  84  87
ATOM     87  S   UNL A   1      45.705  24.183  36.880  1.00  0.00     0.127 S 
ATOM     88  O   UNL A   1      45.400  23.106  35.939  1.00  0.00    -0.237 OA
ATOM     89  O   UNL A   1      47.058  24.142  37.437  1.00  0.00    -0.237 OA
ATOM     90  O   UNL A   1      44.665  24.483  37.855  1.00  0.00    -0.744 OA
ENDBRANCH  84  87
ENDBRANCH  57  80
ENDBRANCH  31  32
ENDBRANCH  23  26
ENDBRANCH  21  22
ENDBRANCH  20  21
ENDBRANCH   1  20
TORSDOF 17
ENDMDL
MODEL 3
REMARK VINA RESULT:     -11.5      5.312      7.869
REMARK SMILES O=C(CCC(=O)Nc1ncc([N+](=O)[O-])s1)NCCCNC(=O)c1ccc(-c2c3nc(c(-c4cccc(S(=O)(=O)[O-])c4F)c4ccc([nH]4)c(-c4cccc(S(=O)(=O)[O-])c4F)c4nc(c(-c5cccc(S(=O)(=O)[O-])c5F)c5ccc2[nH]5)C=C4)C=C3)cc1
REMARK SMILES IDX 17 1 16 2 1 3 2 4 3 6 4 7 5 8 6 9 7 10 8 12 9 13 15 14 10 15
REMARK SMILES IDX 11 16 12 17 13 18 14 19 18 20 19 21 20 22 21 23 22 25 23 26
REMARK SMILES IDX 24 27 85 28 25 29 84 30 26 31 27 32 28 33 78 34 29 35 83 36
REMARK SMILES IDX 77 37 79 38 30 39 82 40 76 41 75 42 31 44 63 45 43 46 62 47
REMARK SMILES IDX 44 48 47 49 61 50 80 51 45 52 46 53 60 55 81 56 48 57 32 58
REMARK SMILES IDX 33 59 41 60 34 61 36 62 42 63 35 64 37 65 38 66 39 67 40 68
REMARK SMILES IDX 64 69 65 70 73 71 66 72 68 73 74 74 67 75 69 76 70 77 71 78
REMARK SMILES IDX 72 79 49 80 50 81 58 82 51 83 53 84 59 85 52 86 54 87 55 88
REMARK SMILES IDX 56 89 57 90
REMARK H PARENT 16 5 7 11 20 24 79 43 47 54
REMARK Flexibility Score: inf
ROOT
ATOM      1  C   UNL A   1      35.030  20.656  24.906  1.00  0.00     0.117 C 
ENDROOT
BRANCH   1   2
ATOM      2  N   UNL A   1      34.031  21.589  24.424  1.00  0.00    -0.356 N 
ATOM      3  O   UNL A   1      32.413  21.051  25.971  1.00  0.00    -0.275 OA
ATOM      4  C   UNL A   1      32.815  21.755  25.053  1.00  0.00     0.220 C 
ATOM      5  H   UNL A   1      34.228  22.123  23.620  1.00  0.00     0.163 HD
BRANCH   4   6
ATOM      6  C   UNL A   1      32.031  22.945  24.542  1.00  0.00     0.110 C 
BRANCH   6   7
ATOM      7  C   UNL A   1      32.445  24.244  25.228  1.00  0.00     0.110 C 
BRANCH   7   8
ATOM      8  C   UNL A   1      31.504  24.625  26.357  1.00  0.00     0.226 C 
ATOM      9  O   UNL A   1      31.540  23.989  27.417  1.00  0.00    -0.275 OA
ATOM     10  N   UNL A   1      30.568  25.607  26.247  1.00  0.00    -0.302 N 
ATOM     11  H   UNL A   1      30.086  25.849  27.071  1.00  0.00     0.172 HD
BRANCH  10  12
ATOM     12  C   UNL A   1      30.229  26.290  25.118  1.00  0.00     0.195 A 
ATOM     13  N   UNL A   1      29.281  26.031  24.258  1.00  0.00    -0.221 NA
ATOM     14  S   UNL A   1      31.095  27.744  24.876  1.00  0.00    -0.024 S 
ATOM     15  C   UNL A   1      29.087  27.134  23.445  1.00  0.00     0.212 A 
ATOM     16  C   UNL A   1      29.971  28.162  23.665  1.00  0.00     0.345 A 
BRANCH  16  17
ATOM     17  N   UNL A   1      29.985  29.436  23.024  1.00  0.00     0.076 N 
ATOM     18  O   UNL A   1      30.217  29.474  21.810  1.00  0.00    -0.257 OA
ATOM     19  O   UNL A   1      29.744  30.415  23.743  1.00  0.00    -0.257 OA
ENDBRANCH  16  17
ENDBRANCH  10  12
ENDBRANCH   7   8
ENDBRANCH   6   7
ENDBRANCH   4   6
ENDBRANCH   1   2
BRANCH   1  20
ATOM     20  C   UNL A   1      36.124  21.300  25.738  1.00  0.00     0.042 C 
BRANCH  20  21
ATOM     21  C   UNL A   1      37.454  21.504  25.021  1.00  0.00     0.118 C 
BRANCH  21  22
ATOM     22  N   UNL A   1      38.466  20.494  25.315  1.00  0.00    -0.352 N 
ATOM     23  C   UNL A   1      39.613  20.606  26.074  1.00  0.00     0.251 C 
ATOM     24  H   UNL A   1      38.307  19.609  24.915  1.00  0.00     0.163 HD
ATOM     25  O   UNL A   1      40.375  19.651  26.174  1.00  0.00    -0.269 OA
BRANCH  23  26
ATOM     26  C   UNL A   1      39.939  21.900  26.718  1.00  0.00     0.039 A 
ATOM     27  C   UNL A   1      40.878  21.924  27.752  1.00  0.00     0.014 A 
ATOM     28  C   UNL A   1      39.392  23.091  26.238  1.00  0.00     0.014 A 
ATOM     29  C   UNL A   1      41.362  23.150  28.217  1.00  0.00     0.010 A 
ATOM     30  C   UNL A   1      39.939  24.306  26.637  1.00  0.00     0.010 A 
ATOM     31  C   UNL A   1      40.947  24.349  27.613  1.00  0.00    -0.014 A 
BRANCH  31  32
ATOM     32  C   UNL A   1      41.598  25.652  27.921  1.00  0.00     0.031 A 
ATOM     33  C   UNL A   1      40.837  26.735  28.634  1.00  0.00     0.074 A 
ATOM     34  C   UNL A   1      42.830  25.909  27.433  1.00  0.00     0.049 A 
ATOM     35  N   UNL A   1      41.188  27.973  28.868  1.00  0.00    -0.248 NA
ATOM     36  C   UNL A   1      39.488  26.395  29.115  1.00  0.00     0.031 C 
ATOM     37  C   UNL A   1      43.641  24.982  26.640  1.00  0.00     0.029 A 
ATOM     38  N   UNL A   1      43.602  27.045  27.497  1.00  0.00    -0.354 N 
ATOM     39  C   UNL A   1      40.093  28.572  29.476  1.00  0.00     0.074 A 
ATOM     40  C   UNL A   1      39.053  27.568  29.552  1.00  0.00     0.031 C 
ATOM     41  C   UNL A   1      44.792  25.581  26.298  1.00  0.00     0.029 A 
ATOM     42  C   UNL A   1      44.792  26.945  26.814  1.00  0.00     0.049 A 
ATOM     43  H   UNL A   1      43.328  27.855  27.988  1.00  0.00     0.167 HD
ATOM     44  C   UNL A   1      39.972  29.831  29.958  1.00  0.00     0.034 A 
ATOM     45  C   UNL A   1      45.770  27.850  26.616  1.00  0.00     0.034 A 
ATOM     46  C   UNL A   1      41.027  30.806  29.950  1.00  0.00     0.049 A 
ATOM     47  C   UNL A   1      45.637  29.221  27.219  1.00  0.00     0.074 A 
ATOM     48  C   UNL A   1      41.038  32.066  30.520  1.00  0.00     0.029 A 
ATOM     49  N   UNL A   1      42.261  30.630  29.343  1.00  0.00    -0.354 N 
ATOM     50  N   UNL A   1      44.658  29.711  27.942  1.00  0.00    -0.248 NA
ATOM     51  C   UNL A   1      46.753  30.154  27.007  1.00  0.00     0.031 C 
ATOM     52  C   UNL A   1      42.280  32.656  30.253  1.00  0.00     0.029 A 
ATOM     53  C   UNL A   1      43.040  31.760  29.520  1.00  0.00     0.049 A 
ATOM     54  H   UNL A   1      42.542  29.821  28.858  1.00  0.00     0.167 HD
ATOM     55  C   UNL A   1      45.051  30.998  28.290  1.00  0.00     0.074 A 
ATOM     56  C   UNL A   1      46.368  31.202  27.722  1.00  0.00     0.031 C 
ATOM     57  C   UNL A   1      44.371  31.934  28.998  1.00  0.00     0.034 A 
BRANCH  44  58
ATOM     58  C   UNL A   1      38.666  30.203  30.611  1.00  0.00     0.023 A 
ATOM     59  C   UNL A   1      38.442  29.837  31.955  1.00  0.00     0.012 A 
ATOM     60  C   UNL A   1      37.692  30.952  29.924  1.00  0.00     0.148 A 
ATOM     61  C   UNL A   1      37.254  30.185  32.595  1.00  0.00     0.002 A 
ATOM     62  C   UNL A   1      36.526  31.327  30.583  1.00  0.00     0.091 A 
ATOM     63  F   UNL A   1      37.912  31.268  28.641  1.00  0.00    -0.205 F 
ATOM     64  C   UNL A   1      36.301  30.938  31.914  1.00  0.00     0.022 A 
BRANCH  62  65
ATOM     65  S   UNL A   1      35.271  32.355  29.810  1.00  0.00     0.127 S 
ATOM     66  O   UNL A   1      36.060  33.504  29.369  1.00  0.00    -0.237 OA
ATOM     67  O   UNL A   1      34.787  31.496  28.728  1.00  0.00    -0.237 OA
ATOM     68  O   UNL A   1      34.288  32.627  30.849  1.00  0.00    -0.744 OA
ENDBRANCH  62  65
ENDBRANCH  44  58
BRANCH  45  69
ATOM     69  C   UNL A   1      47.002  27.461  25.872  1.00  0.00     0.023 A 
ATOM     70  C   UNL A   1      48.011  26.745  26.545  1.00  0.00     0.012 A 
ATOM     71  C   UNL A   1      47.167  27.757  24.505  1.00  0.00     0.148 A 
ATOM     72  C   UNL A   1      49.172  26.353  25.878  1.00  0.00     0.002 A 
ATOM     73  C   UNL A   1      48.303  27.319  23.834  1.00  0.00     0.091 A 
ATOM     74  F   UNL A   1      46.205  28.456  23.884  1.00  0.00    -0.205 F 
ATOM     75  C   UNL A   1      49.313  26.629  24.522  1.00  0.00     0.022 A 
BRANCH  73  76
ATOM     76  S   UNL A   1      48.500  27.519  22.059  1.00  0.00     0.127 S 
ATOM     77  O   UNL A   1      49.697  28.351  21.981  1.00  0.00    -0.237 OA
ATOM     78  O   UNL A   1      48.679  26.137  21.612  1.00  0.00    -0.237 OA
ATOM     79  O   UNL A   1      47.261  28.135  21.602  1.00  0.00    -0.744 OA
ENDBRANCH  73  76
ENDBRANCH  45  69
BRANCH  57  80
ATOM     80  C   UNL A   1      45.038  33.265  29.213  1.00  0.00     0.023 A 
ATOM     81  C   UNL A   1      45.932  33.424  30.289  1.00  0.00     0.012 A 
ATOM     82  C   UNL A   1      44.846  34.328  28.309  1.00  0.00     0.148 A 
ATOM     83  C   UNL A   1      46.607  34.629  30.478  1.00  0.00     0.002 A 
ATOM     84  C   UNL A   1      45.553  35.513  28.480  1.00  0.00     0.091 A 
ATOM     85  F   UNL A   1      43.974  34.165  27.303  1.00  0.00    -0.205 F 
ATOM     86  C   UNL A   1      46.427  35.668  29.569  1.00  0.00     0.022 A 
BRANCH  84  87
ATOM     87  S   UNL A   1      45.447  36.869  27.306  1.00  0.00     0.127 S 
ATOM     88  O   UNL A   1      46.334  36.408  26.238  1.00  0.00    -0.237 OA
ATOM     89  O   UNL A   1      44.026  36.874  26.959  1.00  0.00    -0.237 OA
ATOM     90  O   UNL A   1      45.893  38.054  28.028  1.00  0.00    -0.744 OA
ENDBRANCH  84  87
ENDBRANCH  57  80
ENDBRANCH  31  32
ENDBRANCH  23  26
ENDBRANCH  21  22
ENDBRANCH  20  21
ENDBRANCH   1  20
TORSDOF 17
ENDMDL
