MODEL 1
REMARK VINA RESULT:     -13.0      0.000      0.000
REMARK SMILES CC(=O)NS(=O)(=O)c1cc(-c2ccn(C(F)F)c(=O)c2)ccc1C(=O)NCCCNC(=O)c1ccc(-c2c3nc(c(-c4cccc(S(=O)(=O)[O-])c4F)c4ccc([nH]4)c(-c4cccc(S(=O)(=O)[O-])c4F)c4nc(c(-c5cccc(S(=O)(=O)[O-])c5F)c5ccc2[nH]5)C=C4)C=C3)cc1
REMARK SMILES IDX 28 1 27 2 26 3 24 4 25 5 23 7 8 8 9 9 10 10 22 11 21 12 5 13
REMARK SMILES IDX 6 14 7 15 4 16 1 17 2 18 3 19 11 21 12 22 20 23 13 24 18 25
REMARK SMILES IDX 14 26 19 27 15 28 16 29 17 30 29 31 30 32 31 33 32 35 33 36
REMARK SMILES IDX 34 37 95 38 35 39 94 40 36 41 37 42 38 43 88 44 39 45 93 46
REMARK SMILES IDX 87 47 89 48 40 49 92 50 86 51 85 52 41 54 73 55 53 56 72 57
REMARK SMILES IDX 54 58 57 59 71 60 90 61 55 62 56 63 70 65 91 66 58 67 42 68
REMARK SMILES IDX 43 69 51 70 44 71 46 72 52 73 45 74 47 75 48 76 49 77 50 78
REMARK SMILES IDX 74 79 75 80 83 81 76 82 78 83 84 84 77 85 79 86 80 87 81 88
REMARK SMILES IDX 82 89 59 90 60 91 68 92 61 93 63 94 69 95 62 96 64 97 65 98
REMARK SMILES IDX 66 99 67 100
REMARK H PARENT 26 6 4 20 30 34 89 53 57 64
REMARK Flexibility Score: inf
ROOT
ATOM      1  C   UNL A   1      31.785  29.003  27.184  1.00  0.00     0.042 C 
ENDROOT
BRANCH   1   2
ATOM      2  C   UNL A   1      31.897  27.487  26.982  1.00  0.00     0.118 C 
BRANCH   2   3
ATOM      3  N   UNL A   1      30.844  26.979  26.121  1.00  0.00    -0.352 N 
ATOM      4  C   UNL A   1      30.673  25.802  25.457  1.00  0.00     0.252 C 
ATOM      5  O   UNL A   1      29.595  25.593  24.897  1.00  0.00    -0.269 OA
ATOM      6  H   UNL A   1      30.103  27.615  25.991  1.00  0.00     0.163 HD
BRANCH   4   7
ATOM      7  C   UNL A   1      31.660  24.700  25.432  1.00  0.00     0.060 A 
ATOM      8  C   UNL A   1      32.711  24.566  24.519  1.00  0.00     0.101 A 
ATOM      9  C   UNL A   1      33.363  23.329  24.377  1.00  0.00     0.031 A 
ATOM     10  C   UNL A   1      32.913  22.198  25.069  1.00  0.00    -0.017 A 
ATOM     11  C   UNL A   1      31.297  23.580  26.211  1.00  0.00     0.016 A 
ATOM     12  C   UNL A   1      31.907  22.336  26.023  1.00  0.00     0.009 A 
BRANCH   8  13
ATOM     13  S   UNL A   1      33.152  25.866  23.408  1.00  0.00     0.264 S 
ATOM     14  O   UNL A   1      33.700  25.209  22.245  1.00  0.00    -0.201 OA
ATOM     15  O   UNL A   1      33.865  26.886  24.139  1.00  0.00    -0.201 OA
BRANCH  13  16
ATOM     16  N   UNL A   1      31.725  26.515  22.883  1.00  0.00    -0.249 N 
ATOM     17  C   UNL A   1      32.340  28.944  22.687  1.00  0.00     0.115 C 
ATOM     18  C   UNL A   1      31.418  27.796  22.409  1.00  0.00     0.230 C 
ATOM     19  O   UNL A   1      30.309  27.969  21.921  1.00  0.00    -0.274 OA
ATOM     20  H   UNL A   1      30.961  25.895  22.908  1.00  0.00     0.183 HD
ENDBRANCH  13  16
ENDBRANCH   8  13
BRANCH  10  21
ATOM     21  C   UNL A   1      33.315  20.875  24.557  1.00  0.00    -0.011 A 
ATOM     22  C   UNL A   1      34.561  20.273  24.996  1.00  0.00     0.027 A 
ATOM     23  C   UNL A   1      32.462  20.151  23.815  1.00  0.00     0.080 A 
ATOM     24  C   UNL A   1      34.818  18.984  24.752  1.00  0.00     0.095 A 
ATOM     25  C   UNL A   1      32.770  18.730  23.475  1.00  0.00     0.255 A 
ATOM     26  N   UNL A   1      33.928  18.210  24.032  1.00  0.00    -0.258 N 
ATOM     27  O   UNL A   1      31.979  18.114  22.767  1.00  0.00    -0.269 OA
BRANCH  26  28
ATOM     28  C   UNL A   1      34.193  16.808  23.825  1.00  0.00     0.451 C 
ATOM     29  F   UNL A   1      33.186  16.042  24.313  1.00  0.00    -0.185 F 
ATOM     30  F   UNL A   1      34.332  16.530  22.506  1.00  0.00    -0.185 F 
ENDBRANCH  26  28
ENDBRANCH  10  21
ENDBRANCH   4   7
ENDBRANCH   2   3
ENDBRANCH   1   2
BRANCH   1  31
ATOM     31  C   UNL A   1      32.538  29.828  26.137  1.00  0.00     0.118 C 
BRANCH  31  32
ATOM     32  N   UNL A   1      32.498  31.245  26.462  1.00  0.00    -0.352 N 
ATOM     33  C   UNL A   1      33.273  31.993  27.311  1.00  0.00     0.251 C 
ATOM     34  H   UNL A   1      31.796  31.753  25.993  1.00  0.00     0.163 HD
ATOM     35  O   UNL A   1      32.866  33.106  27.644  1.00  0.00    -0.269 OA
BRANCH  33  36
ATOM     36  C   UNL A   1      34.583  31.516  27.824  1.00  0.00     0.039 A 
ATOM     37  C   UNL A   1      34.715  30.158  28.143  1.00  0.00     0.014 A 
ATOM     38  C   UNL A   1      35.627  32.394  28.129  1.00  0.00     0.014 A 
ATOM     39  C   UNL A   1      35.882  29.681  28.755  1.00  0.00     0.010 A 
ATOM     40  C   UNL A   1      36.812  31.910  28.696  1.00  0.00     0.010 A 
ATOM     41  C   UNL A   1      36.941  30.555  29.041  1.00  0.00    -0.014 A 
BRANCH  41  42
ATOM     42  C   UNL A   1      38.152  30.084  29.765  1.00  0.00     0.031 A 
ATOM     43  C   UNL A   1      38.413  30.540  31.178  1.00  0.00     0.074 A 
ATOM     44  C   UNL A   1      39.046  29.282  29.153  1.00  0.00     0.049 A 
ATOM     45  N   UNL A   1      39.441  30.294  31.948  1.00  0.00    -0.248 NA
ATOM     46  C   UNL A   1      37.389  31.396  31.801  1.00  0.00     0.031 C 
ATOM     47  C   UNL A   1      38.945  28.797  27.777  1.00  0.00     0.029 A 
ATOM     48  N   UNL A   1      40.226  28.749  29.610  1.00  0.00    -0.354 N 
ATOM     49  C   UNL A   1      39.220  31.009  33.119  1.00  0.00     0.074 A 
ATOM     50  C   UNL A   1      37.955  31.694  32.962  1.00  0.00     0.031 C 
ATOM     51  C   UNL A   1      40.014  28.031  27.504  1.00  0.00     0.029 A 
ATOM     52  C   UNL A   1      40.884  27.983  28.677  1.00  0.00     0.049 A 
ATOM     53  H   UNL A   1      40.569  28.900  30.520  1.00  0.00     0.167 HD
ATOM     54  C   UNL A   1      39.983  31.072  34.235  1.00  0.00     0.034 A 
ATOM     55  C   UNL A   1      42.050  27.312  28.758  1.00  0.00     0.034 A 
ATOM     56  C   UNL A   1      41.193  30.325  34.443  1.00  0.00     0.049 A 
ATOM     57  C   UNL A   1      42.836  27.330  30.040  1.00  0.00     0.074 A 
ATOM     58  C   UNL A   1      41.988  30.273  35.574  1.00  0.00     0.029 A 
ATOM     59  N   UNL A   1      41.769  29.483  33.507  1.00  0.00    -0.354 N 
ATOM     60  N   UNL A   1      42.548  27.920  31.173  1.00  0.00    -0.248 NA
ATOM     61  C   UNL A   1      44.094  26.568  30.062  1.00  0.00     0.031 C 
ATOM     62  C   UNL A   1      43.037  29.378  35.330  1.00  0.00     0.029 A 
ATOM     63  C   UNL A   1      42.905  28.895  34.038  1.00  0.00     0.049 A 
ATOM     64  H   UNL A   1      41.424  29.325  32.599  1.00  0.00     0.167 HD
ATOM     65  C   UNL A   1      43.577  27.587  32.048  1.00  0.00     0.074 A 
ATOM     66  C   UNL A   1      44.486  26.726  31.320  1.00  0.00     0.031 C 
ATOM     67  C   UNL A   1      43.763  27.982  33.330  1.00  0.00     0.034 A 
BRANCH  54  68
ATOM     68  C   UNL A   1      39.484  31.930  35.362  1.00  0.00     0.023 A 
ATOM     69  C   UNL A   1      38.596  31.373  36.301  1.00  0.00     0.012 A 
ATOM     70  C   UNL A   1      39.920  33.258  35.520  1.00  0.00     0.148 A 
ATOM     71  C   UNL A   1      38.138  32.132  37.378  1.00  0.00     0.002 A 
ATOM     72  C   UNL A   1      39.472  34.003  36.608  1.00  0.00     0.091 A 
ATOM     73  F   UNL A   1      40.742  33.786  34.600  1.00  0.00    -0.205 F 
ATOM     74  C   UNL A   1      38.581  33.443  37.536  1.00  0.00     0.022 A 
BRANCH  72  75
ATOM     75  S   UNL A   1      40.051  35.683  36.863  1.00  0.00     0.127 S 
ATOM     76  O   UNL A   1      41.496  35.496  36.965  1.00  0.00    -0.237 OA
ATOM     77  O   UNL A   1      39.615  36.371  35.646  1.00  0.00    -0.237 OA
ATOM     78  O   UNL A   1      39.368  36.125  38.072  1.00  0.00    -0.744 OA
ENDBRANCH  72  75
ENDBRANCH  54  68
BRANCH  55  79
ATOM     79  C   UNL A   1      42.499  26.483  27.606  1.00  0.00     0.023 A 
ATOM     80  C   UNL A   1      43.393  27.044  26.675  1.00  0.00     0.012 A 
ATOM     81  C   UNL A   1      42.091  25.148  27.450  1.00  0.00     0.148 A 
ATOM     82  C   UNL A   1      43.866  26.289  25.601  1.00  0.00     0.002 A 
ATOM     83  C   UNL A   1      42.595  24.390  26.397  1.00  0.00     0.091 A 
ATOM     84  F   UNL A   1      41.223  24.630  28.332  1.00  0.00    -0.205 F 
ATOM     85  C   UNL A   1      43.476  24.959  25.467  1.00  0.00     0.022 A 
BRANCH  83  86
ATOM     86  S   UNL A   1      42.190  22.645  26.267  1.00  0.00     0.127 S 
ATOM     87  O   UNL A   1      40.733  22.669  26.195  1.00  0.00    -0.237 OA
ATOM     88  O   UNL A   1      42.857  22.244  25.027  1.00  0.00    -0.237 OA
ATOM     89  O   UNL A   1      42.776  22.061  27.468  1.00  0.00    -0.744 OA
ENDBRANCH  83  86
ENDBRANCH  55  79
BRANCH  67  90
ATOM     90  C   UNL A   1      44.990  27.492  34.043  1.00  0.00     0.023 A 
ATOM     91  C   UNL A   1      46.160  28.275  34.001  1.00  0.00     0.012 A 
ATOM     92  C   UNL A   1      44.969  26.319  34.818  1.00  0.00     0.148 A 
ATOM     93  C   UNL A   1      47.293  27.892  34.717  1.00  0.00     0.002 A 
ATOM     94  C   UNL A   1      46.099  25.955  35.547  1.00  0.00     0.091 A 
ATOM     95  F   UNL A   1      43.856  25.570  34.834  1.00  0.00    -0.205 F 
ATOM     96  C   UNL A   1      47.262  26.739  35.497  1.00  0.00     0.022 A 
BRANCH  94  97
ATOM     97  S   UNL A   1      46.066  24.507  36.610  1.00  0.00     0.127 S 
ATOM     98  O   UNL A   1      47.400  24.530  37.204  1.00  0.00    -0.237 OA
ATOM     99  O   UNL A   1      44.981  24.806  37.546  1.00  0.00    -0.237 OA
ATOM    100  O   UNL A   1      45.781  23.400  35.706  1.00  0.00    -0.744 OA
ENDBRANCH  94  97
ENDBRANCH  67  90
ENDBRANCH  41  42
ENDBRANCH  33  36
ENDBRANCH  31  32
ENDBRANCH   1  31
TORSDOF 17
ENDMDL
MODEL 2
REMARK VINA RESULT:     -12.9      5.197     10.389
REMARK SMILES CC(=O)NS(=O)(=O)c1cc(-c2ccn(C(F)F)c(=O)c2)ccc1C(=O)NCCCNC(=O)c1ccc(-c2c3nc(c(-c4cccc(S(=O)(=O)[O-])c4F)c4ccc([nH]4)c(-c4cccc(S(=O)(=O)[O-])c4F)c4nc(c(-c5cccc(S(=O)(=O)[O-])c5F)c5ccc2[nH]5)C=C4)C=C3)cc1
REMARK SMILES IDX 28 1 27 2 26 3 24 4 25 5 23 7 8 8 9 9 10 10 22 11 21 12 5 13
REMARK SMILES IDX 6 14 7 15 4 16 1 17 2 18 3 19 11 21 12 22 20 23 13 24 18 25
REMARK SMILES IDX 14 26 19 27 15 28 16 29 17 30 29 31 30 32 31 33 32 35 33 36
REMARK SMILES IDX 34 37 95 38 35 39 94 40 36 41 37 42 38 43 88 44 39 45 93 46
REMARK SMILES IDX 87 47 89 48 40 49 92 50 86 51 85 52 41 54 73 55 53 56 72 57
REMARK SMILES IDX 54 58 57 59 71 60 90 61 55 62 56 63 70 65 91 66 58 67 42 68
REMARK SMILES IDX 43 69 51 70 44 71 46 72 52 73 45 74 47 75 48 76 49 77 50 78
REMARK SMILES IDX 74 79 75 80 83 81 76 82 78 83 84 84 77 85 79 86 80 87 81 88
REMARK SMILES IDX 82 89 59 90 60 91 68 92 61 93 63 94 69 95 62 96 64 97 65 98
REMARK SMILES IDX 66 99 67 100
REMARK H PARENT 26 6 4 20 30 34 89 53 57 64
REMARK Flexibility Score: inf
ROOT
ATOM      1  C   UNL A   1      36.907  22.103  23.983  1.00  0.00     0.042 C 
ENDROOT
BRANCH   1   2
ATOM      2  C   UNL A   1      35.934  23.228  23.607  1.00  0.00     0.118 C 
BRANCH   2   3
ATOM      3  N   UNL A   1      34.675  22.706  23.108  1.00  0.00    -0.352 N 
ATOM      4  C   UNL A   1      33.443  23.261  22.933  1.00  0.00     0.252 C 
ATOM      5  O   UNL A   1      32.578  22.602  22.353  1.00  0.00    -0.269 OA
ATOM      6  H   UNL A   1      34.721  21.759  22.841  1.00  0.00     0.163 HD
BRANCH   4   7
ATOM      7  C   UNL A   1      33.084  24.646  23.309  1.00  0.00     0.060 A 
ATOM      8  C   UNL A   1      32.571  25.050  24.546  1.00  0.00     0.101 A 
ATOM      9  C   UNL A   1      31.955  26.306  24.673  1.00  0.00     0.031 A 
ATOM     10  C   UNL A   1      31.760  27.126  23.555  1.00  0.00    -0.017 A 
ATOM     11  C   UNL A   1      32.988  25.536  22.217  1.00  0.00     0.016 A 
ATOM     12  C   UNL A   1      32.321  26.759  22.333  1.00  0.00     0.009 A 
BRANCH   8  13
ATOM     13  S   UNL A   1      32.523  23.960  25.935  1.00  0.00     0.264 S 
ATOM     14  O   UNL A   1      31.421  24.421  26.747  1.00  0.00    -0.201 OA
ATOM     15  O   UNL A   1      33.862  23.800  26.451  1.00  0.00    -0.201 OA
BRANCH  13  16
ATOM     16  N   UNL A   1      32.021  22.500  25.347  1.00  0.00    -0.249 N 
ATOM     17  C   UNL A   1      33.732  20.958  26.355  1.00  0.00     0.115 C 
ATOM     18  C   UNL A   1      32.426  21.196  25.658  1.00  0.00     0.230 C 
ATOM     19  O   UNL A   1      31.770  20.273  25.195  1.00  0.00    -0.274 OA
ATOM     20  H   UNL A   1      31.318  22.555  24.661  1.00  0.00     0.183 HD
ENDBRANCH  13  16
ENDBRANCH   8  13
BRANCH  10  21
ATOM     21  C   UNL A   1      30.738  28.183  23.647  1.00  0.00    -0.011 A 
ATOM     22  C   UNL A   1      31.024  29.413  24.365  1.00  0.00     0.027 A 
ATOM     23  C   UNL A   1      29.602  28.088  22.937  1.00  0.00     0.080 A 
ATOM     24  C   UNL A   1      30.222  30.475  24.245  1.00  0.00     0.095 A 
ATOM     25  C   UNL A   1      28.661  29.245  22.852  1.00  0.00     0.255 A 
ATOM     26  N   UNL A   1      29.075  30.411  23.479  1.00  0.00    -0.258 N 
ATOM     27  O   UNL A   1      27.619  29.105  22.221  1.00  0.00    -0.269 OA
BRANCH  26  28
ATOM     28  C   UNL A   1      28.249  31.581  23.314  1.00  0.00     0.451 C 
ATOM     29  F   UNL A   1      27.215  31.579  24.191  1.00  0.00    -0.185 F 
ATOM     30  F   UNL A   1      28.966  32.713  23.513  1.00  0.00    -0.185 F 
ENDBRANCH  26  28
ENDBRANCH  10  21
ENDBRANCH   4   7
ENDBRANCH   2   3
ENDBRANCH   1   2
BRANCH   1  31
ATOM     31  C   UNL A   1      36.884  21.729  25.468  1.00  0.00     0.118 C 
BRANCH  31  32
ATOM     32  N   UNL A   1      37.953  20.797  25.788  1.00  0.00    -0.352 N 
ATOM     33  C   UNL A   1      39.250  21.018  26.174  1.00  0.00     0.251 C 
ATOM     34  H   UNL A   1      37.703  19.847  25.714  1.00  0.00     0.163 HD
ATOM     35  O   UNL A   1      40.047  20.082  26.103  1.00  0.00    -0.269 OA
BRANCH  33  36
ATOM     36  C   UNL A   1      39.718  22.331  26.687  1.00  0.00     0.039 A 
ATOM     37  C   UNL A   1      39.177  23.494  26.122  1.00  0.00     0.014 A 
ATOM     38  C   UNL A   1      40.768  22.442  27.602  1.00  0.00     0.014 A 
ATOM     39  C   UNL A   1      39.678  24.755  26.472  1.00  0.00     0.010 A 
ATOM     40  C   UNL A   1      41.237  23.703  27.989  1.00  0.00     0.010 A 
ATOM     41  C   UNL A   1      40.717  24.870  27.407  1.00  0.00    -0.014 A 
BRANCH  41  42
ATOM     42  C   UNL A   1      41.317  26.193  27.729  1.00  0.00     0.031 A 
ATOM     43  C   UNL A   1      42.717  26.518  27.273  1.00  0.00     0.074 A 
ATOM     44  C   UNL A   1      40.635  27.093  28.464  1.00  0.00     0.049 A 
ATOM     45  N   UNL A   1      43.436  27.585  27.511  1.00  0.00    -0.248 NA
ATOM     46  C   UNL A   1      43.403  25.504  26.454  1.00  0.00     0.031 C 
ATOM     47  C   UNL A   1      39.291  26.899  29.007  1.00  0.00     0.029 A 
ATOM     48  N   UNL A   1      40.991  28.348  28.894  1.00  0.00    -0.354 N 
ATOM     49  C   UNL A   1      44.673  27.349  26.926  1.00  0.00     0.074 A 
ATOM     50  C   UNL A   1      44.608  26.039  26.314  1.00  0.00     0.031 C 
ATOM     51  C   UNL A   1      38.932  27.997  29.691  1.00  0.00     0.029 A 
ATOM     52  C   UNL A   1      40.024  28.968  29.650  1.00  0.00     0.049 A 
ATOM     53  H   UNL A   1      41.857  28.765  28.680  1.00  0.00     0.167 HD
ATOM     54  C   UNL A   1      45.759  28.155  26.877  1.00  0.00     0.034 A 
ATOM     55  C   UNL A   1      40.014  30.181  30.237  1.00  0.00     0.034 A 
ATOM     56  C   UNL A   1      45.809  29.494  27.396  1.00  0.00     0.049 A 
ATOM     57  C   UNL A   1      41.202  31.091  30.094  1.00  0.00     0.074 A 
ATOM     58  C   UNL A   1      46.846  30.407  27.322  1.00  0.00     0.029 A 
ATOM     59  N   UNL A   1      44.771  30.118  28.067  1.00  0.00    -0.354 N 
ATOM     60  N   UNL A   1      42.317  30.891  29.437  1.00  0.00    -0.248 NA
ATOM     61  C   UNL A   1      41.119  32.405  30.751  1.00  0.00     0.031 C 
ATOM     62  C   UNL A   1      46.425  31.597  27.930  1.00  0.00     0.029 A 
ATOM     63  C   UNL A   1      45.136  31.411  28.402  1.00  0.00     0.049 A 
ATOM     64  H   UNL A   1      43.903  29.704  28.275  1.00  0.00     0.167 HD
ATOM     65  C   UNL A   1      43.061  32.057  29.585  1.00  0.00     0.074 A 
ATOM     66  C   UNL A   1      42.261  32.968  30.378  1.00  0.00     0.031 C 
ATOM     67  C   UNL A   1      44.305  32.335  29.127  1.00  0.00     0.034 A 
BRANCH  54  68
ATOM     68  C   UNL A   1      46.972  27.633  26.160  1.00  0.00     0.023 A 
ATOM     69  C   UNL A   1      47.119  27.901  24.786  1.00  0.00     0.012 A 
ATOM     70  C   UNL A   1      47.978  26.925  26.841  1.00  0.00     0.148 A 
ATOM     71  C   UNL A   1      48.247  27.458  24.096  1.00  0.00     0.002 A 
ATOM     72  C   UNL A   1      49.110  26.504  26.149  1.00  0.00     0.091 A 
ATOM     73  F   UNL A   1      47.810  26.651  28.144  1.00  0.00    -0.205 F 
ATOM     74  C   UNL A   1      49.246  26.768  24.778  1.00  0.00     0.022 A 
BRANCH  72  75
ATOM     75  S   UNL A   1      50.433  25.643  27.004  1.00  0.00     0.127 S 
ATOM     76  O   UNL A   1      51.406  25.438  25.934  1.00  0.00    -0.237 OA
ATOM     77  O   UNL A   1      50.851  26.608  28.024  1.00  0.00    -0.237 OA
ATOM     78  O   UNL A   1      49.802  24.445  27.543  1.00  0.00    -0.744 OA
ENDBRANCH  72  75
ENDBRANCH  54  68
BRANCH  55  79
ATOM     79  C   UNL A   1      38.786  30.643  30.940  1.00  0.00     0.023 A 
ATOM     80  C   UNL A   1      38.702  30.478  32.336  1.00  0.00     0.012 A 
ATOM     81  C   UNL A   1      37.735  31.277  30.258  1.00  0.00     0.148 A 
ATOM     82  C   UNL A   1      37.585  30.929  33.038  1.00  0.00     0.002 A 
ATOM     83  C   UNL A   1      36.639  31.758  30.970  1.00  0.00     0.091 A 
ATOM     84  F   UNL A   1      37.816  31.410  28.926  1.00  0.00    -0.205 F 
ATOM     85  C   UNL A   1      36.557  31.579  32.358  1.00  0.00     0.022 A 
BRANCH  83  86
ATOM     86  S   UNL A   1      35.356  32.691  30.129  1.00  0.00     0.127 S 
ATOM     87  O   UNL A   1      36.101  33.820  29.583  1.00  0.00    -0.237 OA
ATOM     88  O   UNL A   1      34.861  31.743  29.129  1.00  0.00    -0.237 OA
ATOM     89  O   UNL A   1      34.395  32.991  31.185  1.00  0.00    -0.744 OA
ENDBRANCH  83  86
ENDBRANCH  55  79
BRANCH  67  90
ATOM     90  C   UNL A   1      44.890  33.676  29.461  1.00  0.00     0.023 A 
ATOM     91  C   UNL A   1      45.731  33.793  30.584  1.00  0.00     0.012 A 
ATOM     92  C   UNL A   1      44.688  34.793  28.630  1.00  0.00     0.148 A 
ATOM     93  C   UNL A   1      46.356  35.003  30.879  1.00  0.00     0.002 A 
ATOM     94  C   UNL A   1      45.333  35.993  28.919  1.00  0.00     0.091 A 
ATOM     95  F   UNL A   1      43.868  34.677  27.574  1.00  0.00    -0.205 F 
ATOM     96  C   UNL A   1      46.166  36.101  30.042  1.00  0.00     0.022 A 
BRANCH  94  97
ATOM     97  S   UNL A   1      45.155  37.406  27.824  1.00  0.00     0.127 S 
ATOM     98  O   UNL A   1      45.909  38.439  28.529  1.00  0.00    -0.237 OA
ATOM     99  O   UNL A   1      45.776  36.945  26.581  1.00  0.00    -0.237 OA
ATOM    100  O   UNL A   1      43.715  37.611  27.727  1.00  0.00    -0.744 OA
ENDBRANCH  94  97
ENDBRANCH  67  90
ENDBRANCH  41  42
ENDBRANCH  33  36
ENDBRANCH  31  32
ENDBRANCH   1  31
TORSDOF 17
ENDMDL
MODEL 3
REMARK VINA RESULT:     -12.8      5.155     10.139
REMARK SMILES CC(=O)NS(=O)(=O)c1cc(-c2ccn(C(F)F)c(=O)c2)ccc1C(=O)NCCCNC(=O)c1ccc(-c2c3nc(c(-c4cccc(S(=O)(=O)[O-])c4F)c4ccc([nH]4)c(-c4cccc(S(=O)(=O)[O-])c4F)c4nc(c(-c5cccc(S(=O)(=O)[O-])c5F)c5ccc2[nH]5)C=C4)C=C3)cc1
REMARK SMILES IDX 28 1 27 2 26 3 24 4 25 5 23 7 8 8 9 9 10 10 22 11 21 12 5 13
REMARK SMILES IDX 6 14 7 15 4 16 1 17 2 18 3 19 11 21 12 22 20 23 13 24 18 25
REMARK SMILES IDX 14 26 19 27 15 28 16 29 17 30 29 31 30 32 31 33 32 35 33 36
REMARK SMILES IDX 34 37 95 38 35 39 94 40 36 41 37 42 38 43 88 44 39 45 93 46
REMARK SMILES IDX 87 47 89 48 40 49 92 50 86 51 85 52 41 54 73 55 53 56 72 57
REMARK SMILES IDX 54 58 57 59 71 60 90 61 55 62 56 63 70 65 91 66 58 67 42 68
REMARK SMILES IDX 43 69 51 70 44 71 46 72 52 73 45 74 47 75 48 76 49 77 50 78
REMARK SMILES IDX 74 79 75 80 83 81 76 82 78 83 84 84 77 85 79 86 80 87 81 88
REMARK SMILES IDX 82 89 59 90 60 91 68 92 61 93 63 94 69 95 62 96 64 97 65 98
REMARK SMILES IDX 66 99 67 100
REMARK H PARENT 26 6 4 20 30 34 89 53 57 64
REMARK Flexibility Score: inf
ROOT
ATOM      1  C   UNL A   1      37.044  22.303  23.995  1.00  0.00     0.042 C 
ENDROOT
BRANCH   1   2
ATOM      2  C   UNL A   1      36.053  23.408  23.608  1.00  0.00     0.118 C 
BRANCH   2   3
ATOM      3  N   UNL A   1      34.795  22.861  23.135  1.00  0.00    -0.352 N 
ATOM      4  C   UNL A   1      33.561  23.403  22.939  1.00  0.00     0.252 C 
ATOM      5  O   UNL A   1      32.697  22.717  22.389  1.00  0.00    -0.269 OA
ATOM      6  H   UNL A   1      34.844  21.903  22.909  1.00  0.00     0.163 HD
BRANCH   4   7
ATOM      7  C   UNL A   1      33.198  24.802  23.255  1.00  0.00     0.060 A 
ATOM      8  C   UNL A   1      32.654  25.252  24.463  1.00  0.00     0.101 A 
ATOM      9  C   UNL A   1      32.040  26.514  24.529  1.00  0.00     0.031 A 
ATOM     10  C   UNL A   1      31.878  27.293  23.377  1.00  0.00    -0.017 A 
ATOM     11  C   UNL A   1      33.134  25.653  22.129  1.00  0.00     0.016 A 
ATOM     12  C   UNL A   1      32.468  26.881  22.184  1.00  0.00     0.009 A 
BRANCH   8  13
ATOM     13  S   UNL A   1      32.566  24.213  25.889  1.00  0.00     0.264 S 
ATOM     14  O   UNL A   1      31.467  24.726  26.671  1.00  0.00    -0.201 OA
ATOM     15  O   UNL A   1      33.895  24.040  26.425  1.00  0.00    -0.201 OA
BRANCH  13  16
ATOM     16  N   UNL A   1      32.037  22.744  25.346  1.00  0.00    -0.249 N 
ATOM     17  C   UNL A   1      33.610  21.190  26.542  1.00  0.00     0.115 C 
ATOM     18  C   UNL A   1      32.362  21.444  25.750  1.00  0.00     0.230 C 
ATOM     19  O   UNL A   1      31.695  20.525  25.294  1.00  0.00    -0.274 OA
ATOM     20  H   UNL A   1      31.382  22.791  24.613  1.00  0.00     0.183 HD
ENDBRANCH  13  16
ENDBRANCH   8  13
BRANCH  10  21
ATOM     21  C   UNL A   1      30.857  28.356  23.405  1.00  0.00    -0.011 A 
ATOM     22  C   UNL A   1      30.911  29.391  24.423  1.00  0.00     0.027 A 
ATOM     23  C   UNL A   1      29.972  28.469  22.402  1.00  0.00     0.080 A 
ATOM     24  C   UNL A   1      30.163  30.493  24.315  1.00  0.00     0.095 A 
ATOM     25  C   UNL A   1      29.079  29.662  22.308  1.00  0.00     0.255 A 
ATOM     26  N   UNL A   1      29.282  30.648  23.262  1.00  0.00    -0.258 N 
ATOM     27  O   UNL A   1      28.262  29.710  21.395  1.00  0.00    -0.269 OA
BRANCH  26  28
ATOM     28  C   UNL A   1      28.522  31.866  23.129  1.00  0.00     0.451 C 
ATOM     29  F   UNL A   1      27.312  31.757  23.731  1.00  0.00    -0.185 F 
ATOM     30  F   UNL A   1      29.178  32.911  23.690  1.00  0.00    -0.185 F 
ENDBRANCH  26  28
ENDBRANCH  10  21
ENDBRANCH   4   7
ENDBRANCH   2   3
ENDBRANCH   1   2
BRANCH   1  31
ATOM     31  C   UNL A   1      37.012  21.928  25.479  1.00  0.00     0.118 C 
BRANCH  31  32
ATOM     32  N   UNL A   1      38.095  21.017  25.811  1.00  0.00    -0.352 N 
ATOM     33  C   UNL A   1      39.376  21.264  26.235  1.00  0.00     0.251 C 
ATOM     34  H   UNL A   1      37.872  20.063  25.715  1.00  0.00     0.163 HD
ATOM     35  O   UNL A   1      40.199  20.350  26.169  1.00  0.00    -0.269 OA
BRANCH  33  36
ATOM     36  C   UNL A   1      39.797  22.579  26.783  1.00  0.00     0.039 A 
ATOM     37  C   UNL A   1      39.284  23.739  26.187  1.00  0.00     0.014 A 
ATOM     38  C   UNL A   1      40.783  22.695  27.766  1.00  0.00     0.014 A 
ATOM     39  C   UNL A   1      39.748  25.003  26.575  1.00  0.00     0.010 A 
ATOM     40  C   UNL A   1      41.213  23.959  28.188  1.00  0.00     0.010 A 
ATOM     41  C   UNL A   1      40.722  25.124  27.577  1.00  0.00    -0.014 A 
BRANCH  41  42
ATOM     42  C   UNL A   1      41.287  26.451  27.943  1.00  0.00     0.031 A 
ATOM     43  C   UNL A   1      42.702  26.801  27.558  1.00  0.00     0.074 A 
ATOM     44  C   UNL A   1      40.558  27.332  28.655  1.00  0.00     0.049 A 
ATOM     45  N   UNL A   1      43.394  27.874  27.843  1.00  0.00    -0.248 NA
ATOM     46  C   UNL A   1      43.441  25.807  26.761  1.00  0.00     0.031 C 
ATOM     47  C   UNL A   1      39.193  27.112  29.131  1.00  0.00     0.029 A 
ATOM     48  N   UNL A   1      40.875  28.586  29.117  1.00  0.00    -0.354 N 
ATOM     49  C   UNL A   1      44.661  27.663  27.314  1.00  0.00     0.074 A 
ATOM     50  C   UNL A   1      44.643  26.360  26.684  1.00  0.00     0.031 C 
ATOM     51  C   UNL A   1      38.786  28.197  29.811  1.00  0.00     0.029 A 
ATOM     52  C   UNL A   1      39.865  29.183  29.833  1.00  0.00     0.049 A 
ATOM     53  H   UNL A   1      41.744  29.018  28.950  1.00  0.00     0.167 HD
ATOM     54  C   UNL A   1      45.736  28.484  27.327  1.00  0.00     0.034 A 
ATOM     55  C   UNL A   1      39.809  30.388  30.433  1.00  0.00     0.034 A 
ATOM     56  C   UNL A   1      45.742  29.817  27.864  1.00  0.00     0.049 A 
ATOM     57  C   UNL A   1      40.990  31.317  30.358  1.00  0.00     0.074 A 
ATOM     58  C   UNL A   1      46.768  30.746  27.850  1.00  0.00     0.029 A 
ATOM     59  N   UNL A   1      44.665  30.418  28.492  1.00  0.00    -0.354 N 
ATOM     60  N   UNL A   1      42.137  31.140  29.752  1.00  0.00    -0.248 NA
ATOM     61  C   UNL A   1      40.857  32.621  31.025  1.00  0.00     0.031 C 
ATOM     62  C   UNL A   1      46.302  31.921  28.451  1.00  0.00     0.029 A 
ATOM     63  C   UNL A   1      44.994  31.712  28.860  1.00  0.00     0.049 A 
ATOM     64  H   UNL A   1      43.793  29.990  28.653  1.00  0.00     0.167 HD
ATOM     65  C   UNL A   1      42.856  32.314  29.950  1.00  0.00     0.074 A 
ATOM     66  C   UNL A   1      42.007  33.205  30.714  1.00  0.00     0.031 C 
ATOM     67  C   UNL A   1      44.117  32.615  29.555  1.00  0.00     0.034 A 
BRANCH  54  68
ATOM     68  C   UNL A   1      46.989  27.988  26.662  1.00  0.00     0.023 A 
ATOM     69  C   UNL A   1      48.010  27.436  27.458  1.00  0.00     0.012 A 
ATOM     70  C   UNL A   1      47.141  28.026  25.265  1.00  0.00     0.148 A 
ATOM     71  C   UNL A   1      49.172  26.937  26.871  1.00  0.00     0.002 A 
ATOM     72  C   UNL A   1      48.296  27.509  24.686  1.00  0.00     0.091 A 
ATOM     73  F   UNL A   1      46.173  28.583  24.521  1.00  0.00    -0.205 F 
ATOM     74  C   UNL A   1      49.313  26.966  25.486  1.00  0.00     0.022 A 
BRANCH  72  75
ATOM     75  S   UNL A   1      48.496  27.497  22.901  1.00  0.00     0.127 S 
ATOM     76  O   UNL A   1      49.805  28.122  22.736  1.00  0.00    -0.237 OA
ATOM     77  O   UNL A   1      48.462  26.069  22.575  1.00  0.00    -0.237 OA
ATOM     78  O   UNL A   1      47.351  28.247  22.401  1.00  0.00    -0.744 OA
ENDBRANCH  72  75
ENDBRANCH  54  68
BRANCH  55  79
ATOM     79  C   UNL A   1      38.543  30.824  31.083  1.00  0.00     0.023 A 
ATOM     80  C   UNL A   1      38.390  30.628  32.468  1.00  0.00     0.012 A 
ATOM     81  C   UNL A   1      37.522  31.464  30.362  1.00  0.00     0.148 A 
ATOM     82  C   UNL A   1      37.234  31.055  33.122  1.00  0.00     0.002 A 
ATOM     83  C   UNL A   1      36.387  31.920  31.027  1.00  0.00     0.091 A 
ATOM     84  F   UNL A   1      37.669  31.628  29.039  1.00  0.00    -0.205 F 
ATOM     85  C   UNL A   1      36.236  31.710  32.405  1.00  0.00     0.022 A 
BRANCH  83  86
ATOM     86  S   UNL A   1      35.139  32.861  30.142  1.00  0.00     0.127 S 
ATOM     87  O   UNL A   1      35.914  33.975  29.604  1.00  0.00    -0.237 OA
ATOM     88  O   UNL A   1      34.659  31.909  29.139  1.00  0.00    -0.237 OA
ATOM     89  O   UNL A   1      34.154  33.185  31.168  1.00  0.00    -0.744 OA
ENDBRANCH  83  86
ENDBRANCH  55  79
BRANCH  67  90
ATOM     90  C   UNL A   1      44.666  33.960  29.932  1.00  0.00     0.023 A 
ATOM     91  C   UNL A   1      44.403  35.062  29.095  1.00  0.00     0.012 A 
ATOM     92  C   UNL A   1      45.358  34.159  31.140  1.00  0.00     0.148 A 
ATOM     93  C   UNL A   1      44.828  36.341  29.454  1.00  0.00     0.002 A 
ATOM     94  C   UNL A   1      45.760  35.442  31.501  1.00  0.00     0.091 A 
ATOM     95  F   UNL A   1      45.621  33.099  31.919  1.00  0.00    -0.205 F 
ATOM     96  C   UNL A   1      45.497  36.534  30.660  1.00  0.00     0.022 A 
BRANCH  94  97
ATOM     97  S   UNL A   1      46.570  35.730  33.078  1.00  0.00     0.127 S 
ATOM     98  O   UNL A   1      47.689  34.792  33.026  1.00  0.00    -0.237 OA
ATOM     99  O   UNL A   1      46.959  37.139  33.001  1.00  0.00    -0.237 OA
ATOM    100  O   UNL A   1      45.540  35.453  34.072  1.00  0.00    -0.744 OA
ENDBRANCH  94  97
ENDBRANCH  67  90
ENDBRANCH  41  42
ENDBRANCH  33  36
ENDBRANCH  31  32
ENDBRANCH   1  31
TORSDOF 17
ENDMDL
