MODEL 1
REMARK VINA RESULT:     -11.4      0.000      0.000
REMARK SMILES O=C(NCCCNC(=O)c1cccc(S(=O)(=O)Cc2cccc(O)c2)c1)c1ccc(-c2c3nc(c(-c4cccc(S(=O)(=O)[O-])c4F)c4ccc([nH]4)c(-c4cccc(S(=O)(=O)[O-])c4F)c4nc(c(-c5cccc(S(=O)(=O)[O-])c5F)c5ccc2[nH]5)C=C4)C=C3)cc1
REMARK SMILES IDX 5 1 4 2 3 3 1 4 2 5 27 7 28 8 89 9 29 10 88 11 30 12 31 13
REMARK SMILES IDX 32 14 82 15 33 16 87 17 81 18 83 19 34 20 86 21 80 22 79 23
REMARK SMILES IDX 35 25 67 26 47 27 66 28 48 29 51 30 65 31 84 32 49 33 50 34
REMARK SMILES IDX 64 36 85 37 52 38 36 39 37 40 45 41 38 42 40 43 46 44 39 45
REMARK SMILES IDX 41 46 42 47 43 48 44 49 68 50 69 51 77 52 70 53 72 54 78 55
REMARK SMILES IDX 71 56 73 57 74 58 75 59 76 60 53 61 54 62 62 63 55 64 57 65
REMARK SMILES IDX 63 66 56 67 58 68 59 69 60 70 61 71 6 72 7 73 8 74 9 76
REMARK SMILES IDX 10 77 11 78 26 79 12 80 14 81 13 82 15 83 16 84 17 85 18 86
REMARK SMILES IDX 19 87 20 88 25 89 21 90 23 91 22 92 24 93
REMARK H PARENT 3 6 83 24 51 35 7 75 24 94
REMARK Flexibility Score: inf
ROOT
ATOM      1  C   UNL A   1      35.632  33.381  28.247  1.00  0.00     0.042 C 
ENDROOT
BRANCH   1   2
ATOM      2  C   UNL A   1      34.365  32.684  28.706  1.00  0.00     0.118 C 
BRANCH   2   3
ATOM      3  N   UNL A   1      33.855  31.707  27.751  1.00  0.00    -0.352 N 
ATOM      4  O   UNL A   1      33.787  29.859  26.461  1.00  0.00    -0.269 OA
ATOM      5  C   UNL A   1      34.376  30.509  27.322  1.00  0.00     0.251 C 
ATOM      6  H   UNL A   1      32.990  31.946  27.344  1.00  0.00     0.163 HD
BRANCH   5   7
ATOM      7  C   UNL A   1      35.660  30.018  27.859  1.00  0.00     0.039 A 
ATOM      8  C   UNL A   1      35.728  29.428  29.120  1.00  0.00     0.014 A 
ATOM      9  C   UNL A   1      36.816  30.145  27.082  1.00  0.00     0.014 A 
ATOM     10  C   UNL A   1      36.964  29.141  29.680  1.00  0.00     0.010 A 
ATOM     11  C   UNL A   1      38.048  29.737  27.600  1.00  0.00     0.010 A 
ATOM     12  C   UNL A   1      38.137  29.265  28.917  1.00  0.00    -0.014 A 
BRANCH  12  13
ATOM     13  C   UNL A   1      39.417  28.789  29.496  1.00  0.00     0.031 A 
ATOM     14  C   UNL A   1      39.995  29.397  30.741  1.00  0.00     0.074 A 
ATOM     15  C   UNL A   1      40.051  27.774  28.873  1.00  0.00     0.049 A 
ATOM     16  N   UNL A   1      41.079  29.057  31.389  1.00  0.00    -0.248 NA
ATOM     17  C   UNL A   1      39.277  30.537  31.334  1.00  0.00     0.031 C 
ATOM     18  C   UNL A   1      39.604  27.145  27.626  1.00  0.00     0.029 A 
ATOM     19  N   UNL A   1      41.192  27.089  29.199  1.00  0.00    -0.354 N 
ATOM     20  C   UNL A   1      41.198  29.960  32.439  1.00  0.00     0.074 A 
ATOM     21  C   UNL A   1      40.078  30.870  32.339  1.00  0.00     0.031 C 
ATOM     22  C   UNL A   1      40.436  26.142  27.315  1.00  0.00     0.029 A 
ATOM     23  C   UNL A   1      41.508  26.097  28.300  1.00  0.00     0.049 A 
ATOM     24  H   UNL A   1      41.732  27.287  29.998  1.00  0.00     0.167 HD
ATOM     25  C   UNL A   1      42.149  30.013  33.403  1.00  0.00     0.034 A 
ATOM     26  C   UNL A   1      42.555  25.255  28.259  1.00  0.00     0.034 A 
ATOM     27  C   UNL A   1      43.241  29.081  33.510  1.00  0.00     0.049 A 
ATOM     28  C   UNL A   1      43.575  25.320  29.357  1.00  0.00     0.074 A 
ATOM     29  C   UNL A   1      44.219  29.009  34.486  1.00  0.00     0.029 A 
ATOM     30  N   UNL A   1      43.508  28.063  32.604  1.00  0.00    -0.354 N 
ATOM     31  N   UNL A   1      43.596  26.096  30.412  1.00  0.00    -0.248 NA
ATOM     32  C   UNL A   1      44.698  24.379  29.274  1.00  0.00     0.031 C 
ATOM     33  C   UNL A   1      45.089  27.963  34.159  1.00  0.00     0.029 A 
ATOM     34  C   UNL A   1      44.640  27.367  32.993  1.00  0.00     0.049 A 
ATOM     35  H   UNL A   1      42.970  27.866  31.804  1.00  0.00     0.167 HD
ATOM     36  C   UNL A   1      44.722  25.725  31.133  1.00  0.00     0.074 A 
ATOM     37  C   UNL A   1      45.339  24.632  30.408  1.00  0.00     0.031 C 
ATOM     38  C   UNL A   1      45.213  26.252  32.281  1.00  0.00     0.034 A 
BRANCH  25  39
ATOM     39  C   UNL A   1      42.037  31.094  34.448  1.00  0.00     0.023 A 
ATOM     40  C   UNL A   1      41.238  30.881  35.588  1.00  0.00     0.012 A 
ATOM     41  C   UNL A   1      42.777  32.289  34.338  1.00  0.00     0.148 A 
ATOM     42  C   UNL A   1      41.156  31.848  36.591  1.00  0.00     0.002 A 
ATOM     43  C   UNL A   1      42.722  33.230  35.360  1.00  0.00     0.091 A 
ATOM     44  F   UNL A   1      43.515  32.484  33.236  1.00  0.00    -0.205 F 
ATOM     45  C   UNL A   1      41.905  33.016  36.482  1.00  0.00     0.022 A 
BRANCH  43  46
ATOM     46  S   UNL A   1      43.709  34.732  35.348  1.00  0.00     0.127 S 
ATOM     47  O   UNL A   1      43.130  35.456  34.217  1.00  0.00    -0.237 OA
ATOM     48  O   UNL A   1      43.410  35.309  36.659  1.00  0.00    -0.237 OA
ATOM     49  O   UNL A   1      45.089  34.303  35.176  1.00  0.00    -0.744 OA
ENDBRANCH  43  46
ENDBRANCH  25  39
BRANCH  26  50
ATOM     50  C   UNL A   1      42.656  24.257  27.157  1.00  0.00     0.023 A 
ATOM     51  C   UNL A   1      43.426  24.555  26.018  1.00  0.00     0.012 A 
ATOM     52  C   UNL A   1      42.043  22.993  27.263  1.00  0.00     0.148 A 
ATOM     53  C   UNL A   1      43.565  23.620  24.992  1.00  0.00     0.002 A 
ATOM     54  C   UNL A   1      42.237  22.045  26.266  1.00  0.00     0.091 A 
ATOM     55  F   UNL A   1      41.302  22.733  28.349  1.00  0.00    -0.205 F 
ATOM     56  C   UNL A   1      42.983  22.361  25.122  1.00  0.00     0.022 A 
BRANCH  54  57
ATOM     57  S   UNL A   1      41.649  20.354  26.428  1.00  0.00     0.127 S 
ATOM     58  O   UNL A   1      42.167  19.983  27.742  1.00  0.00    -0.237 OA
ATOM     59  O   UNL A   1      40.198  20.529  26.363  1.00  0.00    -0.237 OA
ATOM     60  O   UNL A   1      42.215  19.636  25.294  1.00  0.00    -0.744 OA
ENDBRANCH  54  57
ENDBRANCH  26  50
BRANCH  38  61
ATOM     61  C   UNL A   1      46.470  25.638  32.838  1.00  0.00     0.023 A 
ATOM     62  C   UNL A   1      47.724  26.175  32.488  1.00  0.00     0.012 A 
ATOM     63  C   UNL A   1      46.403  24.569  33.752  1.00  0.00     0.148 A 
ATOM     64  C   UNL A   1      48.896  25.634  33.013  1.00  0.00     0.002 A 
ATOM     65  C   UNL A   1      47.572  24.067  34.309  1.00  0.00     0.091 A 
ATOM     66  F   UNL A   1      45.200  24.059  34.053  1.00  0.00    -0.205 F 
ATOM     67  C   UNL A   1      48.820  24.590  33.931  1.00  0.00     0.022 A 
BRANCH  65  68
ATOM     68  S   UNL A   1      47.563  22.786  35.568  1.00  0.00     0.127 S 
ATOM     69  O   UNL A   1      46.756  23.407  36.618  1.00  0.00    -0.237 OA
ATOM     70  O   UNL A   1      46.913  21.673  34.876  1.00  0.00    -0.237 OA
ATOM     71  O   UNL A   1      48.959  22.551  35.909  1.00  0.00    -0.744 OA
ENDBRANCH  65  68
ENDBRANCH  38  61
ENDBRANCH  12  13
ENDBRANCH   5   7
ENDBRANCH   2   3
ENDBRANCH   1   2
BRANCH   1  72
ATOM     72  C   UNL A   1      36.810  33.172  29.177  1.00  0.00     0.118 C 
BRANCH  72  73
ATOM     73  N   UNL A   1      37.973  33.971  28.829  1.00  0.00    -0.352 N 
ATOM     74  C   UNL A   1      38.910  34.536  29.653  1.00  0.00     0.251 C 
ATOM     75  H   UNL A   1      38.106  34.128  27.866  1.00  0.00     0.163 HD
ATOM     76  O   UNL A   1      39.800  35.250  29.199  1.00  0.00    -0.269 OA
BRANCH  74  77
ATOM     77  C   UNL A   1      38.827  34.310  31.110  1.00  0.00     0.041 A 
ATOM     78  C   UNL A   1      39.970  34.551  31.877  1.00  0.00     0.014 A 
ATOM     79  C   UNL A   1      37.630  33.887  31.709  1.00  0.00     0.034 A 
ATOM     80  C   UNL A   1      39.907  34.433  33.263  1.00  0.00     0.002 A 
ATOM     81  C   UNL A   1      37.564  33.818  33.097  1.00  0.00     0.068 A 
ATOM     82  C   UNL A   1      38.701  34.085  33.873  1.00  0.00     0.020 A 
BRANCH  81  83
ATOM     83  S   UNL A   1      36.073  33.393  33.963  1.00  0.00     0.182 S 
ATOM     84  O   UNL A   1      35.322  32.574  33.025  1.00  0.00    -0.223 OA
ATOM     85  O   UNL A   1      36.481  32.827  35.236  1.00  0.00    -0.223 OA
BRANCH  83  86
ATOM     86  C   UNL A   1      35.086  34.837  34.269  1.00  0.00     0.177 C 
BRANCH  86  87
ATOM     87  C   UNL A   1      34.369  35.464  33.097  1.00  0.00    -0.029 A 
ATOM     88  C   UNL A   1      34.071  34.797  31.899  1.00  0.00     0.005 A 
ATOM     89  C   UNL A   1      34.117  36.850  33.158  1.00  0.00     0.051 A 
ATOM     90  C   UNL A   1      33.492  35.480  30.821  1.00  0.00     0.004 A 
ATOM     91  C   UNL A   1      33.547  37.519  32.078  1.00  0.00     0.115 A 
ATOM     92  C   UNL A   1      33.226  36.843  30.913  1.00  0.00     0.046 A 
BRANCH  91  93
ATOM     93  O   UNL A   1      33.253  38.846  32.140  1.00  0.00    -0.508 OA
ATOM     94  H   UNL A   1      33.029  39.313  31.360  1.00  0.00     0.293 HD
ENDBRANCH  91  93
ENDBRANCH  86  87
ENDBRANCH  83  86
ENDBRANCH  81  83
ENDBRANCH  74  77
ENDBRANCH  72  73
ENDBRANCH   1  72
TORSDOF 17
ENDMDL
MODEL 2
REMARK VINA RESULT:     -11.3      3.646     10.363
REMARK SMILES O=C(NCCCNC(=O)c1cccc(S(=O)(=O)Cc2cccc(O)c2)c1)c1ccc(-c2c3nc(c(-c4cccc(S(=O)(=O)[O-])c4F)c4ccc([nH]4)c(-c4cccc(S(=O)(=O)[O-])c4F)c4nc(c(-c5cccc(S(=O)(=O)[O-])c5F)c5ccc2[nH]5)C=C4)C=C3)cc1
REMARK SMILES IDX 5 1 4 2 3 3 1 4 2 5 27 7 28 8 89 9 29 10 88 11 30 12 31 13
REMARK SMILES IDX 32 14 82 15 33 16 87 17 81 18 83 19 34 20 86 21 80 22 79 23
REMARK SMILES IDX 35 25 67 26 47 27 66 28 48 29 51 30 65 31 84 32 49 33 50 34
REMARK SMILES IDX 64 36 85 37 52 38 36 39 37 40 45 41 38 42 40 43 46 44 39 45
REMARK SMILES IDX 41 46 42 47 43 48 44 49 68 50 69 51 77 52 70 53 72 54 78 55
REMARK SMILES IDX 71 56 73 57 74 58 75 59 76 60 53 61 54 62 62 63 55 64 57 65
REMARK SMILES IDX 63 66 56 67 58 68 59 69 60 70 61 71 6 72 7 73 8 74 9 76
REMARK SMILES IDX 10 77 11 78 26 79 12 80 14 81 13 82 15 83 16 84 17 85 18 86
REMARK SMILES IDX 19 87 20 88 25 89 21 90 23 91 22 92 24 93
REMARK H PARENT 3 6 83 24 51 35 7 75 24 94
REMARK Flexibility Score: inf
ROOT
ATOM      1  C   UNL A   1      31.398  31.729  26.831  1.00  0.00     0.042 C 
ENDROOT
BRANCH   1   2
ATOM      2  C   UNL A   1      32.569  32.675  26.643  1.00  0.00     0.118 C 
BRANCH   2   3
ATOM      3  N   UNL A   1      32.405  33.953  27.327  1.00  0.00    -0.352 N 
ATOM      4  O   UNL A   1      32.756  35.601  28.824  1.00  0.00    -0.269 OA
ATOM      5  C   UNL A   1      33.104  34.513  28.370  1.00  0.00     0.251 C 
ATOM      6  H   UNL A   1      31.668  34.509  26.983  1.00  0.00     0.163 HD
BRANCH   5   7
ATOM      7  C   UNL A   1      34.244  33.799  28.976  1.00  0.00     0.039 A 
ATOM      8  C   UNL A   1      34.044  32.647  29.735  1.00  0.00     0.014 A 
ATOM      9  C   UNL A   1      35.538  34.288  28.774  1.00  0.00     0.014 A 
ATOM     10  C   UNL A   1      35.103  32.097  30.444  1.00  0.00     0.010 A 
ATOM     11  C   UNL A   1      36.623  33.657  29.388  1.00  0.00     0.010 A 
ATOM     12  C   UNL A   1      36.409  32.577  30.257  1.00  0.00    -0.014 A 
BRANCH  12  13
ATOM     13  C   UNL A   1      37.533  31.855  30.903  1.00  0.00     0.031 A 
ATOM     14  C   UNL A   1      38.368  30.860  30.149  1.00  0.00     0.074 A 
ATOM     15  C   UNL A   1      37.797  32.128  32.197  1.00  0.00     0.049 A 
ATOM     16  N   UNL A   1      39.410  30.186  30.566  1.00  0.00    -0.248 NA
ATOM     17  C   UNL A   1      37.987  30.571  28.757  1.00  0.00     0.031 C 
ATOM     18  C   UNL A   1      37.014  33.040  33.038  1.00  0.00     0.029 A 
ATOM     19  N   UNL A   1      38.789  31.681  33.028  1.00  0.00    -0.354 N 
ATOM     20  C   UNL A   1      39.785  29.368  29.508  1.00  0.00     0.074 A 
ATOM     21  C   UNL A   1      38.855  29.622  28.429  1.00  0.00     0.031 C 
ATOM     22  C   UNL A   1      37.579  33.116  34.250  1.00  0.00     0.029 A 
ATOM     23  C   UNL A   1      38.721  32.213  34.295  1.00  0.00     0.049 A 
ATOM     24  H   UNL A   1      39.483  31.042  32.747  1.00  0.00     0.167 HD
ATOM     25  C   UNL A   1      40.819  28.495  29.441  1.00  0.00     0.034 A 
ATOM     26  C   UNL A   1      39.482  31.988  35.381  1.00  0.00     0.034 A 
ATOM     27  C   UNL A   1      41.757  28.274  30.511  1.00  0.00     0.049 A 
ATOM     28  C   UNL A   1      40.637  31.038  35.266  1.00  0.00     0.074 A 
ATOM     29  C   UNL A   1      42.877  27.461  30.520  1.00  0.00     0.029 A 
ATOM     30  N   UNL A   1      41.682  28.861  31.767  1.00  0.00    -0.354 N 
ATOM     31  N   UNL A   1      41.052  30.373  34.216  1.00  0.00    -0.248 NA
ATOM     32  C   UNL A   1      41.442  30.826  36.474  1.00  0.00     0.031 C 
ATOM     33  C   UNL A   1      43.464  27.538  31.788  1.00  0.00     0.029 A 
ATOM     34  C   UNL A   1      42.727  28.419  32.561  1.00  0.00     0.049 A 
ATOM     35  H   UNL A   1      40.987  29.498  32.050  1.00  0.00     0.167 HD
ATOM     36  C   UNL A   1      42.180  29.679  34.629  1.00  0.00     0.074 A 
ATOM     37  C   UNL A   1      42.400  30.030  36.018  1.00  0.00     0.031 C 
ATOM     38  C   UNL A   1      42.955  28.815  33.928  1.00  0.00     0.034 A 
BRANCH  25  39
ATOM     39  C   UNL A   1      41.020  27.732  28.156  1.00  0.00     0.023 A 
ATOM     40  C   UNL A   1      41.507  28.403  27.017  1.00  0.00     0.012 A 
ATOM     41  C   UNL A   1      40.797  26.341  28.095  1.00  0.00     0.148 A 
ATOM     42  C   UNL A   1      41.745  27.709  25.830  1.00  0.00     0.002 A 
ATOM     43  C   UNL A   1      41.075  25.650  26.922  1.00  0.00     0.091 A 
ATOM     44  F   UNL A   1      40.313  25.724  29.182  1.00  0.00    -0.205 F 
ATOM     45  C   UNL A   1      41.539  26.332  25.786  1.00  0.00     0.022 A 
BRANCH  43  46
ATOM     46  S   UNL A   1      40.915  23.865  26.787  1.00  0.00     0.127 S 
ATOM     47  O   UNL A   1      39.487  23.717  26.506  1.00  0.00    -0.237 OA
ATOM     48  O   UNL A   1      41.793  23.559  25.658  1.00  0.00    -0.237 OA
ATOM     49  O   UNL A   1      41.360  23.326  28.064  1.00  0.00    -0.744 OA
ENDBRANCH  43  46
ENDBRANCH  25  39
BRANCH  26  50
ATOM     50  C   UNL A   1      39.188  32.712  36.649  1.00  0.00     0.023 A 
ATOM     51  C   UNL A   1      39.740  33.988  36.865  1.00  0.00     0.012 A 
ATOM     52  C   UNL A   1      38.315  32.168  37.612  1.00  0.00     0.148 A 
ATOM     53  C   UNL A   1      39.447  34.701  38.027  1.00  0.00     0.002 A 
ATOM     54  C   UNL A   1      37.978  32.909  38.737  1.00  0.00     0.091 A 
ATOM     55  F   UNL A   1      37.810  30.945  37.395  1.00  0.00    -0.205 F 
ATOM     56  C   UNL A   1      38.556  34.168  38.957  1.00  0.00     0.022 A 
BRANCH  54  57
ATOM     57  S   UNL A   1      36.726  32.361  39.903  1.00  0.00     0.127 S 
ATOM     58  O   UNL A   1      36.761  33.426  40.902  1.00  0.00    -0.237 OA
ATOM     59  O   UNL A   1      35.523  32.336  39.069  1.00  0.00    -0.237 OA
ATOM     60  O   UNL A   1      37.164  31.047  40.356  1.00  0.00    -0.744 OA
ENDBRANCH  54  57
ENDBRANCH  26  50
BRANCH  38  61
ATOM     61  C   UNL A   1      44.127  28.204  34.647  1.00  0.00     0.023 A 
ATOM     62  C   UNL A   1      45.356  28.889  34.687  1.00  0.00     0.012 A 
ATOM     63  C   UNL A   1      43.992  26.981  35.332  1.00  0.00     0.148 A 
ATOM     64  C   UNL A   1      46.445  28.349  35.370  1.00  0.00     0.002 A 
ATOM     65  C   UNL A   1      45.066  26.473  36.051  1.00  0.00     0.091 A 
ATOM     66  F   UNL A   1      42.819  26.334  35.262  1.00  0.00    -0.205 F 
ATOM     67  C   UNL A   1      46.297  27.150  36.061  1.00  0.00     0.022 A 
BRANCH  65  68
ATOM     68  S   UNL A   1      44.938  24.982  37.045  1.00  0.00     0.127 S 
ATOM     69  O   UNL A   1      44.712  23.961  36.023  1.00  0.00    -0.237 OA
ATOM     70  O   UNL A   1      46.251  24.923  37.688  1.00  0.00    -0.237 OA
ATOM     71  O   UNL A   1      43.828  25.207  37.961  1.00  0.00    -0.744 OA
ENDBRANCH  65  68
ENDBRANCH  38  61
ENDBRANCH  12  13
ENDBRANCH   5   7
ENDBRANCH   2   3
ENDBRANCH   1   2
BRANCH   1  72
ATOM     72  C   UNL A   1      31.800  30.268  26.875  1.00  0.00     0.118 C 
BRANCH  72  73
ATOM     73  N   UNL A   1      33.162  30.054  27.335  1.00  0.00    -0.352 N 
ATOM     74  C   UNL A   1      34.032  29.045  27.017  1.00  0.00     0.251 C 
ATOM     75  H   UNL A   1      33.507  30.728  27.965  1.00  0.00     0.163 HD
ATOM     76  O   UNL A   1      35.133  28.970  27.555  1.00  0.00    -0.269 OA
BRANCH  74  77
ATOM     77  C   UNL A   1      33.625  28.017  26.039  1.00  0.00     0.041 A 
ATOM     78  C   UNL A   1      33.916  28.244  24.690  1.00  0.00     0.014 A 
ATOM     79  C   UNL A   1      32.984  26.839  26.451  1.00  0.00     0.034 A 
ATOM     80  C   UNL A   1      33.627  27.260  23.748  1.00  0.00     0.002 A 
ATOM     81  C   UNL A   1      32.742  25.843  25.510  1.00  0.00     0.068 A 
ATOM     82  C   UNL A   1      33.058  26.054  24.160  1.00  0.00     0.020 A 
BRANCH  81  83
ATOM     83  S   UNL A   1      32.030  24.274  25.940  1.00  0.00     0.182 S 
ATOM     84  O   UNL A   1      30.987  24.593  26.902  1.00  0.00    -0.223 OA
ATOM     85  O   UNL A   1      31.673  23.625  24.691  1.00  0.00    -0.223 OA
BRANCH  83  86
ATOM     86  C   UNL A   1      33.208  23.259  26.796  1.00  0.00     0.177 C 
BRANCH  86  87
ATOM     87  C   UNL A   1      34.279  22.577  25.978  1.00  0.00    -0.029 A 
ATOM     88  C   UNL A   1      34.320  21.200  25.714  1.00  0.00     0.005 A 
ATOM     89  C   UNL A   1      35.386  23.356  25.582  1.00  0.00     0.051 A 
ATOM     90  C   UNL A   1      35.405  20.631  25.031  1.00  0.00     0.004 A 
ATOM     91  C   UNL A   1      36.460  22.778  24.910  1.00  0.00     0.115 A 
ATOM     92  C   UNL A   1      36.474  21.423  24.625  1.00  0.00     0.046 A 
BRANCH  91  93
ATOM     93  O   UNL A   1      37.512  23.525  24.479  1.00  0.00    -0.508 OA
ATOM     94  H   UNL A   1      38.273  23.106  24.132  1.00  0.00     0.293 HD
ENDBRANCH  91  93
ENDBRANCH  86  87
ENDBRANCH  83  86
ENDBRANCH  81  83
ENDBRANCH  74  77
ENDBRANCH  72  73
ENDBRANCH   1  72
TORSDOF 17
ENDMDL
MODEL 3
REMARK VINA RESULT:     -11.3      3.821      7.664
REMARK SMILES O=C(NCCCNC(=O)c1cccc(S(=O)(=O)Cc2cccc(O)c2)c1)c1ccc(-c2c3nc(c(-c4cccc(S(=O)(=O)[O-])c4F)c4ccc([nH]4)c(-c4cccc(S(=O)(=O)[O-])c4F)c4nc(c(-c5cccc(S(=O)(=O)[O-])c5F)c5ccc2[nH]5)C=C4)C=C3)cc1
REMARK SMILES IDX 5 1 4 2 3 3 1 4 2 5 27 7 28 8 89 9 29 10 88 11 30 12 31 13
REMARK SMILES IDX 32 14 82 15 33 16 87 17 81 18 83 19 34 20 86 21 80 22 79 23
REMARK SMILES IDX 35 25 67 26 47 27 66 28 48 29 51 30 65 31 84 32 49 33 50 34
REMARK SMILES IDX 64 36 85 37 52 38 36 39 37 40 45 41 38 42 40 43 46 44 39 45
REMARK SMILES IDX 41 46 42 47 43 48 44 49 68 50 69 51 77 52 70 53 72 54 78 55
REMARK SMILES IDX 71 56 73 57 74 58 75 59 76 60 53 61 54 62 62 63 55 64 57 65
REMARK SMILES IDX 63 66 56 67 58 68 59 69 60 70 61 71 6 72 7 73 8 74 9 76
REMARK SMILES IDX 10 77 11 78 26 79 12 80 14 81 13 82 15 83 16 84 17 85 18 86
REMARK SMILES IDX 19 87 20 88 25 89 21 90 23 91 22 92 24 93
REMARK H PARENT 3 6 83 24 51 35 7 75 24 94
REMARK Flexibility Score: inf
ROOT
ATOM      1  C   UNL A   1      31.425  30.794  26.407  1.00  0.00     0.042 C 
ENDROOT
BRANCH   1   2
ATOM      2  C   UNL A   1      32.755  31.296  26.935  1.00  0.00     0.118 C 
BRANCH   2   3
ATOM      3  N   UNL A   1      32.793  32.738  27.150  1.00  0.00    -0.352 N 
ATOM      4  O   UNL A   1      33.487  34.732  27.938  1.00  0.00    -0.269 OA
ATOM      5  C   UNL A   1      33.678  33.521  27.852  1.00  0.00     0.251 C 
ATOM      6  H   UNL A   1      32.059  33.234  26.720  1.00  0.00     0.163 HD
BRANCH   5   7
ATOM      7  C   UNL A   1      34.836  32.913  28.536  1.00  0.00     0.039 A 
ATOM      8  C   UNL A   1      36.136  33.318  28.238  1.00  0.00     0.014 A 
ATOM      9  C   UNL A   1      34.615  31.922  29.497  1.00  0.00     0.014 A 
ATOM     10  C   UNL A   1      37.212  32.611  28.753  1.00  0.00     0.010 A 
ATOM     11  C   UNL A   1      35.702  31.295  30.111  1.00  0.00     0.010 A 
ATOM     12  C   UNL A   1      37.010  31.610  29.717  1.00  0.00    -0.014 A 
BRANCH  12  13
ATOM     13  C   UNL A   1      38.194  30.996  30.366  1.00  0.00     0.031 A 
ATOM     14  C   UNL A   1      38.595  31.346  31.770  1.00  0.00     0.074 A 
ATOM     15  C   UNL A   1      38.903  30.093  29.658  1.00  0.00     0.049 A 
ATOM     16  N   UNL A   1      39.577  30.858  32.485  1.00  0.00    -0.248 NA
ATOM     17  C   UNL A   1      37.809  32.380  32.461  1.00  0.00     0.031 C 
ATOM     18  C   UNL A   1      38.631  29.717  28.266  1.00  0.00     0.029 A 
ATOM     19  N   UNL A   1      39.982  29.324  30.002  1.00  0.00    -0.354 N 
ATOM     20  C   UNL A   1      39.553  31.548  33.691  1.00  0.00     0.074 A 
ATOM     21  C   UNL A   1      38.463  32.497  33.610  1.00  0.00     0.031 C 
ATOM     22  C   UNL A   1      39.492  28.763  27.890  1.00  0.00     0.029 A 
ATOM     23  C   UNL A   1      40.416  28.504  28.986  1.00  0.00     0.049 A 
ATOM     24  H   UNL A   1      40.406  29.354  30.890  1.00  0.00     0.167 HD
ATOM     25  C   UNL A   1      40.359  31.393  34.768  1.00  0.00     0.034 A 
ATOM     26  C   UNL A   1      41.453  27.650  28.932  1.00  0.00     0.034 A 
ATOM     27  C   UNL A   1      41.420  30.423  34.848  1.00  0.00     0.049 A 
ATOM     28  C   UNL A   1      42.309  27.480  30.152  1.00  0.00     0.074 A 
ATOM     29  C   UNL A   1      42.251  30.142  35.918  1.00  0.00     0.029 A 
ATOM     30  N   UNL A   1      41.805  29.581  33.813  1.00  0.00    -0.354 N 
ATOM     31  N   UNL A   1      42.187  28.048  31.326  1.00  0.00    -0.248 NA
ATOM     32  C   UNL A   1      43.427  26.535  30.049  1.00  0.00     0.031 C 
ATOM     33  C   UNL A   1      43.152  29.147  35.523  1.00  0.00     0.029 A 
ATOM     34  C   UNL A   1      42.867  28.789  34.216  1.00  0.00     0.049 A 
ATOM     35  H   UNL A   1      41.383  29.551  32.924  1.00  0.00     0.167 HD
ATOM     36  C   UNL A   1      43.199  27.515  32.112  1.00  0.00     0.074 A 
ATOM     37  C   UNL A   1      43.905  26.555  31.287  1.00  0.00     0.031 C 
ATOM     38  C   UNL A   1      43.528  27.807  33.395  1.00  0.00     0.034 A 
BRANCH  25  39
ATOM     39  C   UNL A   1      40.108  32.267  35.971  1.00  0.00     0.023 A 
ATOM     40  C   UNL A   1      40.839  33.462  36.129  1.00  0.00     0.012 A 
ATOM     41  C   UNL A   1      39.102  31.946  36.904  1.00  0.00     0.148 A 
ATOM     42  C   UNL A   1      40.592  34.310  37.209  1.00  0.00     0.002 A 
ATOM     43  C   UNL A   1      38.833  32.816  37.955  1.00  0.00     0.091 A 
ATOM     44  F   UNL A   1      38.431  30.795  36.750  1.00  0.00    -0.205 F 
ATOM     45  C   UNL A   1      39.583  33.993  38.115  1.00  0.00     0.022 A 
BRANCH  43  46
ATOM     46  S   UNL A   1      37.504  32.534  39.131  1.00  0.00     0.127 S 
ATOM     47  O   UNL A   1      37.748  33.593  40.110  1.00  0.00    -0.237 OA
ATOM     48  O   UNL A   1      36.313  32.732  38.305  1.00  0.00    -0.237 OA
ATOM     49  O   UNL A   1      37.684  31.176  39.621  1.00  0.00    -0.744 OA
ENDBRANCH  43  46
ENDBRANCH  25  39
BRANCH  26  50
ATOM     50  C   UNL A   1      41.701  26.869  27.688  1.00  0.00     0.023 A 
ATOM     51  C   UNL A   1      42.295  27.499  26.579  1.00  0.00     0.012 A 
ATOM     52  C   UNL A   1      41.407  25.493  27.623  1.00  0.00     0.148 A 
ATOM     53  C   UNL A   1      42.572  26.777  25.418  1.00  0.00     0.002 A 
ATOM     54  C   UNL A   1      41.742  24.767  26.487  1.00  0.00     0.091 A 
ATOM     55  F   UNL A   1      40.828  24.914  28.685  1.00  0.00    -0.205 F 
ATOM     56  C   UNL A   1      42.309  25.410  25.376  1.00  0.00     0.022 A 
BRANCH  54  57
ATOM     57  S   UNL A   1      41.576  22.980  26.411  1.00  0.00     0.127 S 
ATOM     58  O   UNL A   1      40.127  22.818  26.320  1.00  0.00    -0.237 OA
ATOM     59  O   UNL A   1      42.310  22.657  25.187  1.00  0.00    -0.237 OA
ATOM     60  O   UNL A   1      42.198  22.479  27.629  1.00  0.00    -0.744 OA
ENDBRANCH  54  57
ENDBRANCH  26  50
BRANCH  38  61
ATOM     61  C   UNL A   1      44.690  27.061  33.993  1.00  0.00     0.023 A 
ATOM     62  C   UNL A   1      45.997  27.563  33.838  1.00  0.00     0.012 A 
ATOM     63  C   UNL A   1      44.481  25.897  34.757  1.00  0.00     0.148 A 
ATOM     64  C   UNL A   1      47.083  26.899  34.406  1.00  0.00     0.002 A 
ATOM     65  C   UNL A   1      45.561  25.267  35.361  1.00  0.00     0.091 A 
ATOM     66  F   UNL A   1      43.231  25.424  34.872  1.00  0.00    -0.205 F 
ATOM     67  C   UNL A   1      46.864  25.760  35.177  1.00  0.00     0.022 A 
BRANCH  65  68
ATOM     68  S   UNL A   1      45.363  23.849  36.446  1.00  0.00     0.127 S 
ATOM     69  O   UNL A   1      44.546  24.409  37.521  1.00  0.00    -0.237 OA
ATOM     70  O   UNL A   1      44.667  22.893  35.584  1.00  0.00    -0.237 OA
ATOM     71  O   UNL A   1      46.710  23.447  36.827  1.00  0.00    -0.744 OA
ENDBRANCH  65  68
ENDBRANCH  38  61
ENDBRANCH  12  13
ENDBRANCH   5   7
ENDBRANCH   2   3
ENDBRANCH   1   2
BRANCH   1  72
ATOM     72  C   UNL A   1      31.551  29.926  25.170  1.00  0.00     0.118 C 
BRANCH  72  73
ATOM     73  N   UNL A   1      30.541  30.202  24.162  1.00  0.00    -0.352 N 
ATOM     74  C   UNL A   1      29.969  29.347  23.256  1.00  0.00     0.251 C 
ATOM     75  H   UNL A   1      30.223  31.133  24.124  1.00  0.00     0.163 HD
ATOM     76  O   UNL A   1      29.174  29.759  22.417  1.00  0.00    -0.269 OA
BRANCH  74  77
ATOM     77  C   UNL A   1      30.341  27.918  23.273  1.00  0.00     0.041 A 
ATOM     78  C   UNL A   1      29.467  27.021  23.896  1.00  0.00     0.014 A 
ATOM     79  C   UNL A   1      31.523  27.471  22.663  1.00  0.00     0.034 A 
ATOM     80  C   UNL A   1      29.739  25.656  23.856  1.00  0.00     0.002 A 
ATOM     81  C   UNL A   1      31.762  26.102  22.588  1.00  0.00     0.068 A 
ATOM     82  C   UNL A   1      30.874  25.196  23.187  1.00  0.00     0.020 A 
BRANCH  81  83
ATOM     83  S   UNL A   1      33.173  25.422  21.752  1.00  0.00     0.182 S 
ATOM     84  O   UNL A   1      32.734  25.239  20.378  1.00  0.00    -0.223 OA
ATOM     85  O   UNL A   1      34.287  26.311  22.031  1.00  0.00    -0.223 OA
BRANCH  83  86
ATOM     86  C   UNL A   1      33.560  23.807  22.375  1.00  0.00     0.177 C 
BRANCH  86  87
ATOM     87  C   UNL A   1      34.396  23.714  23.629  1.00  0.00    -0.029 A 
ATOM     88  C   UNL A   1      34.043  24.283  24.862  1.00  0.00     0.005 A 
ATOM     89  C   UNL A   1      35.683  23.148  23.510  1.00  0.00     0.051 A 
ATOM     90  C   UNL A   1      34.924  24.239  25.952  1.00  0.00     0.004 A 
ATOM     91  C   UNL A   1      36.550  23.115  24.599  1.00  0.00     0.115 A 
ATOM     92  C   UNL A   1      36.178  23.650  25.821  1.00  0.00     0.046 A 
BRANCH  91  93
ATOM     93  O   UNL A   1      37.774  22.529  24.512  1.00  0.00    -0.508 OA
ATOM     94  H   UNL A   1      38.524  22.953  24.879  1.00  0.00     0.293 HD
ENDBRANCH  91  93
ENDBRANCH  86  87
ENDBRANCH  83  86
ENDBRANCH  81  83
ENDBRANCH  74  77
ENDBRANCH  72  73
ENDBRANCH   1  72
TORSDOF 17
ENDMDL
