MODEL 1
REMARK VINA RESULT:     -12.6      0.000      0.000
REMARK SMILES COc1ccc(-c2noc(CC(=O)NCCCNC(=O)c3ccc(-c4c5nc(c(-c6cccc(S(=O)(=O)[O-])c6F)c6ccc([nH]6)c(-c6cccc(S(=O)(=O)[O-])c6F)c6nc(c(-c7cccc(S(=O)(=O)[O-])c7F)c7ccc4[nH]7)C=C6)C=C5)cc3)c2-c2ccc(OC)cc2)cc1
REMARK SMILES IDX 16 1 15 2 14 3 12 4 13 5 11 7 10 8 7 9 8 10 84 11 9 12 6 13
REMARK SMILES IDX 3 14 4 15 94 16 5 17 93 18 2 19 1 20 85 21 86 22 92 23 87 24
REMARK SMILES IDX 91 25 88 26 89 27 90 28 17 29 18 30 19 31 20 33 21 34 22 35
REMARK SMILES IDX 83 36 23 37 82 38 24 39 25 40 26 41 76 42 27 43 81 44 75 45
REMARK SMILES IDX 77 46 28 47 80 48 74 49 73 50 29 52 61 53 41 54 60 55 42 56
REMARK SMILES IDX 45 57 59 58 78 59 43 60 44 61 58 63 79 64 46 65 30 66 31 67
REMARK SMILES IDX 39 68 32 69 34 70 40 71 33 72 35 73 36 74 37 75 38 76 62 77
REMARK SMILES IDX 63 78 71 79 64 80 66 81 72 82 65 83 67 84 68 85 69 86 70 87
REMARK SMILES IDX 47 88 48 89 56 90 49 91 51 92 57 93 50 94 52 95 53 96 54 97
REMARK SMILES IDX 55 98
REMARK H PARENT 14 6 18 32 77 51 45 62
REMARK Flexibility Score: inf
ROOT
ATOM      1  C   UNL A   1      35.046  22.075  26.929  1.00  0.00     0.042 C 
ENDROOT
BRANCH   1   2
ATOM      2  C   UNL A   1      33.724  21.399  26.576  1.00  0.00     0.117 C 
BRANCH   2   3
ATOM      3  N   UNL A   1      32.586  22.133  27.095  1.00  0.00    -0.356 N 
ATOM      4  C   UNL A   1      32.040  23.300  26.643  1.00  0.00     0.227 C 
ATOM      5  O   UNL A   1      31.074  23.762  27.252  1.00  0.00    -0.275 OA
ATOM      6  H   UNL A   1      32.146  21.734  27.880  1.00  0.00     0.163 HD
BRANCH   4   7
ATOM      7  C   UNL A   1      32.534  23.932  25.359  1.00  0.00     0.179 C 
BRANCH   7   8
ATOM      8  C   UNL A   1      31.520  24.797  24.712  1.00  0.00     0.154 A 
ATOM      9  C   UNL A   1      30.173  26.308  23.805  1.00  0.00     0.122 A 
ATOM     10  N   UNL A   1      29.755  25.115  23.359  1.00  0.00    -0.079 NA
ATOM     11  C   UNL A   1      31.273  26.154  24.699  1.00  0.00     0.053 A 
ATOM     12  O   UNL A   1      30.608  24.178  23.914  1.00  0.00    -0.360 OA
BRANCH   9  13
ATOM     13  C   UNL A   1      29.595  27.567  23.356  1.00  0.00     0.005 A 
ATOM     14  C   UNL A   1      28.370  29.866  22.342  1.00  0.00     0.118 A 
ATOM     15  C   UNL A   1      29.746  29.685  22.196  1.00  0.00     0.047 A 
ATOM     16  C   UNL A   1      27.599  28.901  22.987  1.00  0.00     0.047 A 
ATOM     17  C   UNL A   1      30.365  28.542  22.714  1.00  0.00     0.014 A 
ATOM     18  C   UNL A   1      28.212  27.761  23.500  1.00  0.00     0.014 A 
BRANCH  14  19
ATOM     19  O   UNL A   1      27.815  30.972  21.761  1.00  0.00    -0.497 OA
ATOM     20  C   UNL A   1      28.681  32.103  21.792  1.00  0.00     0.278 C 
ENDBRANCH  14  19
ENDBRANCH   9  13
BRANCH  11  21
ATOM     21  C   UNL A   1      31.985  27.151  25.471  1.00  0.00    -0.012 A 
ATOM     22  C   UNL A   1      33.215  27.634  25.007  1.00  0.00     0.013 A 
ATOM     23  C   UNL A   1      31.480  27.626  26.684  1.00  0.00     0.013 A 
ATOM     24  C   UNL A   1      33.913  28.598  25.734  1.00  0.00     0.047 A 
ATOM     25  C   UNL A   1      32.188  28.589  27.415  1.00  0.00     0.047 A 
ATOM     26  C   UNL A   1      33.404  29.082  26.940  1.00  0.00     0.118 A 
BRANCH  26  27
ATOM     27  O   UNL A   1      34.186  30.024  27.550  1.00  0.00    -0.497 OA
ATOM     28  C   UNL A   1      35.520  29.650  27.860  1.00  0.00     0.278 C 
ENDBRANCH  26  27
ENDBRANCH  11  21
ENDBRANCH   7   8
ENDBRANCH   4   7
ENDBRANCH   2   3
ENDBRANCH   1   2
BRANCH   1  29
ATOM     29  C   UNL A   1      36.000  22.201  25.745  1.00  0.00     0.118 C 
BRANCH  29  30
ATOM     30  N   UNL A   1      37.034  21.172  25.760  1.00  0.00    -0.352 N 
ATOM     31  C   UNL A   1      38.391  21.288  25.901  1.00  0.00     0.251 C 
ATOM     32  H   UNL A   1      36.704  20.251  25.651  1.00  0.00     0.163 HD
ATOM     33  O   UNL A   1      39.103  20.306  25.677  1.00  0.00    -0.269 OA
BRANCH  31  34
ATOM     34  C   UNL A   1      39.007  22.569  26.306  1.00  0.00     0.039 A 
ATOM     35  C   UNL A   1      40.039  22.553  27.249  1.00  0.00     0.014 A 
ATOM     36  C   UNL A   1      38.551  23.786  25.792  1.00  0.00     0.014 A 
ATOM     37  C   UNL A   1      40.649  23.749  27.634  1.00  0.00     0.010 A 
ATOM     38  C   UNL A   1      39.210  24.970  26.119  1.00  0.00     0.010 A 
ATOM     39  C   UNL A   1      40.261  24.965  27.048  1.00  0.00    -0.014 A 
BRANCH  39  40
ATOM     40  C   UNL A   1      40.949  26.238  27.387  1.00  0.00     0.031 A 
ATOM     41  C   UNL A   1      42.389  26.451  27.003  1.00  0.00     0.074 A 
ATOM     42  C   UNL A   1      40.297  27.172  28.110  1.00  0.00     0.049 A 
ATOM     43  N   UNL A   1      43.174  27.462  27.274  1.00  0.00    -0.248 NA
ATOM     44  C   UNL A   1      43.043  25.379  26.232  1.00  0.00     0.031 C 
ATOM     45  C   UNL A   1      38.922  27.053  28.605  1.00  0.00     0.029 A 
ATOM     46  N   UNL A   1      40.712  28.393  28.581  1.00  0.00    -0.354 N 
ATOM     47  C   UNL A   1      44.412  27.141  26.733  1.00  0.00     0.074 A 
ATOM     48  C   UNL A   1      44.290  25.824  26.150  1.00  0.00     0.031 C 
ATOM     49  C   UNL A   1      38.610  28.152  29.308  1.00  0.00     0.029 A 
ATOM     50  C   UNL A   1      39.768  29.040  29.346  1.00  0.00     0.049 A 
ATOM     51  H   UNL A   1      41.600  28.770  28.389  1.00  0.00     0.167 HD
ATOM     52  C   UNL A   1      45.543  27.887  26.695  1.00  0.00     0.034 A 
ATOM     53  C   UNL A   1      39.833  30.207  30.015  1.00  0.00     0.034 A 
ATOM     54  C   UNL A   1      45.653  29.212  27.245  1.00  0.00     0.049 A 
ATOM     55  C   UNL A   1      41.098  31.022  29.938  1.00  0.00     0.074 A 
ATOM     56  C   UNL A   1      46.736  30.072  27.203  1.00  0.00     0.029 A 
ATOM     57  N   UNL A   1      44.647  29.869  27.935  1.00  0.00    -0.354 N 
ATOM     58  N   UNL A   1      42.210  30.762  29.296  1.00  0.00    -0.248 NA
ATOM     59  C   UNL A   1      41.101  32.312  30.643  1.00  0.00     0.031 C 
ATOM     60  C   UNL A   1      46.391  31.243  27.885  1.00  0.00     0.029 A 
ATOM     61  C   UNL A   1      45.083  31.123  28.325  1.00  0.00     0.049 A 
ATOM     62  H   UNL A   1      43.754  29.498  28.121  1.00  0.00     0.167 HD
ATOM     63  C   UNL A   1      43.028  31.870  29.486  1.00  0.00     0.074 A 
ATOM     64  C   UNL A   1      42.272  32.815  30.281  1.00  0.00     0.031 C 
ATOM     65  C   UNL A   1      44.296  32.080  29.057  1.00  0.00     0.034 A 
BRANCH  52  66
ATOM     66  C   UNL A   1      46.740  27.320  25.977  1.00  0.00     0.023 A 
ATOM     67  C   UNL A   1      47.507  26.316  26.602  1.00  0.00     0.012 A 
ATOM     68  C   UNL A   1      47.051  27.706  24.658  1.00  0.00     0.148 A 
ATOM     69  C   UNL A   1      48.579  25.722  25.937  1.00  0.00     0.002 A 
ATOM     70  C   UNL A   1      48.093  27.078  23.986  1.00  0.00     0.091 A 
ATOM     71  F   UNL A   1      46.318  28.672  24.085  1.00  0.00    -0.205 F 
ATOM     72  C   UNL A   1      48.864  26.094  24.627  1.00  0.00     0.022 A 
BRANCH  70  73
ATOM     73  S   UNL A   1      48.495  27.425  22.268  1.00  0.00     0.127 S 
ATOM     74  O   UNL A   1      47.325  28.194  21.843  1.00  0.00    -0.237 OA
ATOM     75  O   UNL A   1      49.725  28.206  22.395  1.00  0.00    -0.237 OA
ATOM     76  O   UNL A   1      48.654  26.131  21.621  1.00  0.00    -0.744 OA
ENDBRANCH  70  73
ENDBRANCH  52  66
BRANCH  53  77
ATOM     77  C   UNL A   1      38.655  30.707  30.782  1.00  0.00     0.023 A 
ATOM     78  C   UNL A   1      38.475  30.301  32.119  1.00  0.00     0.012 A 
ATOM     79  C   UNL A   1      37.708  31.566  30.193  1.00  0.00     0.148 A 
ATOM     80  C   UNL A   1      37.348  30.700  32.838  1.00  0.00     0.002 A 
ATOM     81  C   UNL A   1      36.619  32.009  30.936  1.00  0.00     0.091 A 
ATOM     82  F   UNL A   1      37.885  31.933  28.916  1.00  0.00    -0.205 F 
ATOM     83  C   UNL A   1      36.424  31.559  32.250  1.00  0.00     0.022 A 
BRANCH  81  84
ATOM     84  S   UNL A   1      35.461  33.223  30.295  1.00  0.00     0.127 S 
ATOM     85  O   UNL A   1      35.066  33.931  31.510  1.00  0.00    -0.237 OA
ATOM     86  O   UNL A   1      36.301  33.995  29.378  1.00  0.00    -0.237 OA
ATOM     87  O   UNL A   1      34.417  32.449  29.636  1.00  0.00    -0.744 OA
ENDBRANCH  81  84
ENDBRANCH  53  77
BRANCH  65  88
ATOM     88  C   UNL A   1      44.935  33.404  29.387  1.00  0.00     0.023 A 
ATOM     89  C   UNL A   1      45.696  33.545  30.564  1.00  0.00     0.012 A 
ATOM     90  C   UNL A   1      44.836  34.488  28.491  1.00  0.00     0.148 A 
ATOM     91  C   UNL A   1      46.319  34.756  30.863  1.00  0.00     0.002 A 
ATOM     92  C   UNL A   1      45.502  35.675  28.771  1.00  0.00     0.091 A 
ATOM     93  F   UNL A   1      44.093  34.339  27.386  1.00  0.00    -0.205 F 
ATOM     94  C   UNL A   1      46.232  35.815  29.963  1.00  0.00     0.022 A 
BRANCH  92  95
ATOM     95  S   UNL A   1      45.528  37.058  27.626  1.00  0.00     0.127 S 
ATOM     96  O   UNL A   1      46.305  38.048  28.373  1.00  0.00    -0.237 OA
ATOM     97  O   UNL A   1      46.217  36.489  26.468  1.00  0.00    -0.237 OA
ATOM     98  O   UNL A   1      44.135  37.411  27.388  1.00  0.00    -0.744 OA
ENDBRANCH  92  95
ENDBRANCH  65  88
ENDBRANCH  39  40
ENDBRANCH  31  34
ENDBRANCH  29  30
ENDBRANCH   1  29
TORSDOF 18
ENDMDL
MODEL 2
REMARK VINA RESULT:     -12.6      0.568      7.351
REMARK SMILES COc1ccc(-c2noc(CC(=O)NCCCNC(=O)c3ccc(-c4c5nc(c(-c6cccc(S(=O)(=O)[O-])c6F)c6ccc([nH]6)c(-c6cccc(S(=O)(=O)[O-])c6F)c6nc(c(-c7cccc(S(=O)(=O)[O-])c7F)c7ccc4[nH]7)C=C6)C=C5)cc3)c2-c2ccc(OC)cc2)cc1
REMARK SMILES IDX 16 1 15 2 14 3 12 4 13 5 11 7 10 8 7 9 8 10 84 11 9 12 6 13
REMARK SMILES IDX 3 14 4 15 94 16 5 17 93 18 2 19 1 20 85 21 86 22 92 23 87 24
REMARK SMILES IDX 91 25 88 26 89 27 90 28 17 29 18 30 19 31 20 33 21 34 22 35
REMARK SMILES IDX 83 36 23 37 82 38 24 39 25 40 26 41 76 42 27 43 81 44 75 45
REMARK SMILES IDX 77 46 28 47 80 48 74 49 73 50 29 52 61 53 41 54 60 55 42 56
REMARK SMILES IDX 45 57 59 58 78 59 43 60 44 61 58 63 79 64 46 65 30 66 31 67
REMARK SMILES IDX 39 68 32 69 34 70 40 71 33 72 35 73 36 74 37 75 38 76 62 77
REMARK SMILES IDX 63 78 71 79 64 80 66 81 72 82 65 83 67 84 68 85 69 86 70 87
REMARK SMILES IDX 47 88 48 89 56 90 49 91 51 92 57 93 50 94 52 95 53 96 54 97
REMARK SMILES IDX 55 98
REMARK H PARENT 14 6 18 32 77 51 45 62
REMARK Flexibility Score: inf
ROOT
ATOM      1  C   UNL A   1      34.967  21.878  27.157  1.00  0.00     0.042 C 
ENDROOT
BRANCH   1   2
ATOM      2  C   UNL A   1      33.617  21.208  26.917  1.00  0.00     0.117 C 
BRANCH   2   3
ATOM      3  N   UNL A   1      32.513  22.052  27.330  1.00  0.00    -0.356 N 
ATOM      4  C   UNL A   1      31.992  23.150  26.707  1.00  0.00     0.227 C 
ATOM      5  O   UNL A   1      31.053  23.735  27.251  1.00  0.00    -0.275 OA
ATOM      6  H   UNL A   1      32.079  21.798  28.177  1.00  0.00     0.163 HD
BRANCH   4   7
ATOM      7  C   UNL A   1      32.476  23.551  25.330  1.00  0.00     0.179 C 
BRANCH   7   8
ATOM      8  C   UNL A   1      31.534  24.451  24.625  1.00  0.00     0.154 A 
ATOM      9  C   UNL A   1      30.295  26.009  23.645  1.00  0.00     0.122 A 
ATOM     10  N   UNL A   1      29.875  24.832  23.159  1.00  0.00    -0.079 NA
ATOM     11  C   UNL A   1      31.327  25.815  24.609  1.00  0.00     0.053 A 
ATOM     12  O   UNL A   1      30.661  23.866  23.760  1.00  0.00    -0.360 OA
BRANCH   9  13
ATOM     13  C   UNL A   1      29.785  27.288  23.171  1.00  0.00     0.005 A 
ATOM     14  C   UNL A   1      28.960  29.845  22.397  1.00  0.00     0.118 A 
ATOM     15  C   UNL A   1      28.096  29.020  23.119  1.00  0.00     0.047 A 
ATOM     16  C   UNL A   1      30.238  29.402  22.064  1.00  0.00     0.047 A 
ATOM     17  C   UNL A   1      28.501  27.734  23.497  1.00  0.00     0.014 A 
ATOM     18  C   UNL A   1      30.645  28.126  22.442  1.00  0.00     0.014 A 
BRANCH  14  19
ATOM     19  O   UNL A   1      28.530  31.110  22.111  1.00  0.00    -0.497 OA
ATOM     20  C   UNL A   1      27.654  31.632  23.107  1.00  0.00     0.278 C 
ENDBRANCH  14  19
ENDBRANCH   9  13
BRANCH  11  21
ATOM     21  C   UNL A   1      32.013  26.784  25.439  1.00  0.00    -0.012 A 
ATOM     22  C   UNL A   1      33.308  27.190  25.097  1.00  0.00     0.013 A 
ATOM     23  C   UNL A   1      31.415  27.308  26.589  1.00  0.00     0.013 A 
ATOM     24  C   UNL A   1      33.983  28.127  25.881  1.00  0.00     0.047 A 
ATOM     25  C   UNL A   1      32.098  28.241  27.377  1.00  0.00     0.047 A 
ATOM     26  C   UNL A   1      33.383  28.659  27.023  1.00  0.00     0.118 A 
BRANCH  26  27
ATOM     27  O   UNL A   1      34.151  29.566  27.699  1.00  0.00    -0.497 OA
ATOM     28  C   UNL A   1      35.559  29.396  27.629  1.00  0.00     0.278 C 
ENDBRANCH  26  27
ENDBRANCH  11  21
ENDBRANCH   7   8
ENDBRANCH   4   7
ENDBRANCH   2   3
ENDBRANCH   1   2
BRANCH   1  29
ATOM     29  C   UNL A   1      35.772  22.100  25.881  1.00  0.00     0.118 C 
BRANCH  29  30
ATOM     30  N   UNL A   1      36.764  21.053  25.667  1.00  0.00    -0.352 N 
ATOM     31  C   UNL A   1      38.132  21.120  25.676  1.00  0.00     0.251 C 
ATOM     32  H   UNL A   1      36.393  20.160  25.488  1.00  0.00     0.163 HD
ATOM     33  O   UNL A   1      38.782  20.156  25.265  1.00  0.00    -0.269 OA
BRANCH  31  34
ATOM     34  C   UNL A   1      38.831  22.330  26.159  1.00  0.00     0.039 A 
ATOM     35  C   UNL A   1      39.927  22.180  27.013  1.00  0.00     0.014 A 
ATOM     36  C   UNL A   1      38.393  23.609  25.806  1.00  0.00     0.014 A 
ATOM     37  C   UNL A   1      40.615  23.307  27.468  1.00  0.00     0.010 A 
ATOM     38  C   UNL A   1      39.125  24.728  26.198  1.00  0.00     0.010 A 
ATOM     39  C   UNL A   1      40.239  24.590  27.038  1.00  0.00    -0.014 A 
BRANCH  39  40
ATOM     40  C   UNL A   1      41.005  25.796  27.450  1.00  0.00     0.031 A 
ATOM     41  C   UNL A   1      40.331  26.899  28.222  1.00  0.00     0.074 A 
ATOM     42  C   UNL A   1      42.289  25.929  27.060  1.00  0.00     0.049 A 
ATOM     43  N   UNL A   1      40.816  28.052  28.605  1.00  0.00    -0.248 NA
ATOM     44  C   UNL A   1      38.921  26.692  28.595  1.00  0.00     0.031 C 
ATOM     45  C   UNL A   1      43.033  24.963  26.248  1.00  0.00     0.029 A 
ATOM     46  N   UNL A   1      43.188  26.946  27.269  1.00  0.00    -0.354 N 
ATOM     47  C   UNL A   1      39.773  28.716  29.237  1.00  0.00     0.074 A 
ATOM     48  C   UNL A   1      38.614  27.854  29.156  1.00  0.00     0.031 C 
ATOM     49  C   UNL A   1      44.271  25.433  26.027  1.00  0.00     0.029 A 
ATOM     50  C   UNL A   1      44.402  26.745  26.650  1.00  0.00     0.049 A 
ATOM     51  H   UNL A   1      42.985  27.742  27.810  1.00  0.00     0.167 HD
ATOM     52  C   UNL A   1      39.783  29.919  29.859  1.00  0.00     0.034 A 
ATOM     53  C   UNL A   1      45.490  27.537  26.579  1.00  0.00     0.034 A 
ATOM     54  C   UNL A   1      40.945  30.759  29.970  1.00  0.00     0.049 A 
ATOM     55  C   UNL A   1      45.477  28.861  27.297  1.00  0.00     0.074 A 
ATOM     56  C   UNL A   1      41.072  31.967  30.633  1.00  0.00     0.029 A 
ATOM     57  N   UNL A   1      42.180  30.481  29.407  1.00  0.00    -0.354 N 
ATOM     58  N   UNL A   1      44.522  29.403  28.014  1.00  0.00    -0.248 NA
ATOM     59  C   UNL A   1      46.705  29.665  27.231  1.00  0.00     0.031 C 
ATOM     60  C   UNL A   1      42.380  32.429  30.454  1.00  0.00     0.029 A 
ATOM     61  C   UNL A   1      43.075  31.494  29.705  1.00  0.00     0.049 A 
ATOM     62  H   UNL A   1      42.390  29.681  28.872  1.00  0.00     0.167 HD
ATOM     63  C   UNL A   1      45.048  30.587  28.516  1.00  0.00     0.074 A 
ATOM     64  C   UNL A   1      46.414  30.671  28.043  1.00  0.00     0.031 C 
ATOM     65  C   UNL A   1      44.451  31.530  29.285  1.00  0.00     0.034 A 
BRANCH  52  66
ATOM     66  C   UNL A   1      38.515  30.378  30.533  1.00  0.00     0.023 A 
ATOM     67  C   UNL A   1      38.202  29.891  31.818  1.00  0.00     0.012 A 
ATOM     68  C   UNL A   1      37.686  31.352  29.943  1.00  0.00     0.148 A 
ATOM     69  C   UNL A   1      37.073  30.346  32.497  1.00  0.00     0.002 A 
ATOM     70  C   UNL A   1      36.587  31.835  30.644  1.00  0.00     0.091 A 
ATOM     71  F   UNL A   1      37.993  31.794  28.715  1.00  0.00    -0.205 F 
ATOM     72  C   UNL A   1      36.273  31.326  31.916  1.00  0.00     0.022 A 
BRANCH  70  73
ATOM     73  S   UNL A   1      35.536  33.154  30.023  1.00  0.00     0.127 S 
ATOM     74  O   UNL A   1      36.509  34.010  29.345  1.00  0.00    -0.237 OA
ATOM     75  O   UNL A   1      34.635  32.428  29.127  1.00  0.00    -0.237 OA
ATOM     76  O   UNL A   1      34.896  33.745  31.188  1.00  0.00    -0.744 OA
ENDBRANCH  70  73
ENDBRANCH  52  66
BRANCH  53  77
ATOM     77  C   UNL A   1      46.705  27.088  25.840  1.00  0.00     0.023 A 
ATOM     78  C   UNL A   1      47.611  26.207  26.464  1.00  0.00     0.012 A 
ATOM     79  C   UNL A   1      46.976  27.537  24.533  1.00  0.00     0.148 A 
ATOM     80  C   UNL A   1      48.788  25.823  25.821  1.00  0.00     0.002 A 
ATOM     81  C   UNL A   1      48.121  27.102  23.875  1.00  0.00     0.091 A 
ATOM     82  F   UNL A   1      46.113  28.386  23.958  1.00  0.00    -0.205 F 
ATOM     83  C   UNL A   1      49.040  26.264  24.524  1.00  0.00     0.022 A 
BRANCH  81  84
ATOM     84  S   UNL A   1      48.447  27.515  22.158  1.00  0.00     0.127 S 
ATOM     85  O   UNL A   1      49.654  28.330  22.269  1.00  0.00    -0.237 OA
ATOM     86  O   UNL A   1      48.648  26.196  21.557  1.00  0.00    -0.237 OA
ATOM     87  O   UNL A   1      47.249  28.203  21.694  1.00  0.00    -0.744 OA
ENDBRANCH  81  84
ENDBRANCH  53  77
BRANCH  65  88
ATOM     88  C   UNL A   1      45.281  32.711  29.714  1.00  0.00     0.023 A 
ATOM     89  C   UNL A   1      46.010  32.661  30.918  1.00  0.00     0.012 A 
ATOM     90  C   UNL A   1      45.391  33.846  28.883  1.00  0.00     0.148 A 
ATOM     91  C   UNL A   1      46.806  33.736  31.309  1.00  0.00     0.002 A 
ATOM     92  C   UNL A   1      46.228  34.891  29.254  1.00  0.00     0.091 A 
ATOM     93  F   UNL A   1      44.677  33.881  27.750  1.00  0.00    -0.205 F 
ATOM     94  C   UNL A   1      46.925  34.844  30.472  1.00  0.00     0.022 A 
BRANCH  92  95
ATOM     95  S   UNL A   1      46.520  36.313  28.197  1.00  0.00     0.127 S 
ATOM     96  O   UNL A   1      45.196  36.934  28.161  1.00  0.00    -0.237 OA
ATOM     97  O   UNL A   1      47.524  37.061  28.953  1.00  0.00    -0.237 OA
ATOM     98  O   UNL A   1      46.992  35.781  26.926  1.00  0.00    -0.744 OA
ENDBRANCH  92  95
ENDBRANCH  65  88
ENDBRANCH  39  40
ENDBRANCH  31  34
ENDBRANCH  29  30
ENDBRANCH   1  29
TORSDOF 18
ENDMDL
MODEL 3
REMARK VINA RESULT:     -12.3      5.245      8.128
REMARK SMILES COc1ccc(-c2noc(CC(=O)NCCCNC(=O)c3ccc(-c4c5nc(c(-c6cccc(S(=O)(=O)[O-])c6F)c6ccc([nH]6)c(-c6cccc(S(=O)(=O)[O-])c6F)c6nc(c(-c7cccc(S(=O)(=O)[O-])c7F)c7ccc4[nH]7)C=C6)C=C5)cc3)c2-c2ccc(OC)cc2)cc1
REMARK SMILES IDX 16 1 15 2 14 3 12 4 13 5 11 7 10 8 7 9 8 10 84 11 9 12 6 13
REMARK SMILES IDX 3 14 4 15 94 16 5 17 93 18 2 19 1 20 85 21 86 22 92 23 87 24
REMARK SMILES IDX 91 25 88 26 89 27 90 28 17 29 18 30 19 31 20 33 21 34 22 35
REMARK SMILES IDX 83 36 23 37 82 38 24 39 25 40 26 41 76 42 27 43 81 44 75 45
REMARK SMILES IDX 77 46 28 47 80 48 74 49 73 50 29 52 61 53 41 54 60 55 42 56
REMARK SMILES IDX 45 57 59 58 78 59 43 60 44 61 58 63 79 64 46 65 30 66 31 67
REMARK SMILES IDX 39 68 32 69 34 70 40 71 33 72 35 73 36 74 37 75 38 76 62 77
REMARK SMILES IDX 63 78 71 79 64 80 66 81 72 82 65 83 67 84 68 85 69 86 70 87
REMARK SMILES IDX 47 88 48 89 56 90 49 91 51 92 57 93 50 94 52 95 53 96 54 97
REMARK SMILES IDX 55 98
REMARK H PARENT 14 6 18 32 77 51 45 62
REMARK Flexibility Score: inf
ROOT
ATOM      1  C   UNL A   1      32.686  29.251  23.890  1.00  0.00     0.042 C 
ENDROOT
BRANCH   1   2
ATOM      2  C   UNL A   1      33.990  28.749  23.275  1.00  0.00     0.117 C 
BRANCH   2   3
ATOM      3  N   UNL A   1      33.752  27.797  22.208  1.00  0.00    -0.356 N 
ATOM      4  C   UNL A   1      33.424  26.475  22.296  1.00  0.00     0.227 C 
ATOM      5  O   UNL A   1      33.284  25.841  21.247  1.00  0.00    -0.275 OA
ATOM      6  H   UNL A   1      33.840  28.154  21.294  1.00  0.00     0.163 HD
BRANCH   4   7
ATOM      7  C   UNL A   1      33.117  25.848  23.639  1.00  0.00     0.179 C 
BRANCH   7   8
ATOM      8  C   UNL A   1      32.658  24.444  23.531  1.00  0.00     0.154 A 
ATOM      9  C   UNL A   1      32.194  22.274  23.526  1.00  0.00     0.122 A 
ATOM     10  N   UNL A   1      31.081  22.898  23.116  1.00  0.00    -0.079 NA
ATOM     11  C   UNL A   1      33.238  23.215  23.768  1.00  0.00     0.053 A 
ATOM     12  O   UNL A   1      31.369  24.251  23.137  1.00  0.00    -0.360 OA
BRANCH   9  13
ATOM     13  C   UNL A   1      32.261  20.836  23.745  1.00  0.00     0.005 A 
ATOM     14  C   UNL A   1      32.606  18.103  24.224  1.00  0.00     0.118 A 
ATOM     15  C   UNL A   1      32.347  18.559  22.930  1.00  0.00     0.047 A 
ATOM     16  C   UNL A   1      32.700  19.006  25.281  1.00  0.00     0.047 A 
ATOM     17  C   UNL A   1      32.161  19.926  22.689  1.00  0.00     0.014 A 
ATOM     18  C   UNL A   1      32.518  20.366  25.043  1.00  0.00     0.014 A 
BRANCH  14  19
ATOM     19  O   UNL A   1      32.840  16.766  24.385  1.00  0.00    -0.497 OA
ATOM     20  C   UNL A   1      32.902  16.380  25.756  1.00  0.00     0.278 C 
ENDBRANCH  14  19
ENDBRANCH   9  13
BRANCH  11  21
ATOM     21  C   UNL A   1      34.619  22.990  24.143  1.00  0.00    -0.012 A 
ATOM     22  C   UNL A   1      34.950  22.839  25.496  1.00  0.00     0.013 A 
ATOM     23  C   UNL A   1      35.633  22.942  23.184  1.00  0.00     0.013 A 
ATOM     24  C   UNL A   1      36.273  22.617  25.876  1.00  0.00     0.047 A 
ATOM     25  C   UNL A   1      36.962  22.726  23.570  1.00  0.00     0.047 A 
ATOM     26  C   UNL A   1      37.286  22.557  24.918  1.00  0.00     0.118 A 
BRANCH  26  27
ATOM     27  O   UNL A   1      38.535  22.332  25.425  1.00  0.00    -0.497 OA
ATOM     28  C   UNL A   1      38.867  20.990  25.750  1.00  0.00     0.278 C 
ENDBRANCH  26  27
ENDBRANCH  11  21
ENDBRANCH   7   8
ENDBRANCH   4   7
ENDBRANCH   2   3
ENDBRANCH   1   2
BRANCH   1  29
ATOM     29  C   UNL A   1      32.741  29.386  25.409  1.00  0.00     0.118 C 
BRANCH  29  30
ATOM     30  N   UNL A   1      32.303  30.701  25.861  1.00  0.00    -0.352 N 
ATOM     31  C   UNL A   1      32.777  31.486  26.878  1.00  0.00     0.251 C 
ATOM     32  H   UNL A   1      31.550  31.083  25.357  1.00  0.00     0.163 HD
ATOM     33  O   UNL A   1      32.127  32.475  27.224  1.00  0.00    -0.269 OA
BRANCH  31  34
ATOM     34  C   UNL A   1      34.043  31.157  27.566  1.00  0.00     0.039 A 
ATOM     35  C   UNL A   1      34.979  32.173  27.778  1.00  0.00     0.014 A 
ATOM     36  C   UNL A   1      34.329  29.851  27.971  1.00  0.00     0.014 A 
ATOM     37  C   UNL A   1      36.175  31.891  28.442  1.00  0.00     0.010 A 
ATOM     38  C   UNL A   1      35.487  29.585  28.699  1.00  0.00     0.010 A 
ATOM     39  C   UNL A   1      36.425  30.600  28.937  1.00  0.00    -0.014 A 
BRANCH  39  40
ATOM     40  C   UNL A   1      37.656  30.298  29.713  1.00  0.00     0.031 A 
ATOM     41  C   UNL A   1      38.701  29.368  29.153  1.00  0.00     0.074 A 
ATOM     42  C   UNL A   1      37.797  30.802  30.956  1.00  0.00     0.049 A 
ATOM     43  N   UNL A   1      39.800  28.933  29.711  1.00  0.00    -0.248 NA
ATOM     44  C   UNL A   1      38.470  28.840  27.797  1.00  0.00     0.031 C 
ATOM     45  C   UNL A   1      36.822  31.657  31.639  1.00  0.00     0.029 A 
ATOM     46  N   UNL A   1      38.800  30.645  31.879  1.00  0.00    -0.354 N 
ATOM     47  C   UNL A   1      40.378  28.065  28.792  1.00  0.00     0.074 A 
ATOM     48  C   UNL A   1      39.489  28.004  27.653  1.00  0.00     0.031 C 
ATOM     49  C   UNL A   1      37.274  31.947  32.869  1.00  0.00     0.029 A 
ATOM     50  C   UNL A   1      38.551  31.273  33.079  1.00  0.00     0.049 A 
ATOM     51  H   UNL A   1      39.621  30.131  31.701  1.00  0.00     0.167 HD
ATOM     52  C   UNL A   1      41.557  27.403  28.873  1.00  0.00     0.034 A 
ATOM     53  C   UNL A   1      39.264  31.292  34.222  1.00  0.00     0.034 A 
ATOM     54  C   UNL A   1      42.457  27.493  29.991  1.00  0.00     0.049 A 
ATOM     55  C   UNL A   1      40.580  30.562  34.274  1.00  0.00     0.074 A 
ATOM     56  C   UNL A   1      43.702  26.909  30.141  1.00  0.00     0.029 A 
ATOM     57  N   UNL A   1      42.210  28.211  31.150  1.00  0.00    -0.354 N 
ATOM     58  N   UNL A   1      41.175  29.864  33.337  1.00  0.00    -0.248 NA
ATOM     59  C   UNL A   1      41.342  30.654  35.527  1.00  0.00     0.031 C 
ATOM     60  C   UNL A   1      44.201  27.259  31.400  1.00  0.00     0.029 A 
ATOM     61  C   UNL A   1      43.279  28.085  32.021  1.00  0.00     0.049 A 
ATOM     62  H   UNL A   1      41.395  28.733  31.329  1.00  0.00     0.167 HD
ATOM     63  C   UNL A   1      42.396  29.471  33.872  1.00  0.00     0.074 A 
ATOM     64  C   UNL A   1      42.467  30.030  35.206  1.00  0.00     0.031 C 
ATOM     65  C   UNL A   1      43.365  28.703  33.318  1.00  0.00     0.034 A 
BRANCH  52  66
ATOM     66  C   UNL A   1      41.983  26.572  27.690  1.00  0.00     0.023 A 
ATOM     67  C   UNL A   1      42.527  27.212  26.558  1.00  0.00     0.012 A 
ATOM     68  C   UNL A   1      41.936  25.164  27.731  1.00  0.00     0.148 A 
ATOM     69  C   UNL A   1      42.994  26.468  25.476  1.00  0.00     0.002 A 
ATOM     70  C   UNL A   1      42.444  24.428  26.667  1.00  0.00     0.091 A 
ATOM     71  F   UNL A   1      41.403  24.574  28.811  1.00  0.00    -0.205 F 
ATOM     72  C   UNL A   1      42.963  25.078  25.535  1.00  0.00     0.022 A 
BRANCH  70  73
ATOM     73  S   UNL A   1      42.526  22.633  26.675  1.00  0.00     0.127 S 
ATOM     74  O   UNL A   1      43.890  22.404  27.153  1.00  0.00    -0.237 OA
ATOM     75  O   UNL A   1      41.478  22.284  27.635  1.00  0.00    -0.237 OA
ATOM     76  O   UNL A   1      42.270  22.209  25.307  1.00  0.00    -0.744 OA
ENDBRANCH  70  73
ENDBRANCH  52  66
BRANCH  53  77
ATOM     77  C   UNL A   1      38.778  32.063  35.403  1.00  0.00     0.023 A 
ATOM     78  C   UNL A   1      38.894  33.467  35.411  1.00  0.00     0.012 A 
ATOM     79  C   UNL A   1      38.217  31.416  36.521  1.00  0.00     0.148 A 
ATOM     80  C   UNL A   1      38.509  34.207  36.529  1.00  0.00     0.002 A 
ATOM     81  C   UNL A   1      37.779  32.166  37.607  1.00  0.00     0.091 A 
ATOM     82  F   UNL A   1      38.125  30.079  36.505  1.00  0.00    -0.205 F 
ATOM     83  C   UNL A   1      37.944  33.558  37.624  1.00  0.00     0.022 A 
BRANCH  81  84
ATOM     84  S   UNL A   1      36.917  31.417  38.994  1.00  0.00     0.127 S 
ATOM     85  O   UNL A   1      35.735  32.267  39.108  1.00  0.00    -0.237 OA
ATOM     86  O   UNL A   1      36.657  30.064  38.500  1.00  0.00    -0.237 OA
ATOM     87  O   UNL A   1      37.857  31.473  40.106  1.00  0.00    -0.744 OA
ENDBRANCH  81  84
ENDBRANCH  53  77
BRANCH  65  88
ATOM     88  C   UNL A   1      44.614  28.462  34.125  1.00  0.00     0.023 A 
ATOM     89  C   UNL A   1      45.698  29.355  34.030  1.00  0.00     0.012 A 
ATOM     90  C   UNL A   1      44.680  27.384  35.031  1.00  0.00     0.148 A 
ATOM     91  C   UNL A   1      46.846  29.159  34.797  1.00  0.00     0.002 A 
ATOM     92  C   UNL A   1      45.806  27.224  35.830  1.00  0.00     0.091 A 
ATOM     93  F   UNL A   1      43.645  26.535  35.094  1.00  0.00    -0.205 F 
ATOM     94  C   UNL A   1      46.895  28.103  35.704  1.00  0.00     0.022 A 
BRANCH  92  95
ATOM     95  S   UNL A   1      45.920  25.954  37.094  1.00  0.00     0.127 S 
ATOM     96  O   UNL A   1      44.724  26.221  37.892  1.00  0.00    -0.237 OA
ATOM     97  O   UNL A   1      45.864  24.724  36.303  1.00  0.00    -0.237 OA
ATOM     98  O   UNL A   1      47.187  26.177  37.776  1.00  0.00    -0.744 OA
ENDBRANCH  92  95
ENDBRANCH  65  88
ENDBRANCH  39  40
ENDBRANCH  31  34
ENDBRANCH  29  30
ENDBRANCH   1  29
TORSDOF 18
ENDMDL
