MODEL 1
REMARK VINA RESULT:     -12.0      0.000      0.000
REMARK SMILES CN(Cc1ccncc1)C(=O)c1cccn1CC(=O)NCCCNC(=O)c1ccc(-c2c3nc(c(-c4cccc(S(=O)(=O)[O-])c4F)c4ccc([nH]4)c(-c4cccc(S(=O)(=O)[O-])c4F)c4nc(c(-c5cccc(S(=O)(=O)[O-])c5F)c5ccc2[nH]5)C=C4)C=C3)cc1
REMARK SMILES IDX 21 1 20 2 18 3 19 4 17 6 16 7 12 8 13 9 14 10 15 11 10 12
REMARK SMILES IDX 11 13 2 14 1 15 3 16 4 17 5 18 9 19 6 20 8 21 7 22 22 23
REMARK SMILES IDX 23 24 24 25 25 26 26 28 27 29 28 30 89 31 29 32 88 33 30 34
REMARK SMILES IDX 31 35 32 36 82 37 33 38 87 39 81 40 83 41 34 42 86 43 80 44
REMARK SMILES IDX 79 45 35 47 67 48 47 49 66 50 48 51 51 52 65 53 84 54 49 55
REMARK SMILES IDX 50 56 64 58 85 59 52 60 36 61 37 62 45 63 38 64 40 65 46 66
REMARK SMILES IDX 39 67 41 68 42 69 43 70 44 71 68 72 69 73 77 74 70 75 72 76
REMARK SMILES IDX 78 77 71 78 73 79 74 80 75 81 76 82 53 83 54 84 62 85 55 86
REMARK SMILES IDX 57 87 63 88 56 89 58 90 59 91 60 92 61 93
REMARK H PARENT 20 5 24 27 83 46 51 57
REMARK Flexibility Score: inf
ROOT
ATOM      1  C   UNL A   1      33.524  28.035  25.168  1.00  0.00     0.117 C 
ENDROOT
BRANCH   1   2
ATOM      2  N   UNL A   1      33.914  26.781  25.778  1.00  0.00    -0.354 N 
ATOM      3  C   UNL A   1      33.224  25.604  25.822  1.00  0.00     0.239 C 
ATOM      4  O   UNL A   1      33.752  24.629  26.358  1.00  0.00    -0.273 OA
ATOM      5  H   UNL A   1      34.794  26.776  26.219  1.00  0.00     0.163 HD
BRANCH   3   6
ATOM      6  C   UNL A   1      31.873  25.492  25.152  1.00  0.00     0.222 C 
BRANCH   6   7
ATOM      7  N   UNL A   1      31.930  25.425  23.696  1.00  0.00    -0.334 N 
ATOM      8  C   UNL A   1      31.263  26.251  22.801  1.00  0.00     0.107 A 
ATOM      9  C   UNL A   1      31.888  26.058  21.577  1.00  0.00     0.033 A 
ATOM     10  C   UNL A   1      32.770  24.962  21.687  1.00  0.00     0.020 A 
ATOM     11  C   UNL A   1      32.771  24.583  23.006  1.00  0.00     0.087 A 
BRANCH   8  12
ATOM     12  C   UNL A   1      30.214  27.198  23.140  1.00  0.00     0.270 C 
ATOM     13  O   UNL A   1      29.085  26.811  23.442  1.00  0.00    -0.267 OA
BRANCH  12  14
ATOM     14  N   UNL A   1      30.489  28.577  23.046  1.00  0.00    -0.336 N 
ATOM     15  C   UNL A   1      31.760  28.938  22.443  1.00  0.00     0.147 C 
BRANCH  14  16
ATOM     16  C   UNL A   1      29.810  29.613  23.827  1.00  0.00     0.155 C 
BRANCH  16  17
ATOM     17  C   UNL A   1      29.119  30.693  23.041  1.00  0.00    -0.026 A 
ATOM     18  C   UNL A   1      29.001  32.000  23.508  1.00  0.00     0.025 A 
ATOM     19  C   UNL A   1      28.592  30.383  21.778  1.00  0.00     0.025 A 
ATOM     20  C   UNL A   1      28.433  32.945  22.666  1.00  0.00     0.111 A 
ATOM     21  C   UNL A   1      28.059  31.400  21.006  1.00  0.00     0.111 A 
ATOM     22  N   UNL A   1      27.972  32.679  21.425  1.00  0.00    -0.265 NA
ENDBRANCH  16  17
ENDBRANCH  14  16
ENDBRANCH  12  14
ENDBRANCH   8  12
ENDBRANCH   6   7
ENDBRANCH   3   6
ENDBRANCH   1   2
BRANCH   1  23
ATOM     23  C   UNL A   1      33.774  29.228  26.089  1.00  0.00     0.042 C 
BRANCH  23  24
ATOM     24  C   UNL A   1      34.934  29.006  27.038  1.00  0.00     0.118 C 
BRANCH  24  25
ATOM     25  N   UNL A   1      35.140  30.208  27.840  1.00  0.00    -0.352 N 
ATOM     26  C   UNL A   1      36.108  30.481  28.772  1.00  0.00     0.251 C 
ATOM     27  H   UNL A   1      34.487  30.929  27.689  1.00  0.00     0.163 HD
ATOM     28  O   UNL A   1      35.923  31.395  29.563  1.00  0.00    -0.269 OA
BRANCH  26  29
ATOM     29  C   UNL A   1      37.338  29.671  28.831  1.00  0.00     0.039 A 
ATOM     30  C   UNL A   1      38.242  29.775  27.769  1.00  0.00     0.014 A 
ATOM     31  C   UNL A   1      37.580  28.789  29.889  1.00  0.00     0.014 A 
ATOM     32  C   UNL A   1      39.418  29.039  27.801  1.00  0.00     0.010 A 
ATOM     33  C   UNL A   1      38.775  28.097  29.953  1.00  0.00     0.010 A 
ATOM     34  C   UNL A   1      39.691  28.226  28.909  1.00  0.00    -0.014 A 
BRANCH  34  35
ATOM     35  C   UNL A   1      41.028  27.621  29.043  1.00  0.00     0.031 A 
ATOM     36  C   UNL A   1      41.015  26.164  28.528  1.00  0.00     0.074 A 
ATOM     37  C   UNL A   1      41.993  28.419  29.596  1.00  0.00     0.049 A 
ATOM     38  N   UNL A   1      41.620  25.108  28.985  1.00  0.00    -0.248 NA
ATOM     39  C   UNL A   1      40.077  25.795  27.429  1.00  0.00     0.031 C 
ATOM     40  C   UNL A   1      41.807  29.844  29.966  1.00  0.00     0.029 A 
ATOM     41  N   UNL A   1      43.312  28.228  29.951  1.00  0.00    -0.354 N 
ATOM     42  C   UNL A   1      41.336  24.039  28.092  1.00  0.00     0.074 A 
ATOM     43  C   UNL A   1      40.251  24.480  27.273  1.00  0.00     0.031 C 
ATOM     44  C   UNL A   1      42.918  30.348  30.548  1.00  0.00     0.029 A 
ATOM     45  C   UNL A   1      43.938  29.321  30.609  1.00  0.00     0.049 A 
ATOM     46  H   UNL A   1      43.789  27.389  29.762  1.00  0.00     0.167 HD
ATOM     47  C   UNL A   1      42.143  22.940  27.966  1.00  0.00     0.034 A 
ATOM     48  C   UNL A   1      45.172  29.377  31.203  1.00  0.00     0.034 A 
ATOM     49  C   UNL A   1      43.275  23.114  28.816  1.00  0.00     0.049 A 
ATOM     50  C   UNL A   1      45.813  28.099  30.880  1.00  0.00     0.074 A 
ATOM     51  C   UNL A   1      43.444  23.063  30.174  1.00  0.00     0.029 A 
ATOM     52  N   UNL A   1      44.334  23.773  28.235  1.00  0.00    -0.354 N 
ATOM     53  N   UNL A   1      46.284  27.784  29.710  1.00  0.00    -0.248 NA
ATOM     54  C   UNL A   1      45.814  27.037  31.894  1.00  0.00     0.031 C 
ATOM     55  C   UNL A   1      44.364  24.103  30.412  1.00  0.00     0.029 A 
ATOM     56  C   UNL A   1      44.891  24.567  29.200  1.00  0.00     0.049 A 
ATOM     57  H   UNL A   1      44.633  23.690  27.302  1.00  0.00     0.167 HD
ATOM     58  C   UNL A   1      46.270  26.414  29.765  1.00  0.00     0.074 A 
ATOM     59  C   UNL A   1      46.331  26.055  31.165  1.00  0.00     0.031 C 
ATOM     60  C   UNL A   1      45.659  25.711  28.777  1.00  0.00     0.034 A 
BRANCH  47  61
ATOM     61  C   UNL A   1      42.258  21.802  26.972  1.00  0.00     0.023 A 
ATOM     62  C   UNL A   1      41.321  20.739  27.161  1.00  0.00     0.012 A 
ATOM     63  C   UNL A   1      43.341  21.548  26.115  1.00  0.00     0.148 A 
ATOM     64  C   UNL A   1      41.524  19.456  26.659  1.00  0.00     0.002 A 
ATOM     65  C   UNL A   1      43.511  20.271  25.566  1.00  0.00     0.091 A 
ATOM     66  F   UNL A   1      44.244  22.508  25.894  1.00  0.00    -0.205 F 
ATOM     67  C   UNL A   1      42.635  19.218  25.873  1.00  0.00     0.022 A 
BRANCH  65  68
ATOM     68  S   UNL A   1      44.854  19.859  24.446  1.00  0.00     0.127 S 
ATOM     69  O   UNL A   1      44.622  18.438  24.203  1.00  0.00    -0.237 OA
ATOM     70  O   UNL A   1      44.565  20.724  23.299  1.00  0.00    -0.237 OA
ATOM     71  O   UNL A   1      46.079  20.206  25.155  1.00  0.00    -0.744 OA
ENDBRANCH  65  68
ENDBRANCH  47  61
BRANCH  48  72
ATOM     72  C   UNL A   1      45.920  30.298  32.144  1.00  0.00     0.023 A 
ATOM     73  C   UNL A   1      47.006  31.104  31.775  1.00  0.00     0.012 A 
ATOM     74  C   UNL A   1      45.473  30.448  33.494  1.00  0.00     0.148 A 
ATOM     75  C   UNL A   1      47.536  32.067  32.663  1.00  0.00     0.002 A 
ATOM     76  C   UNL A   1      45.903  31.481  34.317  1.00  0.00     0.091 A 
ATOM     77  F   UNL A   1      44.640  29.547  34.023  1.00  0.00    -0.205 F 
ATOM     78  C   UNL A   1      46.954  32.292  33.911  1.00  0.00     0.022 A 
BRANCH  76  79
ATOM     79  S   UNL A   1      45.028  31.902  35.839  1.00  0.00     0.127 S 
ATOM     80  O   UNL A   1      43.649  32.050  35.377  1.00  0.00    -0.237 OA
ATOM     81  O   UNL A   1      45.278  30.715  36.656  1.00  0.00    -0.237 OA
ATOM     82  O   UNL A   1      45.644  33.122  36.346  1.00  0.00    -0.744 OA
ENDBRANCH  76  79
ENDBRANCH  48  72
BRANCH  60  83
ATOM     83  C   UNL A   1      45.615  26.409  27.419  1.00  0.00     0.023 A 
ATOM     84  C   UNL A   1      44.350  26.830  26.962  1.00  0.00     0.012 A 
ATOM     85  C   UNL A   1      46.707  26.573  26.530  1.00  0.00     0.148 A 
ATOM     86  C   UNL A   1      44.166  27.375  25.688  1.00  0.00     0.002 A 
ATOM     87  C   UNL A   1      46.523  27.106  25.246  1.00  0.00     0.091 A 
ATOM     88  F   UNL A   1      47.922  26.209  26.934  1.00  0.00    -0.205 F 
ATOM     89  C   UNL A   1      45.250  27.511  24.829  1.00  0.00     0.022 A 
BRANCH  87  90
ATOM     90  S   UNL A   1      47.840  27.247  24.014  1.00  0.00     0.127 S 
ATOM     91  O   UNL A   1      47.203  28.042  22.961  1.00  0.00    -0.237 OA
ATOM     92  O   UNL A   1      48.879  27.958  24.753  1.00  0.00    -0.237 OA
ATOM     93  O   UNL A   1      48.177  25.888  23.604  1.00  0.00    -0.744 OA
ENDBRANCH  87  90
ENDBRANCH  60  83
ENDBRANCH  34  35
ENDBRANCH  26  29
ENDBRANCH  24  25
ENDBRANCH  23  24
ENDBRANCH   1  23
TORSDOF 18
ENDMDL
MODEL 2
REMARK VINA RESULT:     -11.8      4.666      9.779
REMARK SMILES CN(Cc1ccncc1)C(=O)c1cccn1CC(=O)NCCCNC(=O)c1ccc(-c2c3nc(c(-c4cccc(S(=O)(=O)[O-])c4F)c4ccc([nH]4)c(-c4cccc(S(=O)(=O)[O-])c4F)c4nc(c(-c5cccc(S(=O)(=O)[O-])c5F)c5ccc2[nH]5)C=C4)C=C3)cc1
REMARK SMILES IDX 21 1 20 2 18 3 19 4 17 6 16 7 12 8 13 9 14 10 15 11 10 12
REMARK SMILES IDX 11 13 2 14 1 15 3 16 4 17 5 18 9 19 6 20 8 21 7 22 22 23
REMARK SMILES IDX 23 24 24 25 25 26 26 28 27 29 28 30 89 31 29 32 88 33 30 34
REMARK SMILES IDX 31 35 32 36 82 37 33 38 87 39 81 40 83 41 34 42 86 43 80 44
REMARK SMILES IDX 79 45 35 47 67 48 47 49 66 50 48 51 51 52 65 53 84 54 49 55
REMARK SMILES IDX 50 56 64 58 85 59 52 60 36 61 37 62 45 63 38 64 40 65 46 66
REMARK SMILES IDX 39 67 41 68 42 69 43 70 44 71 68 72 69 73 77 74 70 75 72 76
REMARK SMILES IDX 78 77 71 78 73 79 74 80 75 81 76 82 53 83 54 84 62 85 55 86
REMARK SMILES IDX 57 87 63 88 56 89 58 90 59 91 60 92 61 93
REMARK H PARENT 20 5 24 27 83 46 51 57
REMARK Flexibility Score: inf
ROOT
ATOM      1  C   UNL A   1      36.610  22.142  25.832  1.00  0.00     0.117 C 
ENDROOT
BRANCH   1   2
ATOM      2  N   UNL A   1      36.805  22.444  24.429  1.00  0.00    -0.354 N 
ATOM      3  C   UNL A   1      35.862  22.654  23.464  1.00  0.00     0.239 C 
ATOM      4  O   UNL A   1      36.235  22.942  22.326  1.00  0.00    -0.273 OA
ATOM      5  H   UNL A   1      37.741  22.507  24.132  1.00  0.00     0.163 HD
BRANCH   3   6
ATOM      6  C   UNL A   1      34.392  22.608  23.818  1.00  0.00     0.222 C 
BRANCH   6   7
ATOM      7  N   UNL A   1      33.601  23.680  23.225  1.00  0.00    -0.334 N 
ATOM      8  C   UNL A   1      33.248  24.881  23.827  1.00  0.00     0.107 A 
ATOM      9  C   UNL A   1      32.828  25.707  22.794  1.00  0.00     0.033 A 
ATOM     10  C   UNL A   1      32.713  24.938  21.616  1.00  0.00     0.020 A 
ATOM     11  C   UNL A   1      33.189  23.685  21.913  1.00  0.00     0.087 A 
BRANCH   8  12
ATOM     12  C   UNL A   1      33.417  25.208  25.233  1.00  0.00     0.270 C 
ATOM     13  O   UNL A   1      34.513  25.550  25.676  1.00  0.00    -0.267 OA
BRANCH  12  14
ATOM     14  N   UNL A   1      32.318  25.056  26.101  1.00  0.00    -0.336 N 
ATOM     15  C   UNL A   1      32.196  23.770  26.765  1.00  0.00     0.147 C 
BRANCH  14  16
ATOM     16  C   UNL A   1      31.126  25.907  26.085  1.00  0.00     0.155 C 
BRANCH  16  17
ATOM     17  C   UNL A   1      31.366  27.390  26.140  1.00  0.00    -0.026 A 
ATOM     18  C   UNL A   1      31.832  28.032  27.285  1.00  0.00     0.025 A 
ATOM     19  C   UNL A   1      31.135  28.159  24.989  1.00  0.00     0.025 A 
ATOM     20  C   UNL A   1      32.114  29.387  27.205  1.00  0.00     0.111 A 
ATOM     21  C   UNL A   1      31.464  29.503  25.003  1.00  0.00     0.111 A 
ATOM     22  N   UNL A   1      31.953  30.133  26.091  1.00  0.00    -0.265 NA
ENDBRANCH  16  17
ENDBRANCH  14  16
ENDBRANCH  12  14
ENDBRANCH   8  12
ENDBRANCH   6   7
ENDBRANCH   3   6
ENDBRANCH   1   2
BRANCH   1  23
ATOM     23  C   UNL A   1      36.964  23.325  26.732  1.00  0.00     0.042 C 
BRANCH  23  24
ATOM     24  C   UNL A   1      37.988  24.253  26.109  1.00  0.00     0.118 C 
BRANCH  24  25
ATOM     25  N   UNL A   1      39.330  23.750  26.389  1.00  0.00    -0.352 N 
ATOM     26  C   UNL A   1      40.439  24.422  26.832  1.00  0.00     0.251 C 
ATOM     27  H   UNL A   1      39.455  22.785  26.238  1.00  0.00     0.163 HD
ATOM     28  O   UNL A   1      41.538  23.903  26.693  1.00  0.00    -0.269 OA
BRANCH  26  29
ATOM     29  C   UNL A   1      40.310  25.758  27.444  1.00  0.00     0.039 A 
ATOM     30  C   UNL A   1      39.814  25.833  28.750  1.00  0.00     0.014 A 
ATOM     31  C   UNL A   1      40.626  26.919  26.732  1.00  0.00     0.014 A 
ATOM     32  C   UNL A   1      39.695  27.073  29.361  1.00  0.00     0.010 A 
ATOM     33  C   UNL A   1      40.563  28.151  27.357  1.00  0.00     0.010 A 
ATOM     34  C   UNL A   1      40.099  28.223  28.670  1.00  0.00    -0.014 A 
BRANCH  34  35
ATOM     35  C   UNL A   1      40.178  29.504  29.394  1.00  0.00     0.031 A 
ATOM     36  C   UNL A   1      38.895  30.335  29.163  1.00  0.00     0.074 A 
ATOM     37  C   UNL A   1      41.335  29.727  30.092  1.00  0.00     0.049 A 
ATOM     38  N   UNL A   1      38.743  31.615  28.998  1.00  0.00    -0.248 NA
ATOM     39  C   UNL A   1      37.604  29.622  28.939  1.00  0.00     0.031 C 
ATOM     40  C   UNL A   1      42.438  28.745  30.241  1.00  0.00     0.029 A 
ATOM     41  N   UNL A   1      41.829  30.787  30.823  1.00  0.00    -0.354 N 
ATOM     42  C   UNL A   1      37.347  31.867  28.910  1.00  0.00     0.074 A 
ATOM     43  C   UNL A   1      36.725  30.598  28.700  1.00  0.00     0.031 C 
ATOM     44  C   UNL A   1      43.474  29.273  30.931  1.00  0.00     0.029 A 
ATOM     45  C   UNL A   1      43.155  30.636  31.309  1.00  0.00     0.049 A 
ATOM     46  H   UNL A   1      41.297  31.596  30.997  1.00  0.00     0.167 HD
ATOM     47  C   UNL A   1      36.790  33.081  29.206  1.00  0.00     0.034 A 
ATOM     48  C   UNL A   1      43.955  31.559  31.930  1.00  0.00     0.034 A 
ATOM     49  C   UNL A   1      37.826  33.956  29.648  1.00  0.00     0.049 A 
ATOM     50  C   UNL A   1      43.098  32.728  32.149  1.00  0.00     0.074 A 
ATOM     51  C   UNL A   1      38.847  34.600  29.002  1.00  0.00     0.029 A 
ATOM     52  N   UNL A   1      38.080  33.910  30.999  1.00  0.00    -0.354 N 
ATOM     53  N   UNL A   1      42.160  32.796  33.045  1.00  0.00    -0.248 NA
ATOM     54  C   UNL A   1      43.197  33.857  31.216  1.00  0.00     0.031 C 
ATOM     55  C   UNL A   1      39.908  34.507  29.925  1.00  0.00     0.029 A 
ATOM     56  C   UNL A   1      39.432  34.044  31.159  1.00  0.00     0.049 A 
ATOM     57  H   UNL A   1      37.415  33.801  31.716  1.00  0.00     0.167 HD
ATOM     58  C   UNL A   1      41.353  33.778  32.527  1.00  0.00     0.074 A 
ATOM     59  C   UNL A   1      42.187  34.590  31.670  1.00  0.00     0.031 C 
ATOM     60  C   UNL A   1      40.025  33.539  32.372  1.00  0.00     0.034 A 
BRANCH  47  61
ATOM     61  C   UNL A   1      35.381  33.585  29.450  1.00  0.00     0.023 A 
ATOM     62  C   UNL A   1      34.574  33.710  28.278  1.00  0.00     0.012 A 
ATOM     63  C   UNL A   1      34.907  34.206  30.616  1.00  0.00     0.148 A 
ATOM     64  C   UNL A   1      33.448  34.529  28.220  1.00  0.00     0.002 A 
ATOM     65  C   UNL A   1      33.743  34.984  30.568  1.00  0.00     0.091 A 
ATOM     66  F   UNL A   1      35.615  34.115  31.745  1.00  0.00    -0.205 F 
ATOM     67  C   UNL A   1      33.043  35.183  29.367  1.00  0.00     0.022 A 
BRANCH  65  68
ATOM     68  S   UNL A   1      33.052  35.800  32.011  1.00  0.00     0.127 S 
ATOM     69  O   UNL A   1      34.245  36.073  32.807  1.00  0.00    -0.237 OA
ATOM     70  O   UNL A   1      32.437  36.990  31.416  1.00  0.00    -0.237 OA
ATOM     71  O   UNL A   1      32.095  34.859  32.576  1.00  0.00    -0.744 OA
ENDBRANCH  65  68
ENDBRANCH  47  61
BRANCH  48  72
ATOM     72  C   UNL A   1      45.418  31.709  32.291  1.00  0.00     0.023 A 
ATOM     73  C   UNL A   1      46.475  31.666  31.372  1.00  0.00     0.012 A 
ATOM     74  C   UNL A   1      45.789  31.996  33.643  1.00  0.00     0.148 A 
ATOM     75  C   UNL A   1      47.795  31.992  31.759  1.00  0.00     0.002 A 
ATOM     76  C   UNL A   1      47.056  32.445  33.995  1.00  0.00     0.091 A 
ATOM     77  F   UNL A   1      44.913  31.791  34.631  1.00  0.00    -0.205 F 
ATOM     78  C   UNL A   1      48.077  32.431  33.054  1.00  0.00     0.022 A 
BRANCH  76  79
ATOM     79  S   UNL A   1      47.377  33.198  35.604  1.00  0.00     0.127 S 
ATOM     80  O   UNL A   1      48.751  33.674  35.457  1.00  0.00    -0.237 OA
ATOM     81  O   UNL A   1      46.362  34.250  35.640  1.00  0.00    -0.237 OA
ATOM     82  O   UNL A   1      47.191  32.147  36.596  1.00  0.00    -0.744 OA
ENDBRANCH  76  79
ENDBRANCH  48  72
BRANCH  60  83
ATOM     83  C   UNL A   1      39.435  32.512  33.338  1.00  0.00     0.023 A 
ATOM     84  C   UNL A   1      39.046  31.274  32.787  1.00  0.00     0.012 A 
ATOM     85  C   UNL A   1      39.142  32.728  34.707  1.00  0.00     0.148 A 
ATOM     86  C   UNL A   1      38.389  30.301  33.546  1.00  0.00     0.002 A 
ATOM     87  C   UNL A   1      38.471  31.760  35.467  1.00  0.00     0.091 A 
ATOM     88  F   UNL A   1      39.515  33.876  35.268  1.00  0.00    -0.205 F 
ATOM     89  C   UNL A   1      38.099  30.543  34.883  1.00  0.00     0.022 A 
BRANCH  87  90
ATOM     90  S   UNL A   1      37.963  31.999  37.186  1.00  0.00     0.127 S 
ATOM     91  O   UNL A   1      37.429  30.682  37.544  1.00  0.00    -0.237 OA
ATOM     92  O   UNL A   1      39.227  32.328  37.838  1.00  0.00    -0.237 OA
ATOM     93  O   UNL A   1      36.962  33.060  37.183  1.00  0.00    -0.744 OA
ENDBRANCH  87  90
ENDBRANCH  60  83
ENDBRANCH  34  35
ENDBRANCH  26  29
ENDBRANCH  24  25
ENDBRANCH  23  24
ENDBRANCH   1  23
TORSDOF 18
ENDMDL
MODEL 3
REMARK VINA RESULT:     -11.8      4.443      6.999
REMARK SMILES CN(Cc1ccncc1)C(=O)c1cccn1CC(=O)NCCCNC(=O)c1ccc(-c2c3nc(c(-c4cccc(S(=O)(=O)[O-])c4F)c4ccc([nH]4)c(-c4cccc(S(=O)(=O)[O-])c4F)c4nc(c(-c5cccc(S(=O)(=O)[O-])c5F)c5ccc2[nH]5)C=C4)C=C3)cc1
REMARK SMILES IDX 21 1 20 2 18 3 19 4 17 6 16 7 12 8 13 9 14 10 15 11 10 12
REMARK SMILES IDX 11 13 2 14 1 15 3 16 4 17 5 18 9 19 6 20 8 21 7 22 22 23
REMARK SMILES IDX 23 24 24 25 25 26 26 28 27 29 28 30 89 31 29 32 88 33 30 34
REMARK SMILES IDX 31 35 32 36 82 37 33 38 87 39 81 40 83 41 34 42 86 43 80 44
REMARK SMILES IDX 79 45 35 47 67 48 47 49 66 50 48 51 51 52 65 53 84 54 49 55
REMARK SMILES IDX 50 56 64 58 85 59 52 60 36 61 37 62 45 63 38 64 40 65 46 66
REMARK SMILES IDX 39 67 41 68 42 69 43 70 44 71 68 72 69 73 77 74 70 75 72 76
REMARK SMILES IDX 78 77 71 78 73 79 74 80 75 81 76 82 53 83 54 84 62 85 55 86
REMARK SMILES IDX 57 87 63 88 56 89 58 90 59 91 60 92 61 93
REMARK H PARENT 20 5 24 27 83 46 51 57
REMARK Flexibility Score: inf
ROOT
ATOM      1  C   UNL A   1      31.246  30.843  25.787  1.00  0.00     0.117 C 
ENDROOT
BRANCH   1   2
ATOM      2  N   UNL A   1      32.430  30.148  26.247  1.00  0.00    -0.354 N 
ATOM      3  C   UNL A   1      33.246  29.302  25.552  1.00  0.00     0.239 C 
ATOM      4  O   UNL A   1      34.239  28.842  26.117  1.00  0.00    -0.273 OA
ATOM      5  H   UNL A   1      32.681  30.307  27.186  1.00  0.00     0.163 HD
BRANCH   3   6
ATOM      6  C   UNL A   1      32.969  29.009  24.095  1.00  0.00     0.222 C 
BRANCH   6   7
ATOM      7  N   UNL A   1      31.961  27.979  23.872  1.00  0.00    -0.334 N 
ATOM      8  C   UNL A   1      32.187  26.673  23.461  1.00  0.00     0.107 A 
ATOM      9  C   UNL A   1      31.013  25.986  23.735  1.00  0.00     0.033 A 
ATOM     10  C   UNL A   1      30.016  26.918  24.095  1.00  0.00     0.020 A 
ATOM     11  C   UNL A   1      30.627  28.145  24.163  1.00  0.00     0.087 A 
BRANCH   8  12
ATOM     12  C   UNL A   1      33.448  26.144  22.967  1.00  0.00     0.270 C 
ATOM     13  O   UNL A   1      33.851  26.422  21.837  1.00  0.00    -0.267 OA
BRANCH  12  14
ATOM     14  N   UNL A   1      34.170  25.246  23.776  1.00  0.00    -0.336 N 
ATOM     15  C   UNL A   1      34.358  23.908  23.242  1.00  0.00     0.147 C 
BRANCH  14  16
ATOM     16  C   UNL A   1      34.395  25.421  25.213  1.00  0.00     0.155 C 
BRANCH  16  17
ATOM     17  C   UNL A   1      33.842  24.349  26.109  1.00  0.00    -0.026 A 
ATOM     18  C   UNL A   1      32.483  24.242  26.400  1.00  0.00     0.025 A 
ATOM     19  C   UNL A   1      34.720  23.403  26.659  1.00  0.00     0.025 A 
ATOM     20  C   UNL A   1      32.061  23.161  27.158  1.00  0.00     0.111 A 
ATOM     21  C   UNL A   1      34.200  22.349  27.389  1.00  0.00     0.111 A 
ATOM     22  N   UNL A   1      32.883  22.208  27.648  1.00  0.00    -0.265 NA
ENDBRANCH  16  17
ENDBRANCH  14  16
ENDBRANCH  12  14
ENDBRANCH   8  12
ENDBRANCH   6   7
ENDBRANCH   3   6
ENDBRANCH   1   2
BRANCH   1  23
ATOM     23  C   UNL A   1      31.262  32.324  26.161  1.00  0.00     0.042 C 
BRANCH  23  24
ATOM     24  C   UNL A   1      32.299  32.652  27.217  1.00  0.00     0.118 C 
BRANCH  24  25
ATOM     25  N   UNL A   1      32.256  34.081  27.510  1.00  0.00    -0.352 N 
ATOM     26  C   UNL A   1      32.927  34.797  28.467  1.00  0.00     0.251 C 
ATOM     27  H   UNL A   1      31.657  34.609  26.933  1.00  0.00     0.163 HD
ATOM     28  O   UNL A   1      32.516  35.910  28.766  1.00  0.00    -0.269 OA
BRANCH  26  29
ATOM     29  C   UNL A   1      34.107  34.225  29.139  1.00  0.00     0.039 A 
ATOM     30  C   UNL A   1      33.897  33.455  30.288  1.00  0.00     0.014 A 
ATOM     31  C   UNL A   1      35.403  34.477  28.676  1.00  0.00     0.014 A 
ATOM     32  C   UNL A   1      34.985  32.888  30.936  1.00  0.00     0.010 A 
ATOM     33  C   UNL A   1      36.485  33.867  29.285  1.00  0.00     0.010 A 
ATOM     34  C   UNL A   1      36.271  33.074  30.411  1.00  0.00    -0.014 A 
BRANCH  34  35
ATOM     35  C   UNL A   1      37.392  32.296  30.969  1.00  0.00     0.031 A 
ATOM     36  C   UNL A   1      37.688  31.064  30.084  1.00  0.00     0.074 A 
ATOM     37  C   UNL A   1      37.931  32.775  32.133  1.00  0.00     0.049 A 
ATOM     38  N   UNL A   1      38.030  29.855  30.417  1.00  0.00    -0.248 NA
ATOM     39  C   UNL A   1      37.424  31.148  28.618  1.00  0.00     0.031 C 
ATOM     40  C   UNL A   1      37.534  34.043  32.793  1.00  0.00     0.029 A 
ATOM     41  N   UNL A   1      38.913  32.328  32.993  1.00  0.00    -0.354 N 
ATOM     42  C   UNL A   1      38.261  29.135  29.214  1.00  0.00     0.074 A 
ATOM     43  C   UNL A   1      37.701  29.924  28.162  1.00  0.00     0.031 C 
ATOM     44  C   UNL A   1      38.197  34.216  33.959  1.00  0.00     0.029 A 
ATOM     45  C   UNL A   1      39.094  33.098  34.174  1.00  0.00     0.049 A 
ATOM     46  H   UNL A   1      39.453  31.529  32.802  1.00  0.00     0.167 HD
ATOM     47  C   UNL A   1      39.066  28.030  29.151  1.00  0.00     0.034 A 
ATOM     48  C   UNL A   1      39.875  32.827  35.267  1.00  0.00     0.034 A 
ATOM     49  C   UNL A   1      39.628  27.808  30.443  1.00  0.00     0.049 A 
ATOM     50  C   UNL A   1      40.639  31.629  34.907  1.00  0.00     0.074 A 
ATOM     51  C   UNL A   1      39.111  27.345  31.623  1.00  0.00     0.029 A 
ATOM     52  N   UNL A   1      40.810  28.473  30.676  1.00  0.00    -0.354 N 
ATOM     53  N   UNL A   1      41.634  31.613  34.072  1.00  0.00    -0.248 NA
ATOM     54  C   UNL A   1      40.182  30.327  35.409  1.00  0.00     0.031 C 
ATOM     55  C   UNL A   1      39.757  28.150  32.583  1.00  0.00     0.029 A 
ATOM     56  C   UNL A   1      40.793  28.878  31.983  1.00  0.00     0.049 A 
ATOM     57  H   UNL A   1      41.532  28.628  30.026  1.00  0.00     0.167 HD
ATOM     58  C   UNL A   1      41.647  30.297  33.682  1.00  0.00     0.074 A 
ATOM     59  C   UNL A   1      41.027  29.543  34.748  1.00  0.00     0.031 C 
ATOM     60  C   UNL A   1      41.626  29.992  32.359  1.00  0.00     0.034 A 
BRANCH  47  61
ATOM     61  C   UNL A   1      39.696  27.223  28.033  1.00  0.00     0.023 A 
ATOM     62  C   UNL A   1      39.346  25.838  28.016  1.00  0.00     0.012 A 
ATOM     63  C   UNL A   1      40.782  27.613  27.233  1.00  0.00     0.148 A 
ATOM     64  C   UNL A   1      40.117  24.872  27.373  1.00  0.00     0.002 A 
ATOM     65  C   UNL A   1      41.521  26.645  26.541  1.00  0.00     0.091 A 
ATOM     66  F   UNL A   1      41.149  28.897  27.201  1.00  0.00    -0.205 F 
ATOM     67  C   UNL A   1      41.220  25.278  26.648  1.00  0.00     0.022 A 
BRANCH  65  68
ATOM     68  S   UNL A   1      42.913  27.050  25.480  1.00  0.00     0.127 S 
ATOM     69  O   UNL A   1      43.901  27.528  26.443  1.00  0.00    -0.237 OA
ATOM     70  O   UNL A   1      43.228  25.747  24.887  1.00  0.00    -0.237 OA
ATOM     71  O   UNL A   1      42.410  28.029  24.526  1.00  0.00    -0.744 OA
ENDBRANCH  65  68
ENDBRANCH  47  61
BRANCH  48  72
ATOM     72  C   UNL A   1      40.031  33.336  36.685  1.00  0.00     0.023 A 
ATOM     73  C   UNL A   1      40.880  34.383  37.068  1.00  0.00     0.012 A 
ATOM     74  C   UNL A   1      39.214  32.793  37.726  1.00  0.00     0.148 A 
ATOM     75  C   UNL A   1      40.837  34.919  38.375  1.00  0.00     0.002 A 
ATOM     76  C   UNL A   1      39.076  33.403  38.967  1.00  0.00     0.091 A 
ATOM     77  F   UNL A   1      38.582  31.631  37.539  1.00  0.00    -0.205 F 
ATOM     78  C   UNL A   1      39.903  34.466  39.307  1.00  0.00     0.022 A 
BRANCH  76  79
ATOM     79  S   UNL A   1      37.741  32.955  40.097  1.00  0.00     0.127 S 
ATOM     80  O   UNL A   1      37.745  34.068  41.043  1.00  0.00    -0.237 OA
ATOM     81  O   UNL A   1      36.593  32.923  39.190  1.00  0.00    -0.237 OA
ATOM     82  O   UNL A   1      38.097  31.660  40.663  1.00  0.00    -0.744 OA
ENDBRANCH  76  79
ENDBRANCH  48  72
BRANCH  60  83
ATOM     83  C   UNL A   1      42.228  31.055  31.440  1.00  0.00     0.023 A 
ATOM     84  C   UNL A   1      41.325  31.940  30.818  1.00  0.00     0.012 A 
ATOM     85  C   UNL A   1      43.592  31.161  31.071  1.00  0.00     0.148 A 
ATOM     86  C   UNL A   1      41.744  32.878  29.869  1.00  0.00     0.002 A 
ATOM     87  C   UNL A   1      44.012  32.090  30.109  1.00  0.00     0.091 A 
ATOM     88  F   UNL A   1      44.478  30.357  31.654  1.00  0.00    -0.205 F 
ATOM     89  C   UNL A   1      43.085  32.952  29.513  1.00  0.00     0.022 A 
BRANCH  87  90
ATOM     90  S   UNL A   1      45.712  32.217  29.503  1.00  0.00     0.127 S 
ATOM     91  O   UNL A   1      45.942  30.888  28.930  1.00  0.00    -0.237 OA
ATOM     92  O   UNL A   1      45.607  33.285  28.513  1.00  0.00    -0.237 OA
ATOM     93  O   UNL A   1      46.548  32.512  30.662  1.00  0.00    -0.744 OA
ENDBRANCH  87  90
ENDBRANCH  60  83
ENDBRANCH  34  35
ENDBRANCH  26  29
ENDBRANCH  24  25
ENDBRANCH  23  24
ENDBRANCH   1  23
TORSDOF 18
ENDMDL
