MODEL 1
REMARK VINA RESULT:     -14.7      0.000      0.000
REMARK SMILES O=C(CCN1C(=O)[C@@H]2[C@@H](C1=O)[C@H]1c3ccccc3[C@]2(Br)c2ccccc21)NCCCNC(=O)c1ccc(-c2c3nc(c(-c4cccc(S(=O)(=O)[O-])c4F)c4ccc([nH]4)c(-c4cccc(S(=O)(=O)[O-])c4F)c4nc(c(-c5cccc(S(=O)(=O)[O-])c5F)c5ccc2[nH]5)C=C4)C=C3)cc1
REMARK SMILES IDX 29 1 28 2 27 3 1 4 2 5 3 7 4 8 5 9 6 10 10 11 7 12 8 13 9 14
REMARK SMILES IDX 11 15 19 16 12 17 21 18 20 19 18 20 26 21 13 22 22 23 17 24
REMARK SMILES IDX 25 25 14 26 23 27 16 28 24 29 15 30 30 31 31 32 32 33 33 35
REMARK SMILES IDX 34 36 35 37 96 38 36 39 95 40 37 41 38 42 39 43 89 44 40 45
REMARK SMILES IDX 94 46 88 47 90 48 41 49 93 50 87 51 86 52 42 54 74 55 54 56
REMARK SMILES IDX 73 57 55 58 58 59 72 60 91 61 56 62 57 63 71 65 92 66 59 67
REMARK SMILES IDX 43 68 44 69 52 70 45 71 47 72 53 73 46 74 48 75 49 76 50 77
REMARK SMILES IDX 51 78 75 79 76 80 84 81 77 82 79 83 85 84 78 85 80 86 81 87
REMARK SMILES IDX 82 88 83 89 60 90 61 91 69 92 62 93 64 94 70 95 63 96 65 97
REMARK SMILES IDX 66 98 67 99 68 100
REMARK H PARENT 27 6 31 34 90 53 58 64
REMARK Flexibility Score: inf
ROOT
ATOM      1  C   UNL A   1      36.164  20.305  24.982  1.00  0.00     0.042 C 
ENDROOT
BRANCH   1   2
ATOM      2  C   UNL A   1      34.923  21.097  25.372  1.00  0.00     0.117 C 
BRANCH   2   3
ATOM      3  N   UNL A   1      34.147  21.505  24.221  1.00  0.00    -0.356 N 
ATOM      4  O   UNL A   1      32.451  19.983  24.508  1.00  0.00    -0.275 OA
ATOM      5  C   UNL A   1      32.929  20.945  23.917  1.00  0.00     0.221 C 
ATOM      6  H   UNL A   1      34.503  22.211  23.634  1.00  0.00     0.163 HD
BRANCH   5   7
ATOM      7  C   UNL A   1      32.179  21.667  22.822  1.00  0.00     0.122 C 
BRANCH   7   8
ATOM      8  C   UNL A   1      32.936  22.922  22.388  1.00  0.00     0.138 C 
BRANCH   8   9
ATOM      9  N   UNL A   1      32.447  24.212  22.868  1.00  0.00    -0.281 N 
ATOM     10  C   UNL A   1      32.964  25.426  22.386  1.00  0.00     0.235 C 
ATOM     11  C   UNL A   1      31.525  24.442  23.880  1.00  0.00     0.234 C 
ATOM     12  O   UNL A   1      33.711  25.595  21.442  1.00  0.00    -0.274 OA
ATOM     13  C   UNL A   1      32.537  26.431  23.418  1.00  0.00     0.118 C 
ATOM     14  C   UNL A   1      31.133  25.861  23.675  1.00  0.00     0.105 C 
ATOM     15  O   UNL A   1      31.030  23.657  24.673  1.00  0.00    -0.274 OA
ATOM     16  C   UNL A   1      32.449  27.963  23.459  1.00  0.00     0.088 C 
ATOM     17  C   UNL A   1      30.345  26.789  24.598  1.00  0.00     0.063 C 
ATOM     18  C   UNL A   1      32.351  28.174  25.023  1.00  0.00    -0.022 A 
ATOM     19  Br  UNL A   1      34.010  28.779  22.689  1.00  0.00    -0.074 Br
ATOM     20  C   UNL A   1      31.103  28.461  22.900  1.00  0.00    -0.022 A 
ATOM     21  C   UNL A   1      31.268  27.431  25.610  1.00  0.00    -0.035 A 
ATOM     22  C   UNL A   1      29.985  27.932  23.624  1.00  0.00    -0.035 A 
ATOM     23  C   UNL A   1      33.154  28.942  25.857  1.00  0.00     0.006 A 
ATOM     24  C   UNL A   1      30.871  29.386  21.886  1.00  0.00     0.006 A 
ATOM     25  C   UNL A   1      31.047  27.400  26.980  1.00  0.00     0.005 A 
ATOM     26  C   UNL A   1      28.716  28.457  23.453  1.00  0.00     0.005 A 
ATOM     27  C   UNL A   1      32.912  28.926  27.239  1.00  0.00     0.000 A 
ATOM     28  C   UNL A   1      29.563  29.827  21.647  1.00  0.00     0.000 A 
ATOM     29  C   UNL A   1      31.884  28.149  27.796  1.00  0.00     0.000 A 
ATOM     30  C   UNL A   1      28.502  29.391  22.445  1.00  0.00     0.000 A 
ENDBRANCH   8   9
ENDBRANCH   7   8
ENDBRANCH   5   7
ENDBRANCH   2   3
ENDBRANCH   1   2
BRANCH   1  31
ATOM     31  C   UNL A   1      37.467  21.090  25.064  1.00  0.00     0.118 C 
BRANCH  31  32
ATOM     32  N   UNL A   1      38.605  20.263  25.434  1.00  0.00    -0.352 N 
ATOM     33  C   UNL A   1      39.781  20.623  26.051  1.00  0.00     0.251 C 
ATOM     34  H   UNL A   1      38.522  19.308  25.211  1.00  0.00     0.163 HD
ATOM     35  O   UNL A   1      40.730  19.843  26.023  1.00  0.00    -0.269 OA
BRANCH  33  36
ATOM     36  C   UNL A   1      39.918  21.930  26.739  1.00  0.00     0.039 A 
ATOM     37  C   UNL A   1      39.139  23.040  26.398  1.00  0.00     0.014 A 
ATOM     38  C   UNL A   1      40.885  22.048  27.742  1.00  0.00     0.014 A 
ATOM     39  C   UNL A   1      39.503  24.303  26.847  1.00  0.00     0.010 A 
ATOM     40  C   UNL A   1      41.193  23.304  28.261  1.00  0.00     0.010 A 
ATOM     41  C   UNL A   1      40.578  24.448  27.732  1.00  0.00    -0.014 A 
BRANCH  41  42
ATOM     42  C   UNL A   1      41.161  25.787  27.975  1.00  0.00     0.031 A 
ATOM     43  C   UNL A   1      42.542  26.090  27.449  1.00  0.00     0.074 A 
ATOM     44  C   UNL A   1      40.449  26.737  28.608  1.00  0.00     0.049 A 
ATOM     45  N   UNL A   1      43.263  27.170  27.602  1.00  0.00    -0.248 NA
ATOM     46  C   UNL A   1      43.204  25.043  26.648  1.00  0.00     0.031 C 
ATOM     47  C   UNL A   1      39.091  26.570  29.128  1.00  0.00     0.029 A 
ATOM     48  N   UNL A   1      40.775  28.030  28.925  1.00  0.00    -0.354 N 
ATOM     49  C   UNL A   1      44.473  26.911  26.968  1.00  0.00     0.074 A 
ATOM     50  C   UNL A   1      44.398  25.575  26.428  1.00  0.00     0.031 C 
ATOM     51  C   UNL A   1      38.698  27.721  29.695  1.00  0.00     0.029 A 
ATOM     52  C   UNL A   1      39.792  28.686  29.625  1.00  0.00     0.049 A 
ATOM     53  H   UNL A   1      41.630  28.449  28.676  1.00  0.00     0.167 HD
ATOM     54  C   UNL A   1      45.545  27.723  26.833  1.00  0.00     0.034 A 
ATOM     55  C   UNL A   1      39.783  29.915  30.174  1.00  0.00     0.034 A 
ATOM     56  C   UNL A   1      45.594  29.072  27.321  1.00  0.00     0.049 A 
ATOM     57  C   UNL A   1      40.994  30.791  30.029  1.00  0.00     0.074 A 
ATOM     58  C   UNL A   1      46.622  29.990  27.198  1.00  0.00     0.029 A 
ATOM     59  N   UNL A   1      44.574  29.697  28.018  1.00  0.00    -0.354 N 
ATOM     60  N   UNL A   1      42.114  30.543  29.394  1.00  0.00    -0.248 NA
ATOM     61  C   UNL A   1      40.938  32.117  30.660  1.00  0.00     0.031 C 
ATOM     62  C   UNL A   1      46.229  31.166  27.839  1.00  0.00     0.029 A 
ATOM     63  C   UNL A   1      44.948  30.988  28.337  1.00  0.00     0.049 A 
ATOM     64  H   UNL A   1      43.712  29.283  28.252  1.00  0.00     0.167 HD
ATOM     65  C   UNL A   1      42.888  31.689  29.528  1.00  0.00     0.074 A 
ATOM     66  C   UNL A   1      42.105  32.636  30.295  1.00  0.00     0.031 C 
ATOM     67  C   UNL A   1      44.137  31.929  29.063  1.00  0.00     0.034 A 
BRANCH  54  68
ATOM     68  C   UNL A   1      46.751  27.200  26.103  1.00  0.00     0.023 A 
ATOM     69  C   UNL A   1      46.877  27.425  24.718  1.00  0.00     0.012 A 
ATOM     70  C   UNL A   1      47.805  26.587  26.808  1.00  0.00     0.148 A 
ATOM     71  C   UNL A   1      48.036  27.043  24.043  1.00  0.00     0.002 A 
ATOM     72  C   UNL A   1      48.969  26.238  26.135  1.00  0.00     0.091 A 
ATOM     73  F   UNL A   1      47.653  26.373  28.122  1.00  0.00    -0.205 F 
ATOM     74  C   UNL A   1      49.085  26.463  24.753  1.00  0.00     0.022 A 
BRANCH  72  75
ATOM     75  S   UNL A   1      50.399  25.534  26.963  1.00  0.00     0.127 S 
ATOM     76  O   UNL A   1      51.317  25.332  25.842  1.00  0.00    -0.237 OA
ATOM     77  O   UNL A   1      50.781  26.610  27.878  1.00  0.00    -0.237 OA
ATOM     78  O   UNL A   1      49.934  24.315  27.607  1.00  0.00    -0.744 OA
ENDBRANCH  72  75
ENDBRANCH  54  68
BRANCH  55  79
ATOM     79  C   UNL A   1      38.564  30.381  30.885  1.00  0.00     0.023 A 
ATOM     80  C   UNL A   1      38.475  30.223  32.280  1.00  0.00     0.012 A 
ATOM     81  C   UNL A   1      37.536  31.055  30.196  1.00  0.00     0.148 A 
ATOM     82  C   UNL A   1      37.380  30.731  32.980  1.00  0.00     0.002 A 
ATOM     83  C   UNL A   1      36.470  31.593  30.903  1.00  0.00     0.091 A 
ATOM     84  F   UNL A   1      37.649  31.190  28.868  1.00  0.00    -0.205 F 
ATOM     85  C   UNL A   1      36.385  31.425  32.295  1.00  0.00     0.022 A 
BRANCH  83  86
ATOM     86  S   UNL A   1      35.193  32.589  30.127  1.00  0.00     0.127 S 
ATOM     87  O   UNL A   1      34.284  32.832  31.244  1.00  0.00    -0.237 OA
ATOM     88  O   UNL A   1      35.955  33.757  29.685  1.00  0.00    -0.237 OA
ATOM     89  O   UNL A   1      34.653  31.773  29.048  1.00  0.00    -0.744 OA
ENDBRANCH  83  86
ENDBRANCH  55  79
BRANCH  67  90
ATOM     90  C   UNL A   1      44.746  33.276  29.335  1.00  0.00     0.023 A 
ATOM     91  C   UNL A   1      45.491  33.474  30.512  1.00  0.00     0.012 A 
ATOM     92  C   UNL A   1      44.694  34.290  28.359  1.00  0.00     0.148 A 
ATOM     93  C   UNL A   1      46.175  34.672  30.717  1.00  0.00     0.002 A 
ATOM     94  C   UNL A   1      45.405  35.466  28.555  1.00  0.00     0.091 A 
ATOM     95  F   UNL A   1      43.974  34.070  27.250  1.00  0.00    -0.205 F 
ATOM     96  C   UNL A   1      46.142  35.661  29.735  1.00  0.00     0.022 A 
BRANCH  94  97
ATOM     97  S   UNL A   1      45.483  36.766  27.318  1.00  0.00     0.127 S 
ATOM     98  O   UNL A   1      46.041  36.050  26.172  1.00  0.00    -0.237 OA
ATOM     99  O   UNL A   1      44.077  37.143  27.177  1.00  0.00    -0.237 OA
ATOM    100  O   UNL A   1      46.340  37.804  27.875  1.00  0.00    -0.744 OA
ENDBRANCH  94  97
ENDBRANCH  67  90
ENDBRANCH  41  42
ENDBRANCH  33  36
ENDBRANCH  31  32
ENDBRANCH   1  31
TORSDOF 15
ENDMDL
MODEL 2
REMARK VINA RESULT:     -14.6      4.671      8.059
REMARK SMILES O=C(CCN1C(=O)[C@@H]2[C@@H](C1=O)[C@H]1c3ccccc3[C@]2(Br)c2ccccc21)NCCCNC(=O)c1ccc(-c2c3nc(c(-c4cccc(S(=O)(=O)[O-])c4F)c4ccc([nH]4)c(-c4cccc(S(=O)(=O)[O-])c4F)c4nc(c(-c5cccc(S(=O)(=O)[O-])c5F)c5ccc2[nH]5)C=C4)C=C3)cc1
REMARK SMILES IDX 29 1 28 2 27 3 1 4 2 5 3 7 4 8 5 9 6 10 10 11 7 12 8 13 9 14
REMARK SMILES IDX 11 15 19 16 12 17 21 18 20 19 18 20 26 21 13 22 22 23 17 24
REMARK SMILES IDX 25 25 14 26 23 27 16 28 24 29 15 30 30 31 31 32 32 33 33 35
REMARK SMILES IDX 34 36 35 37 96 38 36 39 95 40 37 41 38 42 39 43 89 44 40 45
REMARK SMILES IDX 94 46 88 47 90 48 41 49 93 50 87 51 86 52 42 54 74 55 54 56
REMARK SMILES IDX 73 57 55 58 58 59 72 60 91 61 56 62 57 63 71 65 92 66 59 67
REMARK SMILES IDX 43 68 44 69 52 70 45 71 47 72 53 73 46 74 48 75 49 76 50 77
REMARK SMILES IDX 51 78 75 79 76 80 84 81 77 82 79 83 85 84 78 85 80 86 81 87
REMARK SMILES IDX 82 88 83 89 60 90 61 91 69 92 62 93 64 94 70 95 63 96 65 97
REMARK SMILES IDX 66 98 67 99 68 100
REMARK H PARENT 27 6 31 34 90 53 58 64
REMARK Flexibility Score: inf
ROOT
ATOM      1  C   UNL A   1      32.582  29.508  25.272  1.00  0.00     0.042 C 
ENDROOT
BRANCH   1   2
ATOM      2  C   UNL A   1      31.431  29.408  24.281  1.00  0.00     0.117 C 
BRANCH   2   3
ATOM      3  N   UNL A   1      30.595  28.252  24.523  1.00  0.00    -0.356 N 
ATOM      4  O   UNL A   1      29.720  28.124  22.403  1.00  0.00    -0.275 OA
ATOM      5  C   UNL A   1      29.845  27.664  23.533  1.00  0.00     0.221 C 
ATOM      6  H   UNL A   1      30.562  27.872  25.431  1.00  0.00     0.163 HD
BRANCH   5   7
ATOM      7  C   UNL A   1      29.232  26.341  23.932  1.00  0.00     0.122 C 
BRANCH   7   8
ATOM      8  C   UNL A   1      29.922  25.783  25.176  1.00  0.00     0.138 C 
BRANCH   8   9
ATOM      9  N   UNL A   1      30.901  24.714  24.990  1.00  0.00    -0.281 N 
ATOM     10  C   UNL A   1      31.360  23.935  26.065  1.00  0.00     0.235 C 
ATOM     11  C   UNL A   1      31.569  24.376  23.821  1.00  0.00     0.234 C 
ATOM     12  O   UNL A   1      30.926  23.901  27.200  1.00  0.00    -0.274 OA
ATOM     13  C   UNL A   1      32.620  23.309  25.539  1.00  0.00     0.118 C 
ATOM     14  C   UNL A   1      32.117  23.026  24.114  1.00  0.00     0.105 C 
ATOM     15  O   UNL A   1      31.602  24.958  22.749  1.00  0.00    -0.274 OA
ATOM     16  C   UNL A   1      33.505  22.133  25.978  1.00  0.00     0.088 C 
ATOM     17  C   UNL A   1      33.151  22.213  23.338  1.00  0.00     0.063 C 
ATOM     18  C   UNL A   1      34.811  22.472  25.155  1.00  0.00    -0.022 A 
ATOM     19  Br  UNL A   1      33.794  22.142  27.879  1.00  0.00    -0.074 Br
ATOM     20  C   UNL A   1      32.995  20.802  25.397  1.00  0.00    -0.022 A 
ATOM     21  C   UNL A   1      34.551  22.617  23.747  1.00  0.00    -0.035 A 
ATOM     22  C   UNL A   1      32.953  20.815  23.965  1.00  0.00    -0.035 A 
ATOM     23  C   UNL A   1      36.112  22.651  25.608  1.00  0.00     0.006 A 
ATOM     24  C   UNL A   1      32.676  19.624  26.068  1.00  0.00     0.006 A 
ATOM     25  C   UNL A   1      35.536  22.996  22.847  1.00  0.00     0.005 A 
ATOM     26  C   UNL A   1      32.781  19.644  23.249  1.00  0.00     0.005 A 
ATOM     27  C   UNL A   1      37.110  23.012  24.689  1.00  0.00     0.000 A 
ATOM     28  C   UNL A   1      32.391  18.470  25.329  1.00  0.00     0.000 A 
ATOM     29  C   UNL A   1      36.821  23.202  23.329  1.00  0.00     0.000 A 
ATOM     30  C   UNL A   1      32.476  18.472  23.933  1.00  0.00     0.000 A 
ENDBRANCH   8   9
ENDBRANCH   7   8
ENDBRANCH   5   7
ENDBRANCH   2   3
ENDBRANCH   1   2
BRANCH   1  31
ATOM     31  C   UNL A   1      32.170  29.933  26.676  1.00  0.00     0.118 C 
BRANCH  31  32
ATOM     32  N   UNL A   1      32.227  31.374  26.872  1.00  0.00    -0.352 N 
ATOM     33  C   UNL A   1      33.203  32.135  27.474  1.00  0.00     0.251 C 
ATOM     34  H   UNL A   1      31.457  31.877  26.521  1.00  0.00     0.163 HD
ATOM     35  O   UNL A   1      32.942  33.293  27.792  1.00  0.00    -0.269 OA
BRANCH  33  36
ATOM     36  C   UNL A   1      34.551  31.579  27.745  1.00  0.00     0.039 A 
ATOM     37  C   UNL A   1      34.781  30.207  27.884  1.00  0.00     0.014 A 
ATOM     38  C   UNL A   1      35.614  32.475  27.894  1.00  0.00     0.014 A 
ATOM     39  C   UNL A   1      35.976  29.759  28.431  1.00  0.00     0.010 A 
ATOM     40  C   UNL A   1      36.845  32.015  28.359  1.00  0.00     0.010 A 
ATOM     41  C   UNL A   1      36.993  30.672  28.733  1.00  0.00    -0.014 A 
BRANCH  41  42
ATOM     42  C   UNL A   1      38.132  30.256  29.584  1.00  0.00     0.031 A 
ATOM     43  C   UNL A   1      39.174  29.328  29.009  1.00  0.00     0.074 A 
ATOM     44  C   UNL A   1      38.263  30.738  30.832  1.00  0.00     0.049 A 
ATOM     45  N   UNL A   1      40.212  28.791  29.595  1.00  0.00    -0.248 NA
ATOM     46  C   UNL A   1      39.032  28.952  27.589  1.00  0.00     0.031 C 
ATOM     47  C   UNL A   1      37.337  31.667  31.482  1.00  0.00     0.029 A 
ATOM     48  N   UNL A   1      39.226  30.505  31.780  1.00  0.00    -0.354 N 
ATOM     49  C   UNL A   1      40.809  27.978  28.638  1.00  0.00     0.074 A 
ATOM     50  C   UNL A   1      40.023  28.084  27.432  1.00  0.00     0.031 C 
ATOM     51  C   UNL A   1      37.782  31.931  32.720  1.00  0.00     0.029 A 
ATOM     52  C   UNL A   1      38.990  31.150  32.969  1.00  0.00     0.049 A 
ATOM     53  H   UNL A   1      40.011  29.931  31.623  1.00  0.00     0.167 HD
ATOM     54  C   UNL A   1      41.924  27.222  28.751  1.00  0.00     0.034 A 
ATOM     55  C   UNL A   1      39.657  31.096  34.137  1.00  0.00     0.034 A 
ATOM     56  C   UNL A   1      42.735  27.164  29.933  1.00  0.00     0.049 A 
ATOM     57  C   UNL A   1      40.881  30.234  34.245  1.00  0.00     0.074 A 
ATOM     58  C   UNL A   1      43.909  26.459  30.132  1.00  0.00     0.029 A 
ATOM     59  N   UNL A   1      42.463  27.838  31.112  1.00  0.00    -0.354 N 
ATOM     60  N   UNL A   1      41.452  29.502  33.319  1.00  0.00    -0.248 NA
ATOM     61  C   UNL A   1      41.561  30.199  35.547  1.00  0.00     0.031 C 
ATOM     62  C   UNL A   1      44.336  26.692  31.440  1.00  0.00     0.029 A 
ATOM     63  C   UNL A   1      43.444  27.563  32.045  1.00  0.00     0.049 A 
ATOM     64  H   UNL A   1      41.687  28.425  31.262  1.00  0.00     0.167 HD
ATOM     65  C   UNL A   1      42.571  28.937  33.917  1.00  0.00     0.074 A 
ATOM     66  C   UNL A   1      42.604  29.420  35.283  1.00  0.00     0.031 C 
ATOM     67  C   UNL A   1      43.482  28.089  33.384  1.00  0.00     0.034 A 
BRANCH  54  68
ATOM     68  C   UNL A   1      42.365  26.416  27.561  1.00  0.00     0.023 A 
ATOM     69  C   UNL A   1      43.265  26.979  26.635  1.00  0.00     0.012 A 
ATOM     70  C   UNL A   1      41.974  25.070  27.423  1.00  0.00     0.148 A 
ATOM     71  C   UNL A   1      43.768  26.211  25.585  1.00  0.00     0.002 A 
ATOM     72  C   UNL A   1      42.505  24.303  26.394  1.00  0.00     0.091 A 
ATOM     73  F   UNL A   1      41.106  24.565  28.311  1.00  0.00    -0.205 F 
ATOM     74  C   UNL A   1      43.399  24.873  25.472  1.00  0.00     0.022 A 
BRANCH  72  75
ATOM     75  S   UNL A   1      42.136  22.557  26.190  1.00  0.00     0.127 S 
ATOM     76  O   UNL A   1      42.778  22.269  24.908  1.00  0.00    -0.237 OA
ATOM     77  O   UNL A   1      42.803  21.968  27.352  1.00  0.00    -0.237 OA
ATOM     78  O   UNL A   1      40.685  22.447  26.192  1.00  0.00    -0.744 OA
ENDBRANCH  72  75
ENDBRANCH  54  68
BRANCH  55  79
ATOM     79  C   UNL A   1      39.176  31.915  35.282  1.00  0.00     0.023 A 
ATOM     80  C   UNL A   1      38.311  31.338  36.229  1.00  0.00     0.012 A 
ATOM     81  C   UNL A   1      39.644  33.229  35.479  1.00  0.00     0.148 A 
ATOM     82  C   UNL A   1      37.917  32.058  37.357  1.00  0.00     0.002 A 
ATOM     83  C   UNL A   1      39.280  33.925  36.624  1.00  0.00     0.091 A 
ATOM     84  F   UNL A   1      40.468  33.751  34.560  1.00  0.00    -0.205 F 
ATOM     85  C   UNL A   1      38.410  33.345  37.561  1.00  0.00     0.022 A 
BRANCH  83  86
ATOM     86  S   UNL A   1      39.942  35.546  37.026  1.00  0.00     0.127 S 
ATOM     87  O   UNL A   1      39.277  35.832  38.295  1.00  0.00    -0.237 OA
ATOM     88  O   UNL A   1      41.374  35.265  37.129  1.00  0.00    -0.237 OA
ATOM     89  O   UNL A   1      39.571  36.413  35.917  1.00  0.00    -0.744 OA
ENDBRANCH  83  86
ENDBRANCH  55  79
BRANCH  67  90
ATOM     90  C   UNL A   1      44.621  27.636  34.254  1.00  0.00     0.023 A 
ATOM     91  C   UNL A   1      45.763  28.449  34.380  1.00  0.00     0.012 A 
ATOM     92  C   UNL A   1      44.493  26.479  35.047  1.00  0.00     0.148 A 
ATOM     93  C   UNL A   1      46.769  28.111  35.284  1.00  0.00     0.002 A 
ATOM     94  C   UNL A   1      45.483  26.167  35.968  1.00  0.00     0.091 A 
ATOM     95  F   UNL A   1      43.395  25.725  34.901  1.00  0.00    -0.205 F 
ATOM     96  C   UNL A   1      46.624  26.980  36.085  1.00  0.00     0.022 A 
BRANCH  94  97
ATOM     97  S   UNL A   1      45.353  24.774  37.095  1.00  0.00     0.127 S 
ATOM     98  O   UNL A   1      45.328  23.645  36.166  1.00  0.00    -0.237 OA
ATOM     99  O   UNL A   1      46.582  24.894  37.877  1.00  0.00    -0.237 OA
ATOM    100  O   UNL A   1      44.125  24.978  37.851  1.00  0.00    -0.744 OA
ENDBRANCH  94  97
ENDBRANCH  67  90
ENDBRANCH  41  42
ENDBRANCH  33  36
ENDBRANCH  31  32
ENDBRANCH   1  31
TORSDOF 15
ENDMDL
MODEL 3
REMARK VINA RESULT:     -14.5      1.255      7.349
REMARK SMILES O=C(CCN1C(=O)[C@@H]2[C@@H](C1=O)[C@H]1c3ccccc3[C@]2(Br)c2ccccc21)NCCCNC(=O)c1ccc(-c2c3nc(c(-c4cccc(S(=O)(=O)[O-])c4F)c4ccc([nH]4)c(-c4cccc(S(=O)(=O)[O-])c4F)c4nc(c(-c5cccc(S(=O)(=O)[O-])c5F)c5ccc2[nH]5)C=C4)C=C3)cc1
REMARK SMILES IDX 29 1 28 2 27 3 1 4 2 5 3 7 4 8 5 9 6 10 10 11 7 12 8 13 9 14
REMARK SMILES IDX 11 15 19 16 12 17 21 18 20 19 18 20 26 21 13 22 22 23 17 24
REMARK SMILES IDX 25 25 14 26 23 27 16 28 24 29 15 30 30 31 31 32 32 33 33 35
REMARK SMILES IDX 34 36 35 37 96 38 36 39 95 40 37 41 38 42 39 43 89 44 40 45
REMARK SMILES IDX 94 46 88 47 90 48 41 49 93 50 87 51 86 52 42 54 74 55 54 56
REMARK SMILES IDX 73 57 55 58 58 59 72 60 91 61 56 62 57 63 71 65 92 66 59 67
REMARK SMILES IDX 43 68 44 69 52 70 45 71 47 72 53 73 46 74 48 75 49 76 50 77
REMARK SMILES IDX 51 78 75 79 76 80 84 81 77 82 79 83 85 84 78 85 80 86 81 87
REMARK SMILES IDX 82 88 83 89 60 90 61 91 69 92 62 93 64 94 70 95 63 96 65 97
REMARK SMILES IDX 66 98 67 99 68 100
REMARK H PARENT 27 6 31 34 90 53 58 64
REMARK Flexibility Score: inf
ROOT
ATOM      1  C   UNL A   1      36.140  21.027  25.591  1.00  0.00     0.042 C 
ENDROOT
BRANCH   1   2
ATOM      2  C   UNL A   1      35.159  22.190  25.536  1.00  0.00     0.117 C 
BRANCH   2   3
ATOM      3  N   UNL A   1      34.387  22.202  24.312  1.00  0.00    -0.356 N 
ATOM      4  O   UNL A   1      32.910  20.555  24.929  1.00  0.00    -0.275 OA
ATOM      5  C   UNL A   1      33.276  21.413  24.134  1.00  0.00     0.221 C 
ATOM      6  H   UNL A   1      34.667  22.797  23.579  1.00  0.00     0.163 HD
BRANCH   5   7
ATOM      7  C   UNL A   1      32.483  21.744  22.891  1.00  0.00     0.122 C 
BRANCH   7   8
ATOM      8  C   UNL A   1      32.997  23.033  22.252  1.00  0.00     0.138 C 
BRANCH   8   9
ATOM      9  N   UNL A   1      32.475  24.300  22.759  1.00  0.00    -0.281 N 
ATOM     10  C   UNL A   1      32.975  25.536  22.318  1.00  0.00     0.235 C 
ATOM     11  C   UNL A   1      31.533  24.484  23.762  1.00  0.00     0.234 C 
ATOM     12  O   UNL A   1      33.733  25.747  21.392  1.00  0.00    -0.274 OA
ATOM     13  C   UNL A   1      32.513  26.504  23.370  1.00  0.00     0.118 C 
ATOM     14  C   UNL A   1      31.116  25.900  23.589  1.00  0.00     0.105 C 
ATOM     15  O   UNL A   1      31.042  23.668  24.525  1.00  0.00    -0.274 OA
ATOM     16  C   UNL A   1      32.393  28.033  23.451  1.00  0.00     0.088 C 
ATOM     17  C   UNL A   1      30.295  26.787  24.524  1.00  0.00     0.063 C 
ATOM     18  C   UNL A   1      32.267  28.198  25.019  1.00  0.00    -0.022 A 
ATOM     19  Br  UNL A   1      33.949  28.900  22.729  1.00  0.00    -0.074 Br
ATOM     20  C   UNL A   1      31.047  28.519  22.885  1.00  0.00    -0.022 A 
ATOM     21  C   UNL A   1      31.191  27.418  25.569  1.00  0.00    -0.035 A 
ATOM     22  C   UNL A   1      29.928  27.949  23.576  1.00  0.00    -0.035 A 
ATOM     23  C   UNL A   1      33.042  28.958  25.886  1.00  0.00     0.006 A 
ATOM     24  C   UNL A   1      30.811  29.468  21.893  1.00  0.00     0.006 A 
ATOM     25  C   UNL A   1      30.949  27.346  26.933  1.00  0.00     0.005 A 
ATOM     26  C   UNL A   1      28.652  28.454  23.400  1.00  0.00     0.005 A 
ATOM     27  C   UNL A   1      32.779  28.900  27.263  1.00  0.00     0.000 A 
ATOM     28  C   UNL A   1      29.499  29.889  21.645  1.00  0.00     0.000 A 
ATOM     29  C   UNL A   1      31.758  28.088  27.782  1.00  0.00     0.000 A 
ATOM     30  C   UNL A   1      28.434  29.411  22.414  1.00  0.00     0.000 A 
ENDBRANCH   8   9
ENDBRANCH   7   8
ENDBRANCH   5   7
ENDBRANCH   2   3
ENDBRANCH   1   2
BRANCH   1  31
ATOM     31  C   UNL A   1      37.477  21.295  24.911  1.00  0.00     0.118 C 
BRANCH  31  32
ATOM     32  N   UNL A   1      38.531  20.397  25.360  1.00  0.00    -0.352 N 
ATOM     33  C   UNL A   1      39.699  20.687  26.028  1.00  0.00     0.251 C 
ATOM     34  H   UNL A   1      38.387  19.445  25.157  1.00  0.00     0.163 HD
ATOM     35  O   UNL A   1      40.586  19.839  26.068  1.00  0.00    -0.269 OA
BRANCH  33  36
ATOM     36  C   UNL A   1      39.899  21.999  26.690  1.00  0.00     0.039 A 
ATOM     37  C   UNL A   1      39.224  23.153  26.282  1.00  0.00     0.014 A 
ATOM     38  C   UNL A   1      40.820  22.074  27.739  1.00  0.00     0.014 A 
ATOM     39  C   UNL A   1      39.659  24.399  26.717  1.00  0.00     0.010 A 
ATOM     40  C   UNL A   1      41.194  23.318  28.242  1.00  0.00     0.010 A 
ATOM     41  C   UNL A   1      40.695  24.489  27.654  1.00  0.00    -0.014 A 
BRANCH  41  42
ATOM     42  C   UNL A   1      41.364  25.788  27.894  1.00  0.00     0.031 A 
ATOM     43  C   UNL A   1      40.628  26.860  28.659  1.00  0.00     0.074 A 
ATOM     44  C   UNL A   1      42.627  25.991  27.481  1.00  0.00     0.049 A 
ATOM     45  N   UNL A   1      41.000  28.085  28.924  1.00  0.00    -0.248 NA
ATOM     46  C   UNL A   1      39.298  26.513  29.196  1.00  0.00     0.031 C 
ATOM     47  C   UNL A   1      43.450  25.016  26.764  1.00  0.00     0.029 A 
ATOM     48  N   UNL A   1      43.437  27.090  27.602  1.00  0.00    -0.354 N 
ATOM     49  C   UNL A   1      39.935  28.665  29.605  1.00  0.00     0.074 A 
ATOM     50  C   UNL A   1      38.899  27.666  29.715  1.00  0.00     0.031 C 
ATOM     51  C   UNL A   1      44.651  25.559  26.513  1.00  0.00     0.029 A 
ATOM     52  C   UNL A   1      44.664  26.934  27.004  1.00  0.00     0.049 A 
ATOM     53  H   UNL A   1      43.167  27.912  28.071  1.00  0.00     0.167 HD
ATOM     54  C   UNL A   1      39.838  29.915  30.110  1.00  0.00     0.034 A 
ATOM     55  C   UNL A   1      45.674  27.809  26.844  1.00  0.00     0.034 A 
ATOM     56  C   UNL A   1      40.892  30.887  30.050  1.00  0.00     0.049 A 
ATOM     57  C   UNL A   1      45.535  29.199  27.395  1.00  0.00     0.074 A 
ATOM     58  C   UNL A   1      40.905  32.169  30.569  1.00  0.00     0.029 A 
ATOM     59  N   UNL A   1      42.120  30.684  29.442  1.00  0.00    -0.354 N 
ATOM     60  N   UNL A   1      44.537  29.717  28.069  1.00  0.00    -0.248 NA
ATOM     61  C   UNL A   1      46.661  30.119  27.180  1.00  0.00     0.031 C 
ATOM     62  C   UNL A   1      42.136  32.749  30.257  1.00  0.00     0.029 A 
ATOM     63  C   UNL A   1      42.897  31.819  29.567  1.00  0.00     0.049 A 
ATOM     64  H   UNL A   1      42.396  29.856  28.987  1.00  0.00     0.167 HD
ATOM     65  C   UNL A   1      44.922  31.016  28.379  1.00  0.00     0.074 A 
ATOM     66  C   UNL A   1      46.249  31.202  27.828  1.00  0.00     0.031 C 
ATOM     67  C   UNL A   1      44.233  31.968  29.051  1.00  0.00     0.034 A 
BRANCH  54  68
ATOM     68  C   UNL A   1      38.563  30.309  30.804  1.00  0.00     0.023 A 
ATOM     69  C   UNL A   1      38.404  30.030  32.176  1.00  0.00     0.012 A 
ATOM     70  C   UNL A   1      37.577  31.050  30.124  1.00  0.00     0.148 A 
ATOM     71  C   UNL A   1      37.277  30.482  32.861  1.00  0.00     0.002 A 
ATOM     72  C   UNL A   1      36.473  31.524  30.822  1.00  0.00     0.091 A 
ATOM     73  F   UNL A   1      37.749  31.289  28.817  1.00  0.00    -0.205 F 
ATOM     74  C   UNL A   1      36.320  31.239  32.189  1.00  0.00     0.022 A 
BRANCH  72  75
ATOM     75  S   UNL A   1      35.210  32.551  30.063  1.00  0.00     0.127 S 
ATOM     76  O   UNL A   1      34.707  31.669  29.011  1.00  0.00    -0.237 OA
ATOM     77  O   UNL A   1      34.283  32.765  31.175  1.00  0.00    -0.237 OA
ATOM     78  O   UNL A   1      35.891  33.748  29.591  1.00  0.00    -0.744 OA
ENDBRANCH  72  75
ENDBRANCH  54  68
BRANCH  55  79
ATOM     79  C   UNL A   1      46.912  27.366  26.150  1.00  0.00     0.023 A 
ATOM     80  C   UNL A   1      47.796  26.491  26.806  1.00  0.00     0.012 A 
ATOM     81  C   UNL A   1      47.167  27.738  24.815  1.00  0.00     0.148 A 
ATOM     82  C   UNL A   1      48.918  25.992  26.144  1.00  0.00     0.002 A 
ATOM     83  C   UNL A   1      48.263  27.206  24.149  1.00  0.00     0.091 A 
ATOM     84  F   UNL A   1      46.306  28.572  24.216  1.00  0.00    -0.205 F 
ATOM     85  C   UNL A   1      49.145  26.339  24.814  1.00  0.00     0.022 A 
BRANCH  83  86
ATOM     86  S   UNL A   1      48.584  27.512  22.409  1.00  0.00     0.127 S 
ATOM     87  O   UNL A   1      48.640  26.154  21.874  1.00  0.00    -0.237 OA
ATOM     88  O   UNL A   1      47.401  28.281  22.020  1.00  0.00    -0.237 OA
ATOM     89  O   UNL A   1      49.835  28.256  22.360  1.00  0.00    -0.744 OA
ENDBRANCH  83  86
ENDBRANCH  55  79
BRANCH  67  90
ATOM     90  C   UNL A   1      44.894  33.300  29.267  1.00  0.00     0.023 A 
ATOM     91  C   UNL A   1      45.699  33.499  30.404  1.00  0.00     0.012 A 
ATOM     92  C   UNL A   1      44.825  34.297  28.274  1.00  0.00     0.148 A 
ATOM     93  C   UNL A   1      46.425  34.679  30.553  1.00  0.00     0.002 A 
ATOM     94  C   UNL A   1      45.578  35.455  28.413  1.00  0.00     0.091 A 
ATOM     95  F   UNL A   1      44.048  34.078  27.204  1.00  0.00    -0.205 F 
ATOM     96  C   UNL A   1      46.376  35.650  29.553  1.00  0.00     0.022 A 
BRANCH  94  97
ATOM     97  S   UNL A   1      45.636  36.729  27.147  1.00  0.00     0.127 S 
ATOM     98  O   UNL A   1      46.134  35.977  25.996  1.00  0.00    -0.237 OA
ATOM     99  O   UNL A   1      44.235  37.134  27.053  1.00  0.00    -0.237 OA
ATOM    100  O   UNL A   1      46.537  37.757  27.649  1.00  0.00    -0.744 OA
ENDBRANCH  94  97
ENDBRANCH  67  90
ENDBRANCH  41  42
ENDBRANCH  33  36
ENDBRANCH  31  32
ENDBRANCH   1  31
TORSDOF 15
ENDMDL
