MODEL 1
REMARK VINA RESULT:     -12.2      0.000      0.000
REMARK SMILES CN(C)C(=O)[C@@H]1CC=CC[C@H]1C(=O)N(c1ccccc1)c1ccccc1C(=O)NCCCNC(=O)c1ccc(-c2c3nc(c(-c4cccc(S(=O)(=O)[O-])c4F)c4ccc([nH]4)c(-c4cccc(S(=O)(=O)[O-])c4F)c4nc(c(-c5cccc(S(=O)(=O)[O-])c5F)c5ccc2[nH]5)C=C4)C=C3)cc1
REMARK SMILES IDX 30 1 29 2 27 3 28 4 26 6 21 7 22 8 23 9 25 10 24 11 14 12
REMARK SMILES IDX 12 13 13 14 11 15 6 16 7 17 8 18 10 19 9 20 4 21 1 22 2 23
REMARK SMILES IDX 3 24 5 25 15 26 16 27 20 28 17 29 19 30 18 31 31 32 32 33
REMARK SMILES IDX 33 34 34 35 35 37 36 38 37 39 98 40 38 41 97 42 39 43 40 44
REMARK SMILES IDX 41 45 91 46 42 47 96 48 90 49 92 50 43 51 95 52 89 53 88 54
REMARK SMILES IDX 44 56 76 57 56 58 75 59 57 60 60 61 74 62 93 63 58 64 59 65
REMARK SMILES IDX 73 67 94 68 61 69 45 70 46 71 54 72 47 73 49 74 55 75 48 76
REMARK SMILES IDX 50 77 51 78 52 79 53 80 77 81 78 82 86 83 79 84 81 85 87 86
REMARK SMILES IDX 80 87 82 88 83 89 84 90 85 91 62 92 63 93 71 94 64 95 66 96
REMARK SMILES IDX 72 97 65 98 67 99 68 100 69 101 70 102
REMARK H PARENT 29 5 33 36 92 55 60 66
REMARK Flexibility Score: inf
ROOT
ATOM      1  C   UNL A   1      36.438  22.575  23.448  1.00  0.00     0.118 C 
ENDROOT
BRANCH   1   2
ATOM      2  N   UNL A   1      35.194  23.042  22.893  1.00  0.00    -0.352 N 
ATOM      3  C   UNL A   1      33.884  23.045  23.248  1.00  0.00     0.253 C 
ATOM      4  O   UNL A   1      33.144  23.151  22.256  1.00  0.00    -0.269 OA
ATOM      5  H   UNL A   1      35.331  23.475  22.020  1.00  0.00     0.163 HD
BRANCH   3   6
ATOM      6  C   UNL A   1      33.220  23.069  24.596  1.00  0.00     0.063 A 
ATOM      7  C   UNL A   1      32.506  24.040  25.338  1.00  0.00     0.062 A 
ATOM      8  C   UNL A   1      32.236  23.750  26.716  1.00  0.00     0.027 A 
ATOM      9  C   UNL A   1      32.665  22.593  27.365  1.00  0.00     0.002 A 
ATOM     10  C   UNL A   1      33.598  21.875  25.295  1.00  0.00     0.016 A 
ATOM     11  C   UNL A   1      33.349  21.643  26.646  1.00  0.00     0.001 A 
BRANCH   7  12
ATOM     12  N   UNL A   1      31.971  25.316  24.879  1.00  0.00    -0.280 N 
BRANCH  12  13
ATOM     13  C   UNL A   1      30.746  25.293  24.194  1.00  0.00     0.235 C 
ATOM     14  O   UNL A   1      30.405  24.271  23.579  1.00  0.00    -0.274 OA
BRANCH  13  15
ATOM     15  C   UNL A   1      29.807  26.557  24.097  1.00  0.00     0.096 C 
ATOM     16  C   UNL A   1      30.120  27.437  22.854  1.00  0.00     0.095 C 
ATOM     17  C   UNL A   1      29.312  28.750  22.883  1.00  0.00     0.041 C 
ATOM     18  C   UNL A   1      27.849  28.495  23.029  1.00  0.00    -0.030 C 
ATOM     19  C   UNL A   1      28.281  26.407  24.330  1.00  0.00     0.041 C 
ATOM     20  C   UNL A   1      27.390  27.416  23.672  1.00  0.00    -0.030 C 
BRANCH  16  21
ATOM     21  C   UNL A   1      31.597  27.832  22.768  1.00  0.00     0.226 C 
ATOM     22  C   UNL A   1      33.853  27.402  22.020  1.00  0.00     0.146 C 
ATOM     23  N   UNL A   1      32.429  27.146  21.888  1.00  0.00    -0.349 N 
ATOM     24  C   UNL A   1      32.047  26.001  21.079  1.00  0.00     0.146 C 
ATOM     25  O   UNL A   1      32.030  28.748  23.474  1.00  0.00    -0.275 OA
ENDBRANCH  16  21
ENDBRANCH  13  15
ENDBRANCH  12  13
BRANCH  12  26
ATOM     26  C   UNL A   1      32.329  26.409  25.747  1.00  0.00     0.049 A 
ATOM     27  C   UNL A   1      33.643  26.892  25.755  1.00  0.00     0.027 A 
ATOM     28  C   UNL A   1      31.386  27.008  26.602  1.00  0.00     0.027 A 
ATOM     29  C   UNL A   1      33.976  28.009  26.530  1.00  0.00     0.002 A 
ATOM     30  C   UNL A   1      31.717  28.128  27.365  1.00  0.00     0.002 A 
ATOM     31  C   UNL A   1      33.009  28.637  27.315  1.00  0.00     0.000 A 
ENDBRANCH  12  26
ENDBRANCH   7  12
ENDBRANCH   3   6
ENDBRANCH   1   2
BRANCH   1  32
ATOM     32  C   UNL A   1      36.862  23.536  24.544  1.00  0.00     0.042 C 
BRANCH  32  33
ATOM     33  C   UNL A   1      37.079  22.928  25.924  1.00  0.00     0.118 C 
BRANCH  33  34
ATOM     34  N   UNL A   1      38.307  22.178  26.122  1.00  0.00    -0.352 N 
ATOM     35  C   UNL A   1      39.532  22.559  26.633  1.00  0.00     0.251 C 
ATOM     36  H   UNL A   1      38.258  21.235  25.844  1.00  0.00     0.163 HD
ATOM     37  O   UNL A   1      40.404  21.703  26.747  1.00  0.00    -0.269 OA
BRANCH  35  38
ATOM     38  C   UNL A   1      39.844  23.969  26.994  1.00  0.00     0.039 A 
ATOM     39  C   UNL A   1      39.984  24.288  28.355  1.00  0.00     0.014 A 
ATOM     40  C   UNL A   1      39.986  24.983  26.049  1.00  0.00     0.014 A 
ATOM     41  C   UNL A   1      40.344  25.583  28.753  1.00  0.00     0.010 A 
ATOM     42  C   UNL A   1      40.433  26.245  26.435  1.00  0.00     0.010 A 
ATOM     43  C   UNL A   1      40.598  26.566  27.791  1.00  0.00    -0.014 A 
BRANCH  43  44
ATOM     44  C   UNL A   1      40.946  27.966  28.148  1.00  0.00     0.031 A 
ATOM     45  C   UNL A   1      42.397  28.370  28.167  1.00  0.00     0.074 A 
ATOM     46  C   UNL A   1      39.999  28.824  28.573  1.00  0.00     0.049 A 
ATOM     47  N   UNL A   1      42.948  29.461  28.630  1.00  0.00    -0.248 NA
ATOM     48  C   UNL A   1      43.360  27.391  27.632  1.00  0.00     0.031 C 
ATOM     49  C   UNL A   1      38.566  28.537  28.655  1.00  0.00     0.029 A 
ATOM     50  N   UNL A   1      40.109  30.103  29.060  1.00  0.00    -0.354 N 
ATOM     51  C   UNL A   1      44.318  29.274  28.500  1.00  0.00     0.074 A 
ATOM     52  C   UNL A   1      44.517  27.955  27.942  1.00  0.00     0.031 C 
ATOM     53  C   UNL A   1      37.934  29.602  29.179  1.00  0.00     0.029 A 
ATOM     54  C   UNL A   1      38.918  30.634  29.495  1.00  0.00     0.049 A 
ATOM     55  H   UNL A   1      40.962  30.594  29.093  1.00  0.00     0.167 HD
ATOM     56  C   UNL A   1      45.325  30.132  28.789  1.00  0.00     0.034 A 
ATOM     57  C   UNL A   1      38.653  31.813  30.095  1.00  0.00     0.034 A 
ATOM     58  C   UNL A   1      45.122  31.471  29.266  1.00  0.00     0.049 A 
ATOM     59  C   UNL A   1      39.782  32.779  30.343  1.00  0.00     0.074 A 
ATOM     60  C   UNL A   1      46.066  32.455  29.497  1.00  0.00     0.029 A 
ATOM     61  N   UNL A   1      43.886  32.019  29.574  1.00  0.00    -0.354 N 
ATOM     62  N   UNL A   1      41.061  32.640  30.082  1.00  0.00    -0.248 NA
ATOM     63  C   UNL A   1      39.432  34.078  30.937  1.00  0.00     0.031 C 
ATOM     64  C   UNL A   1      45.400  33.600  29.947  1.00  0.00     0.029 A 
ATOM     65  C   UNL A   1      44.041  33.329  29.988  1.00  0.00     0.049 A 
ATOM     66  H   UNL A   1      43.026  31.545  29.507  1.00  0.00     0.167 HD
ATOM     67  C   UNL A   1      41.658  33.844  30.442  1.00  0.00     0.074 A 
ATOM     68  C   UNL A   1      40.600  34.707  30.924  1.00  0.00     0.031 C 
ATOM     69  C   UNL A   1      42.967  34.197  30.395  1.00  0.00     0.034 A 
BRANCH  56  70
ATOM     70  C   UNL A   1      46.732  29.666  28.528  1.00  0.00     0.023 A 
ATOM     71  C   UNL A   1      47.338  29.954  27.289  1.00  0.00     0.012 A 
ATOM     72  C   UNL A   1      47.464  28.974  29.512  1.00  0.00     0.148 A 
ATOM     73  C   UNL A   1      48.636  29.528  27.016  1.00  0.00     0.002 A 
ATOM     74  C   UNL A   1      48.774  28.590  29.249  1.00  0.00     0.091 A 
ATOM     75  F   UNL A   1      46.862  28.686  30.675  1.00  0.00    -0.205 F 
ATOM     76  C   UNL A   1      49.357  28.855  27.999  1.00  0.00     0.022 A 
BRANCH  74  77
ATOM     77  S   UNL A   1      49.808  27.782  30.476  1.00  0.00     0.127 S 
ATOM     78  O   UNL A   1      49.231  26.439  30.511  1.00  0.00    -0.237 OA
ATOM     79  O   UNL A   1      51.135  27.860  29.863  1.00  0.00    -0.237 OA
ATOM     80  O   UNL A   1      49.659  28.561  31.697  1.00  0.00    -0.744 OA
ENDBRANCH  74  77
ENDBRANCH  56  70
BRANCH  57  81
ATOM     81  C   UNL A   1      37.247  32.181  30.430  1.00  0.00     0.023 A 
ATOM     82  C   UNL A   1      36.762  31.916  31.727  1.00  0.00     0.012 A 
ATOM     83  C   UNL A   1      36.398  32.808  29.497  1.00  0.00     0.148 A 
ATOM     84  C   UNL A   1      35.451  32.239  32.077  1.00  0.00     0.002 A 
ATOM     85  C   UNL A   1      35.109  33.175  29.870  1.00  0.00     0.091 A 
ATOM     86  F   UNL A   1      36.869  33.039  28.262  1.00  0.00    -0.205 F 
ATOM     87  C   UNL A   1      34.628  32.877  31.154  1.00  0.00     0.022 A 
BRANCH  85  88
ATOM     88  S   UNL A   1      34.029  34.120  28.788  1.00  0.00     0.127 S 
ATOM     89  O   UNL A   1      34.880  35.248  28.422  1.00  0.00    -0.237 OA
ATOM     90  O   UNL A   1      33.768  33.168  27.707  1.00  0.00    -0.237 OA
ATOM     91  O   UNL A   1      32.855  34.440  29.590  1.00  0.00    -0.744 OA
ENDBRANCH  85  88
ENDBRANCH  57  81
BRANCH  69  92
ATOM     92  C   UNL A   1      43.336  35.588  30.837  1.00  0.00     0.023 A 
ATOM     93  C   UNL A   1      43.740  35.811  32.167  1.00  0.00     0.012 A 
ATOM     94  C   UNL A   1      43.376  36.650  29.912  1.00  0.00     0.148 A 
ATOM     95  C   UNL A   1      44.160  37.076  32.577  1.00  0.00     0.002 A 
ATOM     96  C   UNL A   1      43.837  37.897  30.316  1.00  0.00     0.091 A 
ATOM     97  F   UNL A   1      42.967  36.422  28.656  1.00  0.00    -0.205 F 
ATOM     98  C   UNL A   1      44.220  38.115  31.650  1.00  0.00     0.022 A 
BRANCH  96  99
ATOM     99  S   UNL A   1      44.037  39.263  29.165  1.00  0.00     0.127 S 
ATOM    100  O   UNL A   1      44.947  38.688  28.176  1.00  0.00    -0.237 OA
ATOM    101  O   UNL A   1      42.669  39.473  28.686  1.00  0.00    -0.237 OA
ATOM    102  O   UNL A   1      44.574  40.367  29.949  1.00  0.00    -0.744 OA
ENDBRANCH  96  99
ENDBRANCH  69  92
ENDBRANCH  43  44
ENDBRANCH  35  38
ENDBRANCH  33  34
ENDBRANCH  32  33
ENDBRANCH   1  32
TORSDOF 18
ENDMDL
MODEL 2
REMARK VINA RESULT:     -11.2      2.283      2.758
REMARK SMILES CN(C)C(=O)[C@@H]1CC=CC[C@H]1C(=O)N(c1ccccc1)c1ccccc1C(=O)NCCCNC(=O)c1ccc(-c2c3nc(c(-c4cccc(S(=O)(=O)[O-])c4F)c4ccc([nH]4)c(-c4cccc(S(=O)(=O)[O-])c4F)c4nc(c(-c5cccc(S(=O)(=O)[O-])c5F)c5ccc2[nH]5)C=C4)C=C3)cc1
REMARK SMILES IDX 30 1 29 2 27 3 28 4 26 6 21 7 22 8 23 9 25 10 24 11 14 12
REMARK SMILES IDX 12 13 13 14 11 15 6 16 7 17 8 18 10 19 9 20 4 21 1 22 2 23
REMARK SMILES IDX 3 24 5 25 15 26 16 27 20 28 17 29 19 30 18 31 31 32 32 33
REMARK SMILES IDX 33 34 34 35 35 37 36 38 37 39 98 40 38 41 97 42 39 43 40 44
REMARK SMILES IDX 41 45 91 46 42 47 96 48 90 49 92 50 43 51 95 52 89 53 88 54
REMARK SMILES IDX 44 56 76 57 56 58 75 59 57 60 60 61 74 62 93 63 58 64 59 65
REMARK SMILES IDX 73 67 94 68 61 69 45 70 46 71 54 72 47 73 49 74 55 75 48 76
REMARK SMILES IDX 50 77 51 78 52 79 53 80 77 81 78 82 86 83 79 84 81 85 87 86
REMARK SMILES IDX 80 87 82 88 83 89 84 90 85 91 62 92 63 93 71 94 64 95 66 96
REMARK SMILES IDX 72 97 65 98 67 99 68 100 69 101 70 102
REMARK H PARENT 29 5 33 36 92 55 60 66
REMARK Flexibility Score: inf
ROOT
ATOM      1  C   UNL A   1      35.928  21.131  24.509  1.00  0.00     0.118 C 
ENDROOT
BRANCH   1   2
ATOM      2  N   UNL A   1      35.603  22.502  24.210  1.00  0.00    -0.352 N 
ATOM      3  C   UNL A   1      34.529  23.322  24.341  1.00  0.00     0.253 C 
ATOM      4  O   UNL A   1      34.578  24.268  23.537  1.00  0.00    -0.269 OA
ATOM      5  H   UNL A   1      36.365  22.970  23.799  1.00  0.00     0.163 HD
BRANCH   3   6
ATOM      6  C   UNL A   1      33.408  23.339  25.342  1.00  0.00     0.063 A 
ATOM      7  C   UNL A   1      32.429  24.286  25.726  1.00  0.00     0.062 A 
ATOM      8  C   UNL A   1      31.675  24.011  26.913  1.00  0.00     0.027 A 
ATOM      9  C   UNL A   1      31.876  22.892  27.720  1.00  0.00     0.002 A 
ATOM     10  C   UNL A   1      33.545  22.181  26.178  1.00  0.00     0.016 A 
ATOM     11  C   UNL A   1      32.818  21.965  27.346  1.00  0.00     0.001 A 
BRANCH   7  12
ATOM     12  N   UNL A   1      32.053  25.522  25.051  1.00  0.00    -0.280 N 
BRANCH  12  13
ATOM     13  C   UNL A   1      30.925  25.485  24.216  1.00  0.00     0.235 C 
ATOM     14  O   UNL A   1      30.703  24.476  23.528  1.00  0.00    -0.274 OA
BRANCH  13  15
ATOM     15  C   UNL A   1      29.958  26.719  24.044  1.00  0.00     0.096 C 
ATOM     16  C   UNL A   1      30.305  27.578  22.795  1.00  0.00     0.095 C 
ATOM     17  C   UNL A   1      29.461  28.868  22.755  1.00  0.00     0.041 C 
ATOM     18  C   UNL A   1      28.000  28.574  22.839  1.00  0.00    -0.030 C 
ATOM     19  C   UNL A   1      28.427  26.531  24.211  1.00  0.00     0.041 C 
ATOM     20  C   UNL A   1      27.541  27.499  23.487  1.00  0.00    -0.030 C 
BRANCH  16  21
ATOM     21  C   UNL A   1      31.772  28.012  22.767  1.00  0.00     0.226 C 
ATOM     22  C   UNL A   1      34.078  27.606  22.176  1.00  0.00     0.146 C 
ATOM     23  N   UNL A   1      32.673  27.298  21.981  1.00  0.00    -0.349 N 
ATOM     24  C   UNL A   1      32.369  26.094  21.227  1.00  0.00     0.146 C 
ATOM     25  O   UNL A   1      32.138  28.983  23.436  1.00  0.00    -0.275 OA
ENDBRANCH  16  21
ENDBRANCH  13  15
ENDBRANCH  12  13
BRANCH  12  26
ATOM     26  C   UNL A   1      32.381  26.694  25.821  1.00  0.00     0.049 A 
ATOM     27  C   UNL A   1      31.390  27.335  26.575  1.00  0.00     0.027 A 
ATOM     28  C   UNL A   1      33.684  27.226  25.833  1.00  0.00     0.027 A 
ATOM     29  C   UNL A   1      31.721  28.420  27.393  1.00  0.00     0.002 A 
ATOM     30  C   UNL A   1      34.014  28.301  26.657  1.00  0.00     0.002 A 
ATOM     31  C   UNL A   1      33.034  28.887  27.450  1.00  0.00     0.000 A 
ENDBRANCH  12  26
ENDBRANCH   7  12
ENDBRANCH   3   6
ENDBRANCH   1   2
BRANCH   1  32
ATOM     32  C   UNL A   1      37.438  20.983  24.489  1.00  0.00     0.042 C 
BRANCH  32  33
ATOM     33  C   UNL A   1      38.185  21.563  25.683  1.00  0.00     0.118 C 
BRANCH  33  34
ATOM     34  N   UNL A   1      39.197  20.719  26.295  1.00  0.00    -0.352 N 
ATOM     35  C   UNL A   1      40.328  21.037  27.021  1.00  0.00     0.251 C 
ATOM     36  H   UNL A   1      39.051  19.754  26.169  1.00  0.00     0.163 HD
ATOM     37  O   UNL A   1      40.997  20.118  27.482  1.00  0.00    -0.269 OA
BRANCH  35  38
ATOM     38  C   UNL A   1      40.786  22.441  27.215  1.00  0.00     0.039 A 
ATOM     39  C   UNL A   1      40.362  23.409  26.290  1.00  0.00     0.014 A 
ATOM     40  C   UNL A   1      41.624  22.830  28.257  1.00  0.00     0.014 A 
ATOM     41  C   UNL A   1      40.704  24.757  26.458  1.00  0.00     0.010 A 
ATOM     42  C   UNL A   1      41.890  24.179  28.477  1.00  0.00     0.010 A 
ATOM     43  C   UNL A   1      41.451  25.156  27.571  1.00  0.00    -0.014 A 
BRANCH  43  44
ATOM     44  C   UNL A   1      41.879  26.563  27.787  1.00  0.00     0.031 A 
ATOM     45  C   UNL A   1      43.282  26.960  27.410  1.00  0.00     0.074 A 
ATOM     46  C   UNL A   1      41.077  27.436  28.426  1.00  0.00     0.049 A 
ATOM     47  N   UNL A   1      43.934  28.059  27.682  1.00  0.00    -0.248 NA
ATOM     48  C   UNL A   1      44.070  25.964  26.664  1.00  0.00     0.031 C 
ATOM     49  C   UNL A   1      39.718  27.158  28.894  1.00  0.00     0.029 A 
ATOM     50  N   UNL A   1      41.311  28.727  28.834  1.00  0.00    -0.354 N 
ATOM     51  C   UNL A   1      45.221  27.862  27.198  1.00  0.00     0.074 A 
ATOM     52  C   UNL A   1      45.267  26.529  26.641  1.00  0.00     0.031 C 
ATOM     53  C   UNL A   1      39.246  28.239  29.539  1.00  0.00     0.029 A 
ATOM     54  C   UNL A   1      40.277  29.274  29.557  1.00  0.00     0.049 A 
ATOM     55  H   UNL A   1      42.141  29.214  28.628  1.00  0.00     0.167 HD
ATOM     56  C   UNL A   1      46.267  28.722  27.188  1.00  0.00     0.034 A 
ATOM     57  C   UNL A   1      40.178  30.469  30.175  1.00  0.00     0.034 A 
ATOM     58  C   UNL A   1      46.196  30.074  27.668  1.00  0.00     0.049 A 
ATOM     59  C   UNL A   1      41.332  31.435  30.090  1.00  0.00     0.074 A 
ATOM     60  C   UNL A   1      47.166  31.059  27.615  1.00  0.00     0.029 A 
ATOM     61  N   UNL A   1      45.085  30.635  28.279  1.00  0.00    -0.354 N 
ATOM     62  N   UNL A   1      42.495  31.283  29.503  1.00  0.00    -0.248 NA
ATOM     63  C   UNL A   1      41.149  32.750  30.724  1.00  0.00     0.031 C 
ATOM     64  C   UNL A   1      46.641  32.218  28.197  1.00  0.00     0.029 A 
ATOM     65  C   UNL A   1      45.342  31.954  28.604  1.00  0.00     0.049 A 
ATOM     66  H   UNL A   1      44.238  30.164  28.454  1.00  0.00     0.167 HD
ATOM     67  C   UNL A   1      43.165  32.492  29.661  1.00  0.00     0.074 A 
ATOM     68  C   UNL A   1      42.271  33.373  30.385  1.00  0.00     0.031 C 
ATOM     69  C   UNL A   1      44.413  32.838  29.259  1.00  0.00     0.034 A 
BRANCH  56  70
ATOM     70  C   UNL A   1      47.555  28.242  26.575  1.00  0.00     0.023 A 
ATOM     71  C   UNL A   1      48.646  27.932  27.413  1.00  0.00     0.012 A 
ATOM     72  C   UNL A   1      47.680  28.068  25.184  1.00  0.00     0.148 A 
ATOM     73  C   UNL A   1      49.854  27.494  26.874  1.00  0.00     0.002 A 
ATOM     74  C   UNL A   1      48.875  27.589  24.656  1.00  0.00     0.091 A 
ATOM     75  F   UNL A   1      46.641  28.393  24.400  1.00  0.00    -0.205 F 
ATOM     76  C   UNL A   1      49.965  27.313  25.498  1.00  0.00     0.022 A 
BRANCH  74  77
ATOM     77  S   UNL A   1      49.091  27.255  22.905  1.00  0.00     0.127 S 
ATOM     78  O   UNL A   1      48.301  26.037  22.736  1.00  0.00    -0.237 OA
ATOM     79  O   UNL A   1      48.512  28.449  22.288  1.00  0.00    -0.237 OA
ATOM     80  O   UNL A   1      50.527  27.106  22.702  1.00  0.00    -0.744 OA
ENDBRANCH  74  77
ENDBRANCH  56  70
BRANCH  57  81
ATOM     81  C   UNL A   1      38.911  30.852  30.862  1.00  0.00     0.023 A 
ATOM     82  C   UNL A   1      38.817  30.692  32.259  1.00  0.00     0.012 A 
ATOM     83  C   UNL A   1      37.816  31.392  30.159  1.00  0.00     0.148 A 
ATOM     84  C   UNL A   1      37.646  31.033  32.938  1.00  0.00     0.002 A 
ATOM     85  C   UNL A   1      36.672  31.778  30.850  1.00  0.00     0.091 A 
ATOM     86  F   UNL A   1      37.916  31.522  28.828  1.00  0.00    -0.205 F 
ATOM     87  C   UNL A   1      36.579  31.584  32.237  1.00  0.00     0.022 A 
BRANCH  85  88
ATOM     88  S   UNL A   1      35.303  32.621  30.045  1.00  0.00     0.127 S 
ATOM     89  O   UNL A   1      34.379  32.823  31.156  1.00  0.00    -0.237 OA
ATOM     90  O   UNL A   1      35.944  33.839  29.545  1.00  0.00    -0.237 OA
ATOM     91  O   UNL A   1      34.852  31.717  28.995  1.00  0.00    -0.744 OA
ENDBRANCH  85  88
ENDBRANCH  57  81
BRANCH  69  92
ATOM     92  C   UNL A   1      44.884  34.237  29.552  1.00  0.00     0.023 A 
ATOM     93  C   UNL A   1      45.590  34.499  30.742  1.00  0.00     0.012 A 
ATOM     94  C   UNL A   1      44.713  35.267  28.606  1.00  0.00     0.148 A 
ATOM     95  C   UNL A   1      46.101  35.771  30.996  1.00  0.00     0.002 A 
ATOM     96  C   UNL A   1      45.263  36.520  28.846  1.00  0.00     0.091 A 
ATOM     97  F   UNL A   1      44.020  35.002  27.490  1.00  0.00    -0.205 F 
ATOM     98  C   UNL A   1      45.949  36.777  30.044  1.00  0.00     0.022 A 
BRANCH  96  99
ATOM     99  S   UNL A   1      45.196  37.843  27.631  1.00  0.00     0.127 S 
ATOM    100  O   UNL A   1      43.767  37.899  27.329  1.00  0.00    -0.237 OA
ATOM    101  O   UNL A   1      45.705  38.989  28.386  1.00  0.00    -0.237 OA
ATOM    102  O   UNL A   1      46.057  37.417  26.534  1.00  0.00    -0.744 OA
ENDBRANCH  96  99
ENDBRANCH  69  92
ENDBRANCH  43  44
ENDBRANCH  35  38
ENDBRANCH  33  34
ENDBRANCH  32  33
ENDBRANCH   1  32
TORSDOF 18
ENDMDL
MODEL 3
REMARK VINA RESULT:     -11.2      4.562      9.224
REMARK SMILES CN(C)C(=O)[C@@H]1CC=CC[C@H]1C(=O)N(c1ccccc1)c1ccccc1C(=O)NCCCNC(=O)c1ccc(-c2c3nc(c(-c4cccc(S(=O)(=O)[O-])c4F)c4ccc([nH]4)c(-c4cccc(S(=O)(=O)[O-])c4F)c4nc(c(-c5cccc(S(=O)(=O)[O-])c5F)c5ccc2[nH]5)C=C4)C=C3)cc1
REMARK SMILES IDX 30 1 29 2 27 3 28 4 26 6 21 7 22 8 23 9 25 10 24 11 14 12
REMARK SMILES IDX 12 13 13 14 11 15 6 16 7 17 8 18 10 19 9 20 4 21 1 22 2 23
REMARK SMILES IDX 3 24 5 25 15 26 16 27 20 28 17 29 19 30 18 31 31 32 32 33
REMARK SMILES IDX 33 34 34 35 35 37 36 38 37 39 98 40 38 41 97 42 39 43 40 44
REMARK SMILES IDX 41 45 91 46 42 47 96 48 90 49 92 50 43 51 95 52 89 53 88 54
REMARK SMILES IDX 44 56 76 57 56 58 75 59 57 60 60 61 74 62 93 63 58 64 59 65
REMARK SMILES IDX 73 67 94 68 61 69 45 70 46 71 54 72 47 73 49 74 55 75 48 76
REMARK SMILES IDX 50 77 51 78 52 79 53 80 77 81 78 82 86 83 79 84 81 85 87 86
REMARK SMILES IDX 80 87 82 88 83 89 84 90 85 91 62 92 63 93 71 94 64 95 66 96
REMARK SMILES IDX 72 97 65 98 67 99 68 100 69 101 70 102
REMARK H PARENT 29 5 33 36 92 55 60 66
REMARK Flexibility Score: inf
ROOT
ATOM      1  C   UNL A   1      34.840  29.311  27.198  1.00  0.00     0.118 C 
ENDROOT
BRANCH   1   2
ATOM      2  N   UNL A   1      33.906  28.217  27.148  1.00  0.00    -0.352 N 
ATOM      3  C   UNL A   1      33.122  27.618  26.216  1.00  0.00     0.253 C 
ATOM      4  O   UNL A   1      32.168  27.019  26.739  1.00  0.00    -0.269 OA
ATOM      5  H   UNL A   1      33.810  27.786  28.029  1.00  0.00     0.163 HD
BRANCH   3   6
ATOM      6  C   UNL A   1      33.286  27.465  24.730  1.00  0.00     0.063 A 
ATOM      7  C   UNL A   1      33.510  26.372  23.859  1.00  0.00     0.062 A 
ATOM      8  C   UNL A   1      33.858  26.671  22.501  1.00  0.00     0.027 A 
ATOM      9  C   UNL A   1      34.022  27.964  22.007  1.00  0.00     0.002 A 
ATOM     10  C   UNL A   1      33.419  28.776  24.163  1.00  0.00     0.016 A 
ATOM     11  C   UNL A   1      33.795  29.029  22.846  1.00  0.00     0.001 A 
BRANCH   7  12
ATOM     12  N   UNL A   1      33.408  24.948  24.151  1.00  0.00    -0.280 N 
BRANCH  12  13
ATOM     13  C   UNL A   1      32.278  24.269  23.668  1.00  0.00     0.235 C 
ATOM     14  O   UNL A   1      32.144  24.088  22.449  1.00  0.00    -0.274 OA
BRANCH  13  15
ATOM     15  C   UNL A   1      31.108  23.794  24.614  1.00  0.00     0.096 C 
ATOM     16  C   UNL A   1      31.582  22.757  25.672  1.00  0.00     0.095 C 
ATOM     17  C   UNL A   1      30.388  22.182  26.461  1.00  0.00     0.041 C 
ATOM     18  C   UNL A   1      29.559  23.261  27.073  1.00  0.00    -0.030 C 
ATOM     19  C   UNL A   1      30.133  24.836  25.221  1.00  0.00     0.041 C 
ATOM     20  C   UNL A   1      29.464  24.471  26.512  1.00  0.00    -0.030 C 
BRANCH  16  21
ATOM     21  C   UNL A   1      32.309  21.565  25.045  1.00  0.00     0.226 C 
ATOM     22  C   UNL A   1      34.214  20.085  24.928  1.00  0.00     0.146 C 
ATOM     23  N   UNL A   1      33.436  21.051  25.682  1.00  0.00    -0.349 N 
ATOM     24  C   UNL A   1      34.060  21.600  26.873  1.00  0.00     0.146 C 
ATOM     25  O   UNL A   1      31.893  21.077  23.991  1.00  0.00    -0.275 OA
ENDBRANCH  16  21
ENDBRANCH  13  15
ENDBRANCH  12  13
BRANCH  12  26
ATOM     26  C   UNL A   1      34.695  24.306  24.229  1.00  0.00     0.049 A 
ATOM     27  C   UNL A   1      35.531  24.548  25.327  1.00  0.00     0.027 A 
ATOM     28  C   UNL A   1      35.147  23.438  23.219  1.00  0.00     0.027 A 
ATOM     29  C   UNL A   1      36.743  23.861  25.451  1.00  0.00     0.002 A 
ATOM     30  C   UNL A   1      36.351  22.747  23.349  1.00  0.00     0.002 A 
ATOM     31  C   UNL A   1      37.141  22.947  24.475  1.00  0.00     0.000 A 
ENDBRANCH  12  26
ENDBRANCH   7  12
ENDBRANCH   3   6
ENDBRANCH   1   2
BRANCH   1  32
ATOM     32  C   UNL A   1      34.060  30.594  27.422  1.00  0.00     0.042 C 
BRANCH  32  33
ATOM     33  C   UNL A   1      34.830  31.745  28.058  1.00  0.00     0.118 C 
BRANCH  33  34
ATOM     34  N   UNL A   1      34.375  32.195  29.362  1.00  0.00    -0.352 N 
ATOM     35  C   UNL A   1      34.999  32.188  30.594  1.00  0.00     0.251 C 
ATOM     36  H   UNL A   1      33.465  32.569  29.368  1.00  0.00     0.163 HD
ATOM     37  O   UNL A   1      34.407  32.686  31.546  1.00  0.00    -0.269 OA
BRANCH  35  38
ATOM     38  C   UNL A   1      36.328  31.554  30.814  1.00  0.00     0.039 A 
ATOM     39  C   UNL A   1      36.386  30.399  31.611  1.00  0.00     0.014 A 
ATOM     40  C   UNL A   1      37.510  32.062  30.281  1.00  0.00     0.014 A 
ATOM     41  C   UNL A   1      37.597  29.719  31.799  1.00  0.00     0.010 A 
ATOM     42  C   UNL A   1      38.696  31.339  30.390  1.00  0.00     0.010 A 
ATOM     43  C   UNL A   1      38.759  30.171  31.165  1.00  0.00    -0.014 A 
BRANCH  43  44
ATOM     44  C   UNL A   1      40.081  29.519  31.353  1.00  0.00     0.031 A 
ATOM     45  C   UNL A   1      41.000  30.038  32.428  1.00  0.00     0.074 A 
ATOM     46  C   UNL A   1      40.507  28.569  30.499  1.00  0.00     0.049 A 
ATOM     47  N   UNL A   1      42.258  29.763  32.646  1.00  0.00    -0.248 NA
ATOM     48  C   UNL A   1      40.433  31.035  33.353  1.00  0.00     0.031 C 
ATOM     49  C   UNL A   1      39.736  28.020  29.383  1.00  0.00     0.029 A 
ATOM     50  N   UNL A   1      41.719  27.927  30.412  1.00  0.00    -0.354 N 
ATOM     51  C   UNL A   1      42.649  30.596  33.688  1.00  0.00     0.074 A 
ATOM     52  C   UNL A   1      41.503  31.405  34.039  1.00  0.00     0.031 C 
ATOM     53  C   UNL A   1      40.499  27.139  28.713  1.00  0.00     0.029 A 
ATOM     54  C   UNL A   1      41.820  27.081  29.333  1.00  0.00     0.049 A 
ATOM     55  H   UNL A   1      42.446  28.062  31.062  1.00  0.00     0.167 HD
ATOM     56  C   UNL A   1      43.844  30.663  34.320  1.00  0.00     0.034 A 
ATOM     57  C   UNL A   1      42.865  26.353  28.888  1.00  0.00     0.034 A 
ATOM     58  C   UNL A   1      44.955  29.802  34.025  1.00  0.00     0.049 A 
ATOM     59  C   UNL A   1      44.164  26.394  29.650  1.00  0.00     0.074 A 
ATOM     60  C   UNL A   1      46.177  29.720  34.669  1.00  0.00     0.029 A 
ATOM     61  N   UNL A   1      44.975  28.864  33.004  1.00  0.00    -0.354 N 
ATOM     62  N   UNL A   1      44.472  27.084  30.722  1.00  0.00    -0.248 NA
ATOM     63  C   UNL A   1      45.251  25.531  29.163  1.00  0.00     0.031 C 
ATOM     64  C   UNL A   1      46.937  28.731  34.036  1.00  0.00     0.029 A 
ATOM     65  C   UNL A   1      46.184  28.194  33.003  1.00  0.00     0.049 A 
ATOM     66  H   UNL A   1      44.236  28.699  32.374  1.00  0.00     0.167 HD
ATOM     67  C   UNL A   1      45.768  26.710  31.060  1.00  0.00     0.074 A 
ATOM     68  C   UNL A   1      46.184  25.720  30.088  1.00  0.00     0.031 C 
ATOM     69  C   UNL A   1      46.552  27.159  32.072  1.00  0.00     0.034 A 
BRANCH  56  70
ATOM     70  C   UNL A   1      43.983  31.658  35.441  1.00  0.00     0.023 A 
ATOM     71  C   UNL A   1      44.277  33.003  35.138  1.00  0.00     0.012 A 
ATOM     72  C   UNL A   1      43.792  31.276  36.782  1.00  0.00     0.148 A 
ATOM     73  C   UNL A   1      44.420  33.946  36.155  1.00  0.00     0.002 A 
ATOM     74  C   UNL A   1      43.893  32.232  37.789  1.00  0.00     0.091 A 
ATOM     75  F   UNL A   1      43.539  29.988  37.053  1.00  0.00    -0.205 F 
ATOM     76  C   UNL A   1      44.218  33.562  37.478  1.00  0.00     0.022 A 
BRANCH  74  77
ATOM     77  S   UNL A   1      43.581  31.850  39.516  1.00  0.00     0.127 S 
ATOM     78  O   UNL A   1      42.119  31.857  39.561  1.00  0.00    -0.237 OA
ATOM     79  O   UNL A   1      44.189  30.527  39.656  1.00  0.00    -0.237 OA
ATOM     80  O   UNL A   1      44.238  32.902  40.281  1.00  0.00    -0.744 OA
ENDBRANCH  74  77
ENDBRANCH  56  70
BRANCH  57  81
ATOM     81  C   UNL A   1      42.703  25.462  27.703  1.00  0.00     0.023 A 
ATOM     82  C   UNL A   1      43.069  25.943  26.430  1.00  0.00     0.012 A 
ATOM     83  C   UNL A   1      42.219  24.144  27.824  1.00  0.00     0.148 A 
ATOM     84  C   UNL A   1      42.926  25.142  25.297  1.00  0.00     0.002 A 
ATOM     85  C   UNL A   1      42.129  23.333  26.697  1.00  0.00     0.091 A 
ATOM     86  F   UNL A   1      41.859  23.706  29.039  1.00  0.00    -0.205 F 
ATOM     87  C   UNL A   1      42.467  23.835  25.430  1.00  0.00     0.022 A 
BRANCH  85  88
ATOM     88  S   UNL A   1      41.675  21.597  26.797  1.00  0.00     0.127 S 
ATOM     89  O   UNL A   1      42.082  21.103  25.484  1.00  0.00    -0.237 OA
ATOM     90  O   UNL A   1      42.498  21.128  27.913  1.00  0.00    -0.237 OA
ATOM     91  O   UNL A   1      40.244  21.582  27.069  1.00  0.00    -0.744 OA
ENDBRANCH  85  88
ENDBRANCH  57  81
BRANCH  69  92
ATOM     92  C   UNL A   1      47.926  26.561  32.215  1.00  0.00     0.023 A 
ATOM     93  C   UNL A   1      48.995  27.087  31.464  1.00  0.00     0.012 A 
ATOM     94  C   UNL A   1      48.176  25.548  33.162  1.00  0.00     0.148 A 
ATOM     95  C   UNL A   1      50.290  26.600  31.639  1.00  0.00     0.002 A 
ATOM     96  C   UNL A   1      49.475  25.097  33.362  1.00  0.00     0.091 A 
ATOM     97  F   UNL A   1      47.141  25.047  33.851  1.00  0.00    -0.205 F 
ATOM     98  C   UNL A   1      50.532  25.615  32.595  1.00  0.00     0.022 A 
BRANCH  96  99
ATOM     99  S   UNL A   1      49.887  23.902  34.638  1.00  0.00     0.127 S 
ATOM    100  O   UNL A   1      49.122  22.732  34.211  1.00  0.00    -0.237 OA
ATOM    101  O   UNL A   1      51.337  23.770  34.489  1.00  0.00    -0.237 OA
ATOM    102  O   UNL A   1      49.466  24.505  35.897  1.00  0.00    -0.744 OA
ENDBRANCH  96  99
ENDBRANCH  69  92
ENDBRANCH  43  44
ENDBRANCH  35  38
ENDBRANCH  33  34
ENDBRANCH  32  33
ENDBRANCH   1  32
TORSDOF 18
ENDMDL
