MODEL 1
REMARK VINA RESULT:     -12.6      0.000      0.000
REMARK SMILES CC(C)CCc1cc2c(cc1Cl)C=C(C(=O)NCCCNC(=O)c1ccc(-c3c4nc(c(-c5cccc(S(=O)(=O)[O-])c5F)c5ccc([nH]5)c(-c5cccc(S(=O)(=O)[O-])c5F)c5nc(c(-c6cccc(S(=O)(=O)[O-])c6F)c6ccc3[nH]6)C=C5)C=C4)cc1)[C@@H](C(F)(F)F)O2
REMARK SMILES IDX 19 1 18 2 17 3 15 4 16 5 14 7 6 8 7 9 11 10 8 11 10 12 12 13
REMARK SMILES IDX 9 14 92 15 13 16 87 17 5 18 4 19 2 20 1 21 3 22 88 23 89 24
REMARK SMILES IDX 90 25 91 26 20 27 21 28 22 29 23 31 24 32 25 33 86 34 26 35
REMARK SMILES IDX 85 36 27 37 28 38 29 39 79 40 30 41 84 42 78 43 80 44 31 45
REMARK SMILES IDX 83 46 77 47 76 48 32 50 64 51 44 52 63 53 45 54 48 55 62 56
REMARK SMILES IDX 81 57 46 58 47 59 61 61 82 62 49 63 33 64 34 65 42 66 35 67
REMARK SMILES IDX 37 68 43 69 36 70 38 71 39 72 40 73 41 74 65 75 66 76 74 77
REMARK SMILES IDX 67 78 69 79 75 80 68 81 70 82 71 83 72 84 73 85 50 86 51 87
REMARK SMILES IDX 59 88 52 89 54 90 60 91 53 92 55 93 56 94 57 95 58 96
REMARK H PARENT 17 6 21 30 80 49 48 60
REMARK Flexibility Score: inf
ROOT
ATOM      1  C   UNL A   1      32.942  29.027  23.924  1.00  0.00     0.042 C 
ENDROOT
BRANCH   1   2
ATOM      2  C   UNL A   1      31.819  28.003  23.979  1.00  0.00     0.118 C 
BRANCH   2   3
ATOM      3  N   UNL A   1      31.370  27.749  25.340  1.00  0.00    -0.352 N 
ATOM      4  C   UNL A   1      31.262  26.681  26.166  1.00  0.00     0.251 C 
ATOM      5  O   UNL A   1      30.839  26.929  27.299  1.00  0.00    -0.270 OA
ATOM      6  H   UNL A   1      31.061  28.575  25.777  1.00  0.00     0.163 HD
BRANCH   4   7
ATOM      7  C   UNL A   1      31.609  25.280  25.799  1.00  0.00     0.067 C 
ATOM      8  C   UNL A   1      33.893  20.839  25.064  1.00  0.00    -0.026 A 
ATOM      9  C   UNL A   1      32.562  21.266  25.171  1.00  0.00     0.052 A 
ATOM     10  C   UNL A   1      34.902  21.777  25.362  1.00  0.00     0.045 A 
ATOM     11  C   UNL A   1      32.257  22.594  25.452  1.00  0.00     0.128 A 
ATOM     12  C   UNL A   1      34.588  23.104  25.697  1.00  0.00     0.032 A 
ATOM     13  Cl  UNL A   1      36.577  21.344  25.345  1.00  0.00    -0.084 Cl
ATOM     14  C   UNL A   1      33.257  23.522  25.723  1.00  0.00     0.019 A 
ATOM     15  O   UNL A   1      30.931  22.922  25.455  1.00  0.00    -0.475 OA
ATOM     16  C   UNL A   1      32.872  24.889  26.062  1.00  0.00     0.025 C 
ATOM     17  C   UNL A   1      30.652  24.316  25.157  1.00  0.00     0.314 C 
BRANCH   8  18
ATOM     18  C   UNL A   1      34.226  19.410  24.677  1.00  0.00     0.037 C 
BRANCH  18  19
ATOM     19  C   UNL A   1      33.104  18.357  24.783  1.00  0.00     0.008 C 
BRANCH  19  20
ATOM     20  C   UNL A   1      32.956  17.415  23.566  1.00  0.00    -0.017 C 
ATOM     21  C   UNL A   1      32.292  18.106  22.376  1.00  0.00     0.007 C 
ATOM     22  C   UNL A   1      34.329  16.874  23.161  1.00  0.00     0.007 C 
ENDBRANCH  19  20
ENDBRANCH  18  19
ENDBRANCH   8  18
BRANCH  17  23
ATOM     23  C   UNL A   1      30.551  24.524  23.630  1.00  0.00     0.429 C 
ATOM     24  F   UNL A   1      29.683  25.524  23.341  1.00  0.00    -0.167 F 
ATOM     25  F   UNL A   1      31.738  24.871  23.076  1.00  0.00    -0.167 F 
ATOM     26  F   UNL A   1      30.128  23.419  22.974  1.00  0.00    -0.167 F 
ENDBRANCH  17  23
ENDBRANCH   4   7
ENDBRANCH   2   3
ENDBRANCH   1   2
BRANCH   1  27
ATOM     27  C   UNL A   1      33.544  29.299  25.296  1.00  0.00     0.118 C 
BRANCH  27  28
ATOM     28  N   UNL A   1      33.032  30.536  25.885  1.00  0.00    -0.352 N 
ATOM     29  C   UNL A   1      33.461  31.247  26.980  1.00  0.00     0.251 C 
ATOM     30  H   UNL A   1      32.255  30.922  25.421  1.00  0.00     0.163 HD
ATOM     31  O   UNL A   1      32.742  32.129  27.445  1.00  0.00    -0.269 OA
BRANCH  29  32
ATOM     32  C   UNL A   1      34.765  30.939  27.600  1.00  0.00     0.039 A 
ATOM     33  C   UNL A   1      35.055  29.638  28.009  1.00  0.00     0.014 A 
ATOM     34  C   UNL A   1      35.710  31.953  27.775  1.00  0.00     0.014 A 
ATOM     35  C   UNL A   1      36.185  29.393  28.773  1.00  0.00     0.010 A 
ATOM     36  C   UNL A   1      36.908  31.677  28.444  1.00  0.00     0.010 A 
ATOM     37  C   UNL A   1      37.131  30.407  28.996  1.00  0.00    -0.014 A 
BRANCH  37  38
ATOM     38  C   UNL A   1      38.345  30.086  29.790  1.00  0.00     0.031 A 
ATOM     39  C   UNL A   1      38.501  30.572  31.205  1.00  0.00     0.074 A 
ATOM     40  C   UNL A   1      39.280  29.282  29.243  1.00  0.00     0.049 A 
ATOM     41  N   UNL A   1      39.463  30.317  32.054  1.00  0.00    -0.248 NA
ATOM     42  C   UNL A   1      37.457  31.462  31.742  1.00  0.00     0.031 C 
ATOM     43  C   UNL A   1      39.248  28.769  27.871  1.00  0.00     0.029 A 
ATOM     44  N   UNL A   1      40.415  28.727  29.777  1.00  0.00    -0.354 N 
ATOM     45  C   UNL A   1      39.169  31.047  33.198  1.00  0.00     0.074 A 
ATOM     46  C   UNL A   1      37.937  31.758  32.943  1.00  0.00     0.031 C 
ATOM     47  C   UNL A   1      40.267  27.918  27.694  1.00  0.00     0.029 A 
ATOM     48  C   UNL A   1      41.064  27.874  28.914  1.00  0.00     0.049 A 
ATOM     49  H   UNL A   1      40.733  28.920  30.687  1.00  0.00     0.167 HD
ATOM     50  C   UNL A   1      39.856  31.104  34.363  1.00  0.00     0.034 A 
ATOM     51  C   UNL A   1      42.179  27.138  29.081  1.00  0.00     0.034 A 
ATOM     52  C   UNL A   1      41.043  30.342  34.639  1.00  0.00     0.049 A 
ATOM     53  C   UNL A   1      42.901  27.195  30.393  1.00  0.00     0.074 A 
ATOM     54  C   UNL A   1      41.773  30.292  35.813  1.00  0.00     0.029 A 
ATOM     55  N   UNL A   1      41.668  29.495  33.739  1.00  0.00    -0.354 N 
ATOM     56  N   UNL A   1      42.562  27.835  31.485  1.00  0.00    -0.248 NA
ATOM     57  C   UNL A   1      44.150  26.430  30.503  1.00  0.00     0.031 C 
ATOM     58  C   UNL A   1      42.846  29.418  35.622  1.00  0.00     0.029 A 
ATOM     59  C   UNL A   1      42.778  28.919  34.330  1.00  0.00     0.049 A 
ATOM     60  H   UNL A   1      41.368  29.328  32.817  1.00  0.00     0.167 HD
ATOM     61  C   UNL A   1      43.552  27.547  32.414  1.00  0.00     0.074 A 
ATOM     62  C   UNL A   1      44.491  26.655  31.766  1.00  0.00     0.031 C 
ATOM     63  C   UNL A   1      43.677  27.999  33.684  1.00  0.00     0.034 A 
BRANCH  50  64
ATOM     64  C   UNL A   1      39.325  31.982  35.462  1.00  0.00     0.023 A 
ATOM     65  C   UNL A   1      38.434  31.439  36.408  1.00  0.00     0.012 A 
ATOM     66  C   UNL A   1      39.795  33.299  35.623  1.00  0.00     0.148 A 
ATOM     67  C   UNL A   1      38.012  32.198  37.499  1.00  0.00     0.002 A 
ATOM     68  C   UNL A   1      39.392  34.041  36.729  1.00  0.00     0.091 A 
ATOM     69  F   UNL A   1      40.632  33.795  34.702  1.00  0.00    -0.205 F 
ATOM     70  C   UNL A   1      38.499  33.493  37.665  1.00  0.00     0.022 A 
BRANCH  68  71
ATOM     71  S   UNL A   1      40.003  35.696  37.068  1.00  0.00     0.127 S 
ATOM     72  O   UNL A   1      41.440  35.458  37.195  1.00  0.00    -0.237 OA
ATOM     73  O   UNL A   1      39.609  36.420  35.860  1.00  0.00    -0.237 OA
ATOM     74  O   UNL A   1      39.337  36.131  38.288  1.00  0.00    -0.744 OA
ENDBRANCH  68  71
ENDBRANCH  50  64
BRANCH  51  75
ATOM     75  C   UNL A   1      42.633  26.250  27.976  1.00  0.00     0.023 A 
ATOM     76  C   UNL A   1      43.712  26.655  27.168  1.00  0.00     0.012 A 
ATOM     77  C   UNL A   1      42.071  24.972  27.793  1.00  0.00     0.148 A 
ATOM     78  C   UNL A   1      44.225  25.799  26.194  1.00  0.00     0.002 A 
ATOM     79  C   UNL A   1      42.618  24.107  26.853  1.00  0.00     0.091 A 
ATOM     80  F   UNL A   1      41.042  24.616  28.574  1.00  0.00    -0.205 F 
ATOM     81  C   UNL A   1      43.688  24.521  26.046  1.00  0.00     0.022 A 
BRANCH  79  82
ATOM     82  S   UNL A   1      42.077  22.403  26.680  1.00  0.00     0.127 S 
ATOM     83  O   UNL A   1      42.486  21.829  27.958  1.00  0.00    -0.237 OA
ATOM     84  O   UNL A   1      40.632  22.566  26.510  1.00  0.00    -0.237 OA
ATOM     85  O   UNL A   1      42.769  21.885  25.507  1.00  0.00    -0.744 OA
ENDBRANCH  79  82
ENDBRANCH  51  75
BRANCH  63  86
ATOM     86  C   UNL A   1      44.868  27.546  34.479  1.00  0.00     0.023 A 
ATOM     87  C   UNL A   1      46.016  28.361  34.516  1.00  0.00     0.012 A 
ATOM     88  C   UNL A   1      44.797  26.398  35.290  1.00  0.00     0.148 A 
ATOM     89  C   UNL A   1      47.081  28.036  35.354  1.00  0.00     0.002 A 
ATOM     90  C   UNL A   1      45.848  26.099  36.145  1.00  0.00     0.091 A 
ATOM     91  F   UNL A   1      43.692  25.640  35.225  1.00  0.00    -0.205 F 
ATOM     92  C   UNL A   1      46.993  26.914  36.176  1.00  0.00     0.022 A 
BRANCH  90  93
ATOM     93  S   UNL A   1      45.798  24.722  37.297  1.00  0.00     0.127 S 
ATOM     94  O   UNL A   1      45.614  23.586  36.396  1.00  0.00    -0.237 OA
ATOM     95  O   UNL A   1      47.117  24.798  37.925  1.00  0.00    -0.237 OA
ATOM     96  O   UNL A   1      44.680  24.985  38.193  1.00  0.00    -0.744 OA
ENDBRANCH  90  93
ENDBRANCH  63  86
ENDBRANCH  37  38
ENDBRANCH  29  32
ENDBRANCH  27  28
ENDBRANCH   1  27
TORSDOF 17
ENDMDL
MODEL 2
REMARK VINA RESULT:     -12.2      5.696     10.400
REMARK SMILES CC(C)CCc1cc2c(cc1Cl)C=C(C(=O)NCCCNC(=O)c1ccc(-c3c4nc(c(-c5cccc(S(=O)(=O)[O-])c5F)c5ccc([nH]5)c(-c5cccc(S(=O)(=O)[O-])c5F)c5nc(c(-c6cccc(S(=O)(=O)[O-])c6F)c6ccc3[nH]6)C=C5)C=C4)cc1)[C@@H](C(F)(F)F)O2
REMARK SMILES IDX 19 1 18 2 17 3 15 4 16 5 14 7 6 8 7 9 11 10 8 11 10 12 12 13
REMARK SMILES IDX 9 14 92 15 13 16 87 17 5 18 4 19 2 20 1 21 3 22 88 23 89 24
REMARK SMILES IDX 90 25 91 26 20 27 21 28 22 29 23 31 24 32 25 33 86 34 26 35
REMARK SMILES IDX 85 36 27 37 28 38 29 39 79 40 30 41 84 42 78 43 80 44 31 45
REMARK SMILES IDX 83 46 77 47 76 48 32 50 64 51 44 52 63 53 45 54 48 55 62 56
REMARK SMILES IDX 81 57 46 58 47 59 61 61 82 62 49 63 33 64 34 65 42 66 35 67
REMARK SMILES IDX 37 68 43 69 36 70 38 71 39 72 40 73 41 74 65 75 66 76 74 77
REMARK SMILES IDX 67 78 69 79 75 80 68 81 70 82 71 83 72 84 73 85 50 86 51 87
REMARK SMILES IDX 59 88 52 89 54 90 60 91 53 92 55 93 56 94 57 95 58 96
REMARK H PARENT 17 6 21 30 80 49 48 60
REMARK Flexibility Score: inf
ROOT
ATOM      1  C   UNL A   1      37.824  19.851  24.815  1.00  0.00     0.042 C 
ENDROOT
BRANCH   1   2
ATOM      2  C   UNL A   1      36.494  20.498  25.167  1.00  0.00     0.118 C 
BRANCH   2   3
ATOM      3  N   UNL A   1      35.374  19.582  25.006  1.00  0.00    -0.352 N 
ATOM      4  C   UNL A   1      34.039  19.674  24.799  1.00  0.00     0.251 C 
ATOM      5  O   UNL A   1      33.445  18.597  24.689  1.00  0.00    -0.270 OA
ATOM      6  H   UNL A   1      35.666  18.644  25.063  1.00  0.00     0.163 HD
BRANCH   4   7
ATOM      7  C   UNL A   1      33.276  20.949  24.701  1.00  0.00     0.067 C 
ATOM      8  C   UNL A   1      31.157  25.279  23.205  1.00  0.00    -0.026 A 
ATOM      9  C   UNL A   1      30.873  24.323  24.189  1.00  0.00     0.052 A 
ATOM     10  C   UNL A   1      32.167  24.971  22.271  1.00  0.00     0.045 A 
ATOM     11  C   UNL A   1      31.639  23.167  24.305  1.00  0.00     0.128 A 
ATOM     12  C   UNL A   1      32.902  23.778  22.360  1.00  0.00     0.032 A 
ATOM     13  Cl  UNL A   1      32.549  26.035  20.962  1.00  0.00    -0.084 Cl
ATOM     14  C   UNL A   1      32.650  22.877  23.395  1.00  0.00     0.019 A 
ATOM     15  O   UNL A   1      31.330  22.339  25.347  1.00  0.00    -0.475 OA
ATOM     16  C   UNL A   1      33.383  21.623  23.538  1.00  0.00     0.025 C 
ATOM     17  C   UNL A   1      32.430  21.511  25.809  1.00  0.00     0.314 C 
BRANCH   8  18
ATOM     18  C   UNL A   1      30.376  26.578  23.129  1.00  0.00     0.037 C 
BRANCH  18  19
ATOM     19  C   UNL A   1      30.313  27.452  24.398  1.00  0.00     0.008 C 
BRANCH  19  20
ATOM     20  C   UNL A   1      31.677  27.817  25.026  1.00  0.00    -0.017 C 
ATOM     21  C   UNL A   1      31.983  29.310  24.919  1.00  0.00     0.007 C 
ATOM     22  C   UNL A   1      31.706  27.377  26.491  1.00  0.00     0.007 C 
ENDBRANCH  19  20
ENDBRANCH  18  19
ENDBRANCH   8  18
BRANCH  17  23
ATOM     23  C   UNL A   1      33.270  22.276  26.854  1.00  0.00     0.429 C 
ATOM     24  F   UNL A   1      34.282  22.950  26.253  1.00  0.00    -0.167 F 
ATOM     25  F   UNL A   1      32.541  23.198  27.529  1.00  0.00    -0.167 F 
ATOM     26  F   UNL A   1      33.822  21.465  27.785  1.00  0.00    -0.167 F 
ENDBRANCH  17  23
ENDBRANCH   4   7
ENDBRANCH   2   3
ENDBRANCH   1   2
BRANCH   1  27
ATOM     27  C   UNL A   1      38.969  20.379  25.669  1.00  0.00     0.118 C 
BRANCH  27  28
ATOM     28  N   UNL A   1      40.023  19.382  25.851  1.00  0.00    -0.352 N 
ATOM     29  C   UNL A   1      41.373  19.539  26.055  1.00  0.00     0.251 C 
ATOM     30  H   UNL A   1      39.716  18.448  25.825  1.00  0.00     0.163 HD
ATOM     31  O   UNL A   1      42.116  18.567  25.944  1.00  0.00    -0.269 OA
BRANCH  29  32
ATOM     32  C   UNL A   1      41.924  20.868  26.387  1.00  0.00     0.039 A 
ATOM     33  C   UNL A   1      42.276  21.170  27.702  1.00  0.00     0.014 A 
ATOM     34  C   UNL A   1      42.093  21.824  25.381  1.00  0.00     0.014 A 
ATOM     35  C   UNL A   1      42.593  22.474  28.046  1.00  0.00     0.010 A 
ATOM     36  C   UNL A   1      42.530  23.110  25.713  1.00  0.00     0.010 A 
ATOM     37  C   UNL A   1      42.732  23.462  27.056  1.00  0.00    -0.014 A 
BRANCH  37  38
ATOM     38  C   UNL A   1      43.111  24.838  27.471  1.00  0.00     0.031 A 
ATOM     39  C   UNL A   1      44.486  25.383  27.195  1.00  0.00     0.074 A 
ATOM     40  C   UNL A   1      42.171  25.624  28.036  1.00  0.00     0.049 A 
ATOM     41  N   UNL A   1      44.948  26.585  27.426  1.00  0.00    -0.248 NA
ATOM     42  C   UNL A   1      45.475  24.473  26.593  1.00  0.00     0.031 C 
ATOM     43  C   UNL A   1      40.811  25.196  28.373  1.00  0.00     0.029 A 
ATOM     44  N   UNL A   1      42.200  26.947  28.394  1.00  0.00    -0.354 N 
ATOM     45  C   UNL A   1      46.284  26.562  27.048  1.00  0.00     0.074 A 
ATOM     46  C   UNL A   1      46.566  25.228  26.567  1.00  0.00     0.031 C 
ATOM     47  C   UNL A   1      40.114  26.250  28.815  1.00  0.00     0.029 A 
ATOM     48  C   UNL A   1      40.992  27.413  28.859  1.00  0.00     0.049 A 
ATOM     49  H   UNL A   1      43.005  27.508  28.325  1.00  0.00     0.167 HD
ATOM     50  C   UNL A   1      47.187  27.569  27.080  1.00  0.00     0.034 A 
ATOM     51  C   UNL A   1      40.626  28.640  29.277  1.00  0.00     0.034 A 
ATOM     52  C   UNL A   1      46.887  28.912  27.492  1.00  0.00     0.049 A 
ATOM     53  C   UNL A   1      41.640  29.744  29.270  1.00  0.00     0.074 A 
ATOM     54  C   UNL A   1      47.726  30.012  27.502  1.00  0.00     0.029 A 
ATOM     55  N   UNL A   1      45.655  29.341  27.958  1.00  0.00    -0.354 N 
ATOM     56  N   UNL A   1      42.877  29.716  28.837  1.00  0.00    -0.248 NA
ATOM     57  C   UNL A   1      41.214  31.045  29.802  1.00  0.00     0.031 C 
ATOM     58  C   UNL A   1      47.003  31.107  27.980  1.00  0.00     0.029 A 
ATOM     59  C   UNL A   1      45.712  30.689  28.262  1.00  0.00     0.049 A 
ATOM     60  H   UNL A   1      44.859  28.771  28.059  1.00  0.00     0.167 HD
ATOM     61  C   UNL A   1      43.376  30.995  29.038  1.00  0.00     0.074 A 
ATOM     62  C   UNL A   1      42.302  31.782  29.610  1.00  0.00     0.031 C 
ATOM     63  C   UNL A   1      44.620  31.466  28.788  1.00  0.00     0.034 A 
BRANCH  50  64
ATOM     64  C   UNL A   1      48.588  27.285  26.611  1.00  0.00     0.023 A 
ATOM     65  C   UNL A   1      49.486  26.629  27.477  1.00  0.00     0.012 A 
ATOM     66  C   UNL A   1      48.975  27.560  25.286  1.00  0.00     0.148 A 
ATOM     67  C   UNL A   1      50.752  26.256  27.031  1.00  0.00     0.002 A 
ATOM     68  C   UNL A   1      50.229  27.159  24.840  1.00  0.00     0.091 A 
ATOM     69  F   UNL A   1      48.106  28.196  24.487  1.00  0.00    -0.205 F 
ATOM     70  C   UNL A   1      51.120  26.511  25.712  1.00  0.00     0.022 A 
BRANCH  68  71
ATOM     71  S   UNL A   1      50.780  27.388  23.145  1.00  0.00     0.127 S 
ATOM     72  O   UNL A   1      52.068  26.694  23.159  1.00  0.00    -0.237 OA
ATOM     73  O   UNL A   1      49.730  26.710  22.387  1.00  0.00    -0.237 OA
ATOM     74  O   UNL A   1      50.857  28.828  22.935  1.00  0.00    -0.744 OA
ENDBRANCH  68  71
ENDBRANCH  50  64
BRANCH  51  75
ATOM     75  C   UNL A   1      39.215  28.876  29.684  1.00  0.00     0.023 A 
ATOM     76  C   UNL A   1      38.834  28.633  31.017  1.00  0.00     0.012 A 
ATOM     77  C   UNL A   1      38.283  29.435  28.788  1.00  0.00     0.148 A 
ATOM     78  C   UNL A   1      37.545  28.944  31.451  1.00  0.00     0.002 A 
ATOM     79  C   UNL A   1      37.018  29.786  29.240  1.00  0.00     0.091 A 
ATOM     80  F   UNL A   1      38.674  29.651  27.525  1.00  0.00    -0.205 F 
ATOM     81  C   UNL A   1      36.643  29.532  30.568  1.00  0.00     0.022 A 
BRANCH  79  82
ATOM     82  S   UNL A   1      35.834  30.663  28.212  1.00  0.00     0.127 S 
ATOM     83  O   UNL A   1      34.859  31.115  29.200  1.00  0.00    -0.237 OA
ATOM     84  O   UNL A   1      36.666  31.720  27.636  1.00  0.00    -0.237 OA
ATOM     85  O   UNL A   1      35.346  29.685  27.248  1.00  0.00    -0.744 OA
ENDBRANCH  79  82
ENDBRANCH  51  75
BRANCH  63  86
ATOM     86  C   UNL A   1      44.911  32.901  29.122  1.00  0.00     0.023 A 
ATOM     87  C   UNL A   1      45.496  33.210  30.364  1.00  0.00     0.012 A 
ATOM     88  C   UNL A   1      44.735  33.913  28.159  1.00  0.00     0.148 A 
ATOM     89  C   UNL A   1      45.904  34.513  30.645  1.00  0.00     0.002 A 
ATOM     90  C   UNL A   1      45.172  35.201  28.433  1.00  0.00     0.091 A 
ATOM     91  F   UNL A   1      44.167  33.587  26.989  1.00  0.00    -0.205 F 
ATOM     92  C   UNL A   1      45.754  35.504  29.677  1.00  0.00     0.022 A 
BRANCH  90  93
ATOM     93  S   UNL A   1      45.095  36.528  27.226  1.00  0.00     0.127 S 
ATOM     94  O   UNL A   1      45.661  37.648  27.978  1.00  0.00    -0.237 OA
ATOM     95  O   UNL A   1      45.948  36.019  26.153  1.00  0.00    -0.237 OA
ATOM     96  O   UNL A   1      43.690  36.672  26.872  1.00  0.00    -0.744 OA
ENDBRANCH  90  93
ENDBRANCH  63  86
ENDBRANCH  37  38
ENDBRANCH  29  32
ENDBRANCH  27  28
ENDBRANCH   1  27
TORSDOF 17
ENDMDL
MODEL 3
REMARK VINA RESULT:     -12.1      5.378     10.288
REMARK SMILES CC(C)CCc1cc2c(cc1Cl)C=C(C(=O)NCCCNC(=O)c1ccc(-c3c4nc(c(-c5cccc(S(=O)(=O)[O-])c5F)c5ccc([nH]5)c(-c5cccc(S(=O)(=O)[O-])c5F)c5nc(c(-c6cccc(S(=O)(=O)[O-])c6F)c6ccc3[nH]6)C=C5)C=C4)cc1)[C@@H](C(F)(F)F)O2
REMARK SMILES IDX 19 1 18 2 17 3 15 4 16 5 14 7 6 8 7 9 11 10 8 11 10 12 12 13
REMARK SMILES IDX 9 14 92 15 13 16 87 17 5 18 4 19 2 20 1 21 3 22 88 23 89 24
REMARK SMILES IDX 90 25 91 26 20 27 21 28 22 29 23 31 24 32 25 33 86 34 26 35
REMARK SMILES IDX 85 36 27 37 28 38 29 39 79 40 30 41 84 42 78 43 80 44 31 45
REMARK SMILES IDX 83 46 77 47 76 48 32 50 64 51 44 52 63 53 45 54 48 55 62 56
REMARK SMILES IDX 81 57 46 58 47 59 61 61 82 62 49 63 33 64 34 65 42 66 35 67
REMARK SMILES IDX 37 68 43 69 36 70 38 71 39 72 40 73 41 74 65 75 66 76 74 77
REMARK SMILES IDX 67 78 69 79 75 80 68 81 70 82 71 83 72 84 73 85 50 86 51 87
REMARK SMILES IDX 59 88 52 89 54 90 60 91 53 92 55 93 56 94 57 95 58 96
REMARK H PARENT 17 6 21 30 80 49 48 60
REMARK Flexibility Score: inf
ROOT
ATOM      1  C   UNL A   1      36.710  20.928  24.594  1.00  0.00     0.042 C 
ENDROOT
BRANCH   1   2
ATOM      2  C   UNL A   1      35.496  21.840  24.686  1.00  0.00     0.118 C 
BRANCH   2   3
ATOM      3  N   UNL A   1      35.041  22.017  26.057  1.00  0.00    -0.352 N 
ATOM      4  C   UNL A   1      34.132  22.779  26.710  1.00  0.00     0.251 C 
ATOM      5  O   UNL A   1      34.048  22.578  27.926  1.00  0.00    -0.270 OA
ATOM      6  H   UNL A   1      35.525  21.423  26.676  1.00  0.00     0.163 HD
BRANCH   4   7
ATOM      7  C   UNL A   1      33.261  23.805  26.071  1.00  0.00     0.067 C 
ATOM      8  C   UNL A   1      31.213  28.064  24.298  1.00  0.00    -0.026 A 
ATOM      9  C   UNL A   1      31.102  26.702  23.984  1.00  0.00     0.052 A 
ATOM     10  C   UNL A   1      32.217  28.439  25.212  1.00  0.00     0.045 A 
ATOM     11  C   UNL A   1      31.879  25.752  24.637  1.00  0.00     0.128 A 
ATOM     12  C   UNL A   1      33.035  27.480  25.831  1.00  0.00     0.032 A 
ATOM     13  Cl  UNL A   1      32.504  30.097  25.615  1.00  0.00    -0.084 Cl
ATOM     14  C   UNL A   1      32.853  26.125  25.557  1.00  0.00     0.019 A 
ATOM     15  O   UNL A   1      31.636  24.446  24.315  1.00  0.00    -0.475 OA
ATOM     16  C   UNL A   1      33.673  25.085  26.171  1.00  0.00     0.025 C 
ATOM     17  C   UNL A   1      31.978  23.492  25.355  1.00  0.00     0.314 C 
BRANCH   8  18
ATOM     18  C   UNL A   1      30.308  29.092  23.645  1.00  0.00     0.037 C 
BRANCH  18  19
ATOM     19  C   UNL A   1      28.983  28.597  23.032  1.00  0.00     0.008 C 
BRANCH  19  20
ATOM     20  C   UNL A   1      28.058  29.698  22.465  1.00  0.00    -0.017 C 
ATOM     21  C   UNL A   1      27.616  30.693  23.537  1.00  0.00     0.007 C 
ATOM     22  C   UNL A   1      28.765  30.432  21.324  1.00  0.00     0.007 C 
ENDBRANCH  19  20
ENDBRANCH  18  19
ENDBRANCH   8  18
BRANCH  17  23
ATOM     23  C   UNL A   1      30.792  23.321  26.329  1.00  0.00     0.429 C 
ATOM     24  F   UNL A   1      31.238  23.027  27.576  1.00  0.00    -0.167 F 
ATOM     25  F   UNL A   1      30.048  24.447  26.442  1.00  0.00    -0.167 F 
ATOM     26  F   UNL A   1      29.944  22.334  25.961  1.00  0.00    -0.167 F 
ENDBRANCH  17  23
ENDBRANCH   4   7
ENDBRANCH   2   3
ENDBRANCH   1   2
BRANCH   1  27
ATOM     27  C   UNL A   1      37.958  21.564  25.192  1.00  0.00     0.118 C 
BRANCH  27  28
ATOM     28  N   UNL A   1      38.877  20.565  25.734  1.00  0.00    -0.352 N 
ATOM     29  C   UNL A   1      40.066  20.719  26.406  1.00  0.00     0.251 C 
ATOM     30  H   UNL A   1      38.599  19.632  25.597  1.00  0.00     0.163 HD
ATOM     31  O   UNL A   1      40.800  19.745  26.563  1.00  0.00    -0.269 OA
BRANCH  29  32
ATOM     32  C   UNL A   1      40.464  22.046  26.916  1.00  0.00     0.039 A 
ATOM     33  C   UNL A   1      39.977  23.202  26.309  1.00  0.00     0.014 A 
ATOM     34  C   UNL A   1      41.329  22.142  28.010  1.00  0.00     0.014 A 
ATOM     35  C   UNL A   1      40.510  24.435  26.652  1.00  0.00     0.010 A 
ATOM     36  C   UNL A   1      41.774  23.398  28.434  1.00  0.00     0.010 A 
ATOM     37  C   UNL A   1      41.411  24.552  27.724  1.00  0.00    -0.014 A 
BRANCH  37  38
ATOM     38  C   UNL A   1      41.925  25.900  28.077  1.00  0.00     0.031 A 
ATOM     39  C   UNL A   1      43.289  26.354  27.633  1.00  0.00     0.074 A 
ATOM     40  C   UNL A   1      41.114  26.746  28.745  1.00  0.00     0.049 A 
ATOM     41  N   UNL A   1      43.853  27.524  27.795  1.00  0.00    -0.248 NA
ATOM     42  C   UNL A   1      44.137  25.381  26.923  1.00  0.00     0.031 C 
ATOM     43  C   UNL A   1      39.780  26.409  29.248  1.00  0.00     0.029 A 
ATOM     44  N   UNL A   1      41.272  28.065  29.085  1.00  0.00    -0.354 N 
ATOM     45  C   UNL A   1      45.129  27.413  27.258  1.00  0.00     0.074 A 
ATOM     46  C   UNL A   1      45.263  26.063  26.759  1.00  0.00     0.031 C 
ATOM     47  C   UNL A   1      39.212  27.507  29.762  1.00  0.00     0.029 A 
ATOM     48  C   UNL A   1      40.162  28.610  29.689  1.00  0.00     0.049 A 
ATOM     49  H   UNL A   1      42.098  28.572  28.914  1.00  0.00     0.167 HD
ATOM     50  C   UNL A   1      46.093  28.359  27.172  1.00  0.00     0.034 A 
ATOM     51  C   UNL A   1      39.930  29.858  30.137  1.00  0.00     0.034 A 
ATOM     52  C   UNL A   1      45.932  29.718  27.605  1.00  0.00     0.049 A 
ATOM     53  C   UNL A   1      41.005  30.894  29.999  1.00  0.00     0.074 A 
ATOM     54  C   UNL A   1      46.836  30.761  27.504  1.00  0.00     0.029 A 
ATOM     55  N   UNL A   1      44.796  30.228  28.213  1.00  0.00    -0.354 N 
ATOM     56  N   UNL A   1      42.176  30.785  29.419  1.00  0.00    -0.248 NA
ATOM     57  C   UNL A   1      40.732  32.221  30.566  1.00  0.00     0.031 C 
ATOM     58  C   UNL A   1      46.249  31.902  28.057  1.00  0.00     0.029 A 
ATOM     59  C   UNL A   1      44.977  31.570  28.496  1.00  0.00     0.049 A 
ATOM     60  H   UNL A   1      43.983  29.712  28.415  1.00  0.00     0.167 HD
ATOM     61  C   UNL A   1      42.777  32.029  29.546  1.00  0.00     0.074 A 
ATOM     62  C   UNL A   1      41.834  32.884  30.237  1.00  0.00     0.031 C 
ATOM     63  C   UNL A   1      44.010  32.417  29.144  1.00  0.00     0.034 A 
BRANCH  50  64
ATOM     64  C   UNL A   1      47.405  27.983  26.540  1.00  0.00     0.023 A 
ATOM     65  C   UNL A   1      48.477  27.583  27.361  1.00  0.00     0.012 A 
ATOM     66  C   UNL A   1      47.537  27.915  25.139  1.00  0.00     0.148 A 
ATOM     67  C   UNL A   1      49.667  27.125  26.797  1.00  0.00     0.002 A 
ATOM     68  C   UNL A   1      48.717  27.431  24.585  1.00  0.00     0.091 A 
ATOM     69  F   UNL A   1      46.506  28.313  24.381  1.00  0.00    -0.205 F 
ATOM     70  C   UNL A   1      49.783  27.039  25.412  1.00  0.00     0.022 A 
BRANCH  68  71
ATOM     71  S   UNL A   1      48.949  27.225  22.815  1.00  0.00     0.127 S 
ATOM     72  O   UNL A   1      50.405  27.313  22.698  1.00  0.00    -0.237 OA
ATOM     73  O   UNL A   1      48.399  25.889  22.587  1.00  0.00    -0.237 OA
ATOM     74  O   UNL A   1      48.211  28.309  22.181  1.00  0.00    -0.744 OA
ENDBRANCH  68  71
ENDBRANCH  50  64
BRANCH  51  75
ATOM     75  C   UNL A   1      38.597  30.187  30.710  1.00  0.00     0.023 A 
ATOM     76  C   UNL A   1      38.342  29.903  32.065  1.00  0.00     0.012 A 
ATOM     77  C   UNL A   1      37.627  30.869  29.951  1.00  0.00     0.148 A 
ATOM     78  C   UNL A   1      37.140  30.294  32.654  1.00  0.00     0.002 A 
ATOM     79  C   UNL A   1      36.453  31.297  30.557  1.00  0.00     0.091 A 
ATOM     80  F   UNL A   1      37.896  31.121  28.663  1.00  0.00    -0.205 F 
ATOM     81  C   UNL A   1      36.202  31.002  31.906  1.00  0.00     0.022 A 
BRANCH  79  82
ATOM     82  S   UNL A   1      35.247  32.323  29.709  1.00  0.00     0.127 S 
ATOM     83  O   UNL A   1      34.751  31.411  28.681  1.00  0.00    -0.237 OA
ATOM     84  O   UNL A   1      34.298  32.617  30.783  1.00  0.00    -0.237 OA
ATOM     85  O   UNL A   1      35.984  33.480  29.220  1.00  0.00    -0.744 OA
ENDBRANCH  79  82
ENDBRANCH  51  75
BRANCH  63  86
ATOM     86  C   UNL A   1      44.431  33.830  29.427  1.00  0.00     0.023 A 
ATOM     87  C   UNL A   1      45.036  34.130  30.663  1.00  0.00     0.012 A 
ATOM     88  C   UNL A   1      44.356  34.817  28.427  1.00  0.00     0.148 A 
ATOM     89  C   UNL A   1      45.562  35.398  30.899  1.00  0.00     0.002 A 
ATOM     90  C   UNL A   1      44.910  36.069  28.657  1.00  0.00     0.091 A 
ATOM     91  F   UNL A   1      43.767  34.501  27.264  1.00  0.00    -0.205 F 
ATOM     92  C   UNL A   1      45.510  36.362  29.894  1.00  0.00     0.022 A 
BRANCH  90  93
ATOM     93  S   UNL A   1      44.964  37.351  27.402  1.00  0.00     0.127 S 
ATOM     94  O   UNL A   1      45.519  38.478  28.150  1.00  0.00    -0.237 OA
ATOM     95  O   UNL A   1      45.868  36.772  26.409  1.00  0.00    -0.237 OA
ATOM     96  O   UNL A   1      43.592  37.530  26.946  1.00  0.00    -0.744 OA
ENDBRANCH  90  93
ENDBRANCH  63  86
ENDBRANCH  37  38
ENDBRANCH  29  32
ENDBRANCH  27  28
ENDBRANCH   1  27
TORSDOF 17
ENDMDL
