MODEL 1
REMARK VINA RESULT:     -11.7      0.000      0.000
REMARK SMILES CCC[NH2+][C@]1(C(=O)NCCCNC(=O)c2ccc(-c3c4nc(c(-c5cccc(S(=O)(=O)[O-])c5F)c5ccc([nH]5)c(-c5cccc(S(=O)(=O)[O-])c5F)c5nc(c(-c6cccc(S(=O)(=O)[O-])c6F)c6ccc3[nH]6)C=C5)C=C4)cc2)CC[C@H](n2nc(C)c(CC)c2C)C1
REMARK SMILES IDX 10 1 9 2 8 3 6 4 7 5 5 7 78 8 90 9 79 10 80 11 4 12 3 15
REMARK SMILES IDX 2 16 1 17 81 18 82 19 88 20 83 21 85 22 89 23 84 24 86 25
REMARK SMILES IDX 87 26 11 27 12 28 13 29 14 31 15 32 16 33 77 34 17 35 76 36
REMARK SMILES IDX 18 37 19 38 20 39 70 40 21 41 75 42 69 43 71 44 22 45 74 46
REMARK SMILES IDX 68 47 67 48 23 50 55 51 35 52 54 53 36 54 39 55 53 56 72 57
REMARK SMILES IDX 37 58 38 59 52 61 73 62 40 63 24 64 25 65 33 66 26 67 28 68
REMARK SMILES IDX 34 69 27 70 29 71 30 72 31 73 32 74 56 75 57 76 65 77 58 78
REMARK SMILES IDX 60 79 66 80 59 81 61 82 62 83 63 84 64 85 41 86 42 87 50 88
REMARK SMILES IDX 43 89 45 90 51 91 44 92 46 93 47 94 48 95 49 96
REMARK H PARENT 8 6 4 13 4 14 12 30 71 49 39 60
REMARK Flexibility Score: inf
ROOT
ATOM      1  C   UNL A   1      32.711  29.288  24.146  1.00  0.00     0.042 C 
ENDROOT
BRANCH   1   2
ATOM      2  C   UNL A   1      31.332  29.158  23.516  1.00  0.00     0.118 C 
BRANCH   2   3
ATOM      3  N   UNL A   1      31.333  28.203  22.431  1.00  0.00    -0.351 N 
ATOM      4  C   UNL A   1      31.397  26.853  22.397  1.00  0.00     0.281 C 
ATOM      5  O   UNL A   1      31.305  26.356  21.263  1.00  0.00    -0.268 OA
ATOM      6  H   UNL A   1      31.277  28.618  21.540  1.00  0.00     0.163 HD
BRANCH   4   7
ATOM      7  C   UNL A   1      31.400  25.933  23.656  1.00  0.00     0.177 C 
ATOM      8  C   UNL A   1      30.448  26.119  24.845  1.00  0.00     0.081 C 
ATOM      9  C   UNL A   1      30.913  24.553  23.149  1.00  0.00     0.106 C 
ATOM     10  C   UNL A   1      30.345  24.724  25.488  1.00  0.00     0.034 C 
ATOM     11  C   UNL A   1      30.703  23.693  24.386  1.00  0.00     0.114 C 
BRANCH   7  12
ATOM     12  N   UNL A   1      32.799  25.851  24.185  1.00  0.00    -0.334 N 
ATOM     13  H   UNL A   1      33.074  26.780  24.507  1.00  0.00     0.347 HD
ATOM     14  H   UNL A   1      32.788  25.160  24.934  1.00  0.00     0.347 HD
BRANCH  12  15
ATOM     15  C   UNL A   1      33.791  25.392  23.196  1.00  0.00     0.261 C 
BRANCH  15  16
ATOM     16  C   UNL A   1      34.754  24.356  23.790  1.00  0.00     0.058 C 
ATOM     17  C   UNL A   1      35.098  24.588  25.253  1.00  0.00     0.010 C 
ENDBRANCH  15  16
ENDBRANCH  12  15
ENDBRANCH   7  12
BRANCH  11  18
ATOM     18  N   UNL A   1      31.716  22.736  24.811  1.00  0.00    -0.266 N 
ATOM     19  N   UNL A   1      32.045  22.832  26.126  1.00  0.00    -0.178 NA
ATOM     20  C   UNL A   1      32.364  21.677  24.204  1.00  0.00     0.039 A 
ATOM     21  C   UNL A   1      33.016  21.942  26.315  1.00  0.00     0.063 A 
ATOM     22  C   UNL A   1      33.280  21.207  25.140  1.00  0.00    -0.004 A 
ATOM     23  C   UNL A   1      32.173  21.108  22.845  1.00  0.00     0.066 C 
ATOM     24  C   UNL A   1      33.649  21.825  27.649  1.00  0.00     0.069 C 
BRANCH  22  25
ATOM     25  C   UNL A   1      34.300  20.134  24.940  1.00  0.00     0.036 C 
ATOM     26  C   UNL A   1      35.721  20.676  24.999  1.00  0.00     0.009 C 
ENDBRANCH  22  25
ENDBRANCH  11  18
ENDBRANCH   4   7
ENDBRANCH   2   3
ENDBRANCH   1   2
BRANCH   1  27
ATOM     27  C   UNL A   1      32.662  29.497  25.657  1.00  0.00     0.118 C 
BRANCH  27  28
ATOM     28  N   UNL A   1      32.428  30.892  26.012  1.00  0.00    -0.352 N 
ATOM     29  C   UNL A   1      32.996  31.656  26.999  1.00  0.00     0.251 C 
ATOM     30  H   UNL A   1      31.758  31.355  25.460  1.00  0.00     0.163 HD
ATOM     31  O   UNL A   1      32.486  32.730  27.301  1.00  0.00    -0.269 OA
BRANCH  29  32
ATOM     32  C   UNL A   1      34.216  31.188  27.688  1.00  0.00     0.039 A 
ATOM     33  C   UNL A   1      35.223  32.110  27.986  1.00  0.00     0.014 A 
ATOM     34  C   UNL A   1      34.382  29.838  28.004  1.00  0.00     0.014 A 
ATOM     35  C   UNL A   1      36.376  31.681  28.648  1.00  0.00     0.010 A 
ATOM     36  C   UNL A   1      35.490  29.429  28.735  1.00  0.00     0.010 A 
ATOM     37  C   UNL A   1      36.506  30.343  29.050  1.00  0.00    -0.014 A 
BRANCH  37  38
ATOM     38  C   UNL A   1      37.699  29.868  29.794  1.00  0.00     0.031 A 
ATOM     39  C   UNL A   1      37.980  30.389  31.177  1.00  0.00     0.074 A 
ATOM     40  C   UNL A   1      38.576  29.045  29.187  1.00  0.00     0.049 A 
ATOM     41  N   UNL A   1      39.009  30.162  31.950  1.00  0.00    -0.248 NA
ATOM     42  C   UNL A   1      36.988  31.311  31.757  1.00  0.00     0.031 C 
ATOM     43  C   UNL A   1      38.452  28.533  27.821  1.00  0.00     0.029 A 
ATOM     44  N   UNL A   1      39.764  28.520  29.630  1.00  0.00    -0.354 N 
ATOM     45  C   UNL A   1      38.811  30.942  33.085  1.00  0.00     0.074 A 
ATOM     46  C   UNL A   1      37.580  31.673  32.885  1.00  0.00     0.031 C 
ATOM     47  C   UNL A   1      39.518  27.769  27.538  1.00  0.00     0.029 A 
ATOM     48  C   UNL A   1      40.417  27.761  28.687  1.00  0.00     0.049 A 
ATOM     49  H   UNL A   1      40.116  28.672  30.537  1.00  0.00     0.167 HD
ATOM     50  C   UNL A   1      39.570  31.020  34.204  1.00  0.00     0.034 A 
ATOM     51  C   UNL A   1      41.611  27.140  28.739  1.00  0.00     0.034 A 
ATOM     52  C   UNL A   1      40.769  30.254  34.414  1.00  0.00     0.049 A 
ATOM     53  C   UNL A   1      42.414  27.208  30.009  1.00  0.00     0.074 A 
ATOM     54  C   UNL A   1      41.561  30.190  35.546  1.00  0.00     0.029 A 
ATOM     55  N   UNL A   1      41.351  29.421  33.470  1.00  0.00    -0.354 N 
ATOM     56  N   UNL A   1      42.133  27.827  31.131  1.00  0.00    -0.248 NA
ATOM     57  C   UNL A   1      43.680  26.463  30.036  1.00  0.00     0.031 C 
ATOM     58  C   UNL A   1      42.637  29.337  35.279  1.00  0.00     0.029 A 
ATOM     59  C   UNL A   1      42.498  28.847  33.990  1.00  0.00     0.049 A 
ATOM     60  H   UNL A   1      41.001  29.263  32.564  1.00  0.00     0.167 HD
ATOM     61  C   UNL A   1      43.165  27.516  32.008  1.00  0.00     0.074 A 
ATOM     62  C   UNL A   1      44.068  26.637  31.292  1.00  0.00     0.031 C 
ATOM     63  C   UNL A   1      43.356  27.930  33.284  1.00  0.00     0.034 A 
BRANCH  50  64
ATOM     64  C   UNL A   1      39.097  31.929  35.309  1.00  0.00     0.023 A 
ATOM     65  C   UNL A   1      39.268  33.324  35.184  1.00  0.00     0.012 A 
ATOM     66  C   UNL A   1      38.439  31.413  36.441  1.00  0.00     0.148 A 
ATOM     67  C   UNL A   1      38.825  34.187  36.185  1.00  0.00     0.002 A 
ATOM     68  C   UNL A   1      37.957  32.283  37.412  1.00  0.00     0.091 A 
ATOM     69  F   UNL A   1      38.304  30.084  36.554  1.00  0.00    -0.205 F 
ATOM     70  C   UNL A   1      38.161  33.669  37.293  1.00  0.00     0.022 A 
BRANCH  68  71
ATOM     71  S   UNL A   1      37.018  31.722  38.838  1.00  0.00     0.127 S 
ATOM     72  O   UNL A   1      36.782  30.319  38.501  1.00  0.00    -0.237 OA
ATOM     73  O   UNL A   1      37.964  31.935  39.934  1.00  0.00    -0.237 OA
ATOM     74  O   UNL A   1      35.829  32.561  38.890  1.00  0.00    -0.744 OA
ENDBRANCH  68  71
ENDBRANCH  50  64
BRANCH  51  75
ATOM     75  C   UNL A   1      42.086  26.343  27.572  1.00  0.00     0.023 A 
ATOM     76  C   UNL A   1      42.882  26.964  26.589  1.00  0.00     0.012 A 
ATOM     77  C   UNL A   1      41.781  24.974  27.446  1.00  0.00     0.148 A 
ATOM     78  C   UNL A   1      43.337  26.244  25.484  1.00  0.00     0.002 A 
ATOM     79  C   UNL A   1      42.285  24.250  26.372  1.00  0.00     0.091 A 
ATOM     80  F   UNL A   1      41.017  24.404  28.387  1.00  0.00    -0.205 F 
ATOM     81  C   UNL A   1      43.048  24.887  25.381  1.00  0.00     0.022 A 
BRANCH  79  82
ATOM     82  S   UNL A   1      42.076  22.472  26.226  1.00  0.00     0.127 S 
ATOM     83  O   UNL A   1      40.625  22.350  26.120  1.00  0.00    -0.237 OA
ATOM     84  O   UNL A   1      42.812  22.182  24.995  1.00  0.00    -0.237 OA
ATOM     85  O   UNL A   1      42.673  21.907  27.429  1.00  0.00    -0.744 OA
ENDBRANCH  79  82
ENDBRANCH  51  75
BRANCH  63  86
ATOM     86  C   UNL A   1      44.565  27.408  34.015  1.00  0.00     0.023 A 
ATOM     87  C   UNL A   1      45.778  28.123  33.969  1.00  0.00     0.012 A 
ATOM     88  C   UNL A   1      44.474  26.248  34.810  1.00  0.00     0.148 A 
ATOM     89  C   UNL A   1      46.891  27.674  34.678  1.00  0.00     0.002 A 
ATOM     90  C   UNL A   1      45.572  25.836  35.555  1.00  0.00     0.091 A 
ATOM     91  F   UNL A   1      43.316  25.572  34.826  1.00  0.00    -0.205 F 
ATOM     92  C   UNL A   1      46.785  26.540  35.479  1.00  0.00     0.022 A 
BRANCH  90  93
ATOM     93  S   UNL A   1      45.498  24.446  36.691  1.00  0.00     0.127 S 
ATOM     94  O   UNL A   1      46.834  24.476  37.285  1.00  0.00    -0.237 OA
ATOM     95  O   UNL A   1      44.419  24.842  37.596  1.00  0.00    -0.237 OA
ATOM     96  O   UNL A   1      45.203  23.276  35.875  1.00  0.00    -0.744 OA
ENDBRANCH  90  93
ENDBRANCH  63  86
ENDBRANCH  37  38
ENDBRANCH  29  32
ENDBRANCH  27  28
ENDBRANCH   1  27
TORSDOF 18
ENDMDL
MODEL 2
REMARK VINA RESULT:     -11.7      2.090      2.728
REMARK SMILES CCC[NH2+][C@]1(C(=O)NCCCNC(=O)c2ccc(-c3c4nc(c(-c5cccc(S(=O)(=O)[O-])c5F)c5ccc([nH]5)c(-c5cccc(S(=O)(=O)[O-])c5F)c5nc(c(-c6cccc(S(=O)(=O)[O-])c6F)c6ccc3[nH]6)C=C5)C=C4)cc2)CC[C@H](n2nc(C)c(CC)c2C)C1
REMARK SMILES IDX 10 1 9 2 8 3 6 4 7 5 5 7 78 8 90 9 79 10 80 11 4 12 3 15
REMARK SMILES IDX 2 16 1 17 81 18 82 19 88 20 83 21 85 22 89 23 84 24 86 25
REMARK SMILES IDX 87 26 11 27 12 28 13 29 14 31 15 32 16 33 77 34 17 35 76 36
REMARK SMILES IDX 18 37 19 38 20 39 70 40 21 41 75 42 69 43 71 44 22 45 74 46
REMARK SMILES IDX 68 47 67 48 23 50 55 51 35 52 54 53 36 54 39 55 53 56 72 57
REMARK SMILES IDX 37 58 38 59 52 61 73 62 40 63 24 64 25 65 33 66 26 67 28 68
REMARK SMILES IDX 34 69 27 70 29 71 30 72 31 73 32 74 56 75 57 76 65 77 58 78
REMARK SMILES IDX 60 79 66 80 59 81 61 82 62 83 63 84 64 85 41 86 42 87 50 88
REMARK SMILES IDX 43 89 45 90 51 91 44 92 46 93 47 94 48 95 49 96
REMARK H PARENT 8 6 4 13 4 14 12 30 71 49 39 60
REMARK Flexibility Score: inf
ROOT
ATOM      1  C   UNL A   1      34.336  28.670  24.781  1.00  0.00     0.042 C 
ENDROOT
BRANCH   1   2
ATOM      2  C   UNL A   1      33.173  28.774  23.805  1.00  0.00     0.118 C 
BRANCH   2   3
ATOM      3  N   UNL A   1      33.389  27.954  22.634  1.00  0.00    -0.351 N 
ATOM      4  C   UNL A   1      33.241  26.631  22.400  1.00  0.00     0.281 C 
ATOM      5  O   UNL A   1      33.462  26.282  21.230  1.00  0.00    -0.268 OA
ATOM      6  H   UNL A   1      33.709  28.459  21.851  1.00  0.00     0.163 HD
BRANCH   4   7
ATOM      7  C   UNL A   1      32.665  25.608  23.426  1.00  0.00     0.177 C 
ATOM      8  C   UNL A   1      31.375  25.842  24.224  1.00  0.00     0.081 C 
ATOM      9  C   UNL A   1      32.226  24.389  22.578  1.00  0.00     0.106 C 
ATOM     10  C   UNL A   1      30.867  24.430  24.570  1.00  0.00     0.034 C 
ATOM     11  C   UNL A   1      31.469  23.464  23.518  1.00  0.00     0.114 C 
BRANCH   7  12
ATOM     12  N   UNL A   1      33.749  25.234  24.389  1.00  0.00    -0.334 N 
ATOM     13  H   UNL A   1      34.090  26.087  24.834  1.00  0.00     0.347 HD
ATOM     14  H   UNL A   1      33.339  24.578  25.052  1.00  0.00     0.347 HD
BRANCH  12  15
ATOM     15  C   UNL A   1      34.897  24.548  23.767  1.00  0.00     0.261 C 
BRANCH  15  16
ATOM     16  C   UNL A   1      35.712  23.752  24.794  1.00  0.00     0.058 C 
ATOM     17  C   UNL A   1      36.347  22.484  24.243  1.00  0.00     0.010 C 
ENDBRANCH  15  16
ENDBRANCH  12  15
ENDBRANCH   7  12
BRANCH  11  18
ATOM     18  N   UNL A   1      32.126  22.309  24.118  1.00  0.00    -0.266 N 
ATOM     19  N   UNL A   1      32.453  22.480  25.426  1.00  0.00    -0.178 NA
ATOM     20  C   UNL A   1      32.415  21.028  23.689  1.00  0.00     0.039 A 
ATOM     21  C   UNL A   1      33.092  21.369  25.781  1.00  0.00     0.063 A 
ATOM     22  C   UNL A   1      33.126  20.432  24.727  1.00  0.00    -0.004 A 
ATOM     23  C   UNL A   1      32.070  20.362  22.406  1.00  0.00     0.066 C 
ATOM     24  C   UNL A   1      33.641  21.249  27.152  1.00  0.00     0.069 C 
BRANCH  22  25
ATOM     25  C   UNL A   1      33.759  19.079  24.722  1.00  0.00     0.036 C 
ATOM     26  C   UNL A   1      32.848  18.018  25.323  1.00  0.00     0.009 C 
ENDBRANCH  22  25
ENDBRANCH  11  18
ENDBRANCH   4   7
ENDBRANCH   2   3
ENDBRANCH   1   2
BRANCH   1  27
ATOM     27  C   UNL A   1      33.908  28.805  26.239  1.00  0.00     0.118 C 
BRANCH  27  28
ATOM     28  N   UNL A   1      33.746  30.198  26.639  1.00  0.00    -0.352 N 
ATOM     29  C   UNL A   1      34.436  30.933  27.569  1.00  0.00     0.251 C 
ATOM     30  H   UNL A   1      33.032  30.686  26.169  1.00  0.00     0.163 HD
ATOM     31  O   UNL A   1      33.987  32.012  27.941  1.00  0.00    -0.269 OA
BRANCH  29  32
ATOM     32  C   UNL A   1      35.713  30.427  28.114  1.00  0.00     0.039 A 
ATOM     33  C   UNL A   1      35.700  29.692  29.302  1.00  0.00     0.014 A 
ATOM     34  C   UNL A   1      36.922  30.709  27.474  1.00  0.00     0.014 A 
ATOM     35  C   UNL A   1      36.899  29.198  29.820  1.00  0.00     0.010 A 
ATOM     36  C   UNL A   1      38.102  30.147  27.945  1.00  0.00     0.010 A 
ATOM     37  C   UNL A   1      38.106  29.400  29.131  1.00  0.00    -0.014 A 
BRANCH  37  38
ATOM     38  C   UNL A   1      39.389  28.849  29.634  1.00  0.00     0.031 A 
ATOM     39  C   UNL A   1      40.121  29.547  30.748  1.00  0.00     0.074 A 
ATOM     40  C   UNL A   1      39.938  27.782  29.023  1.00  0.00     0.049 A 
ATOM     41  N   UNL A   1      41.290  29.272  31.265  1.00  0.00    -0.248 NA
ATOM     42  C   UNL A   1      39.467  30.726  31.341  1.00  0.00     0.031 C 
ATOM     43  C   UNL A   1      39.361  27.068  27.883  1.00  0.00     0.029 A 
ATOM     44  N   UNL A   1      41.124  27.131  29.255  1.00  0.00    -0.354 N 
ATOM     45  C   UNL A   1      41.530  30.264  32.209  1.00  0.00     0.074 A 
ATOM     46  C   UNL A   1      40.401  31.166  32.172  1.00  0.00     0.031 C 
ATOM     47  C   UNL A   1      40.191  26.079  27.515  1.00  0.00     0.029 A 
ATOM     48  C   UNL A   1      41.373  26.108  28.370  1.00  0.00     0.049 A 
ATOM     49  H   UNL A   1      41.738  27.373  29.985  1.00  0.00     0.167 HD
ATOM     50  C   UNL A   1      42.582  30.397  33.052  1.00  0.00     0.034 A 
ATOM     51  C   UNL A   1      42.439  25.294  28.254  1.00  0.00     0.034 A 
ATOM     52  C   UNL A   1      43.679  29.469  33.116  1.00  0.00     0.049 A 
ATOM     53  C   UNL A   1      43.575  25.435  29.230  1.00  0.00     0.074 A 
ATOM     54  C   UNL A   1      44.748  29.461  33.994  1.00  0.00     0.029 A 
ATOM     55  N   UNL A   1      43.851  28.388  32.265  1.00  0.00    -0.354 N 
ATOM     56  N   UNL A   1      43.712  26.285  30.219  1.00  0.00    -0.248 NA
ATOM     57  C   UNL A   1      44.687  24.483  29.100  1.00  0.00     0.031 C 
ATOM     58  C   UNL A   1      45.580  28.388  33.659  1.00  0.00     0.029 A 
ATOM     59  C   UNL A   1      45.013  27.710  32.591  1.00  0.00     0.049 A 
ATOM     60  H   UNL A   1      43.238  28.139  31.537  1.00  0.00     0.167 HD
ATOM     61  C   UNL A   1      44.902  25.947  30.852  1.00  0.00     0.074 A 
ATOM     62  C   UNL A   1      45.438  24.802  30.144  1.00  0.00     0.031 C 
ATOM     63  C   UNL A   1      45.505  26.538  31.912  1.00  0.00     0.034 A 
BRANCH  50  64
ATOM     64  C   UNL A   1      42.570  31.560  34.010  1.00  0.00     0.023 A 
ATOM     65  C   UNL A   1      43.118  32.798  33.610  1.00  0.00     0.012 A 
ATOM     66  C   UNL A   1      41.973  31.449  35.280  1.00  0.00     0.148 A 
ATOM     67  C   UNL A   1      43.104  33.893  34.471  1.00  0.00     0.002 A 
ATOM     68  C   UNL A   1      41.921  32.558  36.115  1.00  0.00     0.091 A 
ATOM     69  F   UNL A   1      41.477  30.260  35.652  1.00  0.00    -0.205 F 
ATOM     70  C   UNL A   1      42.497  33.777  35.718  1.00  0.00     0.022 A 
BRANCH  68  71
ATOM     71  S   UNL A   1      41.091  32.536  37.708  1.00  0.00     0.127 S 
ATOM     72  O   UNL A   1      41.951  31.636  38.475  1.00  0.00    -0.237 OA
ATOM     73  O   UNL A   1      41.163  33.940  38.114  1.00  0.00    -0.237 OA
ATOM     74  O   UNL A   1      39.744  32.045  37.452  1.00  0.00    -0.744 OA
ENDBRANCH  68  71
ENDBRANCH  50  64
BRANCH  51  75
ATOM     75  C   UNL A   1      42.451  24.227  27.213  1.00  0.00     0.023 A 
ATOM     76  C   UNL A   1      43.305  24.357  26.100  1.00  0.00     0.012 A 
ATOM     77  C   UNL A   1      41.646  23.077  27.332  1.00  0.00     0.148 A 
ATOM     78  C   UNL A   1      43.333  23.377  25.107  1.00  0.00     0.002 A 
ATOM     79  C   UNL A   1      41.721  22.079  26.367  1.00  0.00     0.091 A 
ATOM     80  F   UNL A   1      40.835  22.977  28.393  1.00  0.00    -0.205 F 
ATOM     81  C   UNL A   1      42.551  22.234  25.246  1.00  0.00     0.022 A 
BRANCH  79  82
ATOM     82  S   UNL A   1      40.851  20.515  26.530  1.00  0.00     0.127 S 
ATOM     83  O   UNL A   1      39.504  20.878  26.098  1.00  0.00    -0.237 OA
ATOM     84  O   UNL A   1      41.589  19.662  25.599  1.00  0.00    -0.237 OA
ATOM     85  O   UNL A   1      40.987  20.135  27.930  1.00  0.00    -0.744 OA
ENDBRANCH  79  82
ENDBRANCH  51  75
BRANCH  63  86
ATOM     86  C   UNL A   1      46.793  25.938  32.409  1.00  0.00     0.023 A 
ATOM     87  C   UNL A   1      48.024  26.388  31.894  1.00  0.00     0.012 A 
ATOM     88  C   UNL A   1      46.784  24.981  33.443  1.00  0.00     0.148 A 
ATOM     89  C   UNL A   1      49.225  25.872  32.378  1.00  0.00     0.002 A 
ATOM     90  C   UNL A   1      47.986  24.509  33.956  1.00  0.00     0.091 A 
ATOM     91  F   UNL A   1      45.601  24.551  33.908  1.00  0.00    -0.205 F 
ATOM     92  C   UNL A   1      49.207  24.944  33.416  1.00  0.00     0.022 A 
BRANCH  90  93
ATOM     93  S   UNL A   1      48.061  23.388  35.359  1.00  0.00     0.127 S 
ATOM     94  O   UNL A   1      47.433  22.186  34.812  1.00  0.00    -0.237 OA
ATOM     95  O   UNL A   1      49.501  23.275  35.589  1.00  0.00    -0.237 OA
ATOM     96  O   UNL A   1      47.327  24.043  36.434  1.00  0.00    -0.744 OA
ENDBRANCH  90  93
ENDBRANCH  63  86
ENDBRANCH  37  38
ENDBRANCH  29  32
ENDBRANCH  27  28
ENDBRANCH   1  27
TORSDOF 18
ENDMDL
MODEL 3
REMARK VINA RESULT:     -11.4      5.494      8.692
REMARK SMILES CCC[NH2+][C@]1(C(=O)NCCCNC(=O)c2ccc(-c3c4nc(c(-c5cccc(S(=O)(=O)[O-])c5F)c5ccc([nH]5)c(-c5cccc(S(=O)(=O)[O-])c5F)c5nc(c(-c6cccc(S(=O)(=O)[O-])c6F)c6ccc3[nH]6)C=C5)C=C4)cc2)CC[C@H](n2nc(C)c(CC)c2C)C1
REMARK SMILES IDX 10 1 9 2 8 3 6 4 7 5 5 7 78 8 90 9 79 10 80 11 4 12 3 15
REMARK SMILES IDX 2 16 1 17 81 18 82 19 88 20 83 21 85 22 89 23 84 24 86 25
REMARK SMILES IDX 87 26 11 27 12 28 13 29 14 31 15 32 16 33 77 34 17 35 76 36
REMARK SMILES IDX 18 37 19 38 20 39 70 40 21 41 75 42 69 43 71 44 22 45 74 46
REMARK SMILES IDX 68 47 67 48 23 50 55 51 35 52 54 53 36 54 39 55 53 56 72 57
REMARK SMILES IDX 37 58 38 59 52 61 73 62 40 63 24 64 25 65 33 66 26 67 28 68
REMARK SMILES IDX 34 69 27 70 29 71 30 72 31 73 32 74 56 75 57 76 65 77 58 78
REMARK SMILES IDX 60 79 66 80 59 81 61 82 62 83 63 84 64 85 41 86 42 87 50 88
REMARK SMILES IDX 43 89 45 90 51 91 44 92 46 93 47 94 48 95 49 96
REMARK H PARENT 8 6 4 13 4 14 12 30 71 49 39 60
REMARK Flexibility Score: inf
ROOT
ATOM      1  C   UNL A   1      37.600  19.400  25.019  1.00  0.00     0.042 C 
ENDROOT
BRANCH   1   2
ATOM      2  C   UNL A   1      36.456  20.340  24.663  1.00  0.00     0.118 C 
BRANCH   2   3
ATOM      3  N   UNL A   1      35.556  20.524  25.779  1.00  0.00    -0.351 N 
ATOM      4  C   UNL A   1      34.601  21.443  26.047  1.00  0.00     0.281 C 
ATOM      5  O   UNL A   1      33.967  21.245  27.095  1.00  0.00    -0.268 OA
ATOM      6  H   UNL A   1      35.658  19.845  26.486  1.00  0.00     0.163 HD
BRANCH   4   7
ATOM      7  C   UNL A   1      34.161  22.574  25.068  1.00  0.00     0.177 C 
ATOM      8  C   UNL A   1      33.969  22.366  23.560  1.00  0.00     0.081 C 
ATOM      9  C   UNL A   1      32.703  22.911  25.470  1.00  0.00     0.106 C 
ATOM     10  C   UNL A   1      32.972  23.460  23.136  1.00  0.00     0.034 C 
ATOM     11  C   UNL A   1      32.174  23.859  24.404  1.00  0.00     0.114 C 
BRANCH   7  12
ATOM     12  N   UNL A   1      35.062  23.754  25.266  1.00  0.00    -0.334 N 
ATOM     13  H   UNL A   1      34.498  24.602  25.195  1.00  0.00     0.347 HD
ATOM     14  H   UNL A   1      35.494  23.642  26.183  1.00  0.00     0.347 HD
BRANCH  12  15
ATOM     15  C   UNL A   1      36.160  23.845  24.287  1.00  0.00     0.261 C 
BRANCH  15  16
ATOM     16  C   UNL A   1      37.526  23.579  24.933  1.00  0.00     0.058 C 
ATOM     17  C   UNL A   1      37.603  23.944  26.407  1.00  0.00     0.010 C 
ENDBRANCH  15  16
ENDBRANCH  12  15
ENDBRANCH   7  12
BRANCH  11  18
ATOM     18  N   UNL A   1      32.150  25.298  24.630  1.00  0.00    -0.266 N 
ATOM     19  N   UNL A   1      33.145  25.972  23.995  1.00  0.00    -0.178 NA
ATOM     20  C   UNL A   1      31.285  26.163  25.272  1.00  0.00     0.039 A 
ATOM     21  C   UNL A   1      33.007  27.242  24.365  1.00  0.00     0.063 A 
ATOM     22  C   UNL A   1      31.875  27.421  25.189  1.00  0.00    -0.004 A 
ATOM     23  C   UNL A   1      29.985  25.879  25.934  1.00  0.00     0.066 C 
ATOM     24  C   UNL A   1      33.980  28.252  23.887  1.00  0.00     0.069 C 
BRANCH  22  25
ATOM     25  C   UNL A   1      31.389  28.686  25.817  1.00  0.00     0.036 C 
ATOM     26  C   UNL A   1      31.981  28.902  27.202  1.00  0.00     0.009 C 
ENDBRANCH  22  25
ENDBRANCH  11  18
ENDBRANCH   4   7
ENDBRANCH   2   3
ENDBRANCH   1   2
BRANCH   1  27
ATOM     27  C   UNL A   1      38.757  20.106  25.720  1.00  0.00     0.118 C 
BRANCH  27  28
ATOM     28  N   UNL A   1      39.892  19.218  25.939  1.00  0.00    -0.352 N 
ATOM     29  C   UNL A   1      41.217  19.515  26.136  1.00  0.00     0.251 C 
ATOM     30  H   UNL A   1      39.675  18.258  25.944  1.00  0.00     0.163 HD
ATOM     31  O   UNL A   1      42.055  18.624  26.048  1.00  0.00    -0.269 OA
BRANCH  29  32
ATOM     32  C   UNL A   1      41.626  20.898  26.456  1.00  0.00     0.039 A 
ATOM     33  C   UNL A   1      41.817  21.258  27.792  1.00  0.00     0.014 A 
ATOM     34  C   UNL A   1      41.783  21.846  25.442  1.00  0.00     0.014 A 
ATOM     35  C   UNL A   1      42.216  22.559  28.105  1.00  0.00     0.010 A 
ATOM     36  C   UNL A   1      42.259  23.115  25.749  1.00  0.00     0.010 A 
ATOM     37  C   UNL A   1      42.465  23.489  27.085  1.00  0.00    -0.014 A 
BRANCH  37  38
ATOM     38  C   UNL A   1      42.932  24.866  27.385  1.00  0.00     0.031 A 
ATOM     39  C   UNL A   1      41.993  25.857  28.017  1.00  0.00     0.074 A 
ATOM     40  C   UNL A   1      44.165  25.247  27.000  1.00  0.00     0.049 A 
ATOM     41  N   UNL A   1      42.185  27.124  28.277  1.00  0.00    -0.248 NA
ATOM     42  C   UNL A   1      40.651  25.369  28.379  1.00  0.00     0.031 C 
ATOM     43  C   UNL A   1      45.137  24.398  26.309  1.00  0.00     0.029 A 
ATOM     44  N   UNL A   1      44.800  26.459  27.105  1.00  0.00    -0.354 N 
ATOM     45  C   UNL A   1      40.981  27.592  28.791  1.00  0.00     0.074 A 
ATOM     46  C   UNL A   1      40.054  26.483  28.775  1.00  0.00     0.031 C 
ATOM     47  C   UNL A   1      46.244  25.114  26.054  1.00  0.00     0.029 A 
ATOM     48  C   UNL A   1      46.049  26.479  26.531  1.00  0.00     0.049 A 
ATOM     49  H   UNL A   1      44.399  27.241  27.550  1.00  0.00     0.167 HD
ATOM     50  C   UNL A   1      40.682  28.827  29.260  1.00  0.00     0.034 A 
ATOM     51  C   UNL A   1      46.933  27.486  26.396  1.00  0.00     0.034 A 
ATOM     52  C   UNL A   1      41.623  29.913  29.315  1.00  0.00     0.049 A 
ATOM     53  C   UNL A   1      46.592  28.837  26.964  1.00  0.00     0.074 A 
ATOM     54  C   UNL A   1      41.449  31.175  29.855  1.00  0.00     0.029 A 
ATOM     55  N   UNL A   1      42.913  29.868  28.810  1.00  0.00    -0.354 N 
ATOM     56  N   UNL A   1      45.503  29.219  27.587  1.00  0.00    -0.248 NA
ATOM     57  C   UNL A   1      47.615  29.886  26.844  1.00  0.00     0.031 C 
ATOM     58  C   UNL A   1      42.627  31.902  29.654  1.00  0.00     0.029 A 
ATOM     59  C   UNL A   1      43.544  31.082  29.016  1.00  0.00     0.049 A 
ATOM     60  H   UNL A   1      43.320  29.087  28.369  1.00  0.00     0.167 HD
ATOM     61  C   UNL A   1      45.724  30.537  27.967  1.00  0.00     0.074 A 
ATOM     62  C   UNL A   1      47.059  30.882  27.520  1.00  0.00     0.031 C 
ATOM     63  C   UNL A   1      44.893  31.391  28.614  1.00  0.00     0.034 A 
BRANCH  50  64
ATOM     64  C   UNL A   1      39.293  29.055  29.799  1.00  0.00     0.023 A 
ATOM     65  C   UNL A   1      38.976  28.632  31.108  1.00  0.00     0.012 A 
ATOM     66  C   UNL A   1      38.321  29.732  29.039  1.00  0.00     0.148 A 
ATOM     67  C   UNL A   1      37.704  28.845  31.635  1.00  0.00     0.002 A 
ATOM     68  C   UNL A   1      37.069  29.982  29.589  1.00  0.00     0.091 A 
ATOM     69  F   UNL A   1      38.632  30.108  27.790  1.00  0.00    -0.205 F 
ATOM     70  C   UNL A   1      36.754  29.529  30.882  1.00  0.00     0.022 A 
BRANCH  68  71
ATOM     71  S   UNL A   1      35.803  30.925  28.731  1.00  0.00     0.127 S 
ATOM     72  O   UNL A   1      36.601  31.960  28.074  1.00  0.00    -0.237 OA
ATOM     73  O   UNL A   1      35.235  29.927  27.825  1.00  0.00    -0.237 OA
ATOM     74  O   UNL A   1      34.890  31.401  29.761  1.00  0.00    -0.744 OA
ENDBRANCH  68  71
ENDBRANCH  50  64
BRANCH  51  75
ATOM     75  C   UNL A   1      48.253  27.236  25.751  1.00  0.00     0.023 A 
ATOM     76  C   UNL A   1      49.320  26.744  26.529  1.00  0.00     0.012 A 
ATOM     77  C   UNL A   1      48.451  27.454  24.374  1.00  0.00     0.148 A 
ATOM     78  C   UNL A   1      50.568  26.505  25.954  1.00  0.00     0.002 A 
ATOM     79  C   UNL A   1      49.681  27.160  23.797  1.00  0.00     0.091 A 
ATOM     80  F   UNL A   1      47.427  27.930  23.653  1.00  0.00    -0.205 F 
ATOM     81  C   UNL A   1      50.746  26.702  24.589  1.00  0.00     0.022 A 
BRANCH  79  82
ATOM     82  S   UNL A   1      49.963  27.257  22.026  1.00  0.00     0.127 S 
ATOM     83  O   UNL A   1      48.918  26.376  21.510  1.00  0.00    -0.237 OA
ATOM     84  O   UNL A   1      49.754  28.681  21.764  1.00  0.00    -0.237 OA
ATOM     85  O   UNL A   1      51.332  26.804  21.821  1.00  0.00    -0.744 OA
ENDBRANCH  79  82
ENDBRANCH  51  75
BRANCH  63  86
ATOM     86  C   UNL A   1      45.410  32.772  28.923  1.00  0.00     0.023 A 
ATOM     87  C   UNL A   1      46.153  32.998  30.098  1.00  0.00     0.012 A 
ATOM     88  C   UNL A   1      45.222  33.826  28.008  1.00  0.00     0.148 A 
ATOM     89  C   UNL A   1      46.675  34.261  30.372  1.00  0.00     0.002 A 
ATOM     90  C   UNL A   1      45.789  35.069  28.263  1.00  0.00     0.091 A 
ATOM     91  F   UNL A   1      44.496  33.595  26.904  1.00  0.00    -0.205 F 
ATOM     92  C   UNL A   1      46.504  35.291  29.451  1.00  0.00     0.022 A 
BRANCH  90  93
ATOM     93  S   UNL A   1      45.706  36.425  27.087  1.00  0.00     0.127 S 
ATOM     94  O   UNL A   1      46.476  37.461  27.774  1.00  0.00    -0.237 OA
ATOM     95  O   UNL A   1      46.362  35.855  25.910  1.00  0.00    -0.237 OA
ATOM     96  O   UNL A   1      44.289  36.714  26.908  1.00  0.00    -0.744 OA
ENDBRANCH  90  93
ENDBRANCH  63  86
ENDBRANCH  37  38
ENDBRANCH  29  32
ENDBRANCH  27  28
ENDBRANCH   1  27
TORSDOF 18
ENDMDL
