MODEL 1
REMARK VINA RESULT:     -12.8      0.000      0.000
REMARK SMILES Cc1c(Cl)cc2c(c1C)O[C@@H](C(F)(F)F)C(C(=O)NCCCNC(=O)c1ccc(-c3c4nc(c(-c5cccc(S(=O)(=O)[O-])c5F)c5ccc([nH]5)c(-c5cccc(S(=O)(=O)[O-])c5F)c5nc(c(-c6cccc(S(=O)(=O)[O-])c6F)c6ccc3[nH]6)C=C5)C=C4)cc1)=C2
REMARK SMILES IDX 22 1 21 2 20 3 19 4 17 5 18 6 16 8 1 9 2 10 3 11 8 12 4 13
REMARK SMILES IDX 5 14 7 15 9 16 6 17 10 18 89 19 11 20 12 21 13 22 14 23
REMARK SMILES IDX 15 24 23 25 24 26 25 28 26 29 27 30 88 31 28 32 87 33 29 34
REMARK SMILES IDX 30 35 31 36 81 37 32 38 86 39 80 40 82 41 33 42 85 43 79 44
REMARK SMILES IDX 78 45 34 47 66 48 46 49 65 50 47 51 50 52 64 53 83 54 48 55
REMARK SMILES IDX 49 56 63 58 84 59 51 60 35 61 36 62 44 63 37 64 39 65 45 66
REMARK SMILES IDX 38 67 40 68 41 69 42 70 43 71 67 72 68 73 76 74 69 75 71 76
REMARK SMILES IDX 77 77 70 78 72 79 73 80 74 81 75 82 52 83 53 84 61 85 54 86
REMARK SMILES IDX 56 87 62 88 55 89 57 90 58 91 59 92 60 93
REMARK H PARENT 19 7 23 27 82 46 50 57
REMARK Flexibility Score: inf
ROOT
ATOM      1  C   UNL A   1      32.752  32.920  27.210  1.00  0.00     0.118 C 
ENDROOT
BRANCH   1   2
ATOM      2  C   UNL A   1      31.468  32.416  26.563  1.00  0.00     0.042 C 
BRANCH   2   3
ATOM      3  C   UNL A   1      31.482  30.907  26.350  1.00  0.00     0.118 C 
BRANCH   3   4
ATOM      4  N   UNL A   1      31.066  30.551  25.003  1.00  0.00    -0.352 N 
ATOM      5  C   UNL A   1      31.094  29.456  24.210  1.00  0.00     0.251 C 
ATOM      6  O   UNL A   1      30.555  29.598  23.107  1.00  0.00    -0.270 OA
ATOM      7  H   UNL A   1      30.653  31.315  24.541  1.00  0.00     0.163 HD
BRANCH   5   8
ATOM      8  C   UNL A   1      31.694  28.139  24.572  1.00  0.00     0.067 C 
ATOM      9  C   UNL A   1      32.889  22.091  26.766  1.00  0.00     0.046 C 
ATOM     10  C   UNL A   1      32.351  23.435  26.349  1.00  0.00    -0.026 A 
ATOM     11  C   UNL A   1      30.983  23.751  26.472  1.00  0.00     0.045 A 
ATOM     12  C   UNL A   1      33.217  24.401  25.782  1.00  0.00    -0.004 A 
ATOM     13  Cl  UNL A   1      29.824  22.623  27.093  1.00  0.00    -0.084 Cl
ATOM     14  C   UNL A   1      30.490  25.005  26.092  1.00  0.00     0.032 A 
ATOM     15  C   UNL A   1      32.704  25.663  25.427  1.00  0.00     0.131 A 
ATOM     16  C   UNL A   1      34.684  24.144  25.531  1.00  0.00     0.049 C 
ATOM     17  C   UNL A   1      31.354  25.970  25.580  1.00  0.00     0.019 A 
ATOM     18  O   UNL A   1      33.604  26.592  24.979  1.00  0.00    -0.475 OA
ATOM     19  C   UNL A   1      30.872  27.300  25.230  1.00  0.00     0.025 C 
ATOM     20  C   UNL A   1      33.076  27.691  24.190  1.00  0.00     0.314 C 
BRANCH  20  21
ATOM     21  C   UNL A   1      33.250  27.396  22.691  1.00  0.00     0.429 C 
ATOM     22  F   UNL A   1      34.077  26.334  22.522  1.00  0.00    -0.167 F 
ATOM     23  F   UNL A   1      32.081  27.101  22.080  1.00  0.00    -0.167 F 
ATOM     24  F   UNL A   1      33.799  28.434  22.019  1.00  0.00    -0.167 F 
ENDBRANCH  20  21
ENDBRANCH   5   8
ENDBRANCH   3   4
ENDBRANCH   2   3
ENDBRANCH   1   2
BRANCH   1  25
ATOM     25  N   UNL A   1      32.616  34.297  27.673  1.00  0.00    -0.352 N 
ATOM     26  C   UNL A   1      33.149  34.912  28.780  1.00  0.00     0.251 C 
ATOM     27  H   UNL A   1      32.057  34.874  27.104  1.00  0.00     0.163 HD
ATOM     28  O   UNL A   1      32.687  35.986  29.151  1.00  0.00    -0.269 OA
BRANCH  26  29
ATOM     29  C   UNL A   1      34.266  34.285  29.521  1.00  0.00     0.039 A 
ATOM     30  C   UNL A   1      33.987  33.492  30.636  1.00  0.00     0.014 A 
ATOM     31  C   UNL A   1      35.591  34.516  29.144  1.00  0.00     0.014 A 
ATOM     32  C   UNL A   1      35.035  32.891  31.339  1.00  0.00     0.010 A 
ATOM     33  C   UNL A   1      36.624  33.839  29.780  1.00  0.00     0.010 A 
ATOM     34  C   UNL A   1      36.362  33.039  30.900  1.00  0.00    -0.014 A 
BRANCH  34  35
ATOM     35  C   UNL A   1      37.489  32.395  31.619  1.00  0.00     0.031 A 
ATOM     36  C   UNL A   1      38.222  31.238  30.993  1.00  0.00     0.074 A 
ATOM     37  C   UNL A   1      37.822  32.820  32.854  1.00  0.00     0.049 A 
ATOM     38  N   UNL A   1      39.229  30.551  31.463  1.00  0.00    -0.248 NA
ATOM     39  C   UNL A   1      37.748  30.778  29.677  1.00  0.00     0.031 C 
ATOM     40  C   UNL A   1      37.141  33.886  33.591  1.00  0.00     0.029 A 
ATOM     41  N   UNL A   1      38.812  32.406  33.709  1.00  0.00    -0.354 N 
ATOM     42  C   UNL A   1      39.496  29.573  30.512  1.00  0.00     0.074 A 
ATOM     43  C   UNL A   1      38.506  29.712  29.470  1.00  0.00     0.031 C 
ATOM     44  C   UNL A   1      37.758  34.068  34.769  1.00  0.00     0.029 A 
ATOM     45  C   UNL A   1      38.858  33.116  34.885  1.00  0.00     0.049 A 
ATOM     46  H   UNL A   1      39.432  31.669  33.500  1.00  0.00     0.167 HD
ATOM     47  C   UNL A   1      40.509  28.674  30.480  1.00  0.00     0.034 A 
ATOM     48  C   UNL A   1      39.703  33.021  35.933  1.00  0.00     0.034 A 
ATOM     49  C   UNL A   1      41.515  28.568  31.499  1.00  0.00     0.049 A 
ATOM     50  C   UNL A   1      40.816  32.009  35.879  1.00  0.00     0.074 A 
ATOM     51  C   UNL A   1      42.616  27.732  31.536  1.00  0.00     0.029 A 
ATOM     52  N   UNL A   1      41.544  29.324  32.661  1.00  0.00    -0.354 N 
ATOM     53  N   UNL A   1      41.137  31.187  34.909  1.00  0.00    -0.248 NA
ATOM     54  C   UNL A   1      41.701  31.928  37.051  1.00  0.00     0.031 C 
ATOM     55  C   UNL A   1      43.300  27.969  32.731  1.00  0.00     0.029 A 
ATOM     56  C   UNL A   1      42.638  28.967  33.430  1.00  0.00     0.049 A 
ATOM     57  H   UNL A   1      40.884  30.012  32.904  1.00  0.00     0.167 HD
ATOM     58  C   UNL A   1      42.274  30.511  35.339  1.00  0.00     0.074 A 
ATOM     59  C   UNL A   1      42.598  31.035  36.651  1.00  0.00     0.031 C 
ATOM     60  C   UNL A   1      42.973  29.532  34.713  1.00  0.00     0.034 A 
BRANCH  47  61
ATOM     61  C   UNL A   1      40.622  27.795  29.260  1.00  0.00     0.023 A 
ATOM     62  C   UNL A   1      39.801  26.652  29.160  1.00  0.00     0.012 A 
ATOM     63  C   UNL A   1      41.488  28.115  28.197  1.00  0.00     0.148 A 
ATOM     64  C   UNL A   1      39.867  25.820  28.045  1.00  0.00     0.002 A 
ATOM     65  C   UNL A   1      41.513  27.307  27.065  1.00  0.00     0.091 A 
ATOM     66  F   UNL A   1      42.276  29.194  28.314  1.00  0.00    -0.205 F 
ATOM     67  C   UNL A   1      40.715  26.153  26.994  1.00  0.00     0.022 A 
BRANCH  65  68
ATOM     68  S   UNL A   1      42.510  27.689  25.619  1.00  0.00     0.127 S 
ATOM     69  O   UNL A   1      43.848  27.785  26.201  1.00  0.00    -0.237 OA
ATOM     70  O   UNL A   1      42.294  26.511  24.778  1.00  0.00    -0.237 OA
ATOM     71  O   UNL A   1      41.973  28.929  25.078  1.00  0.00    -0.744 OA
ENDBRANCH  65  68
ENDBRANCH  47  61
BRANCH  48  72
ATOM     72  C   UNL A   1      39.589  33.989  37.061  1.00  0.00     0.023 A 
ATOM     73  C   UNL A   1      39.939  35.335  36.839  1.00  0.00     0.012 A 
ATOM     74  C   UNL A   1      39.074  33.614  38.317  1.00  0.00     0.148 A 
ATOM     75  C   UNL A   1      39.791  36.287  37.848  1.00  0.00     0.002 A 
ATOM     76  C   UNL A   1      38.879  34.576  39.302  1.00  0.00     0.091 A 
ATOM     77  F   UNL A   1      38.753  32.326  38.511  1.00  0.00    -0.205 F 
ATOM     78  C   UNL A   1      39.250  35.911  39.074  1.00  0.00     0.022 A 
BRANCH  76  79
ATOM     79  S   UNL A   1      38.069  34.218  40.865  1.00  0.00     0.127 S 
ATOM     80  O   UNL A   1      39.110  33.487  41.583  1.00  0.00    -0.237 OA
ATOM     81  O   UNL A   1      37.796  35.563  41.374  1.00  0.00    -0.237 OA
ATOM     82  O   UNL A   1      36.880  33.447  40.528  1.00  0.00    -0.744 OA
ENDBRANCH  76  79
ENDBRANCH  48  72
BRANCH  60  83
ATOM     83  C   UNL A   1      44.166  28.947  35.422  1.00  0.00     0.023 A 
ATOM     84  C   UNL A   1      45.419  29.577  35.297  1.00  0.00     0.012 A 
ATOM     85  C   UNL A   1      44.016  27.872  36.321  1.00  0.00     0.148 A 
ATOM     86  C   UNL A   1      46.509  29.140  36.048  1.00  0.00     0.002 A 
ATOM     87  C   UNL A   1      45.094  27.475  37.103  1.00  0.00     0.091 A 
ATOM     88  F   UNL A   1      42.816  27.280  36.414  1.00  0.00    -0.205 F 
ATOM     89  C   UNL A   1      46.343  28.102  36.961  1.00  0.00     0.022 A 
BRANCH  87  90
ATOM     90  S   UNL A   1      44.955  26.223  38.384  1.00  0.00     0.127 S 
ATOM     91  O   UNL A   1      44.621  25.032  37.603  1.00  0.00    -0.237 OA
ATOM     92  O   UNL A   1      46.301  26.218  38.957  1.00  0.00    -0.237 OA
ATOM     93  O   UNL A   1      43.909  26.682  39.289  1.00  0.00    -0.744 OA
ENDBRANCH  87  90
ENDBRANCH  60  83
ENDBRANCH  34  35
ENDBRANCH  26  29
ENDBRANCH   1  25
TORSDOF 14
ENDMDL
MODEL 2
REMARK VINA RESULT:     -12.7      0.448      7.822
REMARK SMILES Cc1c(Cl)cc2c(c1C)O[C@@H](C(F)(F)F)C(C(=O)NCCCNC(=O)c1ccc(-c3c4nc(c(-c5cccc(S(=O)(=O)[O-])c5F)c5ccc([nH]5)c(-c5cccc(S(=O)(=O)[O-])c5F)c5nc(c(-c6cccc(S(=O)(=O)[O-])c6F)c6ccc3[nH]6)C=C5)C=C4)cc1)=C2
REMARK SMILES IDX 22 1 21 2 20 3 19 4 17 5 18 6 16 8 1 9 2 10 3 11 8 12 4 13
REMARK SMILES IDX 5 14 7 15 9 16 6 17 10 18 89 19 11 20 12 21 13 22 14 23
REMARK SMILES IDX 15 24 23 25 24 26 25 28 26 29 27 30 88 31 28 32 87 33 29 34
REMARK SMILES IDX 30 35 31 36 81 37 32 38 86 39 80 40 82 41 33 42 85 43 79 44
REMARK SMILES IDX 78 45 34 47 66 48 46 49 65 50 47 51 50 52 64 53 83 54 48 55
REMARK SMILES IDX 49 56 63 58 84 59 51 60 35 61 36 62 44 63 37 64 39 65 45 66
REMARK SMILES IDX 38 67 40 68 41 69 42 70 43 71 67 72 68 73 76 74 69 75 71 76
REMARK SMILES IDX 77 77 70 78 72 79 73 80 74 81 75 82 52 83 53 84 61 85 54 86
REMARK SMILES IDX 56 87 62 88 55 89 57 90 58 91 59 92 60 93
REMARK H PARENT 19 7 23 27 82 46 50 57
REMARK Flexibility Score: inf
ROOT
ATOM      1  C   UNL A   1      32.759  32.894  27.131  1.00  0.00     0.118 C 
ENDROOT
BRANCH   1   2
ATOM      2  C   UNL A   1      31.448  32.346  26.578  1.00  0.00     0.042 C 
BRANCH   2   3
ATOM      3  C   UNL A   1      31.498  30.840  26.357  1.00  0.00     0.118 C 
BRANCH   3   4
ATOM      4  N   UNL A   1      31.104  30.481  25.004  1.00  0.00    -0.352 N 
ATOM      5  C   UNL A   1      31.150  29.387  24.212  1.00  0.00     0.251 C 
ATOM      6  O   UNL A   1      30.625  29.526  23.102  1.00  0.00    -0.270 OA
ATOM      7  H   UNL A   1      30.692  31.243  24.537  1.00  0.00     0.163 HD
BRANCH   5   8
ATOM      8  C   UNL A   1      31.753  28.074  24.582  1.00  0.00     0.067 C 
ATOM      9  C   UNL A   1      32.976  22.057  26.845  1.00  0.00     0.046 C 
ATOM     10  C   UNL A   1      32.434  23.396  26.418  1.00  0.00    -0.026 A 
ATOM     11  C   UNL A   1      31.069  23.719  26.565  1.00  0.00     0.045 A 
ATOM     12  C   UNL A   1      33.291  24.350  25.818  1.00  0.00    -0.004 A 
ATOM     13  Cl  UNL A   1      29.921  22.605  27.228  1.00  0.00    -0.084 Cl
ATOM     14  C   UNL A   1      30.573  24.968  26.176  1.00  0.00     0.032 A 
ATOM     15  C   UNL A   1      32.773  25.608  25.454  1.00  0.00     0.131 A 
ATOM     16  C   UNL A   1      34.751  24.084  25.540  1.00  0.00     0.049 C 
ATOM     17  C   UNL A   1      31.428  25.922  25.630  1.00  0.00     0.019 A 
ATOM     18  O   UNL A   1      33.666  26.527  24.972  1.00  0.00    -0.475 OA
ATOM     19  C   UNL A   1      30.943  27.247  25.270  1.00  0.00     0.025 C 
ATOM     20  C   UNL A   1      33.126  27.615  24.178  1.00  0.00     0.314 C 
BRANCH  20  21
ATOM     21  C   UNL A   1      33.267  27.296  22.680  1.00  0.00     0.429 C 
ATOM     22  F   UNL A   1      32.050  27.010  22.153  1.00  0.00    -0.167 F 
ATOM     23  F   UNL A   1      33.781  28.328  21.975  1.00  0.00    -0.167 F 
ATOM     24  F   UNL A   1      34.058  26.224  22.450  1.00  0.00    -0.167 F 
ENDBRANCH  20  21
ENDBRANCH   5   8
ENDBRANCH   3   4
ENDBRANCH   2   3
ENDBRANCH   1   2
BRANCH   1  25
ATOM     25  N   UNL A   1      32.573  34.192  27.769  1.00  0.00    -0.352 N 
ATOM     26  C   UNL A   1      33.137  34.701  28.914  1.00  0.00     0.251 C 
ATOM     27  H   UNL A   1      31.947  34.797  27.308  1.00  0.00     0.163 HD
ATOM     28  O   UNL A   1      32.638  35.690  29.441  1.00  0.00    -0.269 OA
BRANCH  26  29
ATOM     29  C   UNL A   1      34.331  34.062  29.509  1.00  0.00     0.039 A 
ATOM     30  C   UNL A   1      35.598  34.403  29.030  1.00  0.00     0.014 A 
ATOM     31  C   UNL A   1      34.200  33.095  30.508  1.00  0.00     0.014 A 
ATOM     32  C   UNL A   1      36.733  33.808  29.591  1.00  0.00     0.010 A 
ATOM     33  C   UNL A   1      35.330  32.581  31.133  1.00  0.00     0.010 A 
ATOM     34  C   UNL A   1      36.609  32.912  30.665  1.00  0.00    -0.014 A 
BRANCH  34  35
ATOM     35  C   UNL A   1      37.800  32.284  31.288  1.00  0.00     0.031 A 
ATOM     36  C   UNL A   1      38.313  32.786  32.612  1.00  0.00     0.074 A 
ATOM     37  C   UNL A   1      38.447  31.294  30.642  1.00  0.00     0.049 A 
ATOM     38  N   UNL A   1      39.334  32.366  33.312  1.00  0.00    -0.248 NA
ATOM     39  C   UNL A   1      37.602  33.924  33.218  1.00  0.00     0.031 C 
ATOM     40  C   UNL A   1      38.085  30.770  29.324  1.00  0.00     0.029 A 
ATOM     41  N   UNL A   1      39.546  30.556  31.002  1.00  0.00    -0.354 N 
ATOM     42  C   UNL A   1      39.395  33.194  34.426  1.00  0.00     0.074 A 
ATOM     43  C   UNL A   1      38.352  34.182  34.279  1.00  0.00     0.031 C 
ATOM     44  C   UNL A   1      38.920  29.769  29.005  1.00  0.00     0.029 A 
ATOM     45  C   UNL A   1      39.895  29.599  30.078  1.00  0.00     0.049 A 
ATOM     46  H   UNL A   1      40.040  30.698  31.842  1.00  0.00     0.167 HD
ATOM     47  C   UNL A   1      40.209  33.108  35.505  1.00  0.00     0.034 A 
ATOM     48  C   UNL A   1      40.879  28.677  30.102  1.00  0.00     0.034 A 
ATOM     49  C   UNL A   1      41.218  32.098  35.665  1.00  0.00     0.049 A 
ATOM     50  C   UNL A   1      41.778  28.605  31.307  1.00  0.00     0.074 A 
ATOM     51  C   UNL A   1      42.058  31.886  36.743  1.00  0.00     0.029 A 
ATOM     52  N   UNL A   1      41.521  31.129  34.721  1.00  0.00    -0.354 N 
ATOM     53  N   UNL A   1      41.731  29.306  32.414  1.00  0.00    -0.248 NA
ATOM     54  C   UNL A   1      42.848  27.596  31.281  1.00  0.00     0.031 C 
ATOM     55  C   UNL A   1      42.884  30.799  36.441  1.00  0.00     0.029 A 
ATOM     56  C   UNL A   1      42.545  30.321  35.185  1.00  0.00     0.049 A 
ATOM     57  H   UNL A   1      41.075  31.030  33.849  1.00  0.00     0.167 HD
ATOM     58  C   UNL A   1      42.745  28.810  33.226  1.00  0.00     0.074 A 
ATOM     59  C   UNL A   1      43.377  27.732  32.491  1.00  0.00     0.031 C 
ATOM     60  C   UNL A   1      43.130  29.222  34.459  1.00  0.00     0.034 A 
BRANCH  47  61
ATOM     61  C   UNL A   1      39.982  34.084  36.630  1.00  0.00     0.023 A 
ATOM     62  C   UNL A   1      40.251  35.453  36.417  1.00  0.00     0.012 A 
ATOM     63  C   UNL A   1      39.458  33.672  37.871  1.00  0.00     0.148 A 
ATOM     64  C   UNL A   1      40.043  36.389  37.428  1.00  0.00     0.002 A 
ATOM     65  C   UNL A   1      39.207  34.619  38.859  1.00  0.00     0.091 A 
ATOM     66  F   UNL A   1      39.225  32.367  38.067  1.00  0.00    -0.205 F 
ATOM     67  C   UNL A   1      39.512  35.973  38.644  1.00  0.00     0.022 A 
BRANCH  65  68
ATOM     68  S   UNL A   1      38.449  34.203  40.434  1.00  0.00     0.127 S 
ATOM     69  O   UNL A   1      38.215  35.527  41.007  1.00  0.00    -0.237 OA
ATOM     70  O   UNL A   1      37.237  33.498  40.015  1.00  0.00    -0.237 OA
ATOM     71  O   UNL A   1      39.418  33.378  41.141  1.00  0.00    -0.744 OA
ENDBRANCH  65  68
ENDBRANCH  47  61
BRANCH  48  72
ATOM     72  C   UNL A   1      40.982  27.682  28.997  1.00  0.00     0.023 A 
ATOM     73  C   UNL A   1      40.086  26.595  28.974  1.00  0.00     0.012 A 
ATOM     74  C   UNL A   1      41.898  27.835  27.937  1.00  0.00     0.148 A 
ATOM     75  C   UNL A   1      40.108  25.673  27.928  1.00  0.00     0.002 A 
ATOM     76  C   UNL A   1      41.879  26.944  26.870  1.00  0.00     0.091 A 
ATOM     77  F   UNL A   1      42.746  28.873  27.979  1.00  0.00    -0.205 F 
ATOM     78  C   UNL A   1      40.994  25.854  26.870  1.00  0.00     0.022 A 
BRANCH  76  79
ATOM     79  S   UNL A   1      42.889  27.165  25.400  1.00  0.00     0.127 S 
ATOM     80  O   UNL A   1      42.695  25.892  24.709  1.00  0.00    -0.237 OA
ATOM     81  O   UNL A   1      42.244  28.315  24.766  1.00  0.00    -0.237 OA
ATOM     82  O   UNL A   1      44.240  27.418  25.882  1.00  0.00    -0.744 OA
ENDBRANCH  76  79
ENDBRANCH  48  72
BRANCH  60  83
ATOM     83  C   UNL A   1      44.289  28.518  35.114  1.00  0.00     0.023 A 
ATOM     84  C   UNL A   1      45.602  28.942  34.831  1.00  0.00     0.012 A 
ATOM     85  C   UNL A   1      44.074  27.548  36.113  1.00  0.00     0.148 A 
ATOM     86  C   UNL A   1      46.685  28.402  35.524  1.00  0.00     0.002 A 
ATOM     87  C   UNL A   1      45.153  27.052  36.835  1.00  0.00     0.091 A 
ATOM     88  F   UNL A   1      42.816  27.151  36.357  1.00  0.00    -0.205 F 
ATOM     89  C   UNL A   1      46.459  27.472  36.536  1.00  0.00     0.022 A 
BRANCH  87  90
ATOM     90  S   UNL A   1      44.958  25.934  38.228  1.00  0.00     0.127 S 
ATOM     91  O   UNL A   1      44.596  24.684  37.559  1.00  0.00    -0.237 OA
ATOM     92  O   UNL A   1      46.296  25.944  38.819  1.00  0.00    -0.237 OA
ATOM     93  O   UNL A   1      43.916  26.510  39.068  1.00  0.00    -0.744 OA
ENDBRANCH  87  90
ENDBRANCH  60  83
ENDBRANCH  34  35
ENDBRANCH  26  29
ENDBRANCH   1  25
TORSDOF 14
ENDMDL
MODEL 3
REMARK VINA RESULT:     -12.7      1.511      7.756
REMARK SMILES Cc1c(Cl)cc2c(c1C)O[C@@H](C(F)(F)F)C(C(=O)NCCCNC(=O)c1ccc(-c3c4nc(c(-c5cccc(S(=O)(=O)[O-])c5F)c5ccc([nH]5)c(-c5cccc(S(=O)(=O)[O-])c5F)c5nc(c(-c6cccc(S(=O)(=O)[O-])c6F)c6ccc3[nH]6)C=C5)C=C4)cc1)=C2
REMARK SMILES IDX 22 1 21 2 20 3 19 4 17 5 18 6 16 8 1 9 2 10 3 11 8 12 4 13
REMARK SMILES IDX 5 14 7 15 9 16 6 17 10 18 89 19 11 20 12 21 13 22 14 23
REMARK SMILES IDX 15 24 23 25 24 26 25 28 26 29 27 30 88 31 28 32 87 33 29 34
REMARK SMILES IDX 30 35 31 36 81 37 32 38 86 39 80 40 82 41 33 42 85 43 79 44
REMARK SMILES IDX 78 45 34 47 66 48 46 49 65 50 47 51 50 52 64 53 83 54 48 55
REMARK SMILES IDX 49 56 63 58 84 59 51 60 35 61 36 62 44 63 37 64 39 65 45 66
REMARK SMILES IDX 38 67 40 68 41 69 42 70 43 71 67 72 68 73 76 74 69 75 71 76
REMARK SMILES IDX 77 77 70 78 72 79 73 80 74 81 75 82 52 83 53 84 61 85 54 86
REMARK SMILES IDX 56 87 62 88 55 89 57 90 58 91 59 92 60 93
REMARK H PARENT 19 7 23 27 82 46 50 57
REMARK Flexibility Score: inf
ROOT
ATOM      1  C   UNL A   1      32.756  32.777  26.993  1.00  0.00     0.118 C 
ENDROOT
BRANCH   1   2
ATOM      2  C   UNL A   1      31.403  32.267  26.508  1.00  0.00     0.042 C 
BRANCH   2   3
ATOM      3  C   UNL A   1      31.397  30.759  26.291  1.00  0.00     0.118 C 
BRANCH   3   4
ATOM      4  N   UNL A   1      31.051  30.415  24.921  1.00  0.00    -0.352 N 
ATOM      5  C   UNL A   1      31.123  29.328  24.120  1.00  0.00     0.251 C 
ATOM      6  O   UNL A   1      30.638  29.480  22.994  1.00  0.00    -0.270 OA
ATOM      7  H   UNL A   1      30.658  31.183  24.447  1.00  0.00     0.163 HD
BRANCH   5   8
ATOM      8  C   UNL A   1      31.708  28.010  24.499  1.00  0.00     0.067 C 
ATOM      9  C   UNL A   1      32.849  21.991  26.799  1.00  0.00     0.046 C 
ATOM     10  C   UNL A   1      32.325  23.334  26.364  1.00  0.00    -0.026 A 
ATOM     11  C   UNL A   1      30.964  23.675  26.505  1.00  0.00     0.045 A 
ATOM     12  C   UNL A   1      33.195  24.274  25.760  1.00  0.00    -0.004 A 
ATOM     13  Cl  UNL A   1      29.800  22.579  27.171  1.00  0.00    -0.084 Cl
ATOM     14  C   UNL A   1      30.484  24.928  26.108  1.00  0.00     0.032 A 
ATOM     15  C   UNL A   1      32.695  25.536  25.388  1.00  0.00     0.131 A 
ATOM     16  C   UNL A   1      34.652  23.987  25.487  1.00  0.00     0.049 C 
ATOM     17  C   UNL A   1      31.353  25.868  25.559  1.00  0.00     0.019 A 
ATOM     18  O   UNL A   1      33.600  26.441  24.903  1.00  0.00    -0.475 OA
ATOM     19  C   UNL A   1      30.885  27.198  25.190  1.00  0.00     0.025 C 
ATOM     20  C   UNL A   1      33.076  27.531  24.102  1.00  0.00     0.314 C 
BRANCH  20  21
ATOM     21  C   UNL A   1      33.216  27.202  22.605  1.00  0.00     0.429 C 
ATOM     22  F   UNL A   1      34.028  26.127  22.444  1.00  0.00    -0.167 F 
ATOM     23  F   UNL A   1      32.032  26.907  22.025  1.00  0.00    -0.167 F 
ATOM     24  F   UNL A   1      33.763  28.219  21.900  1.00  0.00    -0.167 F 
ENDBRANCH  20  21
ENDBRANCH   5   8
ENDBRANCH   3   4
ENDBRANCH   2   3
ENDBRANCH   1   2
BRANCH   1  25
ATOM     25  N   UNL A   1      32.641  34.085  27.626  1.00  0.00    -0.352 N 
ATOM     26  C   UNL A   1      33.247  34.573  28.759  1.00  0.00     0.251 C 
ATOM     27  H   UNL A   1      32.038  34.717  27.172  1.00  0.00     0.163 HD
ATOM     28  O   UNL A   1      32.805  35.587  29.289  1.00  0.00    -0.269 OA
BRANCH  26  29
ATOM     29  C   UNL A   1      34.420  33.881  29.339  1.00  0.00     0.039 A 
ATOM     30  C   UNL A   1      34.220  32.771  30.163  1.00  0.00     0.014 A 
ATOM     31  C   UNL A   1      35.714  34.353  29.107  1.00  0.00     0.014 A 
ATOM     32  C   UNL A   1      35.323  32.108  30.711  1.00  0.00     0.010 A 
ATOM     33  C   UNL A   1      36.811  33.635  29.568  1.00  0.00     0.010 A 
ATOM     34  C   UNL A   1      36.628  32.520  30.396  1.00  0.00    -0.014 A 
BRANCH  34  35
ATOM     35  C   UNL A   1      37.813  31.819  30.950  1.00  0.00     0.031 A 
ATOM     36  C   UNL A   1      38.282  32.119  32.349  1.00  0.00     0.074 A 
ATOM     37  C   UNL A   1      38.494  30.948  30.179  1.00  0.00     0.049 A 
ATOM     38  N   UNL A   1      39.291  31.610  33.006  1.00  0.00    -0.248 NA
ATOM     39  C   UNL A   1      37.536  33.142  33.101  1.00  0.00     0.031 C 
ATOM     40  C   UNL A   1      38.176  30.627  28.786  1.00  0.00     0.029 A 
ATOM     41  N   UNL A   1      39.595  30.178  30.453  1.00  0.00    -0.354 N 
ATOM     42  C   UNL A   1      39.309  32.258  34.235  1.00  0.00     0.074 A 
ATOM     43  C   UNL A   1      38.254  33.244  34.210  1.00  0.00     0.031 C 
ATOM     44  C   UNL A   1      39.036  29.698  28.343  1.00  0.00     0.029 A 
ATOM     45  C   UNL A   1      39.984  29.378  29.405  1.00  0.00     0.049 A 
ATOM     46  H   UNL A   1      40.064  30.196  31.320  1.00  0.00     0.167 HD
ATOM     47  C   UNL A   1      40.096  32.019  35.310  1.00  0.00     0.034 A 
ATOM     48  C   UNL A   1      40.983  28.475  29.316  1.00  0.00     0.034 A 
ATOM     49  C   UNL A   1      41.116  31.009  35.343  1.00  0.00     0.049 A 
ATOM     50  C   UNL A   1      41.851  28.231  30.521  1.00  0.00     0.074 A 
ATOM     51  C   UNL A   1      41.931  30.645  36.400  1.00  0.00     0.029 A 
ATOM     52  N   UNL A   1      41.461  30.200  34.272  1.00  0.00    -0.354 N 
ATOM     53  N   UNL A   1      41.763  28.754  31.720  1.00  0.00    -0.248 NA
ATOM     54  C   UNL A   1      42.938  27.252  30.372  1.00  0.00     0.031 C 
ATOM     55  C   UNL A   1      42.783  29.627  35.960  1.00  0.00     0.029 A 
ATOM     56  C   UNL A   1      42.485  29.343  34.636  1.00  0.00     0.049 A 
ATOM     57  H   UNL A   1      41.040  30.229  33.382  1.00  0.00     0.167 HD
ATOM     58  C   UNL A   1      42.763  28.152  32.476  1.00  0.00     0.074 A 
ATOM     59  C   UNL A   1      43.432  27.208  31.604  1.00  0.00     0.031 C 
ATOM     60  C   UNL A   1      43.108  28.375  33.768  1.00  0.00     0.034 A 
BRANCH  47  61
ATOM     61  C   UNL A   1      39.821  32.808  36.565  1.00  0.00     0.023 A 
ATOM     62  C   UNL A   1      40.506  34.024  36.774  1.00  0.00     0.012 A 
ATOM     63  C   UNL A   1      38.862  32.388  37.507  1.00  0.00     0.148 A 
ATOM     64  C   UNL A   1      40.273  34.789  37.915  1.00  0.00     0.002 A 
ATOM     65  C   UNL A   1      38.600  33.182  38.619  1.00  0.00     0.091 A 
ATOM     66  F   UNL A   1      38.234  31.222  37.306  1.00  0.00    -0.205 F 
ATOM     67  C   UNL A   1      39.314  34.373  38.831  1.00  0.00     0.022 A 
BRANCH  65  68
ATOM     68  S   UNL A   1      37.326  32.780  39.821  1.00  0.00     0.127 S 
ATOM     69  O   UNL A   1      37.815  31.511  40.356  1.00  0.00    -0.237 OA
ATOM     70  O   UNL A   1      37.413  33.907  40.750  1.00  0.00    -0.237 OA
ATOM     71  O   UNL A   1      36.079  32.704  39.074  1.00  0.00    -0.744 OA
ENDBRANCH  65  68
ENDBRANCH  47  61
BRANCH  48  72
ATOM     72  C   UNL A   1      41.133  27.662  28.075  1.00  0.00     0.023 A 
ATOM     73  C   UNL A   1      41.704  28.261  26.935  1.00  0.00     0.012 A 
ATOM     74  C   UNL A   1      40.790  26.296  28.032  1.00  0.00     0.148 A 
ATOM     75  C   UNL A   1      41.918  27.522  25.772  1.00  0.00     0.002 A 
ATOM     76  C   UNL A   1      41.055  25.551  26.888  1.00  0.00     0.091 A 
ATOM     77  F   UNL A   1      40.242  25.746  29.126  1.00  0.00    -0.205 F 
ATOM     78  C   UNL A   1      41.606  26.165  25.752  1.00  0.00     0.022 A 
BRANCH  76  79
ATOM     79  S   UNL A   1      40.812  23.773  26.808  1.00  0.00     0.127 S 
ATOM     80  O   UNL A   1      39.390  23.679  26.483  1.00  0.00    -0.237 OA
ATOM     81  O   UNL A   1      41.719  23.397  25.723  1.00  0.00    -0.237 OA
ATOM     82  O   UNL A   1      41.191  23.262  28.118  1.00  0.00    -0.744 OA
ENDBRANCH  76  79
ENDBRANCH  48  72
BRANCH  60  83
ATOM     83  C   UNL A   1      44.261  27.594  34.341  1.00  0.00     0.023 A 
ATOM     84  C   UNL A   1      45.563  28.125  34.259  1.00  0.00     0.012 A 
ATOM     85  C   UNL A   1      44.038  26.419  35.087  1.00  0.00     0.148 A 
ATOM     86  C   UNL A   1      46.628  27.493  34.899  1.00  0.00     0.002 A 
ATOM     87  C   UNL A   1      45.095  25.823  35.764  1.00  0.00     0.091 A 
ATOM     88  F   UNL A   1      42.792  25.925  35.142  1.00  0.00    -0.205 F 
ATOM     89  C   UNL A   1      46.391  26.353  35.664  1.00  0.00     0.022 A 
BRANCH  87  90
ATOM     90  S   UNL A   1      44.875  24.417  36.861  1.00  0.00     0.127 S 
ATOM     91  O   UNL A   1      44.425  23.381  35.933  1.00  0.00    -0.237 OA
ATOM     92  O   UNL A   1      46.227  24.221  37.384  1.00  0.00    -0.237 OA
ATOM     93  O   UNL A   1      43.891  24.827  37.855  1.00  0.00    -0.744 OA
ENDBRANCH  87  90
ENDBRANCH  60  83
ENDBRANCH  34  35
ENDBRANCH  26  29
ENDBRANCH   1  25
TORSDOF 14
ENDMDL
