MODEL 1
REMARK VINA RESULT:     -12.0      0.000      0.000
REMARK SMILES Cc1cc(C)c2c(=O)n(CCCC(=O)NCCCNC(=O)c3ccc(-c4c5nc(c(-c6cccc(S(=O)(=O)[O-])c6F)c6ccc([nH]6)c(-c6cccc(S(=O)(=O)[O-])c6F)c6nc(c(-c7cccc(S(=O)(=O)[O-])c7F)c7ccc4[nH]7)C=C6)C=C5)cc3)sc2n1
REMARK SMILES IDX 17 1 16 2 15 3 13 4 14 5 12 7 11 8 10 9 9 10 1 11 2 12 3 13
REMARK SMILES IDX 87 14 4 15 86 16 5 17 6 18 85 19 7 20 8 21 18 22 19 23 20 24
REMARK SMILES IDX 21 26 22 27 23 28 84 29 24 30 83 31 25 32 26 33 27 34 77 35
REMARK SMILES IDX 28 36 82 37 76 38 78 39 29 40 81 41 75 42 74 43 30 45 62 46
REMARK SMILES IDX 42 47 61 48 43 49 46 50 60 51 79 52 44 53 45 54 59 56 80 57
REMARK SMILES IDX 47 58 31 59 32 60 40 61 33 62 35 63 41 64 34 65 36 66 37 67
REMARK SMILES IDX 38 68 39 69 63 70 64 71 72 72 65 73 67 74 73 75 66 76 68 77
REMARK SMILES IDX 69 78 70 79 71 80 48 81 49 82 57 83 50 84 52 85 58 86 51 87
REMARK SMILES IDX 53 88 54 89 55 90 56 91
REMARK H PARENT 15 6 19 25 78 44 46 55
REMARK Flexibility Score: inf
ROOT
ATOM      1  C   UNL A   1      37.866  20.020  25.044  1.00  0.00     0.042 C 
ENDROOT
BRANCH   1   2
ATOM      2  C   UNL A   1      36.754  21.043  25.291  1.00  0.00     0.117 C 
BRANCH   2   3
ATOM      3  N   UNL A   1      36.475  21.843  24.115  1.00  0.00    -0.356 N 
ATOM      4  C   UNL A   1      36.138  23.152  23.983  1.00  0.00     0.220 C 
ATOM      5  O   UNL A   1      36.036  23.606  22.842  1.00  0.00    -0.275 OA
ATOM      6  H   UNL A   1      36.541  21.352  23.264  1.00  0.00     0.163 HD
BRANCH   4   7
ATOM      7  C   UNL A   1      36.006  24.077  25.173  1.00  0.00     0.102 C 
BRANCH   7   8
ATOM      8  C   UNL A   1      34.784  24.994  25.287  1.00  0.00     0.033 C 
BRANCH   8   9
ATOM      9  C   UNL A   1      33.422  24.466  25.754  1.00  0.00     0.139 C 
BRANCH   9  10
ATOM     10  N   UNL A   1      33.012  23.092  25.510  1.00  0.00    -0.262 N 
ATOM     11  C   UNL A   1      33.068  17.009  24.962  1.00  0.00     0.067 C 
ATOM     12  C   UNL A   1      32.873  18.466  24.673  1.00  0.00     0.039 A 
ATOM     13  C   UNL A   1      32.477  18.914  23.405  1.00  0.00     0.027 A 
ATOM     14  N   UNL A   1      33.083  19.306  25.711  1.00  0.00    -0.241 NA
ATOM     15  C   UNL A   1      32.332  20.290  23.159  1.00  0.00    -0.033 A 
ATOM     16  C   UNL A   1      32.945  20.616  25.441  1.00  0.00     0.146 A 
ATOM     17  C   UNL A   1      31.805  20.787  21.849  1.00  0.00     0.045 C 
ATOM     18  C   UNL A   1      32.646  21.150  24.204  1.00  0.00     0.081 A 
ATOM     19  S   UNL A   1      33.012  21.861  26.693  1.00  0.00    -0.035 S 
ATOM     20  C   UNL A   1      32.739  22.630  24.217  1.00  0.00     0.270 A 
ATOM     21  O   UNL A   1      32.662  23.302  23.209  1.00  0.00    -0.268 OA
ENDBRANCH   9  10
ENDBRANCH   8   9
ENDBRANCH   7   8
ENDBRANCH   4   7
ENDBRANCH   2   3
ENDBRANCH   1   2
BRANCH   1  22
ATOM     22  C   UNL A   1      39.160  20.393  25.728  1.00  0.00     0.118 C 
BRANCH  22  23
ATOM     23  N   UNL A   1      40.123  19.286  25.814  1.00  0.00    -0.352 N 
ATOM     24  C   UNL A   1      41.495  19.399  25.994  1.00  0.00     0.251 C 
ATOM     25  H   UNL A   1      39.758  18.374  25.737  1.00  0.00     0.163 HD
ATOM     26  O   UNL A   1      42.258  18.478  25.733  1.00  0.00    -0.269 OA
BRANCH  24  27
ATOM     27  C   UNL A   1      41.992  20.676  26.532  1.00  0.00     0.039 A 
ATOM     28  C   UNL A   1      42.429  21.731  25.727  1.00  0.00     0.014 A 
ATOM     29  C   UNL A   1      41.855  20.830  27.904  1.00  0.00     0.014 A 
ATOM     30  C   UNL A   1      42.639  22.972  26.327  1.00  0.00     0.010 A 
ATOM     31  C   UNL A   1      41.778  22.089  28.414  1.00  0.00     0.010 A 
ATOM     32  C   UNL A   1      42.286  23.143  27.674  1.00  0.00    -0.014 A 
BRANCH  32  33
ATOM     33  C   UNL A   1      42.377  24.422  28.360  1.00  0.00     0.031 A 
ATOM     34  C   UNL A   1      41.210  25.321  28.165  1.00  0.00     0.074 A 
ATOM     35  C   UNL A   1      43.338  24.660  29.282  1.00  0.00     0.049 A 
ATOM     36  N   UNL A   1      41.183  26.428  27.500  1.00  0.00    -0.248 NA
ATOM     37  C   UNL A   1      39.888  24.874  28.631  1.00  0.00     0.031 C 
ATOM     38  C   UNL A   1      44.350  23.734  29.822  1.00  0.00     0.029 A 
ATOM     39  N   UNL A   1      43.519  25.758  30.055  1.00  0.00    -0.354 N 
ATOM     40  C   UNL A   1      39.896  26.935  27.663  1.00  0.00     0.074 A 
ATOM     41  C   UNL A   1      39.099  25.854  28.182  1.00  0.00     0.031 C 
ATOM     42  C   UNL A   1      44.827  24.211  30.993  1.00  0.00     0.029 A 
ATOM     43  C   UNL A   1      44.318  25.553  31.176  1.00  0.00     0.049 A 
ATOM     44  H   UNL A   1      43.116  26.631  29.841  1.00  0.00     0.167 HD
ATOM     45  C   UNL A   1      39.645  28.271  27.577  1.00  0.00     0.034 A 
ATOM     46  C   UNL A   1      44.510  26.425  32.196  1.00  0.00     0.034 A 
ATOM     47  C   UNL A   1      40.781  28.984  27.050  1.00  0.00     0.049 A 
ATOM     48  C   UNL A   1      44.145  27.763  31.678  1.00  0.00     0.074 A 
ATOM     49  C   UNL A   1      41.482  28.956  25.861  1.00  0.00     0.029 A 
ATOM     50  N   UNL A   1      41.613  29.581  27.968  1.00  0.00    -0.354 N 
ATOM     51  N   UNL A   1      44.798  28.364  30.721  1.00  0.00    -0.248 NA
ATOM     52  C   UNL A   1      42.784  28.220  31.898  1.00  0.00     0.031 C 
ATOM     53  C   UNL A   1      42.849  29.086  26.243  1.00  0.00     0.029 A 
ATOM     54  C   UNL A   1      42.903  29.265  27.628  1.00  0.00     0.049 A 
ATOM     55  H   UNL A   1      41.333  30.135  28.732  1.00  0.00     0.167 HD
ATOM     56  C   UNL A   1      43.805  28.928  29.931  1.00  0.00     0.074 A 
ATOM     57  C   UNL A   1      42.597  28.894  30.758  1.00  0.00     0.031 C 
ATOM     58  C   UNL A   1      43.976  29.092  28.586  1.00  0.00     0.034 A 
BRANCH  45  59
ATOM     59  C   UNL A   1      38.515  28.996  28.261  1.00  0.00     0.023 A 
ATOM     60  C   UNL A   1      37.626  29.735  27.448  1.00  0.00     0.012 A 
ATOM     61  C   UNL A   1      38.419  29.189  29.657  1.00  0.00     0.148 A 
ATOM     62  C   UNL A   1      36.707  30.637  27.996  1.00  0.00     0.002 A 
ATOM     63  C   UNL A   1      37.449  30.023  30.203  1.00  0.00     0.091 A 
ATOM     64  F   UNL A   1      39.348  28.668  30.464  1.00  0.00    -0.205 F 
ATOM     65  C   UNL A   1      36.610  30.773  29.375  1.00  0.00     0.022 A 
BRANCH  63  66
ATOM     66  S   UNL A   1      37.232  30.194  31.979  1.00  0.00     0.127 S 
ATOM     67  O   UNL A   1      37.090  28.802  32.393  1.00  0.00    -0.237 OA
ATOM     68  O   UNL A   1      38.490  30.833  32.370  1.00  0.00    -0.237 OA
ATOM     69  O   UNL A   1      36.057  31.036  32.149  1.00  0.00    -0.744 OA
ENDBRANCH  63  66
ENDBRANCH  45  59
BRANCH  46  70
ATOM     70  C   UNL A   1      44.672  26.170  33.648  1.00  0.00     0.023 A 
ATOM     71  C   UNL A   1      45.923  26.404  34.253  1.00  0.00     0.012 A 
ATOM     72  C   UNL A   1      43.543  26.025  34.484  1.00  0.00     0.148 A 
ATOM     73  C   UNL A   1      46.040  26.543  35.641  1.00  0.00     0.002 A 
ATOM     74  C   UNL A   1      43.663  26.175  35.863  1.00  0.00     0.091 A 
ATOM     75  F   UNL A   1      42.342  25.839  33.918  1.00  0.00    -0.205 F 
ATOM     76  C   UNL A   1      44.908  26.447  36.445  1.00  0.00     0.022 A 
BRANCH  74  77
ATOM     77  S   UNL A   1      42.242  26.130  36.965  1.00  0.00     0.127 S 
ATOM     78  O   UNL A   1      41.416  27.215  36.434  1.00  0.00    -0.237 OA
ATOM     79  O   UNL A   1      41.719  24.787  36.723  1.00  0.00    -0.237 OA
ATOM     80  O   UNL A   1      42.772  26.371  38.300  1.00  0.00    -0.744 OA
ENDBRANCH  74  77
ENDBRANCH  46  70
BRANCH  58  81
ATOM     81  C   UNL A   1      45.349  28.832  28.003  1.00  0.00     0.023 A 
ATOM     82  C   UNL A   1      46.407  29.762  28.106  1.00  0.00     0.012 A 
ATOM     83  C   UNL A   1      45.632  27.543  27.525  1.00  0.00     0.148 A 
ATOM     84  C   UNL A   1      47.710  29.416  27.731  1.00  0.00     0.002 A 
ATOM     85  C   UNL A   1      46.936  27.186  27.202  1.00  0.00     0.091 A 
ATOM     86  F   UNL A   1      44.618  26.668  27.432  1.00  0.00    -0.205 F 
ATOM     87  C   UNL A   1      47.978  28.121  27.294  1.00  0.00     0.022 A 
BRANCH  85  88
ATOM     88  S   UNL A   1      47.367  25.498  26.771  1.00  0.00     0.127 S 
ATOM     89  O   UNL A   1      46.579  25.282  25.559  1.00  0.00    -0.237 OA
ATOM     90  O   UNL A   1      48.812  25.590  26.553  1.00  0.00    -0.237 OA
ATOM     91  O   UNL A   1      46.990  24.681  27.918  1.00  0.00    -0.744 OA
ENDBRANCH  85  88
ENDBRANCH  58  81
ENDBRANCH  32  33
ENDBRANCH  24  27
ENDBRANCH  22  23
ENDBRANCH   1  22
TORSDOF 16
ENDMDL
MODEL 2
REMARK VINA RESULT:     -11.9      2.249      3.444
REMARK SMILES Cc1cc(C)c2c(=O)n(CCCC(=O)NCCCNC(=O)c3ccc(-c4c5nc(c(-c6cccc(S(=O)(=O)[O-])c6F)c6ccc([nH]6)c(-c6cccc(S(=O)(=O)[O-])c6F)c6nc(c(-c7cccc(S(=O)(=O)[O-])c7F)c7ccc4[nH]7)C=C6)C=C5)cc3)sc2n1
REMARK SMILES IDX 17 1 16 2 15 3 13 4 14 5 12 7 11 8 10 9 9 10 1 11 2 12 3 13
REMARK SMILES IDX 87 14 4 15 86 16 5 17 6 18 85 19 7 20 8 21 18 22 19 23 20 24
REMARK SMILES IDX 21 26 22 27 23 28 84 29 24 30 83 31 25 32 26 33 27 34 77 35
REMARK SMILES IDX 28 36 82 37 76 38 78 39 29 40 81 41 75 42 74 43 30 45 62 46
REMARK SMILES IDX 42 47 61 48 43 49 46 50 60 51 79 52 44 53 45 54 59 56 80 57
REMARK SMILES IDX 47 58 31 59 32 60 40 61 33 62 35 63 41 64 34 65 36 66 37 67
REMARK SMILES IDX 38 68 39 69 63 70 64 71 72 72 65 73 67 74 73 75 66 76 68 77
REMARK SMILES IDX 69 78 70 79 71 80 48 81 49 82 57 83 50 84 52 85 58 86 51 87
REMARK SMILES IDX 53 88 54 89 55 90 56 91
REMARK H PARENT 15 6 19 25 78 44 46 55
REMARK Flexibility Score: inf
ROOT
ATOM      1  C   UNL A   1      37.762  20.132  25.074  1.00  0.00     0.042 C 
ENDROOT
BRANCH   1   2
ATOM      2  C   UNL A   1      36.874  21.353  24.818  1.00  0.00     0.117 C 
BRANCH   2   3
ATOM      3  N   UNL A   1      36.073  21.699  25.976  1.00  0.00    -0.356 N 
ATOM      4  C   UNL A   1      35.384  22.829  26.281  1.00  0.00     0.220 C 
ATOM      5  O   UNL A   1      34.709  22.828  27.311  1.00  0.00    -0.275 OA
ATOM      6  H   UNL A   1      36.020  20.993  26.659  1.00  0.00     0.163 HD
BRANCH   4   7
ATOM      7  C   UNL A   1      35.329  24.019  25.348  1.00  0.00     0.102 C 
BRANCH   7   8
ATOM      8  C   UNL A   1      34.216  24.108  24.298  1.00  0.00     0.033 C 
BRANCH   8   9
ATOM      9  C   UNL A   1      34.061  25.336  23.393  1.00  0.00     0.139 C 
BRANCH   9  10
ATOM     10  N   UNL A   1      32.866  26.165  23.429  1.00  0.00    -0.262 N 
ATOM     11  C   UNL A   1      28.435  30.065  21.859  1.00  0.00     0.067 C 
ATOM     12  C   UNL A   1      29.536  29.384  22.614  1.00  0.00     0.039 A 
ATOM     13  C   UNL A   1      30.082  29.948  23.776  1.00  0.00     0.027 A 
ATOM     14  N   UNL A   1      29.947  28.198  22.115  1.00  0.00    -0.241 NA
ATOM     15  C   UNL A   1      31.135  29.298  24.444  1.00  0.00    -0.033 A 
ATOM     16  C   UNL A   1      30.961  27.607  22.771  1.00  0.00     0.146 A 
ATOM     17  C   UNL A   1      31.661  29.820  25.745  1.00  0.00     0.045 C 
ATOM     18  C   UNL A   1      31.617  28.130  23.867  1.00  0.00     0.081 A 
ATOM     19  S   UNL A   1      31.531  25.980  22.381  1.00  0.00    -0.035 S 
ATOM     20  C   UNL A   1      32.794  27.307  24.237  1.00  0.00     0.270 A 
ATOM     21  O   UNL A   1      33.601  27.654  25.075  1.00  0.00    -0.268 OA
ENDBRANCH   9  10
ENDBRANCH   8   9
ENDBRANCH   7   8
ENDBRANCH   4   7
ENDBRANCH   2   3
ENDBRANCH   1   2
BRANCH   1  22
ATOM     22  C   UNL A   1      39.092  20.500  25.687  1.00  0.00     0.118 C 
BRANCH  22  23
ATOM     23  N   UNL A   1      40.025  19.370  25.797  1.00  0.00    -0.352 N 
ATOM     24  C   UNL A   1      41.395  19.450  26.011  1.00  0.00     0.251 C 
ATOM     25  H   UNL A   1      39.641  18.468  25.711  1.00  0.00     0.163 HD
ATOM     26  O   UNL A   1      42.141  18.510  25.769  1.00  0.00    -0.269 OA
BRANCH  24  27
ATOM     27  C   UNL A   1      41.909  20.714  26.562  1.00  0.00     0.039 A 
ATOM     28  C   UNL A   1      42.402  21.754  25.769  1.00  0.00     0.014 A 
ATOM     29  C   UNL A   1      41.730  20.876  27.929  1.00  0.00     0.014 A 
ATOM     30  C   UNL A   1      42.627  22.991  26.373  1.00  0.00     0.010 A 
ATOM     31  C   UNL A   1      41.672  22.139  28.433  1.00  0.00     0.010 A 
ATOM     32  C   UNL A   1      42.233  23.176  27.707  1.00  0.00    -0.014 A 
BRANCH  32  33
ATOM     33  C   UNL A   1      42.337  24.454  28.393  1.00  0.00     0.031 A 
ATOM     34  C   UNL A   1      41.178  25.364  28.200  1.00  0.00     0.074 A 
ATOM     35  C   UNL A   1      43.303  24.684  29.313  1.00  0.00     0.049 A 
ATOM     36  N   UNL A   1      41.158  26.470  27.535  1.00  0.00    -0.248 NA
ATOM     37  C   UNL A   1      39.853  24.928  28.670  1.00  0.00     0.031 C 
ATOM     38  C   UNL A   1      44.308  23.750  29.850  1.00  0.00     0.029 A 
ATOM     39  N   UNL A   1      43.495  25.781  30.085  1.00  0.00    -0.354 N 
ATOM     40  C   UNL A   1      39.877  26.989  27.701  1.00  0.00     0.074 A 
ATOM     41  C   UNL A   1      39.072  25.915  28.222  1.00  0.00     0.031 C 
ATOM     42  C   UNL A   1      44.792  24.223  31.020  1.00  0.00     0.029 A 
ATOM     43  C   UNL A   1      44.295  25.569  31.203  1.00  0.00     0.049 A 
ATOM     44  H   UNL A   1      43.100  26.657  29.871  1.00  0.00     0.167 HD
ATOM     45  C   UNL A   1      39.637  28.327  27.615  1.00  0.00     0.034 A 
ATOM     46  C   UNL A   1      44.497  26.439  32.223  1.00  0.00     0.034 A 
ATOM     47  C   UNL A   1      40.778  29.030  27.086  1.00  0.00     0.049 A 
ATOM     48  C   UNL A   1      44.143  27.781  31.705  1.00  0.00     0.074 A 
ATOM     49  C   UNL A   1      41.476  28.995  25.894  1.00  0.00     0.029 A 
ATOM     50  N   UNL A   1      41.618  29.620  28.001  1.00  0.00    -0.354 N 
ATOM     51  N   UNL A   1      44.799  28.376  30.747  1.00  0.00    -0.248 NA
ATOM     52  C   UNL A   1      42.786  28.250  31.928  1.00  0.00     0.031 C 
ATOM     53  C   UNL A   1      42.845  29.114  26.273  1.00  0.00     0.029 A 
ATOM     54  C   UNL A   1      42.904  29.292  27.658  1.00  0.00     0.049 A 
ATOM     55  H   UNL A   1      41.344  30.176  28.765  1.00  0.00     0.167 HD
ATOM     56  C   UNL A   1      43.808  28.948  29.959  1.00  0.00     0.074 A 
ATOM     57  C   UNL A   1      42.603  28.925  30.789  1.00  0.00     0.031 C 
ATOM     58  C   UNL A   1      43.978  29.110  28.613  1.00  0.00     0.034 A 
BRANCH  45  59
ATOM     59  C   UNL A   1      38.515  29.062  28.301  1.00  0.00     0.023 A 
ATOM     60  C   UNL A   1      37.647  29.830  27.494  1.00  0.00     0.012 A 
ATOM     61  C   UNL A   1      38.412  29.235  29.700  1.00  0.00     0.148 A 
ATOM     62  C   UNL A   1      36.740  30.740  28.048  1.00  0.00     0.002 A 
ATOM     63  C   UNL A   1      37.453  30.078  30.251  1.00  0.00     0.091 A 
ATOM     64  F   UNL A   1      39.324  28.684  30.506  1.00  0.00    -0.205 F 
ATOM     65  C   UNL A   1      36.634  30.856  29.428  1.00  0.00     0.022 A 
BRANCH  63  66
ATOM     66  S   UNL A   1      37.225  30.226  32.027  1.00  0.00     0.127 S 
ATOM     67  O   UNL A   1      38.451  30.910  32.426  1.00  0.00    -0.237 OA
ATOM     68  O   UNL A   1      36.009  31.037  32.103  1.00  0.00    -0.237 OA
ATOM     69  O   UNL A   1      37.064  28.863  32.515  1.00  0.00    -0.744 OA
ENDBRANCH  63  66
ENDBRANCH  45  59
BRANCH  46  70
ATOM     70  C   UNL A   1      44.661  26.184  33.674  1.00  0.00     0.023 A 
ATOM     71  C   UNL A   1      45.919  26.393  34.273  1.00  0.00     0.012 A 
ATOM     72  C   UNL A   1      43.532  26.063  34.515  1.00  0.00     0.148 A 
ATOM     73  C   UNL A   1      46.045  26.532  35.661  1.00  0.00     0.002 A 
ATOM     74  C   UNL A   1      43.662  26.212  35.894  1.00  0.00     0.091 A 
ATOM     75  F   UNL A   1      42.326  25.900  33.956  1.00  0.00    -0.205 F 
ATOM     76  C   UNL A   1      44.915  26.460  36.470  1.00  0.00     0.022 A 
BRANCH  74  77
ATOM     77  S   UNL A   1      42.245  26.198  37.002  1.00  0.00     0.127 S 
ATOM     78  O   UNL A   1      41.732  24.841  36.817  1.00  0.00    -0.237 OA
ATOM     79  O   UNL A   1      42.876  26.444  38.297  1.00  0.00    -0.237 OA
ATOM     80  O   UNL A   1      41.360  27.250  36.521  1.00  0.00    -0.744 OA
ENDBRANCH  74  77
ENDBRANCH  46  70
BRANCH  58  81
ATOM     81  C   UNL A   1      45.347  28.838  28.027  1.00  0.00     0.023 A 
ATOM     82  C   UNL A   1      46.414  29.758  28.129  1.00  0.00     0.012 A 
ATOM     83  C   UNL A   1      45.616  27.547  27.546  1.00  0.00     0.148 A 
ATOM     84  C   UNL A   1      47.713  29.400  27.752  1.00  0.00     0.002 A 
ATOM     85  C   UNL A   1      46.917  27.178  27.220  1.00  0.00     0.091 A 
ATOM     86  F   UNL A   1      44.595  26.682  27.454  1.00  0.00    -0.205 F 
ATOM     87  C   UNL A   1      47.967  28.104  27.312  1.00  0.00     0.022 A 
BRANCH  85  88
ATOM     88  S   UNL A   1      47.331  25.487  26.785  1.00  0.00     0.127 S 
ATOM     89  O   UNL A   1      46.693  25.343  25.478  1.00  0.00    -0.237 OA
ATOM     90  O   UNL A   1      48.794  25.522  26.752  1.00  0.00    -0.237 OA
ATOM     91  O   UNL A   1      46.780  24.653  27.846  1.00  0.00    -0.744 OA
ENDBRANCH  85  88
ENDBRANCH  58  81
ENDBRANCH  32  33
ENDBRANCH  24  27
ENDBRANCH  22  23
ENDBRANCH   1  22
TORSDOF 16
ENDMDL
MODEL 3
REMARK VINA RESULT:     -11.6      5.021     10.050
REMARK SMILES Cc1cc(C)c2c(=O)n(CCCC(=O)NCCCNC(=O)c3ccc(-c4c5nc(c(-c6cccc(S(=O)(=O)[O-])c6F)c6ccc([nH]6)c(-c6cccc(S(=O)(=O)[O-])c6F)c6nc(c(-c7cccc(S(=O)(=O)[O-])c7F)c7ccc4[nH]7)C=C6)C=C5)cc3)sc2n1
REMARK SMILES IDX 17 1 16 2 15 3 13 4 14 5 12 7 11 8 10 9 9 10 1 11 2 12 3 13
REMARK SMILES IDX 87 14 4 15 86 16 5 17 6 18 85 19 7 20 8 21 18 22 19 23 20 24
REMARK SMILES IDX 21 26 22 27 23 28 84 29 24 30 83 31 25 32 26 33 27 34 77 35
REMARK SMILES IDX 28 36 82 37 76 38 78 39 29 40 81 41 75 42 74 43 30 45 62 46
REMARK SMILES IDX 42 47 61 48 43 49 46 50 60 51 79 52 44 53 45 54 59 56 80 57
REMARK SMILES IDX 47 58 31 59 32 60 40 61 33 62 35 63 41 64 34 65 36 66 37 67
REMARK SMILES IDX 38 68 39 69 63 70 64 71 72 72 65 73 67 74 73 75 66 76 68 77
REMARK SMILES IDX 69 78 70 79 71 80 48 81 49 82 57 83 50 84 52 85 58 86 51 87
REMARK SMILES IDX 53 88 54 89 55 90 56 91
REMARK H PARENT 15 6 19 25 78 44 46 55
REMARK Flexibility Score: inf
ROOT
ATOM      1  C   UNL A   1      31.645  31.871  26.571  1.00  0.00     0.042 C 
ENDROOT
BRANCH   1   2
ATOM      2  C   UNL A   1      31.826  30.352  26.498  1.00  0.00     0.117 C 
BRANCH   2   3
ATOM      3  N   UNL A   1      33.166  29.943  26.869  1.00  0.00    -0.356 N 
ATOM      4  C   UNL A   1      33.739  28.713  26.935  1.00  0.00     0.220 C 
ATOM      5  O   UNL A   1      34.940  28.654  27.206  1.00  0.00    -0.275 OA
ATOM      6  H   UNL A   1      33.764  30.684  27.117  1.00  0.00     0.163 HD
BRANCH   4   7
ATOM      7  C   UNL A   1      32.988  27.450  26.574  1.00  0.00     0.102 C 
BRANCH   7   8
ATOM      8  C   UNL A   1      33.273  26.755  25.238  1.00  0.00     0.033 C 
BRANCH   8   9
ATOM      9  C   UNL A   1      32.156  26.093  24.422  1.00  0.00     0.139 C 
BRANCH   9  10
ATOM     10  N   UNL A   1      31.233  26.877  23.615  1.00  0.00    -0.262 N 
ATOM     11  C   UNL A   1      28.351  31.568  20.969  1.00  0.00     0.067 C 
ATOM     12  C   UNL A   1      28.623  30.302  21.724  1.00  0.00     0.039 A 
ATOM     13  C   UNL A   1      27.604  29.626  22.409  1.00  0.00     0.027 A 
ATOM     14  N   UNL A   1      29.898  29.853  21.682  1.00  0.00    -0.241 NA
ATOM     15  C   UNL A   1      27.900  28.457  23.132  1.00  0.00    -0.033 A 
ATOM     16  C   UNL A   1      30.149  28.740  22.391  1.00  0.00     0.146 A 
ATOM     17  C   UNL A   1      26.813  27.657  23.780  1.00  0.00     0.045 C 
ATOM     18  C   UNL A   1      29.231  28.060  23.165  1.00  0.00     0.081 A 
ATOM     19  S   UNL A   1      31.704  27.901  22.332  1.00  0.00    -0.035 S 
ATOM     20  C   UNL A   1      29.877  26.978  23.947  1.00  0.00     0.270 A 
ATOM     21  O   UNL A   1      29.293  26.348  24.804  1.00  0.00    -0.268 OA
ENDBRANCH   9  10
ENDBRANCH   8   9
ENDBRANCH   7   8
ENDBRANCH   4   7
ENDBRANCH   2   3
ENDBRANCH   1   2
BRANCH   1  22
ATOM     22  C   UNL A   1      32.756  32.552  27.334  1.00  0.00     0.118 C 
BRANCH  22  23
ATOM     23  N   UNL A   1      32.471  33.955  27.667  1.00  0.00    -0.352 N 
ATOM     24  C   UNL A   1      33.054  34.694  28.688  1.00  0.00     0.251 C 
ATOM     25  H   UNL A   1      31.801  34.415  27.112  1.00  0.00     0.163 HD
ATOM     26  O   UNL A   1      32.545  35.725  29.108  1.00  0.00    -0.269 OA
BRANCH  24  27
ATOM     27  C   UNL A   1      34.325  34.190  29.232  1.00  0.00     0.039 A 
ATOM     28  C   UNL A   1      34.401  33.218  30.233  1.00  0.00     0.014 A 
ATOM     29  C   UNL A   1      35.464  34.632  28.573  1.00  0.00     0.014 A 
ATOM     30  C   UNL A   1      35.643  32.639  30.493  1.00  0.00     0.010 A 
ATOM     31  C   UNL A   1      36.587  33.866  28.627  1.00  0.00     0.010 A 
ATOM     32  C   UNL A   1      36.727  32.957  29.662  1.00  0.00    -0.014 A 
BRANCH  32  33
ATOM     33  C   UNL A   1      38.034  32.333  29.792  1.00  0.00     0.031 A 
ATOM     34  C   UNL A   1      38.127  30.955  29.243  1.00  0.00     0.074 A 
ATOM     35  C   UNL A   1      39.122  33.046  30.169  1.00  0.00     0.049 A 
ATOM     36  N   UNL A   1      38.269  29.859  29.911  1.00  0.00    -0.248 NA
ATOM     37  C   UNL A   1      37.888  30.750  27.806  1.00  0.00     0.031 C 
ATOM     38  C   UNL A   1      39.238  34.495  30.411  1.00  0.00     0.029 A 
ATOM     39  N   UNL A   1      40.410  32.638  30.269  1.00  0.00    -0.354 N 
ATOM     40  C   UNL A   1      38.373  28.848  28.959  1.00  0.00     0.074 A 
ATOM     41  C   UNL A   1      37.929  29.418  27.714  1.00  0.00     0.031 C 
ATOM     42  C   UNL A   1      40.535  34.865  30.348  1.00  0.00     0.029 A 
ATOM     43  C   UNL A   1      41.345  33.669  30.275  1.00  0.00     0.049 A 
ATOM     44  H   UNL A   1      40.664  31.689  30.333  1.00  0.00     0.167 HD
ATOM     45  C   UNL A   1      39.037  27.689  29.226  1.00  0.00     0.034 A 
ATOM     46  C   UNL A   1      42.691  33.533  30.186  1.00  0.00     0.034 A 
ATOM     47  C   UNL A   1      39.342  27.573  30.630  1.00  0.00     0.049 A 
ATOM     48  C   UNL A   1      42.998  32.139  30.583  1.00  0.00     0.074 A 
ATOM     49  C   UNL A   1      38.591  27.504  31.787  1.00  0.00     0.029 A 
ATOM     50  N   UNL A   1      40.607  27.948  31.019  1.00  0.00    -0.354 N 
ATOM     51  N   UNL A   1      42.786  31.672  31.782  1.00  0.00    -0.248 NA
ATOM     52  C   UNL A   1      43.097  31.147  29.527  1.00  0.00     0.031 C 
ATOM     53  C   UNL A   1      39.303  28.304  32.728  1.00  0.00     0.029 A 
ATOM     54  C   UNL A   1      40.481  28.749  32.124  1.00  0.00     0.049 A 
ATOM     55  H   UNL A   1      41.450  27.688  30.583  1.00  0.00     0.167 HD
ATOM     56  C   UNL A   1      42.268  30.401  31.568  1.00  0.00     0.074 A 
ATOM     57  C   UNL A   1      42.579  30.096  30.170  1.00  0.00     0.031 C 
ATOM     58  C   UNL A   1      41.379  29.841  32.441  1.00  0.00     0.034 A 
BRANCH  45  59
ATOM     59  C   UNL A   1      39.708  26.808  28.205  1.00  0.00     0.023 A 
ATOM     60  C   UNL A   1      39.376  25.435  28.207  1.00  0.00     0.012 A 
ATOM     61  C   UNL A   1      40.811  27.200  27.413  1.00  0.00     0.148 A 
ATOM     62  C   UNL A   1      40.117  24.498  27.479  1.00  0.00     0.002 A 
ATOM     63  C   UNL A   1      41.495  26.280  26.626  1.00  0.00     0.091 A 
ATOM     64  F   UNL A   1      41.291  28.443  27.513  1.00  0.00    -0.205 F 
ATOM     65  C   UNL A   1      41.170  24.921  26.678  1.00  0.00     0.022 A 
BRANCH  63  66
ATOM     66  S   UNL A   1      42.824  26.774  25.523  1.00  0.00     0.127 S 
ATOM     67  O   UNL A   1      43.857  27.181  26.470  1.00  0.00    -0.237 OA
ATOM     68  O   UNL A   1      43.095  25.526  24.808  1.00  0.00    -0.237 OA
ATOM     69  O   UNL A   1      42.267  27.831  24.689  1.00  0.00    -0.744 OA
ENDBRANCH  63  66
ENDBRANCH  45  59
BRANCH  46  70
ATOM     70  C   UNL A   1      43.691  34.384  29.497  1.00  0.00     0.023 A 
ATOM     71  C   UNL A   1      44.573  35.169  30.265  1.00  0.00     0.012 A 
ATOM     72  C   UNL A   1      43.997  34.175  28.134  1.00  0.00     0.148 A 
ATOM     73  C   UNL A   1      45.750  35.686  29.711  1.00  0.00     0.002 A 
ATOM     74  C   UNL A   1      45.174  34.682  27.590  1.00  0.00     0.091 A 
ATOM     75  F   UNL A   1      43.185  33.399  27.403  1.00  0.00    -0.205 F 
ATOM     76  C   UNL A   1      46.060  35.428  28.379  1.00  0.00     0.022 A 
BRANCH  74  77
ATOM     77  S   UNL A   1      45.681  34.340  25.899  1.00  0.00     0.127 S 
ATOM     78  O   UNL A   1      46.747  35.321  25.700  1.00  0.00    -0.237 OA
ATOM     79  O   UNL A   1      46.134  32.954  25.998  1.00  0.00    -0.237 OA
ATOM     80  O   UNL A   1      44.495  34.560  25.082  1.00  0.00    -0.744 OA
ENDBRANCH  74  77
ENDBRANCH  46  70
BRANCH  58  81
ATOM     81  C   UNL A   1      41.123  30.550  33.754  1.00  0.00     0.023 A 
ATOM     82  C   UNL A   1      42.018  30.479  34.844  1.00  0.00     0.012 A 
ATOM     83  C   UNL A   1      40.063  31.468  33.814  1.00  0.00     0.148 A 
ATOM     84  C   UNL A   1      41.852  31.297  35.968  1.00  0.00     0.002 A 
ATOM     85  C   UNL A   1      39.930  32.315  34.909  1.00  0.00     0.091 A 
ATOM     86  F   UNL A   1      39.219  31.527  32.772  1.00  0.00    -0.205 F 
ATOM     87  C   UNL A   1      40.817  32.227  35.993  1.00  0.00     0.022 A 
BRANCH  85  88
ATOM     88  S   UNL A   1      38.707  33.627  34.937  1.00  0.00     0.127 S 
ATOM     89  O   UNL A   1      38.814  34.115  36.310  1.00  0.00    -0.237 OA
ATOM     90  O   UNL A   1      39.213  34.549  33.918  1.00  0.00    -0.237 OA
ATOM     91  O   UNL A   1      37.436  33.000  34.592  1.00  0.00    -0.744 OA
ENDBRANCH  85  88
ENDBRANCH  58  81
ENDBRANCH  32  33
ENDBRANCH  24  27
ENDBRANCH  22  23
ENDBRANCH   1  22
TORSDOF 16
ENDMDL
