MODEL 1
REMARK VINA RESULT:     -12.2      0.000      0.000
REMARK SMILES O=C(NCCCNC(=O)[C@H]1C[C@H]1c1ccc(C2CC2)cc1)c1ccc(-c2c3nc(c(-c4cccc(S(=O)(=O)[O-])c4F)c4ccc([nH]4)c(-c4cccc(S(=O)(=O)[O-])c4F)c4nc(c(-c5cccc(S(=O)(=O)[O-])c5F)c5ccc2[nH]5)C=C4)C=C3)cc1
REMARK SMILES IDX 4 1 3 2 1 3 2 4 22 6 23 7 84 8 24 9 83 10 25 11 26 12 27 13
REMARK SMILES IDX 77 14 28 15 82 16 76 17 78 18 29 19 81 20 75 21 74 22 30 24
REMARK SMILES IDX 62 25 42 26 61 27 43 28 46 29 60 30 79 31 44 32 45 33 59 35
REMARK SMILES IDX 80 36 47 37 31 38 32 39 40 40 33 41 35 42 41 43 34 44 36 45
REMARK SMILES IDX 37 46 38 47 39 48 63 49 64 50 72 51 65 52 67 53 73 54 66 55
REMARK SMILES IDX 68 56 69 57 70 58 71 59 48 60 49 61 57 62 50 63 52 64 58 65
REMARK SMILES IDX 51 66 53 67 54 68 55 69 56 70 5 71 6 72 7 73 8 74 9 76 10 77
REMARK SMILES IDX 11 78 12 79 13 80 14 81 21 82 15 83 20 84 16 85 17 86 18 87
REMARK SMILES IDX 19 88
REMARK H PARENT 3 5 78 23 46 34 7 75
REMARK Flexibility Score: inf
ROOT
ATOM      1  C   UNL A   1      32.773  29.424  25.729  1.00  0.00     0.118 C 
ENDROOT
BRANCH   1   2
ATOM      2  N   UNL A   1      32.431  30.794  26.086  1.00  0.00    -0.352 N 
ATOM      3  O   UNL A   1      32.465  32.730  27.221  1.00  0.00    -0.269 OA
ATOM      4  C   UNL A   1      33.021  31.662  26.976  1.00  0.00     0.251 C 
ATOM      5  H   UNL A   1      31.649  31.159  25.614  1.00  0.00     0.163 HD
BRANCH   4   6
ATOM      6  C   UNL A   1      34.291  31.313  27.656  1.00  0.00     0.039 A 
ATOM      7  C   UNL A   1      34.554  30.009  28.073  1.00  0.00     0.014 A 
ATOM      8  C   UNL A   1      35.259  32.306  27.850  1.00  0.00     0.014 A 
ATOM      9  C   UNL A   1      35.691  29.735  28.828  1.00  0.00     0.010 A 
ATOM     10  C   UNL A   1      36.451  32.006  28.521  1.00  0.00     0.010 A 
ATOM     11  C   UNL A   1      36.663  30.725  29.051  1.00  0.00    -0.014 A 
BRANCH  11  12
ATOM     12  C   UNL A   1      37.913  30.354  29.768  1.00  0.00     0.031 A 
ATOM     13  C   UNL A   1      38.198  30.832  31.167  1.00  0.00     0.074 A 
ATOM     14  C   UNL A   1      38.786  29.534  29.149  1.00  0.00     0.049 A 
ATOM     15  N   UNL A   1      39.194  30.513  31.954  1.00  0.00    -0.248 NA
ATOM     16  C   UNL A   1      37.256  31.795  31.760  1.00  0.00     0.031 C 
ATOM     17  C   UNL A   1      38.655  29.055  27.770  1.00  0.00     0.029 A 
ATOM     18  N   UNL A   1      39.944  28.948  29.593  1.00  0.00    -0.354 N 
ATOM     19  C   UNL A   1      39.017  31.248  33.120  1.00  0.00     0.074 A 
ATOM     20  C   UNL A   1      37.824  32.046  32.934  1.00  0.00     0.031 C 
ATOM     21  C   UNL A   1      39.665  28.220  27.494  1.00  0.00     0.029 A 
ATOM     22  C   UNL A   1      40.542  28.137  28.656  1.00  0.00     0.049 A 
ATOM     23  H   UNL A   1      40.311  29.094  30.494  1.00  0.00     0.167 HD
ATOM     24  C   UNL A   1      39.765  31.241  34.250  1.00  0.00     0.034 A 
ATOM     25  C   UNL A   1      41.673  27.409  28.718  1.00  0.00     0.034 A 
ATOM     26  C   UNL A   1      40.935  30.423  34.446  1.00  0.00     0.049 A 
ATOM     27  C   UNL A   1      42.455  27.388  30.000  1.00  0.00     0.074 A 
ATOM     28  C   UNL A   1      41.729  30.313  35.575  1.00  0.00     0.029 A 
ATOM     29  N   UNL A   1      41.480  29.575  33.494  1.00  0.00    -0.354 N 
ATOM     30  N   UNL A   1      42.189  27.986  31.136  1.00  0.00    -0.248 NA
ATOM     31  C   UNL A   1      43.675  26.570  30.020  1.00  0.00     0.031 C 
ATOM     32  C   UNL A   1      42.761  29.409  35.301  1.00  0.00     0.029 A 
ATOM     33  C   UNL A   1      42.601  28.943  34.006  1.00  0.00     0.049 A 
ATOM     34  H   UNL A   1      41.124  29.444  32.586  1.00  0.00     0.167 HD
ATOM     35  C   UNL A   1      43.201  27.605  32.009  1.00  0.00     0.074 A 
ATOM     36  C   UNL A   1      44.058  26.691  31.283  1.00  0.00     0.031 C 
ATOM     37  C   UNL A   1      43.419  28.002  33.288  1.00  0.00     0.034 A 
BRANCH  24  38
ATOM     38  C   UNL A   1      39.314  32.101  35.404  1.00  0.00     0.023 A 
ATOM     39  C   UNL A   1      38.485  31.540  36.397  1.00  0.00     0.012 A 
ATOM     40  C   UNL A   1      39.785  33.420  35.561  1.00  0.00     0.148 A 
ATOM     41  C   UNL A   1      38.117  32.283  37.518  1.00  0.00     0.002 A 
ATOM     42  C   UNL A   1      39.444  34.142  36.700  1.00  0.00     0.091 A 
ATOM     43  F   UNL A   1      40.559  33.941  34.599  1.00  0.00    -0.205 F 
ATOM     44  C   UNL A   1      38.605  33.577  37.676  1.00  0.00     0.022 A 
BRANCH  42  45
ATOM     45  S   UNL A   1      40.076  35.790  37.036  1.00  0.00     0.127 S 
ATOM     46  O   UNL A   1      39.374  36.128  38.273  1.00  0.00    -0.237 OA
ATOM     47  O   UNL A   1      41.510  35.543  37.198  1.00  0.00    -0.237 OA
ATOM     48  O   UNL A   1      39.724  36.599  35.878  1.00  0.00    -0.744 OA
ENDBRANCH  42  45
ENDBRANCH  24  38
BRANCH  25  49
ATOM     49  C   UNL A   1      42.104  26.607  27.540  1.00  0.00     0.023 A 
ATOM     50  C   UNL A   1      42.874  27.211  26.527  1.00  0.00     0.012 A 
ATOM     51  C   UNL A   1      41.786  25.239  27.436  1.00  0.00     0.148 A 
ATOM     52  C   UNL A   1      43.293  26.472  25.419  1.00  0.00     0.002 A 
ATOM     53  C   UNL A   1      42.260  24.496  26.363  1.00  0.00     0.091 A 
ATOM     54  F   UNL A   1      41.032  24.685  28.397  1.00  0.00    -0.205 F 
ATOM     55  C   UNL A   1      42.999  25.113  25.343  1.00  0.00     0.022 A 
BRANCH  53  56
ATOM     56  S   UNL A   1      42.050  22.714  26.288  1.00  0.00     0.127 S 
ATOM     57  O   UNL A   1      40.597  22.583  26.259  1.00  0.00    -0.237 OA
ATOM     58  O   UNL A   1      42.726  22.373  25.034  1.00  0.00    -0.237 OA
ATOM     59  O   UNL A   1      42.720  22.203  27.478  1.00  0.00    -0.744 OA
ENDBRANCH  53  56
ENDBRANCH  25  49
BRANCH  37  60
ATOM     60  C   UNL A   1      44.632  27.441  33.982  1.00  0.00     0.023 A 
ATOM     61  C   UNL A   1      45.859  28.130  33.895  1.00  0.00     0.012 A 
ATOM     62  C   UNL A   1      44.554  26.260  34.743  1.00  0.00     0.148 A 
ATOM     63  C   UNL A   1      46.998  27.630  34.525  1.00  0.00     0.002 A 
ATOM     64  C   UNL A   1      45.684  25.792  35.405  1.00  0.00     0.091 A 
ATOM     65  F   UNL A   1      43.384  25.606  34.795  1.00  0.00    -0.205 F 
ATOM     66  C   UNL A   1      46.909  26.468  35.287  1.00  0.00     0.022 A 
BRANCH  64  67
ATOM     67  S   UNL A   1      45.635  24.350  36.475  1.00  0.00     0.127 S 
ATOM     68  O   UNL A   1      45.298  23.288  35.529  1.00  0.00    -0.237 OA
ATOM     69  O   UNL A   1      47.003  24.295  36.991  1.00  0.00    -0.237 OA
ATOM     70  O   UNL A   1      44.625  24.640  37.483  1.00  0.00    -0.744 OA
ENDBRANCH  64  67
ENDBRANCH  37  60
ENDBRANCH  11  12
ENDBRANCH   4   6
ENDBRANCH   1   2
BRANCH   1  71
ATOM     71  C   UNL A   1      31.793  28.395  26.283  1.00  0.00     0.042 C 
BRANCH  71  72
ATOM     72  C   UNL A   1      32.359  26.985  26.402  1.00  0.00     0.117 C 
BRANCH  72  73
ATOM     73  N   UNL A   1      31.359  26.013  26.807  1.00  0.00    -0.356 N 
ATOM     74  C   UNL A   1      30.900  24.908  26.143  1.00  0.00     0.223 C 
ATOM     75  H   UNL A   1      30.951  26.173  27.689  1.00  0.00     0.163 HD
ATOM     76  O   UNL A   1      29.946  24.279  26.588  1.00  0.00    -0.275 OA
BRANCH  74  77
ATOM     77  C   UNL A   1      31.501  24.552  24.837  1.00  0.00     0.086 C 
ATOM     78  C   UNL A   1      30.677  23.977  23.714  1.00  0.00     0.023 C 
ATOM     79  C   UNL A   1      31.273  25.352  23.562  1.00  0.00     0.032 C 
BRANCH  79  80
ATOM     80  C   UNL A   1      30.343  26.538  23.432  1.00  0.00    -0.044 A 
ATOM     81  C   UNL A   1      28.977  26.435  23.729  1.00  0.00     0.004 A 
ATOM     82  C   UNL A   1      30.779  27.767  22.925  1.00  0.00     0.004 A 
ATOM     83  C   UNL A   1      28.099  27.511  23.544  1.00  0.00     0.004 A 
ATOM     84  C   UNL A   1      29.902  28.847  22.745  1.00  0.00     0.004 A 
ATOM     85  C   UNL A   1      28.537  28.749  23.048  1.00  0.00    -0.045 A 
BRANCH  85  86
ATOM     86  C   UNL A   1      27.539  29.877  22.872  1.00  0.00     0.019 C 
ATOM     87  C   UNL A   1      27.665  31.223  23.542  1.00  0.00     0.009 C 
ATOM     88  C   UNL A   1      27.947  31.095  22.075  1.00  0.00     0.009 C 
ENDBRANCH  85  86
ENDBRANCH  79  80
ENDBRANCH  74  77
ENDBRANCH  72  73
ENDBRANCH  71  72
ENDBRANCH   1  71
TORSDOF 15
ENDMDL
MODEL 2
REMARK VINA RESULT:     -12.0      1.442      3.128
REMARK SMILES O=C(NCCCNC(=O)[C@H]1C[C@H]1c1ccc(C2CC2)cc1)c1ccc(-c2c3nc(c(-c4cccc(S(=O)(=O)[O-])c4F)c4ccc([nH]4)c(-c4cccc(S(=O)(=O)[O-])c4F)c4nc(c(-c5cccc(S(=O)(=O)[O-])c5F)c5ccc2[nH]5)C=C4)C=C3)cc1
REMARK SMILES IDX 4 1 3 2 1 3 2 4 22 6 23 7 84 8 24 9 83 10 25 11 26 12 27 13
REMARK SMILES IDX 77 14 28 15 82 16 76 17 78 18 29 19 81 20 75 21 74 22 30 24
REMARK SMILES IDX 62 25 42 26 61 27 43 28 46 29 60 30 79 31 44 32 45 33 59 35
REMARK SMILES IDX 80 36 47 37 31 38 32 39 40 40 33 41 35 42 41 43 34 44 36 45
REMARK SMILES IDX 37 46 38 47 39 48 63 49 64 50 72 51 65 52 67 53 73 54 66 55
REMARK SMILES IDX 68 56 69 57 70 58 71 59 48 60 49 61 57 62 50 63 52 64 58 65
REMARK SMILES IDX 51 66 53 67 54 68 55 69 56 70 5 71 6 72 7 73 8 74 9 76 10 77
REMARK SMILES IDX 11 78 12 79 13 80 14 81 21 82 15 83 20 84 16 85 17 86 18 87
REMARK SMILES IDX 19 88
REMARK H PARENT 3 5 78 23 46 34 7 75
REMARK Flexibility Score: inf
ROOT
ATOM      1  C   UNL A   1      32.995  29.239  25.302  1.00  0.00     0.118 C 
ENDROOT
BRANCH   1   2
ATOM      2  N   UNL A   1      32.475  30.490  25.837  1.00  0.00    -0.352 N 
ATOM      3  O   UNL A   1      32.230  32.221  27.244  1.00  0.00    -0.269 OA
ATOM      4  C   UNL A   1      32.922  31.275  26.875  1.00  0.00     0.251 C 
ATOM      5  H   UNL A   1      31.672  30.830  25.381  1.00  0.00     0.163 HD
BRANCH   4   6
ATOM      6  C   UNL A   1      34.200  30.975  27.565  1.00  0.00     0.039 A 
ATOM      7  C   UNL A   1      34.503  29.685  27.999  1.00  0.00     0.014 A 
ATOM      8  C   UNL A   1      35.133  32.001  27.751  1.00  0.00     0.014 A 
ATOM      9  C   UNL A   1      35.644  29.458  28.762  1.00  0.00     0.010 A 
ATOM     10  C   UNL A   1      36.332  31.748  28.431  1.00  0.00     0.010 A 
ATOM     11  C   UNL A   1      36.582  30.482  28.977  1.00  0.00    -0.014 A 
BRANCH  11  12
ATOM     12  C   UNL A   1      37.840  30.160  29.704  1.00  0.00     0.031 A 
ATOM     13  C   UNL A   1      38.107  30.672  31.094  1.00  0.00     0.074 A 
ATOM     14  C   UNL A   1      38.739  29.355  29.102  1.00  0.00     0.049 A 
ATOM     15  N   UNL A   1      39.110  30.396  31.890  1.00  0.00    -0.248 NA
ATOM     16  C   UNL A   1      37.135  31.617  31.668  1.00  0.00     0.031 C 
ATOM     17  C   UNL A   1      38.626  28.848  27.731  1.00  0.00     0.029 A 
ATOM     18  N   UNL A   1      39.912  28.811  29.560  1.00  0.00    -0.354 N 
ATOM     19  C   UNL A   1      38.908  31.146  33.042  1.00  0.00     0.074 A 
ATOM     20  C   UNL A   1      37.692  31.906  32.839  1.00  0.00     0.031 C 
ATOM     21  C   UNL A   1      39.662  28.038  27.473  1.00  0.00     0.029 A 
ATOM     22  C   UNL A   1      40.537  28.001  28.639  1.00  0.00     0.049 A 
ATOM     23  H   UNL A   1      40.272  28.984  30.459  1.00  0.00     0.167 HD
ATOM     24  C   UNL A   1      39.652  31.181  34.174  1.00  0.00     0.034 A 
ATOM     25  C   UNL A   1      41.688  27.308  28.717  1.00  0.00     0.034 A 
ATOM     26  C   UNL A   1      40.844  30.401  34.388  1.00  0.00     0.049 A 
ATOM     27  C   UNL A   1      42.466  27.333  30.001  1.00  0.00     0.074 A 
ATOM     28  C   UNL A   1      41.638  30.335  35.521  1.00  0.00     0.029 A 
ATOM     29  N   UNL A   1      41.418  29.553  33.452  1.00  0.00    -0.354 N 
ATOM     30  N   UNL A   1      42.180  27.943  31.126  1.00  0.00    -0.248 NA
ATOM     31  C   UNL A   1      43.709  26.551  30.039  1.00  0.00     0.031 C 
ATOM     32  C   UNL A   1      42.697  29.456  35.266  1.00  0.00     0.029 A 
ATOM     33  C   UNL A   1      42.555  28.963  33.979  1.00  0.00     0.049 A 
ATOM     34  H   UNL A   1      41.068  29.395  32.546  1.00  0.00     0.167 HD
ATOM     35  C   UNL A   1      43.199  27.608  32.008  1.00  0.00     0.074 A 
ATOM     36  C   UNL A   1      44.085  26.706  31.301  1.00  0.00     0.031 C 
ATOM     37  C   UNL A   1      43.402  28.034  33.280  1.00  0.00     0.034 A 
BRANCH  24  38
ATOM     38  C   UNL A   1      39.172  32.049  35.311  1.00  0.00     0.023 A 
ATOM     39  C   UNL A   1      38.251  31.520  36.238  1.00  0.00     0.012 A 
ATOM     40  C   UNL A   1      39.702  33.338  35.521  1.00  0.00     0.148 A 
ATOM     41  C   UNL A   1      37.850  32.265  37.346  1.00  0.00     0.002 A 
ATOM     42  C   UNL A   1      39.325  34.061  36.648  1.00  0.00     0.091 A 
ATOM     43  F   UNL A   1      40.564  33.829  34.621  1.00  0.00    -0.205 F 
ATOM     44  C   UNL A   1      38.395  33.529  37.558  1.00  0.00     0.022 A 
BRANCH  42  45
ATOM     45  S   UNL A   1      40.020  35.667  37.053  1.00  0.00     0.127 S 
ATOM     46  O   UNL A   1      39.653  36.453  35.876  1.00  0.00    -0.237 OA
ATOM     47  O   UNL A   1      39.291  36.021  38.272  1.00  0.00    -0.237 OA
ATOM     48  O   UNL A   1      41.449  35.453  37.238  1.00  0.00    -0.744 OA
ENDBRANCH  42  45
ENDBRANCH  24  38
BRANCH  25  49
ATOM     49  C   UNL A   1      42.146  26.498  27.554  1.00  0.00     0.023 A 
ATOM     50  C   UNL A   1      42.966  27.086  26.573  1.00  0.00     0.012 A 
ATOM     51  C   UNL A   1      41.803  25.138  27.437  1.00  0.00     0.148 A 
ATOM     52  C   UNL A   1      43.411  26.339  25.480  1.00  0.00     0.002 A 
ATOM     53  C   UNL A   1      42.302  24.385  26.381  1.00  0.00     0.091 A 
ATOM     54  F   UNL A   1      41.002  24.598  28.368  1.00  0.00    -0.205 F 
ATOM     55  C   UNL A   1      43.092  24.987  25.391  1.00  0.00     0.022 A 
BRANCH  53  56
ATOM     56  S   UNL A   1      42.056  22.608  26.296  1.00  0.00     0.127 S 
ATOM     57  O   UNL A   1      42.736  22.151  27.504  1.00  0.00    -0.237 OA
ATOM     58  O   UNL A   1      40.597  22.493  26.328  1.00  0.00    -0.237 OA
ATOM     59  O   UNL A   1      42.653  22.204  25.028  1.00  0.00    -0.744 OA
ENDBRANCH  53  56
ENDBRANCH  25  49
BRANCH  37  60
ATOM     60  C   UNL A   1      44.629  27.521  33.987  1.00  0.00     0.023 A 
ATOM     61  C   UNL A   1      45.824  28.267  33.929  1.00  0.00     0.012 A 
ATOM     62  C   UNL A   1      44.593  26.329  34.733  1.00  0.00     0.148 A 
ATOM     63  C   UNL A   1      46.974  27.813  34.570  1.00  0.00     0.002 A 
ATOM     64  C   UNL A   1      45.734  25.905  35.408  1.00  0.00     0.091 A 
ATOM     65  F   UNL A   1      43.454  25.620  34.758  1.00  0.00    -0.205 F 
ATOM     66  C   UNL A   1      46.928  26.638  35.317  1.00  0.00     0.022 A 
BRANCH  64  67
ATOM     67  S   UNL A   1      45.734  24.449  36.460  1.00  0.00     0.127 S 
ATOM     68  O   UNL A   1      47.105  24.449  36.968  1.00  0.00    -0.237 OA
ATOM     69  O   UNL A   1      44.715  24.781  37.456  1.00  0.00    -0.237 OA
ATOM     70  O   UNL A   1      45.384  23.334  35.592  1.00  0.00    -0.744 OA
ENDBRANCH  64  67
ENDBRANCH  37  60
ENDBRANCH  11  12
ENDBRANCH   4   6
ENDBRANCH   1   2
BRANCH   1  71
ATOM     71  C   UNL A   1      32.486  28.926  23.899  1.00  0.00     0.042 C 
BRANCH  71  72
ATOM     72  C   UNL A   1      31.004  28.579  23.828  1.00  0.00     0.117 C 
BRANCH  72  73
ATOM     73  N   UNL A   1      30.764  27.264  23.260  1.00  0.00    -0.356 N 
ATOM     74  C   UNL A   1      30.437  26.091  23.888  1.00  0.00     0.223 C 
ATOM     75  H   UNL A   1      30.848  27.207  22.281  1.00  0.00     0.163 HD
ATOM     76  O   UNL A   1      30.408  25.044  23.250  1.00  0.00    -0.275 OA
BRANCH  74  77
ATOM     77  C   UNL A   1      30.226  26.095  25.353  1.00  0.00     0.086 C 
ATOM     78  C   UNL A   1      30.013  24.819  26.127  1.00  0.00     0.023 C 
ATOM     79  C   UNL A   1      31.270  25.617  26.352  1.00  0.00     0.032 C 
BRANCH  79  80
ATOM     80  C   UNL A   1      32.601  24.995  25.993  1.00  0.00    -0.044 A 
ATOM     81  C   UNL A   1      33.693  25.778  25.592  1.00  0.00     0.004 A 
ATOM     82  C   UNL A   1      32.782  23.608  25.955  1.00  0.00     0.004 A 
ATOM     83  C   UNL A   1      34.906  25.202  25.192  1.00  0.00     0.004 A 
ATOM     84  C   UNL A   1      33.998  23.030  25.560  1.00  0.00     0.004 A 
ATOM     85  C   UNL A   1      35.094  23.811  25.166  1.00  0.00    -0.045 A 
BRANCH  85  86
ATOM     86  C   UNL A   1      36.431  23.247  24.726  1.00  0.00     0.019 C 
ATOM     87  C   UNL A   1      36.630  21.828  24.253  1.00  0.00     0.009 C 
ATOM     88  C   UNL A   1      36.652  22.952  23.260  1.00  0.00     0.009 C 
ENDBRANCH  85  86
ENDBRANCH  79  80
ENDBRANCH  74  77
ENDBRANCH  72  73
ENDBRANCH  71  72
ENDBRANCH   1  71
TORSDOF 15
ENDMDL
MODEL 3
REMARK VINA RESULT:     -11.8      5.696     10.736
REMARK SMILES O=C(NCCCNC(=O)[C@H]1C[C@H]1c1ccc(C2CC2)cc1)c1ccc(-c2c3nc(c(-c4cccc(S(=O)(=O)[O-])c4F)c4ccc([nH]4)c(-c4cccc(S(=O)(=O)[O-])c4F)c4nc(c(-c5cccc(S(=O)(=O)[O-])c5F)c5ccc2[nH]5)C=C4)C=C3)cc1
REMARK SMILES IDX 4 1 3 2 1 3 2 4 22 6 23 7 84 8 24 9 83 10 25 11 26 12 27 13
REMARK SMILES IDX 77 14 28 15 82 16 76 17 78 18 29 19 81 20 75 21 74 22 30 24
REMARK SMILES IDX 62 25 42 26 61 27 43 28 46 29 60 30 79 31 44 32 45 33 59 35
REMARK SMILES IDX 80 36 47 37 31 38 32 39 40 40 33 41 35 42 41 43 34 44 36 45
REMARK SMILES IDX 37 46 38 47 39 48 63 49 64 50 72 51 65 52 67 53 73 54 66 55
REMARK SMILES IDX 68 56 69 57 70 58 71 59 48 60 49 61 57 62 50 63 52 64 58 65
REMARK SMILES IDX 51 66 53 67 54 68 55 69 56 70 5 71 6 72 7 73 8 74 9 76 10 77
REMARK SMILES IDX 11 78 12 79 13 80 14 81 21 82 15 83 20 84 16 85 17 86 18 87
REMARK SMILES IDX 19 88
REMARK H PARENT 3 5 78 23 46 34 7 75
REMARK Flexibility Score: inf
ROOT
ATOM      1  C   UNL A   1      37.030  21.955  24.687  1.00  0.00     0.118 C 
ENDROOT
BRANCH   1   2
ATOM      2  N   UNL A   1      37.807  20.848  25.228  1.00  0.00    -0.352 N 
ATOM      3  O   UNL A   1      39.537  19.769  26.163  1.00  0.00    -0.269 OA
ATOM      4  C   UNL A   1      38.987  20.843  25.934  1.00  0.00     0.251 C 
ATOM      5  H   UNL A   1      37.425  19.957  25.060  1.00  0.00     0.163 HD
BRANCH   4   6
ATOM      6  C   UNL A   1      39.610  22.109  26.391  1.00  0.00     0.039 A 
ATOM      7  C   UNL A   1      39.162  23.345  25.926  1.00  0.00     0.014 A 
ATOM      8  C   UNL A   1      40.643  22.061  27.335  1.00  0.00     0.014 A 
ATOM      9  C   UNL A   1      39.850  24.506  26.264  1.00  0.00     0.010 A 
ATOM     10  C   UNL A   1      41.268  23.243  27.754  1.00  0.00     0.010 A 
ATOM     11  C   UNL A   1      40.903  24.475  27.194  1.00  0.00    -0.014 A 
BRANCH  11  12
ATOM     12  C   UNL A   1      41.534  25.758  27.607  1.00  0.00     0.031 A 
ATOM     13  C   UNL A   1      42.924  26.136  27.172  1.00  0.00     0.074 A 
ATOM     14  C   UNL A   1      40.811  26.612  28.360  1.00  0.00     0.049 A 
ATOM     15  N   UNL A   1      43.567  27.259  27.371  1.00  0.00    -0.248 NA
ATOM     16  C   UNL A   1      43.700  25.130  26.429  1.00  0.00     0.031 C 
ATOM     17  C   UNL A   1      39.476  26.334  28.899  1.00  0.00     0.029 A 
ATOM     18  N   UNL A   1      41.082  27.885  28.791  1.00  0.00    -0.354 N 
ATOM     19  C   UNL A   1      44.825  27.091  26.803  1.00  0.00     0.074 A 
ATOM     20  C   UNL A   1      44.864  25.748  26.264  1.00  0.00     0.031 C 
ATOM     21  C   UNL A   1      39.030  27.414  29.553  1.00  0.00     0.029 A 
ATOM     22  C   UNL A   1      40.059  28.446  29.521  1.00  0.00     0.049 A 
ATOM     23  H   UNL A   1      41.926  28.352  28.598  1.00  0.00     0.167 HD
ATOM     24  C   UNL A   1      45.843  27.981  26.717  1.00  0.00     0.034 A 
ATOM     25  C   UNL A   1      39.958  29.655  30.107  1.00  0.00     0.034 A 
ATOM     26  C   UNL A   1      45.792  29.328  27.226  1.00  0.00     0.049 A 
ATOM     27  C   UNL A   1      41.087  30.634  29.954  1.00  0.00     0.074 A 
ATOM     28  C   UNL A   1      46.757  30.317  27.142  1.00  0.00     0.029 A 
ATOM     29  N   UNL A   1      44.720  29.877  27.913  1.00  0.00    -0.354 N 
ATOM     30  N   UNL A   1      42.210  30.498  29.293  1.00  0.00    -0.248 NA
ATOM     31  C   UNL A   1      40.922  31.941  30.602  1.00  0.00     0.031 C 
ATOM     32  C   UNL A   1      46.274  31.460  27.789  1.00  0.00     0.029 A 
ATOM     33  C   UNL A   1      45.000  31.188  28.263  1.00  0.00     0.049 A 
ATOM     34  H   UNL A   1      43.882  29.404  28.123  1.00  0.00     0.167 HD
ATOM     35  C   UNL A   1      42.880  31.707  29.434  1.00  0.00     0.074 A 
ATOM     36  C   UNL A   1      42.016  32.576  30.205  1.00  0.00     0.031 C 
ATOM     37  C   UNL A   1      44.114  32.056  28.992  1.00  0.00     0.034 A 
BRANCH  24  38
ATOM     38  C   UNL A   1      47.094  27.557  25.989  1.00  0.00     0.023 A 
ATOM     39  C   UNL A   1      48.068  26.805  26.678  1.00  0.00     0.012 A 
ATOM     40  C   UNL A   1      47.263  27.811  24.613  1.00  0.00     0.148 A 
ATOM     41  C   UNL A   1      49.197  26.326  26.014  1.00  0.00     0.002 A 
ATOM     42  C   UNL A   1      48.373  27.299  23.950  1.00  0.00     0.091 A 
ATOM     43  F   UNL A   1      46.335  28.541  23.980  1.00  0.00    -0.205 F 
ATOM     44  C   UNL A   1      49.344  26.563  24.650  1.00  0.00     0.022 A 
BRANCH  42  45
ATOM     45  S   UNL A   1      48.623  27.485  22.181  1.00  0.00     0.127 S 
ATOM     46  O   UNL A   1      49.840  28.295  22.138  1.00  0.00    -0.237 OA
ATOM     47  O   UNL A   1      48.800  26.098  21.747  1.00  0.00    -0.237 OA
ATOM     48  O   UNL A   1      47.424  28.134  21.671  1.00  0.00    -0.744 OA
ENDBRANCH  42  45
ENDBRANCH  24  38
BRANCH  25  49
ATOM     49  C   UNL A   1      38.720  30.016  30.851  1.00  0.00     0.023 A 
ATOM     50  C   UNL A   1      38.560  29.596  32.186  1.00  0.00     0.012 A 
ATOM     51  C   UNL A   1      37.717  30.804  30.256  1.00  0.00     0.148 A 
ATOM     52  C   UNL A   1      37.410  29.932  32.902  1.00  0.00     0.002 A 
ATOM     53  C   UNL A   1      36.606  31.188  30.995  1.00  0.00     0.091 A 
ATOM     54  F   UNL A   1      37.874  31.176  28.977  1.00  0.00    -0.205 F 
ATOM     55  C   UNL A   1      36.440  30.739  32.313  1.00  0.00     0.022 A 
BRANCH  53  56
ATOM     56  S   UNL A   1      35.402  32.352  30.346  1.00  0.00     0.127 S 
ATOM     57  O   UNL A   1      36.229  33.525  30.079  1.00  0.00    -0.237 OA
ATOM     58  O   UNL A   1      34.910  31.659  29.153  1.00  0.00    -0.237 OA
ATOM     59  O   UNL A   1      34.404  32.492  31.400  1.00  0.00    -0.744 OA
ENDBRANCH  53  56
ENDBRANCH  25  49
BRANCH  37  60
ATOM     60  C   UNL A   1      44.596  33.442  29.330  1.00  0.00     0.023 A 
ATOM     61  C   UNL A   1      45.220  33.673  30.573  1.00  0.00     0.012 A 
ATOM     62  C   UNL A   1      44.467  34.501  28.413  1.00  0.00     0.148 A 
ATOM     63  C   UNL A   1      45.672  34.947  30.913  1.00  0.00     0.002 A 
ATOM     64  C   UNL A   1      44.961  35.759  28.741  1.00  0.00     0.091 A 
ATOM     65  F   UNL A   1      43.851  34.268  27.244  1.00  0.00    -0.205 F 
ATOM     66  C   UNL A   1      45.551  35.987  29.995  1.00  0.00     0.022 A 
BRANCH  64  67
ATOM     67  S   UNL A   1      44.922  37.132  27.583  1.00  0.00     0.127 S 
ATOM     68  O   UNL A   1      45.474  38.219  28.390  1.00  0.00    -0.237 OA
ATOM     69  O   UNL A   1      45.799  36.663  26.510  1.00  0.00    -0.237 OA
ATOM     70  O   UNL A   1      43.527  37.282  27.194  1.00  0.00    -0.744 OA
ENDBRANCH  64  67
ENDBRANCH  37  60
ENDBRANCH  11  12
ENDBRANCH   4   6
ENDBRANCH   1   2
BRANCH   1  71
ATOM     71  C   UNL A   1      35.901  22.405  25.608  1.00  0.00     0.042 C 
BRANCH  71  72
ATOM     72  C   UNL A   1      35.203  23.688  25.172  1.00  0.00     0.117 C 
BRANCH  72  73
ATOM     73  N   UNL A   1      34.936  23.723  23.745  1.00  0.00    -0.356 N 
ATOM     74  C   UNL A   1      33.737  23.771  23.084  1.00  0.00     0.223 C 
ATOM     75  H   UNL A   1      35.734  23.709  23.167  1.00  0.00     0.163 HD
ATOM     76  O   UNL A   1      33.706  23.655  21.864  1.00  0.00    -0.275 OA
BRANCH  74  77
ATOM     77  C   UNL A   1      32.486  23.860  23.871  1.00  0.00     0.086 C 
ATOM     78  C   UNL A   1      31.165  23.393  23.316  1.00  0.00     0.023 C 
ATOM     79  C   UNL A   1      31.785  22.649  24.470  1.00  0.00     0.032 C 
BRANCH  79  80
ATOM     80  C   UNL A   1      32.203  21.210  24.268  1.00  0.00    -0.044 A 
ATOM     81  C   UNL A   1      32.862  20.489  25.273  1.00  0.00     0.004 A 
ATOM     82  C   UNL A   1      32.035  20.557  23.041  1.00  0.00     0.004 A 
ATOM     83  C   UNL A   1      33.312  19.178  25.066  1.00  0.00     0.004 A 
ATOM     84  C   UNL A   1      32.480  19.242  22.835  1.00  0.00     0.004 A 
ATOM     85  C   UNL A   1      33.133  18.517  23.841  1.00  0.00    -0.045 A 
BRANCH  85  86
ATOM     86  C   UNL A   1      33.641  17.097  23.679  1.00  0.00     0.019 C 
ATOM     87  C   UNL A   1      34.560  16.416  24.661  1.00  0.00     0.009 C 
ATOM     88  C   UNL A   1      33.114  16.023  24.602  1.00  0.00     0.009 C 
ENDBRANCH  85  86
ENDBRANCH  79  80
ENDBRANCH  74  77
ENDBRANCH  72  73
ENDBRANCH  71  72
ENDBRANCH   1  71
TORSDOF 15
ENDMDL
