MODEL 1
REMARK VINA RESULT:     -12.1      0.000      0.000
REMARK SMILES C[C@H]1C[C@@H]1C(=O)NC[C@@H]1CC[C@H](C(=O)NCCCNC(=O)c2ccc(-c3c4nc(c(-c5cccc(S(=O)(=O)[O-])c5F)c5ccc([nH]5)c(-c5cccc(S(=O)(=O)[O-])c5F)c5nc(c(-c6cccc(S(=O)(=O)[O-])c6F)c6ccc3[nH]6)C=C5)C=C4)cc2)O1
REMARK SMILES IDX 17 1 16 2 15 3 13 4 14 5 12 7 9 8 10 9 85 10 11 11 8 12 7 13
REMARK SMILES IDX 5 14 6 15 4 17 1 18 2 19 3 20 18 21 19 22 20 23 21 25 22 26
REMARK SMILES IDX 23 27 84 28 24 29 83 30 25 31 26 32 27 33 77 34 28 35 82 36
REMARK SMILES IDX 76 37 78 38 29 39 81 40 75 41 74 42 30 44 62 45 42 46 61 47
REMARK SMILES IDX 43 48 46 49 60 50 79 51 44 52 45 53 59 55 80 56 47 57 31 58
REMARK SMILES IDX 32 59 40 60 33 61 35 62 41 63 34 64 36 65 37 66 38 67 39 68
REMARK SMILES IDX 63 69 64 70 72 71 65 72 67 73 73 74 66 75 68 76 69 77 70 78
REMARK SMILES IDX 71 79 48 80 49 81 57 82 50 83 52 84 58 85 51 86 53 87 54 88
REMARK SMILES IDX 55 89 56 90
REMARK H PARENT 15 6 7 16 19 24 78 43 46 54
REMARK Flexibility Score: inf
ROOT
ATOM      1  C   UNL A   1      36.581  22.341  23.862  1.00  0.00     0.042 C 
ENDROOT
BRANCH   1   2
ATOM      2  C   UNL A   1      35.202  22.978  23.744  1.00  0.00     0.117 C 
BRANCH   2   3
ATOM      3  N   UNL A   1      35.110  24.290  24.345  1.00  0.00    -0.354 N 
ATOM      4  C   UNL A   1      34.196  24.757  25.243  1.00  0.00     0.249 C 
ATOM      5  O   UNL A   1      34.392  25.866  25.748  1.00  0.00    -0.272 OA
ATOM      6  H   UNL A   1      35.801  24.934  24.067  1.00  0.00     0.163 HD
BRANCH   4   7
ATOM      7  C   UNL A   1      32.934  23.945  25.588  1.00  0.00     0.207 C 
ATOM      8  C   UNL A   1      31.972  21.859  25.288  1.00  0.00     0.138 C 
ATOM      9  C   UNL A   1      31.414  22.722  24.169  1.00  0.00     0.037 C 
ATOM     10  O   UNL A   1      33.151  22.538  25.749  1.00  0.00    -0.363 OA
ATOM     11  C   UNL A   1      31.806  24.128  24.576  1.00  0.00     0.045 C 
BRANCH   8  12
ATOM     12  C   UNL A   1      32.283  20.387  24.958  1.00  0.00     0.147 C 
BRANCH  12  13
ATOM     13  N   UNL A   1      33.683  20.005  25.014  1.00  0.00    -0.353 N 
ATOM     14  C   UNL A   1      34.317  18.868  24.597  1.00  0.00     0.223 C 
ATOM     15  O   UNL A   1      35.537  18.827  24.641  1.00  0.00    -0.275 OA
ATOM     16  H   UNL A   1      34.275  20.678  25.422  1.00  0.00     0.163 HD
BRANCH  14  17
ATOM     17  C   UNL A   1      33.529  17.678  24.164  1.00  0.00     0.081 C 
ATOM     18  C   UNL A   1      32.870  15.374  25.238  1.00  0.00     0.008 C 
ATOM     19  C   UNL A   1      33.910  16.320  24.751  1.00  0.00    -0.001 C 
ATOM     20  C   UNL A   1      34.126  16.597  23.293  1.00  0.00     0.018 C 
ENDBRANCH  14  17
ENDBRANCH  12  13
ENDBRANCH   8  12
ENDBRANCH   4   7
ENDBRANCH   2   3
ENDBRANCH   1   2
BRANCH   1  21
ATOM     21  C   UNL A   1      36.881  21.876  25.278  1.00  0.00     0.118 C 
BRANCH  21  22
ATOM     22  N   UNL A   1      38.028  20.982  25.375  1.00  0.00    -0.352 N 
ATOM     23  C   UNL A   1      39.208  21.137  26.058  1.00  0.00     0.251 C 
ATOM     24  H   UNL A   1      37.942  20.138  24.874  1.00  0.00     0.163 HD
ATOM     25  O   UNL A   1      40.033  20.229  26.123  1.00  0.00    -0.269 OA
BRANCH  23  26
ATOM     26  C   UNL A   1      39.547  22.450  26.622  1.00  0.00     0.039 A 
ATOM     27  C   UNL A   1      40.581  22.488  27.563  1.00  0.00     0.014 A 
ATOM     28  C   UNL A   1      38.948  23.622  26.165  1.00  0.00     0.014 A 
ATOM     29  C   UNL A   1      41.084  23.713  27.974  1.00  0.00     0.010 A 
ATOM     30  C   UNL A   1      39.513  24.840  26.499  1.00  0.00     0.010 A 
ATOM     31  C   UNL A   1      40.590  24.889  27.396  1.00  0.00    -0.014 A 
BRANCH  31  32
ATOM     32  C   UNL A   1      41.212  26.193  27.689  1.00  0.00     0.031 A 
ATOM     33  C   UNL A   1      42.612  26.458  27.229  1.00  0.00     0.074 A 
ATOM     34  C   UNL A   1      40.535  27.072  28.454  1.00  0.00     0.049 A 
ATOM     35  N   UNL A   1      43.364  27.500  27.450  1.00  0.00    -0.248 NA
ATOM     36  C   UNL A   1      43.269  25.392  26.451  1.00  0.00     0.031 C 
ATOM     37  C   UNL A   1      39.199  26.849  29.016  1.00  0.00     0.029 A 
ATOM     38  N   UNL A   1      40.883  28.313  28.912  1.00  0.00    -0.354 N 
ATOM     39  C   UNL A   1      44.592  27.201  26.875  1.00  0.00     0.074 A 
ATOM     40  C   UNL A   1      44.499  25.866  26.327  1.00  0.00     0.031 C 
ATOM     41  C   UNL A   1      38.839  27.922  29.736  1.00  0.00     0.029 A 
ATOM     42  C   UNL A   1      39.925  28.894  29.709  1.00  0.00     0.049 A 
ATOM     43  H   UNL A   1      41.739  28.749  28.691  1.00  0.00     0.167 HD
ATOM     44  C   UNL A   1      45.688  27.988  26.789  1.00  0.00     0.034 A 
ATOM     45  C   UNL A   1      39.932  30.080  30.345  1.00  0.00     0.034 A 
ATOM     46  C   UNL A   1      45.733  29.329  27.301  1.00  0.00     0.049 A 
ATOM     47  C   UNL A   1      41.133  30.966  30.164  1.00  0.00     0.074 A 
ATOM     48  C   UNL A   1      46.752  30.256  27.204  1.00  0.00     0.029 A 
ATOM     49  N   UNL A   1      44.703  29.933  28.009  1.00  0.00    -0.354 N 
ATOM     50  N   UNL A   1      42.234  30.733  29.489  1.00  0.00    -0.248 NA
ATOM     51  C   UNL A   1      41.085  32.289  30.798  1.00  0.00     0.031 C 
ATOM     52  C   UNL A   1      46.342  31.419  27.866  1.00  0.00     0.029 A 
ATOM     53  C   UNL A   1      45.059  31.221  28.359  1.00  0.00     0.049 A 
ATOM     54  H   UNL A   1      43.843  29.506  28.230  1.00  0.00     0.167 HD
ATOM     55  C   UNL A   1      42.998  31.887  29.589  1.00  0.00     0.074 A 
ATOM     56  C   UNL A   1      42.220  32.829  30.373  1.00  0.00     0.031 C 
ATOM     57  C   UNL A   1      44.236  32.144  29.099  1.00  0.00     0.034 A 
BRANCH  44  58
ATOM     58  C   UNL A   1      46.890  27.430  26.074  1.00  0.00     0.023 A 
ATOM     59  C   UNL A   1      47.761  26.556  26.757  1.00  0.00     0.012 A 
ATOM     60  C   UNL A   1      47.151  27.753  24.730  1.00  0.00     0.148 A 
ATOM     61  C   UNL A   1      48.895  26.043  26.126  1.00  0.00     0.002 A 
ATOM     62  C   UNL A   1      48.260  27.204  24.093  1.00  0.00     0.091 A 
ATOM     63  F   UNL A   1      46.328  28.607  24.105  1.00  0.00    -0.205 F 
ATOM     64  C   UNL A   1      49.138  26.361  24.793  1.00  0.00     0.022 A 
BRANCH  62  65
ATOM     65  S   UNL A   1      48.625  27.495  22.359  1.00  0.00     0.127 S 
ATOM     66  O   UNL A   1      47.467  28.284  21.942  1.00  0.00    -0.237 OA
ATOM     67  O   UNL A   1      49.879  28.246  22.432  1.00  0.00    -0.237 OA
ATOM     68  O   UNL A   1      48.739  26.180  21.745  1.00  0.00    -0.744 OA
ENDBRANCH  62  65
ENDBRANCH  44  58
BRANCH  45  69
ATOM     69  C   UNL A   1      38.737  30.518  31.122  1.00  0.00     0.023 A 
ATOM     70  C   UNL A   1      38.707  30.309  32.515  1.00  0.00     0.012 A 
ATOM     71  C   UNL A   1      37.662  31.189  30.508  1.00  0.00     0.148 A 
ATOM     72  C   UNL A   1      37.617  30.732  33.276  1.00  0.00     0.002 A 
ATOM     73  C   UNL A   1      36.603  31.656  31.279  1.00  0.00     0.091 A 
ATOM     74  F   UNL A   1      37.702  31.373  29.181  1.00  0.00    -0.205 F 
ATOM     75  C   UNL A   1      36.570  31.415  32.661  1.00  0.00     0.022 A 
BRANCH  73  76
ATOM     76  S   UNL A   1      35.282  32.661  30.589  1.00  0.00     0.127 S 
ATOM     77  O   UNL A   1      35.983  33.900  30.267  1.00  0.00    -0.237 OA
ATOM     78  O   UNL A   1      34.867  31.869  29.431  1.00  0.00    -0.237 OA
ATOM     79  O   UNL A   1      34.274  32.752  31.639  1.00  0.00    -0.744 OA
ENDBRANCH  73  76
ENDBRANCH  45  69
BRANCH  57  80
ATOM     80  C   UNL A   1      44.814  33.503  29.379  1.00  0.00     0.023 A 
ATOM     81  C   UNL A   1      45.521  33.723  30.576  1.00  0.00     0.012 A 
ATOM     82  C   UNL A   1      44.730  34.528  28.418  1.00  0.00     0.148 A 
ATOM     83  C   UNL A   1      46.116  34.959  30.826  1.00  0.00     0.002 A 
ATOM     84  C   UNL A   1      45.366  35.740  28.653  1.00  0.00     0.091 A 
ATOM     85  F   UNL A   1      44.033  34.300  27.296  1.00  0.00    -0.205 F 
ATOM     86  C   UNL A   1      46.049  35.960  29.860  1.00  0.00     0.022 A 
BRANCH  84  87
ATOM     87  S   UNL A   1      45.417  37.047  27.423  1.00  0.00     0.127 S 
ATOM     88  O   UNL A   1      44.000  37.381  27.286  1.00  0.00    -0.237 OA
ATOM     89  O   UNL A   1      46.223  38.071  28.089  1.00  0.00    -0.237 OA
ATOM     90  O   UNL A   1      46.041  36.462  26.244  1.00  0.00    -0.744 OA
ENDBRANCH  84  87
ENDBRANCH  57  80
ENDBRANCH  31  32
ENDBRANCH  23  26
ENDBRANCH  21  22
ENDBRANCH   1  21
TORSDOF 16
ENDMDL
MODEL 2
REMARK VINA RESULT:     -12.1      1.704      8.476
REMARK SMILES C[C@H]1C[C@@H]1C(=O)NC[C@@H]1CC[C@H](C(=O)NCCCNC(=O)c2ccc(-c3c4nc(c(-c5cccc(S(=O)(=O)[O-])c5F)c5ccc([nH]5)c(-c5cccc(S(=O)(=O)[O-])c5F)c5nc(c(-c6cccc(S(=O)(=O)[O-])c6F)c6ccc3[nH]6)C=C5)C=C4)cc2)O1
REMARK SMILES IDX 17 1 16 2 15 3 13 4 14 5 12 7 9 8 10 9 85 10 11 11 8 12 7 13
REMARK SMILES IDX 5 14 6 15 4 17 1 18 2 19 3 20 18 21 19 22 20 23 21 25 22 26
REMARK SMILES IDX 23 27 84 28 24 29 83 30 25 31 26 32 27 33 77 34 28 35 82 36
REMARK SMILES IDX 76 37 78 38 29 39 81 40 75 41 74 42 30 44 62 45 42 46 61 47
REMARK SMILES IDX 43 48 46 49 60 50 79 51 44 52 45 53 59 55 80 56 47 57 31 58
REMARK SMILES IDX 32 59 40 60 33 61 35 62 41 63 34 64 36 65 37 66 38 67 39 68
REMARK SMILES IDX 63 69 64 70 72 71 65 72 67 73 73 74 66 75 68 76 69 77 70 78
REMARK SMILES IDX 71 79 48 80 49 81 57 82 50 83 52 84 58 85 51 86 53 87 54 88
REMARK SMILES IDX 55 89 56 90
REMARK H PARENT 15 6 7 16 19 24 78 43 46 54
REMARK Flexibility Score: inf
ROOT
ATOM      1  C   UNL A   1      36.439  20.350  25.050  1.00  0.00     0.042 C 
ENDROOT
BRANCH   1   2
ATOM      2  C   UNL A   1      35.337  21.120  25.767  1.00  0.00     0.117 C 
BRANCH   2   3
ATOM      3  N   UNL A   1      34.040  20.486  25.700  1.00  0.00    -0.354 N 
ATOM      4  C   UNL A   1      32.927  20.886  25.021  1.00  0.00     0.249 C 
ATOM      5  O   UNL A   1      31.966  20.112  24.974  1.00  0.00    -0.272 OA
ATOM      6  H   UNL A   1      33.948  19.652  26.215  1.00  0.00     0.163 HD
BRANCH   4   7
ATOM      7  C   UNL A   1      32.851  22.279  24.369  1.00  0.00     0.207 C 
ATOM      8  C   UNL A   1      31.754  24.312  24.537  1.00  0.00     0.138 C 
ATOM      9  C   UNL A   1      30.966  23.515  23.512  1.00  0.00     0.037 C 
ATOM     10  O   UNL A   1      32.526  23.346  25.268  1.00  0.00    -0.363 OA
ATOM     11  C   UNL A   1      31.874  22.343  23.198  1.00  0.00     0.045 C 
BRANCH   8  12
ATOM     12  C   UNL A   1      30.956  25.213  25.498  1.00  0.00     0.147 C 
BRANCH  12  13
ATOM     13  N   UNL A   1      29.630  25.603  25.050  1.00  0.00    -0.353 N 
ATOM     14  C   UNL A   1      29.237  26.472  24.071  1.00  0.00     0.223 C 
ATOM     15  O   UNL A   1      28.050  26.545  23.793  1.00  0.00    -0.275 OA
ATOM     16  H   UNL A   1      28.891  25.168  25.532  1.00  0.00     0.163 HD
BRANCH  14  17
ATOM     17  C   UNL A   1      30.231  27.365  23.409  1.00  0.00     0.081 C 
ATOM     18  C   UNL A   1      32.045  29.082  24.222  1.00  0.00     0.008 C 
ATOM     19  C   UNL A   1      30.622  28.654  24.130  1.00  0.00    -0.001 C 
ATOM     20  C   UNL A   1      29.846  28.715  22.849  1.00  0.00     0.018 C 
ENDBRANCH  14  17
ENDBRANCH  12  13
ENDBRANCH   8  12
ENDBRANCH   4   7
ENDBRANCH   2   3
ENDBRANCH   1   2
BRANCH   1  21
ATOM     21  C   UNL A   1      37.790  21.038  25.165  1.00  0.00     0.118 C 
BRANCH  21  22
ATOM     22  N   UNL A   1      38.879  20.141  25.530  1.00  0.00    -0.352 N 
ATOM     23  C   UNL A   1      39.949  20.350  26.364  1.00  0.00     0.251 C 
ATOM     24  H   UNL A   1      38.841  19.248  25.115  1.00  0.00     0.163 HD
ATOM     25  O   UNL A   1      40.724  19.442  26.650  1.00  0.00    -0.269 OA
BRANCH  23  26
ATOM     26  C   UNL A   1      40.243  21.712  26.829  1.00  0.00     0.039 A 
ATOM     27  C   UNL A   1      41.153  21.839  27.884  1.00  0.00     0.014 A 
ATOM     28  C   UNL A   1      39.730  22.835  26.184  1.00  0.00     0.014 A 
ATOM     29  C   UNL A   1      41.628  23.096  28.228  1.00  0.00     0.010 A 
ATOM     30  C   UNL A   1      40.275  24.076  26.461  1.00  0.00     0.010 A 
ATOM     31  C   UNL A   1      41.234  24.210  27.476  1.00  0.00    -0.014 A 
BRANCH  31  32
ATOM     32  C   UNL A   1      41.842  25.532  27.711  1.00  0.00     0.031 A 
ATOM     33  C   UNL A   1      41.054  26.584  28.427  1.00  0.00     0.074 A 
ATOM     34  C   UNL A   1      43.054  25.786  27.182  1.00  0.00     0.049 A 
ATOM     35  N   UNL A   1      41.372  27.826  28.665  1.00  0.00    -0.248 NA
ATOM     36  C   UNL A   1      39.714  26.200  28.906  1.00  0.00     0.031 C 
ATOM     37  C   UNL A   1      43.848  24.838  26.392  1.00  0.00     0.029 A 
ATOM     38  N   UNL A   1      43.820  26.920  27.203  1.00  0.00    -0.354 N 
ATOM     39  C   UNL A   1      40.260  28.382  29.283  1.00  0.00     0.074 A 
ATOM     40  C   UNL A   1      39.245  27.356  29.352  1.00  0.00     0.031 C 
ATOM     41  C   UNL A   1      44.991  25.429  26.013  1.00  0.00     0.029 A 
ATOM     42  C   UNL A   1      45.000  26.800  26.507  1.00  0.00     0.049 A 
ATOM     43  H   UNL A   1      43.552  27.743  27.673  1.00  0.00     0.167 HD
ATOM     44  C   UNL A   1      40.116  29.634  29.775  1.00  0.00     0.034 A 
ATOM     45  C   UNL A   1      45.975  27.703  26.295  1.00  0.00     0.034 A 
ATOM     46  C   UNL A   1      41.162  30.617  29.735  1.00  0.00     0.049 A 
ATOM     47  C   UNL A   1      45.821  29.061  26.923  1.00  0.00     0.074 A 
ATOM     48  C   UNL A   1      41.171  31.891  30.270  1.00  0.00     0.029 A 
ATOM     49  N   UNL A   1      42.392  30.429  29.119  1.00  0.00    -0.354 N 
ATOM     50  N   UNL A   1      44.826  29.530  27.637  1.00  0.00    -0.248 NA
ATOM     51  C   UNL A   1      46.933  30.004  26.750  1.00  0.00     0.031 C 
ATOM     52  C   UNL A   1      42.405  32.478  29.967  1.00  0.00     0.029 A 
ATOM     53  C   UNL A   1      43.171  31.563  29.258  1.00  0.00     0.049 A 
ATOM     54  H   UNL A   1      42.670  29.609  28.651  1.00  0.00     0.167 HD
ATOM     55  C   UNL A   1      45.200  30.809  28.025  1.00  0.00     0.074 A 
ATOM     56  C   UNL A   1      46.528  31.031  27.484  1.00  0.00     0.031 C 
ATOM     57  C   UNL A   1      44.507  31.726  28.745  1.00  0.00     0.034 A 
BRANCH  44  58
ATOM     58  C   UNL A   1      38.808  29.975  30.436  1.00  0.00     0.023 A 
ATOM     59  C   UNL A   1      38.546  29.507  31.741  1.00  0.00     0.012 A 
ATOM     60  C   UNL A   1      37.847  30.767  29.781  1.00  0.00     0.148 A 
ATOM     61  C   UNL A   1      37.332  29.788  32.367  1.00  0.00     0.002 A 
ATOM     62  C   UNL A   1      36.655  31.079  30.429  1.00  0.00     0.091 A 
ATOM     63  F   UNL A   1      38.101  31.180  28.531  1.00  0.00    -0.205 F 
ATOM     64  C   UNL A   1      36.392  30.580  31.715  1.00  0.00     0.022 A 
BRANCH  62  65
ATOM     65  S   UNL A   1      35.409  32.149  29.703  1.00  0.00     0.127 S 
ATOM     66  O   UNL A   1      34.871  31.299  28.643  1.00  0.00    -0.237 OA
ATOM     67  O   UNL A   1      34.499  32.368  30.830  1.00  0.00    -0.237 OA
ATOM     68  O   UNL A   1      36.114  33.340  29.252  1.00  0.00    -0.744 OA
ENDBRANCH  62  65
ENDBRANCH  44  58
BRANCH  45  69
ATOM     69  C   UNL A   1      47.200  27.318  25.539  1.00  0.00     0.023 A 
ATOM     70  C   UNL A   1      48.148  26.471  26.148  1.00  0.00     0.012 A 
ATOM     71  C   UNL A   1      47.407  27.730  24.208  1.00  0.00     0.148 A 
ATOM     72  C   UNL A   1      49.292  26.068  25.458  1.00  0.00     0.002 A 
ATOM     73  C   UNL A   1      48.522  27.282  23.508  1.00  0.00     0.091 A 
ATOM     74  F   UNL A   1      46.501  28.542  23.646  1.00  0.00    -0.205 F 
ATOM     75  C   UNL A   1      49.474  26.464  24.135  1.00  0.00     0.022 A 
BRANCH  73  76
ATOM     76  S   UNL A   1      48.765  27.633  21.761  1.00  0.00     0.127 S 
ATOM     77  O   UNL A   1      49.493  28.898  21.807  1.00  0.00    -0.237 OA
ATOM     78  O   UNL A   1      49.556  26.482  21.324  1.00  0.00    -0.237 OA
ATOM     79  O   UNL A   1      47.427  27.687  21.186  1.00  0.00    -0.744 OA
ENDBRANCH  73  76
ENDBRANCH  45  69
BRANCH  57  80
ATOM     80  C   UNL A   1      45.182  33.044  29.004  1.00  0.00     0.023 A 
ATOM     81  C   UNL A   1      45.978  33.202  30.154  1.00  0.00     0.012 A 
ATOM     82  C   UNL A   1      45.095  34.089  28.065  1.00  0.00     0.148 A 
ATOM     83  C   UNL A   1      46.659  34.397  30.381  1.00  0.00     0.002 A 
ATOM     84  C   UNL A   1      45.816  35.257  28.273  1.00  0.00     0.091 A 
ATOM     85  F   UNL A   1      44.314  33.921  26.988  1.00  0.00    -0.205 F 
ATOM     86  C   UNL A   1      46.589  35.417  29.435  1.00  0.00     0.022 A 
BRANCH  84  87
ATOM     87  S   UNL A   1      45.863  36.580  27.060  1.00  0.00     0.127 S 
ATOM     88  O   UNL A   1      44.461  36.993  27.016  1.00  0.00    -0.237 OA
ATOM     89  O   UNL A   1      46.764  37.548  27.688  1.00  0.00    -0.237 OA
ATOM     90  O   UNL A   1      46.380  35.983  25.836  1.00  0.00    -0.744 OA
ENDBRANCH  84  87
ENDBRANCH  57  80
ENDBRANCH  31  32
ENDBRANCH  23  26
ENDBRANCH  21  22
ENDBRANCH   1  21
TORSDOF 16
ENDMDL
MODEL 3
REMARK VINA RESULT:     -12.0      5.986     12.622
REMARK SMILES C[C@H]1C[C@@H]1C(=O)NC[C@@H]1CC[C@H](C(=O)NCCCNC(=O)c2ccc(-c3c4nc(c(-c5cccc(S(=O)(=O)[O-])c5F)c5ccc([nH]5)c(-c5cccc(S(=O)(=O)[O-])c5F)c5nc(c(-c6cccc(S(=O)(=O)[O-])c6F)c6ccc3[nH]6)C=C5)C=C4)cc2)O1
REMARK SMILES IDX 17 1 16 2 15 3 13 4 14 5 12 7 9 8 10 9 85 10 11 11 8 12 7 13
REMARK SMILES IDX 5 14 6 15 4 17 1 18 2 19 3 20 18 21 19 22 20 23 21 25 22 26
REMARK SMILES IDX 23 27 84 28 24 29 83 30 25 31 26 32 27 33 77 34 28 35 82 36
REMARK SMILES IDX 76 37 78 38 29 39 81 40 75 41 74 42 30 44 62 45 42 46 61 47
REMARK SMILES IDX 43 48 46 49 60 50 79 51 44 52 45 53 59 55 80 56 47 57 31 58
REMARK SMILES IDX 32 59 40 60 33 61 35 62 41 63 34 64 36 65 37 66 38 67 39 68
REMARK SMILES IDX 63 69 64 70 72 71 65 72 67 73 73 74 66 75 68 76 69 77 70 78
REMARK SMILES IDX 71 79 48 80 49 81 57 82 50 83 52 84 58 85 51 86 53 87 54 88
REMARK SMILES IDX 55 89 56 90
REMARK H PARENT 15 6 7 16 19 24 78 43 46 54
REMARK Flexibility Score: inf
ROOT
ATOM      1  C   UNL A   1      33.716  35.430  29.245  1.00  0.00     0.042 C 
ENDROOT
BRANCH   1   2
ATOM      2  C   UNL A   1      33.490  35.671  30.733  1.00  0.00     0.117 C 
BRANCH   2   3
ATOM      3  N   UNL A   1      33.234  34.466  31.489  1.00  0.00    -0.354 N 
ATOM      4  C   UNL A   1      33.727  34.099  32.706  1.00  0.00     0.249 C 
ATOM      5  O   UNL A   1      33.256  33.093  33.245  1.00  0.00    -0.272 OA
ATOM      6  H   UNL A   1      32.620  33.822  31.067  1.00  0.00     0.163 HD
BRANCH   4   7
ATOM      7  C   UNL A   1      34.869  34.890  33.372  1.00  0.00     0.207 C 
ATOM      8  C   UNL A   1      37.179  34.979  33.518  1.00  0.00     0.138 C 
ATOM      9  C   UNL A   1      36.735  34.140  34.704  1.00  0.00     0.037 C 
ATOM     10  O   UNL A   1      36.074  34.968  32.600  1.00  0.00    -0.363 OA
ATOM     11  C   UNL A   1      35.237  34.365  34.757  1.00  0.00     0.045 C 
BRANCH   8  12
ATOM     12  C   UNL A   1      38.483  34.566  32.808  1.00  0.00     0.147 C 
BRANCH  12  13
ATOM     13  N   UNL A   1      38.523  34.790  31.374  1.00  0.00    -0.353 N 
ATOM     14  C   UNL A   1      39.435  34.398  30.434  1.00  0.00     0.223 C 
ATOM     15  O   UNL A   1      39.189  34.605  29.256  1.00  0.00    -0.275 OA
ATOM     16  H   UNL A   1      37.767  35.311  31.019  1.00  0.00     0.163 HD
BRANCH  14  17
ATOM     17  C   UNL A   1      40.736  33.797  30.847  1.00  0.00     0.081 C 
ATOM     18  C   UNL A   1      43.270  34.323  30.402  1.00  0.00     0.008 C 
ATOM     19  C   UNL A   1      41.923  33.946  29.896  1.00  0.00    -0.001 C 
ATOM     20  C   UNL A   1      41.321  32.594  30.142  1.00  0.00     0.018 C 
ENDBRANCH  14  17
ENDBRANCH  12  13
ENDBRANCH   8  12
ENDBRANCH   4   7
ENDBRANCH   2   3
ENDBRANCH   1   2
BRANCH   1  21
ATOM     21  C   UNL A   1      34.363  34.081  28.972  1.00  0.00     0.118 C 
BRANCH  21  22
ATOM     22  N   UNL A   1      33.630  33.258  28.019  1.00  0.00    -0.352 N 
ATOM     23  C   UNL A   1      33.849  31.961  27.627  1.00  0.00     0.251 C 
ATOM     24  H   UNL A   1      32.859  33.699  27.592  1.00  0.00     0.163 HD
ATOM     25  O   UNL A   1      33.064  31.375  26.887  1.00  0.00    -0.269 OA
BRANCH  23  26
ATOM     26  C   UNL A   1      35.106  31.299  28.000  1.00  0.00     0.039 A 
ATOM     27  C   UNL A   1      36.227  32.118  28.173  1.00  0.00     0.014 A 
ATOM     28  C   UNL A   1      35.162  29.935  28.280  1.00  0.00     0.014 A 
ATOM     29  C   UNL A   1      37.382  31.585  28.724  1.00  0.00     0.010 A 
ATOM     30  C   UNL A   1      36.279  29.426  28.919  1.00  0.00     0.010 A 
ATOM     31  C   UNL A   1      37.389  30.251  29.153  1.00  0.00    -0.014 A 
BRANCH  31  32
ATOM     32  C   UNL A   1      38.542  29.701  29.887  1.00  0.00     0.031 A 
ATOM     33  C   UNL A   1      38.838  30.199  31.268  1.00  0.00     0.074 A 
ATOM     34  C   UNL A   1      39.358  28.838  29.252  1.00  0.00     0.049 A 
ATOM     35  N   UNL A   1      39.840  29.905  32.048  1.00  0.00    -0.248 NA
ATOM     36  C   UNL A   1      37.903  31.190  31.832  1.00  0.00     0.031 C 
ATOM     37  C   UNL A   1      39.186  28.373  27.871  1.00  0.00     0.029 A 
ATOM     38  N   UNL A   1      40.505  28.218  29.668  1.00  0.00    -0.354 N 
ATOM     39  C   UNL A   1      39.681  30.701  33.175  1.00  0.00     0.074 A 
ATOM     40  C   UNL A   1      38.507  31.518  32.964  1.00  0.00     0.031 C 
ATOM     41  C   UNL A   1      40.186  27.535  27.560  1.00  0.00     0.029 A 
ATOM     42  C   UNL A   1      41.083  27.425  28.705  1.00  0.00     0.049 A 
ATOM     43  H   UNL A   1      40.880  28.329  30.572  1.00  0.00     0.167 HD
ATOM     44  C   UNL A   1      40.435  30.722  34.297  1.00  0.00     0.034 A 
ATOM     45  C   UNL A   1      42.212  26.695  28.749  1.00  0.00     0.034 A 
ATOM     46  C   UNL A   1      41.568  29.862  34.496  1.00  0.00     0.049 A 
ATOM     47  C   UNL A   1      42.986  26.677  30.038  1.00  0.00     0.074 A 
ATOM     48  C   UNL A   1      42.363  29.728  35.618  1.00  0.00     0.029 A 
ATOM     49  N   UNL A   1      42.065  28.986  33.541  1.00  0.00    -0.354 N 
ATOM     50  N   UNL A   1      42.740  27.321  31.154  1.00  0.00    -0.248 NA
ATOM     51  C   UNL A   1      44.168  25.809  30.092  1.00  0.00     0.031 C 
ATOM     52  C   UNL A   1      43.350  28.777  35.336  1.00  0.00     0.029 A 
ATOM     53  C   UNL A   1      43.158  28.306  34.044  1.00  0.00     0.049 A 
ATOM     54  H   UNL A   1      41.693  28.865  32.637  1.00  0.00     0.167 HD
ATOM     55  C   UNL A   1      43.716  26.916  32.054  1.00  0.00     0.074 A 
ATOM     56  C   UNL A   1      44.544  25.950  31.356  1.00  0.00     0.031 C 
ATOM     57  C   UNL A   1      43.927  27.316  33.332  1.00  0.00     0.034 A 
BRANCH  44  58
ATOM     58  C   UNL A   1      40.019  31.662  35.396  1.00  0.00     0.023 A 
ATOM     59  C   UNL A   1      40.618  32.936  35.485  1.00  0.00     0.012 A 
ATOM     60  C   UNL A   1      39.030  31.299  36.329  1.00  0.00     0.148 A 
ATOM     61  C   UNL A   1      40.269  33.818  36.508  1.00  0.00     0.002 A 
ATOM     62  C   UNL A   1      38.656  32.200  37.321  1.00  0.00     0.091 A 
ATOM     63  F   UNL A   1      38.492  30.074  36.246  1.00  0.00    -0.205 F 
ATOM     64  C   UNL A   1      39.282  33.453  37.419  1.00  0.00     0.022 A 
BRANCH  62  65
ATOM     65  S   UNL A   1      37.347  31.853  38.501  1.00  0.00     0.127 S 
ATOM     66  O   UNL A   1      36.321  32.813  38.095  1.00  0.00    -0.237 OA
ATOM     67  O   UNL A   1      37.027  30.456  38.201  1.00  0.00    -0.237 OA
ATOM     68  O   UNL A   1      37.924  32.074  39.819  1.00  0.00    -0.744 OA
ENDBRANCH  62  65
ENDBRANCH  44  58
BRANCH  45  69
ATOM     69  C   UNL A   1      42.612  25.866  27.576  1.00  0.00     0.023 A 
ATOM     70  C   UNL A   1      43.523  26.394  26.638  1.00  0.00     0.012 A 
ATOM     71  C   UNL A   1      42.150  24.546  27.411  1.00  0.00     0.148 A 
ATOM     72  C   UNL A   1      43.940  25.635  25.544  1.00  0.00     0.002 A 
ATOM     73  C   UNL A   1      42.611  23.776  26.348  1.00  0.00     0.091 A 
ATOM     74  F   UNL A   1      41.278  24.062  28.307  1.00  0.00    -0.205 F 
ATOM     75  C   UNL A   1      43.493  24.324  25.405  1.00  0.00     0.022 A 
BRANCH  73  76
ATOM     76  S   UNL A   1      42.192  22.037  26.169  1.00  0.00     0.127 S 
ATOM     77  O   UNL A   1      43.043  21.637  25.053  1.00  0.00    -0.237 OA
ATOM     78  O   UNL A   1      42.585  21.492  27.470  1.00  0.00    -0.237 OA
ATOM     79  O   UNL A   1      40.756  22.007  25.922  1.00  0.00    -0.744 OA
ENDBRANCH  73  76
ENDBRANCH  45  69
BRANCH  57  80
ATOM     80  C   UNL A   1      45.084  26.695  34.063  1.00  0.00     0.023 A 
ATOM     81  C   UNL A   1      46.357  27.289  33.980  1.00  0.00     0.012 A 
ATOM     82  C   UNL A   1      44.887  25.577  34.896  1.00  0.00     0.148 A 
ATOM     83  C   UNL A   1      47.429  26.762  34.697  1.00  0.00     0.002 A 
ATOM     84  C   UNL A   1      45.948  25.088  35.645  1.00  0.00     0.091 A 
ATOM     85  F   UNL A   1      43.670  25.017  34.941  1.00  0.00    -0.205 F 
ATOM     86  C   UNL A   1      47.222  25.671  35.539  1.00  0.00     0.022 A 
BRANCH  84  87
ATOM     87  S   UNL A   1      45.747  23.752  36.828  1.00  0.00     0.127 S 
ATOM     88  O   UNL A   1      45.308  22.655  35.967  1.00  0.00    -0.237 OA
ATOM     89  O   UNL A   1      47.101  23.603  37.364  1.00  0.00    -0.237 OA
ATOM     90  O   UNL A   1      44.766  24.221  37.797  1.00  0.00    -0.744 OA
ENDBRANCH  84  87
ENDBRANCH  57  80
ENDBRANCH  31  32
ENDBRANCH  23  26
ENDBRANCH  21  22
ENDBRANCH   1  21
TORSDOF 16
ENDMDL
