MODEL 1
REMARK VINA RESULT:     -12.7      0.000      0.000
REMARK SMILES Cc1ccc(S(=O)(=O)Nc2cc(C(=O)NCCCNC(=O)c3ccc(-c4c5nc(c(-c6cccc(S(=O)(=O)[O-])c6F)c6ccc([nH]6)c(-c6cccc(S(=O)(=O)[O-])c6F)c6nc(c(-c7cccc(S(=O)(=O)[O-])c7F)c7ccc4[nH]7)C=C6)C=C5)cc3)cnc2N2CCCC2)c(C)c1
REMARK SMILES IDX 17 1 16 2 15 3 13 4 14 5 12 7 10 8 11 9 87 10 86 11 85 12
REMARK SMILES IDX 9 13 6 15 7 16 8 17 5 18 1 19 2 20 3 21 95 22 4 23 93 24
REMARK SMILES IDX 94 25 88 26 89 27 92 28 90 29 91 30 18 31 19 32 20 33 21 35
REMARK SMILES IDX 22 36 23 37 84 38 24 39 83 40 25 41 26 42 27 43 77 44 28 45
REMARK SMILES IDX 82 46 76 47 78 48 29 49 81 50 75 51 74 52 30 54 62 55 42 56
REMARK SMILES IDX 61 57 43 58 46 59 60 60 79 61 44 62 45 63 59 65 80 66 47 67
REMARK SMILES IDX 31 68 32 69 40 70 33 71 35 72 41 73 34 74 36 75 37 76 38 77
REMARK SMILES IDX 39 78 63 79 64 80 72 81 65 82 67 83 73 84 66 85 68 86 69 87
REMARK SMILES IDX 70 88 71 89 48 90 49 91 57 92 50 93 52 94 58 95 51 96 53 97
REMARK SMILES IDX 54 98 55 99 56 100
REMARK H PARENT 15 6 9 14 19 34 78 53 46 64
REMARK Flexibility Score: inf
ROOT
ATOM      1  C   UNL A   1      31.451  31.963  26.555  1.00  0.00     0.042 C 
ENDROOT
BRANCH   1   2
ATOM      2  C   UNL A   1      31.588  30.510  26.110  1.00  0.00     0.118 C 
BRANCH   2   3
ATOM      3  N   UNL A   1      30.986  30.284  24.808  1.00  0.00    -0.352 N 
ATOM      4  C   UNL A   1      31.060  29.230  23.932  1.00  0.00     0.252 C 
ATOM      5  O   UNL A   1      30.340  29.260  22.935  1.00  0.00    -0.269 OA
ATOM      6  H   UNL A   1      30.417  31.025  24.496  1.00  0.00     0.163 HD
BRANCH   4   7
ATOM      7  C   UNL A   1      31.908  28.036  24.162  1.00  0.00     0.060 A 
ATOM      8  C   UNL A   1      32.544  25.977  25.217  1.00  0.00     0.092 A 
ATOM      9  C   UNL A   1      31.788  27.146  25.223  1.00  0.00     0.046 A 
ATOM     10  C   UNL A   1      33.558  25.798  24.247  1.00  0.00     0.153 A 
ATOM     11  N   UNL A   1      33.748  26.706  23.271  1.00  0.00    -0.236 NA
ATOM     12  C   UNL A   1      32.909  27.776  23.230  1.00  0.00     0.127 A 
BRANCH   8  13
ATOM     13  N   UNL A   1      32.321  24.942  26.166  1.00  0.00    -0.276 N 
ATOM     14  H   UNL A   1      32.768  25.026  27.039  1.00  0.00     0.180 HD
BRANCH  13  15
ATOM     15  S   UNL A   1      31.367  23.595  25.926  1.00  0.00     0.262 S 
ATOM     16  O   UNL A   1      30.435  23.950  24.872  1.00  0.00    -0.201 OA
ATOM     17  O   UNL A   1      30.910  23.226  27.248  1.00  0.00    -0.201 OA
BRANCH  15  18
ATOM     18  C   UNL A   1      32.294  22.188  25.304  1.00  0.00     0.090 A 
ATOM     19  C   UNL A   1      33.490  18.153  24.367  1.00  0.00     0.044 C 
ATOM     20  C   UNL A   1      33.150  19.587  24.650  1.00  0.00    -0.051 A 
ATOM     21  C   UNL A   1      32.525  20.387  23.693  1.00  0.00     0.005 A 
ATOM     22  C   UNL A   1      33.488  20.154  25.882  1.00  0.00     0.008 A 
ATOM     23  C   UNL A   1      32.116  21.690  24.010  1.00  0.00     0.023 A 
ATOM     24  C   UNL A   1      33.087  21.459  26.218  1.00  0.00    -0.030 A 
ATOM     25  C   UNL A   1      33.538  21.990  27.553  1.00  0.00     0.046 C 
ENDBRANCH  15  18
ENDBRANCH  13  15
ENDBRANCH   8  13
BRANCH  10  26
ATOM     26  N   UNL A   1      34.419  24.736  24.298  1.00  0.00    -0.355 N 
ATOM     27  C   UNL A   1      35.331  24.365  25.360  1.00  0.00     0.118 C 
ATOM     28  C   UNL A   1      34.538  23.877  23.129  1.00  0.00     0.118 C 
ATOM     29  C   UNL A   1      36.458  23.694  24.577  1.00  0.00     0.023 C 
ATOM     30  C   UNL A   1      35.704  22.948  23.480  1.00  0.00     0.023 C 
ENDBRANCH  10  26
ENDBRANCH   4   7
ENDBRANCH   2   3
ENDBRANCH   1   2
BRANCH   1  31
ATOM     31  C   UNL A   1      32.738  32.525  27.145  1.00  0.00     0.118 C 
BRANCH  31  32
ATOM     32  N   UNL A   1      32.579  33.909  27.571  1.00  0.00    -0.352 N 
ATOM     33  C   UNL A   1      33.183  34.577  28.607  1.00  0.00     0.251 C 
ATOM     34  H   UNL A   1      31.946  34.442  27.040  1.00  0.00     0.163 HD
ATOM     35  O   UNL A   1      32.771  35.692  28.920  1.00  0.00    -0.269 OA
BRANCH  33  36
ATOM     36  C   UNL A   1      34.309  33.965  29.348  1.00  0.00     0.039 A 
ATOM     37  C   UNL A   1      35.615  34.316  28.991  1.00  0.00     0.014 A 
ATOM     38  C   UNL A   1      34.091  33.022  30.356  1.00  0.00     0.014 A 
ATOM     39  C   UNL A   1      36.699  33.746  29.664  1.00  0.00     0.010 A 
ATOM     40  C   UNL A   1      35.169  32.506  31.072  1.00  0.00     0.010 A 
ATOM     41  C   UNL A   1      36.483  32.846  30.720  1.00  0.00    -0.014 A 
BRANCH  41  42
ATOM     42  C   UNL A   1      37.618  32.230  31.449  1.00  0.00     0.031 A 
ATOM     43  C   UNL A   1      38.395  31.103  30.821  1.00  0.00     0.074 A 
ATOM     44  C   UNL A   1      37.901  32.628  32.704  1.00  0.00     0.049 A 
ATOM     45  N   UNL A   1      39.389  30.411  31.314  1.00  0.00    -0.248 NA
ATOM     46  C   UNL A   1      37.981  30.676  29.474  1.00  0.00     0.031 C 
ATOM     47  C   UNL A   1      37.164  33.647  33.455  1.00  0.00     0.029 A 
ATOM     48  N   UNL A   1      38.869  32.206  33.580  1.00  0.00    -0.354 N 
ATOM     49  C   UNL A   1      39.689  29.445  30.362  1.00  0.00     0.074 A 
ATOM     50  C   UNL A   1      38.754  29.619  29.273  1.00  0.00     0.031 C 
ATOM     51  C   UNL A   1      37.710  33.774  34.675  1.00  0.00     0.029 A 
ATOM     52  C   UNL A   1      38.825  32.838  34.799  1.00  0.00     0.049 A 
ATOM     53  H   UNL A   1      39.534  31.514  33.356  1.00  0.00     0.167 HD
ATOM     54  C   UNL A   1      40.677  28.518  30.375  1.00  0.00     0.034 A 
ATOM     55  C   UNL A   1      39.603  32.690  35.889  1.00  0.00     0.034 A 
ATOM     56  C   UNL A   1      41.651  28.398  31.424  1.00  0.00     0.049 A 
ATOM     57  C   UNL A   1      40.755  31.724  35.839  1.00  0.00     0.074 A 
ATOM     58  C   UNL A   1      42.751  27.561  31.485  1.00  0.00     0.029 A 
ATOM     59  N   UNL A   1      41.650  29.145  32.591  1.00  0.00    -0.354 N 
ATOM     60  N   UNL A   1      41.126  30.935  34.859  1.00  0.00    -0.248 NA
ATOM     61  C   UNL A   1      41.621  31.657  37.024  1.00  0.00     0.031 C 
ATOM     62  C   UNL A   1      43.419  27.807  32.692  1.00  0.00     0.029 A 
ATOM     63  C   UNL A   1      42.732  28.796  33.379  1.00  0.00     0.049 A 
ATOM     64  H   UNL A   1      40.977  29.824  32.826  1.00  0.00     0.167 HD
ATOM     65  C   UNL A   1      42.283  30.302  35.296  1.00  0.00     0.074 A 
ATOM     66  C   UNL A   1      42.566  30.817  36.620  1.00  0.00     0.031 C 
ATOM     67  C   UNL A   1      43.034  29.365  34.666  1.00  0.00     0.034 A 
BRANCH  54  68
ATOM     68  C   UNL A   1      40.799  27.616  29.177  1.00  0.00     0.023 A 
ATOM     69  C   UNL A   1      40.030  26.436  29.124  1.00  0.00     0.012 A 
ATOM     70  C   UNL A   1      41.631  27.948  28.089  1.00  0.00     0.148 A 
ATOM     71  C   UNL A   1      40.108  25.584  28.024  1.00  0.00     0.002 A 
ATOM     72  C   UNL A   1      41.676  27.112  26.979  1.00  0.00     0.091 A 
ATOM     73  F   UNL A   1      42.377  29.059  28.167  1.00  0.00    -0.205 F 
ATOM     74  C   UNL A   1      40.923  25.926  26.948  1.00  0.00     0.022 A 
BRANCH  72  75
ATOM     75  S   UNL A   1      42.646  27.506  25.519  1.00  0.00     0.127 S 
ATOM     76  O   UNL A   1      42.011  28.744  25.068  1.00  0.00    -0.237 OA
ATOM     77  O   UNL A   1      43.990  27.678  26.070  1.00  0.00    -0.237 OA
ATOM     78  O   UNL A   1      42.502  26.362  24.629  1.00  0.00    -0.744 OA
ENDBRANCH  72  75
ENDBRANCH  54  68
BRANCH  55  79
ATOM     79  C   UNL A   1      39.378  33.559  37.078  1.00  0.00     0.023 A 
ATOM     80  C   UNL A   1      39.806  34.900  37.033  1.00  0.00     0.012 A 
ATOM     81  C   UNL A   1      38.709  33.090  38.223  1.00  0.00     0.148 A 
ATOM     82  C   UNL A   1      39.591  35.753  38.116  1.00  0.00     0.002 A 
ATOM     83  C   UNL A   1      38.455  33.958  39.281  1.00  0.00     0.091 A 
ATOM     84  F   UNL A   1      38.326  31.805  38.257  1.00  0.00    -0.205 F 
ATOM     85  C   UNL A   1      38.906  35.285  39.235  1.00  0.00     0.022 A 
BRANCH  83  86
ATOM     86  S   UNL A   1      37.470  33.464  40.700  1.00  0.00     0.127 S 
ATOM     87  O   UNL A   1      36.265  32.941  40.062  1.00  0.00    -0.237 OA
ATOM     88  O   UNL A   1      38.320  32.454  41.332  1.00  0.00    -0.237 OA
ATOM     89  O   UNL A   1      37.301  34.677  41.490  1.00  0.00    -0.744 OA
ENDBRANCH  83  86
ENDBRANCH  55  79
BRANCH  67  90
ATOM     90  C   UNL A   1      44.246  28.844  35.388  1.00  0.00     0.023 A 
ATOM     91  C   UNL A   1      45.483  29.497  35.221  1.00  0.00     0.012 A 
ATOM     92  C   UNL A   1      44.148  27.767  36.289  1.00  0.00     0.148 A 
ATOM     93  C   UNL A   1      46.610  29.071  35.923  1.00  0.00     0.002 A 
ATOM     94  C   UNL A   1      45.266  27.371  37.015  1.00  0.00     0.091 A 
ATOM     95  F   UNL A   1      42.968  27.141  36.417  1.00  0.00    -0.205 F 
ATOM     96  C   UNL A   1      46.498  28.018  36.827  1.00  0.00     0.022 A 
BRANCH  94  97
ATOM     97  S   UNL A   1      45.177  26.081  38.261  1.00  0.00     0.127 S 
ATOM     98  O   UNL A   1      46.563  26.003  38.714  1.00  0.00    -0.237 OA
ATOM     99  O   UNL A   1      44.247  26.647  39.240  1.00  0.00    -0.237 OA
ATOM    100  O   UNL A   1      44.668  24.904  37.568  1.00  0.00    -0.744 OA
ENDBRANCH  94  97
ENDBRANCH  67  90
ENDBRANCH  41  42
ENDBRANCH  33  36
ENDBRANCH  31  32
ENDBRANCH   1  31
TORSDOF 17
ENDMDL
MODEL 2
REMARK VINA RESULT:     -12.6      5.596     11.718
REMARK SMILES Cc1ccc(S(=O)(=O)Nc2cc(C(=O)NCCCNC(=O)c3ccc(-c4c5nc(c(-c6cccc(S(=O)(=O)[O-])c6F)c6ccc([nH]6)c(-c6cccc(S(=O)(=O)[O-])c6F)c6nc(c(-c7cccc(S(=O)(=O)[O-])c7F)c7ccc4[nH]7)C=C6)C=C5)cc3)cnc2N2CCCC2)c(C)c1
REMARK SMILES IDX 17 1 16 2 15 3 13 4 14 5 12 7 10 8 11 9 87 10 86 11 85 12
REMARK SMILES IDX 9 13 6 15 7 16 8 17 5 18 1 19 2 20 3 21 95 22 4 23 93 24
REMARK SMILES IDX 94 25 88 26 89 27 92 28 90 29 91 30 18 31 19 32 20 33 21 35
REMARK SMILES IDX 22 36 23 37 84 38 24 39 83 40 25 41 26 42 27 43 77 44 28 45
REMARK SMILES IDX 82 46 76 47 78 48 29 49 81 50 75 51 74 52 30 54 62 55 42 56
REMARK SMILES IDX 61 57 43 58 46 59 60 60 79 61 44 62 45 63 59 65 80 66 47 67
REMARK SMILES IDX 31 68 32 69 40 70 33 71 35 72 41 73 34 74 36 75 37 76 38 77
REMARK SMILES IDX 39 78 63 79 64 80 72 81 65 82 67 83 73 84 66 85 68 86 69 87
REMARK SMILES IDX 70 88 71 89 48 90 49 91 57 92 50 93 52 94 58 95 51 96 53 97
REMARK SMILES IDX 54 98 55 99 56 100
REMARK H PARENT 15 6 9 14 19 34 78 53 46 64
REMARK Flexibility Score: inf
ROOT
ATOM      1  C   UNL A   1      38.206  19.646  25.129  1.00  0.00     0.042 C 
ENDROOT
BRANCH   1   2
ATOM      2  C   UNL A   1      37.053  20.637  24.996  1.00  0.00     0.118 C 
BRANCH   2   3
ATOM      3  N   UNL A   1      35.764  19.970  25.000  1.00  0.00    -0.352 N 
ATOM      4  C   UNL A   1      34.480  20.453  25.044  1.00  0.00     0.252 C 
ATOM      5  O   UNL A   1      33.559  19.647  24.915  1.00  0.00    -0.269 OA
ATOM      6  H   UNL A   1      35.821  18.987  24.963  1.00  0.00     0.163 HD
BRANCH   4   7
ATOM      7  C   UNL A   1      34.154  21.893  25.168  1.00  0.00     0.060 A 
ATOM      8  C   UNL A   1      33.866  24.145  24.391  1.00  0.00     0.092 A 
ATOM      9  C   UNL A   1      34.378  22.865  24.200  1.00  0.00     0.046 A 
ATOM     10  C   UNL A   1      33.299  24.499  25.638  1.00  0.00     0.153 A 
ATOM     11  N   UNL A   1      33.168  23.587  26.620  1.00  0.00    -0.236 NA
ATOM     12  C   UNL A   1      33.563  22.313  26.358  1.00  0.00     0.127 A 
BRANCH   8  13
ATOM     13  N   UNL A   1      33.891  25.119  23.355  1.00  0.00    -0.276 N 
ATOM     14  H   UNL A   1      34.718  25.642  23.247  1.00  0.00     0.180 HD
BRANCH  13  15
ATOM     15  S   UNL A   1      32.638  25.451  22.306  1.00  0.00     0.262 S 
ATOM     16  O   UNL A   1      31.754  24.302  22.365  1.00  0.00    -0.201 OA
ATOM     17  O   UNL A   1      33.284  25.848  21.074  1.00  0.00    -0.201 OA
BRANCH  15  18
ATOM     18  C   UNL A   1      31.648  26.856  22.829  1.00  0.00     0.090 A 
ATOM     19  C   UNL A   1      29.126  30.352  22.755  1.00  0.00     0.044 C 
ATOM     20  C   UNL A   1      30.004  29.141  22.873  1.00  0.00    -0.051 A 
ATOM     21  C   UNL A   1      29.466  27.877  23.124  1.00  0.00     0.005 A 
ATOM     22  C   UNL A   1      31.390  29.269  22.761  1.00  0.00     0.008 A 
ATOM     23  C   UNL A   1      30.286  26.741  23.123  1.00  0.00     0.023 A 
ATOM     24  C   UNL A   1      32.230  28.140  22.758  1.00  0.00    -0.030 A 
ATOM     25  C   UNL A   1      33.712  28.392  22.675  1.00  0.00     0.046 C 
ENDBRANCH  15  18
ENDBRANCH  13  15
ENDBRANCH   8  13
BRANCH  10  26
ATOM     26  N   UNL A   1      32.923  25.784  25.915  1.00  0.00    -0.355 N 
ATOM     27  C   UNL A   1      33.735  26.983  25.907  1.00  0.00     0.118 C 
ATOM     28  C   UNL A   1      31.559  26.032  26.359  1.00  0.00     0.118 C 
ATOM     29  C   UNL A   1      33.045  27.829  26.975  1.00  0.00     0.023 C 
ATOM     30  C   UNL A   1      31.569  27.513  26.750  1.00  0.00     0.023 C 
ENDBRANCH  10  26
ENDBRANCH   4   7
ENDBRANCH   2   3
ENDBRANCH   1   2
BRANCH   1  31
ATOM     31  C   UNL A   1      39.286  20.121  26.092  1.00  0.00     0.118 C 
BRANCH  31  32
ATOM     32  N   UNL A   1      40.423  19.211  26.123  1.00  0.00    -0.352 N 
ATOM     33  C   UNL A   1      41.766  19.492  26.154  1.00  0.00     0.251 C 
ATOM     34  H   UNL A   1      40.195  18.254  26.120  1.00  0.00     0.163 HD
ATOM     35  O   UNL A   1      42.572  18.581  25.984  1.00  0.00    -0.269 OA
BRANCH  33  36
ATOM     36  C   UNL A   1      42.243  20.875  26.379  1.00  0.00     0.039 A 
ATOM     37  C   UNL A   1      42.586  21.263  27.678  1.00  0.00     0.014 A 
ATOM     38  C   UNL A   1      42.315  21.800  25.333  1.00  0.00     0.014 A 
ATOM     39  C   UNL A   1      43.029  22.565  27.922  1.00  0.00     0.010 A 
ATOM     40  C   UNL A   1      42.820  23.077  25.566  1.00  0.00     0.010 A 
ATOM     41  C   UNL A   1      43.162  23.479  26.865  1.00  0.00    -0.014 A 
BRANCH  41  42
ATOM     42  C   UNL A   1      43.631  24.866  27.102  1.00  0.00     0.031 A 
ATOM     43  C   UNL A   1      42.678  25.904  27.633  1.00  0.00     0.074 A 
ATOM     44  C   UNL A   1      44.889  25.212  26.767  1.00  0.00     0.049 A 
ATOM     45  N   UNL A   1      42.888  27.173  27.866  1.00  0.00    -0.248 NA
ATOM     46  C   UNL A   1      41.300  25.465  27.909  1.00  0.00     0.031 C 
ATOM     47  C   UNL A   1      45.879  24.320  26.159  1.00  0.00     0.029 A 
ATOM     48  N   UNL A   1      45.542  26.415  26.865  1.00  0.00    -0.354 N 
ATOM     49  C   UNL A   1      41.664  27.692  28.273  1.00  0.00     0.074 A 
ATOM     50  C   UNL A   1      40.709  26.608  28.228  1.00  0.00     0.031 C 
ATOM     51  C   UNL A   1      47.014  25.005  25.944  1.00  0.00     0.029 A 
ATOM     52  C   UNL A   1      46.830  26.385  26.386  1.00  0.00     0.049 A 
ATOM     53  H   UNL A   1      45.127  27.224  27.245  1.00  0.00     0.167 HD
ATOM     54  C   UNL A   1      41.369  28.949  28.682  1.00  0.00     0.034 A 
ATOM     55  C   UNL A   1      47.761  27.357  26.321  1.00  0.00     0.034 A 
ATOM     56  C   UNL A   1      42.337  30.004  28.798  1.00  0.00     0.049 A 
ATOM     57  C   UNL A   1      47.436  28.718  26.874  1.00  0.00     0.074 A 
ATOM     58  C   UNL A   1      42.162  31.282  29.298  1.00  0.00     0.029 A 
ATOM     59  N   UNL A   1      43.667  29.899  28.420  1.00  0.00    -0.354 N 
ATOM     60  N   UNL A   1      46.319  29.143  27.413  1.00  0.00    -0.248 NA
ATOM     61  C   UNL A   1      48.512  29.720  26.853  1.00  0.00     0.031 C 
ATOM     62  C   UNL A   1      43.391  31.951  29.225  1.00  0.00     0.029 A 
ATOM     63  C   UNL A   1      44.328  31.087  28.680  1.00  0.00     0.049 A 
ATOM     64  H   UNL A   1      44.080  29.098  28.025  1.00  0.00     0.167 HD
ATOM     65  C   UNL A   1      46.564  30.448  27.822  1.00  0.00     0.074 A 
ATOM     66  C   UNL A   1      47.945  30.737  27.490  1.00  0.00     0.031 C 
ATOM     67  C   UNL A   1      45.719  31.334  28.402  1.00  0.00     0.034 A 
BRANCH  54  68
ATOM     68  C   UNL A   1      39.954  29.225  29.113  1.00  0.00     0.023 A 
ATOM     69  C   UNL A   1      38.980  29.504  28.133  1.00  0.00     0.012 A 
ATOM     70  C   UNL A   1      39.574  29.166  30.469  1.00  0.00     0.148 A 
ATOM     71  C   UNL A   1      37.657  29.752  28.495  1.00  0.00     0.002 A 
ATOM     72  C   UNL A   1      38.245  29.378  30.819  1.00  0.00     0.091 A 
ATOM     73  F   UNL A   1      40.518  28.927  31.391  1.00  0.00    -0.205 F 
ATOM     74  C   UNL A   1      37.287  29.679  29.836  1.00  0.00     0.022 A 
BRANCH  72  75
ATOM     75  S   UNL A   1      37.665  29.238  32.514  1.00  0.00     0.127 S 
ATOM     76  O   UNL A   1      38.564  30.157  33.211  1.00  0.00    -0.237 OA
ATOM     77  O   UNL A   1      36.281  29.701  32.412  1.00  0.00    -0.237 OA
ATOM     78  O   UNL A   1      37.805  27.831  32.863  1.00  0.00    -0.744 OA
ENDBRANCH  72  75
ENDBRANCH  54  68
BRANCH  55  79
ATOM     79  C   UNL A   1      49.122  27.040  25.806  1.00  0.00     0.023 A 
ATOM     80  C   UNL A   1      49.991  26.271  26.604  1.00  0.00     0.012 A 
ATOM     81  C   UNL A   1      49.544  27.446  24.527  1.00  0.00     0.148 A 
ATOM     82  C   UNL A   1      51.265  25.931  26.147  1.00  0.00     0.002 A 
ATOM     83  C   UNL A   1      50.797  27.063  24.057  1.00  0.00     0.091 A 
ATOM     84  F   UNL A   1      48.711  28.193  23.787  1.00  0.00    -0.205 F 
ATOM     85  C   UNL A   1      51.663  26.317  24.870  1.00  0.00     0.022 A 
BRANCH  83  86
ATOM     86  S   UNL A   1      51.330  27.414  22.377  1.00  0.00     0.127 S 
ATOM     87  O   UNL A   1      51.210  28.868  22.321  1.00  0.00    -0.237 OA
ATOM     88  O   UNL A   1      52.705  26.910  22.376  1.00  0.00    -0.237 OA
ATOM     89  O   UNL A   1      50.421  26.662  21.522  1.00  0.00    -0.744 OA
ENDBRANCH  83  86
ENDBRANCH  55  79
BRANCH  67  90
ATOM     90  C   UNL A   1      46.260  32.698  28.735  1.00  0.00     0.023 A 
ATOM     91  C   UNL A   1      46.973  32.883  29.936  1.00  0.00     0.012 A 
ATOM     92  C   UNL A   1      46.137  33.769  27.830  1.00  0.00     0.148 A 
ATOM     93  C   UNL A   1      47.535  34.122  30.241  1.00  0.00     0.002 A 
ATOM     94  C   UNL A   1      46.733  34.991  28.124  1.00  0.00     0.091 A 
ATOM     95  F   UNL A   1      45.434  33.581  26.703  1.00  0.00    -0.205 F 
ATOM     96  C   UNL A   1      47.426  35.170  29.331  1.00  0.00     0.022 A 
BRANCH  94  97
ATOM     97  S   UNL A   1      46.708  36.358  26.959  1.00  0.00     0.127 S 
ATOM     98  O   UNL A   1      47.345  35.765  25.786  1.00  0.00    -0.237 OA
ATOM     99  O   UNL A   1      45.275  36.621  26.807  1.00  0.00    -0.237 OA
ATOM    100  O   UNL A   1      47.445  37.435  27.607  1.00  0.00    -0.744 OA
ENDBRANCH  94  97
ENDBRANCH  67  90
ENDBRANCH  41  42
ENDBRANCH  33  36
ENDBRANCH  31  32
ENDBRANCH   1  31
TORSDOF 17
ENDMDL
MODEL 3
REMARK VINA RESULT:     -12.5      1.388      7.474
REMARK SMILES Cc1ccc(S(=O)(=O)Nc2cc(C(=O)NCCCNC(=O)c3ccc(-c4c5nc(c(-c6cccc(S(=O)(=O)[O-])c6F)c6ccc([nH]6)c(-c6cccc(S(=O)(=O)[O-])c6F)c6nc(c(-c7cccc(S(=O)(=O)[O-])c7F)c7ccc4[nH]7)C=C6)C=C5)cc3)cnc2N2CCCC2)c(C)c1
REMARK SMILES IDX 17 1 16 2 15 3 13 4 14 5 12 7 10 8 11 9 87 10 86 11 85 12
REMARK SMILES IDX 9 13 6 15 7 16 8 17 5 18 1 19 2 20 3 21 95 22 4 23 93 24
REMARK SMILES IDX 94 25 88 26 89 27 92 28 90 29 91 30 18 31 19 32 20 33 21 35
REMARK SMILES IDX 22 36 23 37 84 38 24 39 83 40 25 41 26 42 27 43 77 44 28 45
REMARK SMILES IDX 82 46 76 47 78 48 29 49 81 50 75 51 74 52 30 54 62 55 42 56
REMARK SMILES IDX 61 57 43 58 46 59 60 60 79 61 44 62 45 63 59 65 80 66 47 67
REMARK SMILES IDX 31 68 32 69 40 70 33 71 35 72 41 73 34 74 36 75 37 76 38 77
REMARK SMILES IDX 39 78 63 79 64 80 72 81 65 82 67 83 73 84 66 85 68 86 69 87
REMARK SMILES IDX 70 88 71 89 48 90 49 91 57 92 50 93 52 94 58 95 51 96 53 97
REMARK SMILES IDX 54 98 55 99 56 100
REMARK H PARENT 15 6 9 14 19 34 78 53 46 64
REMARK Flexibility Score: inf
ROOT
ATOM      1  C   UNL A   1      31.474  32.099  26.574  1.00  0.00     0.042 C 
ENDROOT
BRANCH   1   2
ATOM      2  C   UNL A   1      31.605  30.637  26.156  1.00  0.00     0.118 C 
BRANCH   2   3
ATOM      3  N   UNL A   1      30.952  30.377  24.887  1.00  0.00    -0.352 N 
ATOM      4  C   UNL A   1      30.990  29.299  24.038  1.00  0.00     0.252 C 
ATOM      5  O   UNL A   1      30.230  29.303  23.070  1.00  0.00    -0.269 OA
ATOM      6  H   UNL A   1      30.372  31.110  24.577  1.00  0.00     0.163 HD
BRANCH   4   7
ATOM      7  C   UNL A   1      31.844  28.109  24.267  1.00  0.00     0.060 A 
ATOM      8  C   UNL A   1      32.497  26.058  25.327  1.00  0.00     0.092 A 
ATOM      9  C   UNL A   1      31.736  27.224  25.333  1.00  0.00     0.046 A 
ATOM     10  C   UNL A   1      33.504  25.879  24.351  1.00  0.00     0.153 A 
ATOM     11  N   UNL A   1      33.684  26.784  23.369  1.00  0.00    -0.236 NA
ATOM     12  C   UNL A   1      32.840  27.849  23.329  1.00  0.00     0.127 A 
BRANCH   8  13
ATOM     13  N   UNL A   1      32.285  25.026  26.282  1.00  0.00    -0.276 N 
ATOM     14  H   UNL A   1      32.747  25.111  27.147  1.00  0.00     0.180 HD
BRANCH  13  15
ATOM     15  S   UNL A   1      31.321  23.683  26.061  1.00  0.00     0.262 S 
ATOM     16  O   UNL A   1      30.404  24.023  24.989  1.00  0.00    -0.201 OA
ATOM     17  O   UNL A   1      30.846  23.348  27.386  1.00  0.00    -0.201 OA
BRANCH  15  18
ATOM     18  C   UNL A   1      32.242  22.254  25.482  1.00  0.00     0.090 A 
ATOM     19  C   UNL A   1      33.473  18.187  24.750  1.00  0.00     0.044 C 
ATOM     20  C   UNL A   1      33.117  19.630  24.955  1.00  0.00    -0.051 A 
ATOM     21  C   UNL A   1      32.418  20.351  23.985  1.00  0.00     0.005 A 
ATOM     22  C   UNL A   1      33.514  20.287  26.123  1.00  0.00     0.008 A 
ATOM     23  C   UNL A   1      32.000  21.664  24.237  1.00  0.00     0.023 A 
ATOM     24  C   UNL A   1      33.104  21.605  26.393  1.00  0.00    -0.030 A 
ATOM     25  C   UNL A   1      33.621  22.236  27.659  1.00  0.00     0.046 C 
ENDBRANCH  15  18
ENDBRANCH  13  15
ENDBRANCH   8  13
BRANCH  10  26
ATOM     26  N   UNL A   1      34.371  24.821  24.400  1.00  0.00    -0.355 N 
ATOM     27  C   UNL A   1      35.313  24.476  25.444  1.00  0.00     0.118 C 
ATOM     28  C   UNL A   1      34.459  23.937  23.248  1.00  0.00     0.118 C 
ATOM     29  C   UNL A   1      36.420  23.792  24.645  1.00  0.00     0.023 C 
ATOM     30  C   UNL A   1      35.638  23.019  23.586  1.00  0.00     0.023 C 
ENDBRANCH  10  26
ENDBRANCH   4   7
ENDBRANCH   2   3
ENDBRANCH   1   2
BRANCH   1  31
ATOM     31  C   UNL A   1      32.804  32.720  26.982  1.00  0.00     0.118 C 
BRANCH  31  32
ATOM     32  N   UNL A   1      32.620  33.988  27.674  1.00  0.00    -0.352 N 
ATOM     33  C   UNL A   1      33.246  34.467  28.798  1.00  0.00     0.251 C 
ATOM     34  H   UNL A   1      31.949  34.588  27.280  1.00  0.00     0.163 HD
ATOM     35  O   UNL A   1      32.813  35.483  29.336  1.00  0.00    -0.269 OA
BRANCH  33  36
ATOM     36  C   UNL A   1      34.422  33.769  29.365  1.00  0.00     0.039 A 
ATOM     37  C   UNL A   1      35.698  34.141  28.929  1.00  0.00     0.014 A 
ATOM     38  C   UNL A   1      34.277  32.727  30.285  1.00  0.00     0.014 A 
ATOM     39  C   UNL A   1      36.825  33.493  29.437  1.00  0.00     0.010 A 
ATOM     40  C   UNL A   1      35.403  32.127  30.842  1.00  0.00     0.010 A 
ATOM     41  C   UNL A   1      36.687  32.488  30.408  1.00  0.00    -0.014 A 
BRANCH  41  42
ATOM     42  C   UNL A   1      37.871  31.786  30.962  1.00  0.00     0.031 A 
ATOM     43  C   UNL A   1      38.393  32.150  32.327  1.00  0.00     0.074 A 
ATOM     44  C   UNL A   1      38.523  30.881  30.209  1.00  0.00     0.049 A 
ATOM     45  N   UNL A   1      39.435  31.682  32.963  1.00  0.00    -0.248 NA
ATOM     46  C   UNL A   1      37.667  33.201  33.060  1.00  0.00     0.031 C 
ATOM     47  C   UNL A   1      38.170  30.508  28.837  1.00  0.00     0.029 A 
ATOM     48  N   UNL A   1      39.637  30.126  30.481  1.00  0.00    -0.354 N 
ATOM     49  C   UNL A   1      39.515  32.407  34.146  1.00  0.00     0.074 A 
ATOM     50  C   UNL A   1      38.434  33.367  34.128  1.00  0.00     0.031 C 
ATOM     51  C   UNL A   1      39.046  29.593  28.391  1.00  0.00     0.029 A 
ATOM     52  C   UNL A   1      40.029  29.323  29.437  1.00  0.00     0.049 A 
ATOM     53  H   UNL A   1      40.111  30.157  31.344  1.00  0.00     0.167 HD
ATOM     54  C   UNL A   1      40.386  32.263  35.173  1.00  0.00     0.034 A 
ATOM     55  C   UNL A   1      41.057  28.458  29.338  1.00  0.00     0.034 A 
ATOM     56  C   UNL A   1      41.412  31.257  35.220  1.00  0.00     0.049 A 
ATOM     57  C   UNL A   1      41.951  28.246  30.530  1.00  0.00     0.074 A 
ATOM     58  C   UNL A   1      42.281  30.962  36.255  1.00  0.00     0.029 A 
ATOM     59  N   UNL A   1      41.699  30.374  34.191  1.00  0.00    -0.354 N 
ATOM     60  N   UNL A   1      41.905  28.823  31.706  1.00  0.00    -0.248 NA
ATOM     61  C   UNL A   1      43.008  27.234  30.398  1.00  0.00     0.031 C 
ATOM     62  C   UNL A   1      43.093  29.894  35.852  1.00  0.00     0.029 A 
ATOM     63  C   UNL A   1      42.728  29.528  34.566  1.00  0.00     0.049 A 
ATOM     64  H   UNL A   1      41.239  30.353  33.321  1.00  0.00     0.167 HD
ATOM     65  C   UNL A   1      42.904  28.225  32.464  1.00  0.00     0.074 A 
ATOM     66  C   UNL A   1      43.524  27.223  31.621  1.00  0.00     0.031 C 
ATOM     67  C   UNL A   1      43.288  28.493  33.736  1.00  0.00     0.034 A 
BRANCH  54  68
ATOM     68  C   UNL A   1      40.213  33.165  36.364  1.00  0.00     0.023 A 
ATOM     69  C   UNL A   1      40.836  34.429  36.364  1.00  0.00     0.012 A 
ATOM     70  C   UNL A   1      39.406  32.791  37.457  1.00  0.00     0.148 A 
ATOM     71  C   UNL A   1      40.686  35.297  37.446  1.00  0.00     0.002 A 
ATOM     72  C   UNL A   1      39.231  33.676  38.516  1.00  0.00     0.091 A 
ATOM     73  F   UNL A   1      38.844  31.575  37.454  1.00  0.00    -0.205 F 
ATOM     74  C   UNL A   1      39.877  34.925  38.516  1.00  0.00     0.022 A 
BRANCH  72  75
ATOM     75  S   UNL A   1      38.153  33.310  39.905  1.00  0.00     0.127 S 
ATOM     76  O   UNL A   1      36.887  33.026  39.230  1.00  0.00    -0.237 OA
ATOM     77  O   UNL A   1      38.798  32.141  40.505  1.00  0.00    -0.237 OA
ATOM     78  O   UNL A   1      38.169  34.502  40.741  1.00  0.00    -0.744 OA
ENDBRANCH  72  75
ENDBRANCH  54  68
BRANCH  55  79
ATOM     79  C   UNL A   1      41.224  27.651  28.097  1.00  0.00     0.023 A 
ATOM     80  C   UNL A   1      41.801  28.255  26.963  1.00  0.00     0.012 A 
ATOM     81  C   UNL A   1      40.867  26.291  28.044  1.00  0.00     0.148 A 
ATOM     82  C   UNL A   1      41.999  27.525  25.790  1.00  0.00     0.002 A 
ATOM     83  C   UNL A   1      41.110  25.556  26.887  1.00  0.00     0.091 A 
ATOM     84  F   UNL A   1      40.301  25.737  29.127  1.00  0.00    -0.205 F 
ATOM     85  C   UNL A   1      41.664  26.174  25.756  1.00  0.00     0.022 A 
BRANCH  83  86
ATOM     86  S   UNL A   1      40.823  23.784  26.809  1.00  0.00     0.127 S 
ATOM     87  O   UNL A   1      41.268  23.349  28.130  1.00  0.00    -0.237 OA
ATOM     88  O   UNL A   1      39.377  23.713  26.592  1.00  0.00    -0.237 OA
ATOM     89  O   UNL A   1      41.617  23.318  25.680  1.00  0.00    -0.744 OA
ENDBRANCH  83  86
ENDBRANCH  55  79
BRANCH  67  90
ATOM     90  C   UNL A   1      44.419  27.683  34.308  1.00  0.00     0.023 A 
ATOM     91  C   UNL A   1      45.734  28.181  34.226  1.00  0.00     0.012 A 
ATOM     92  C   UNL A   1      44.176  26.479  34.995  1.00  0.00     0.148 A 
ATOM     93  C   UNL A   1      46.794  27.479  34.799  1.00  0.00     0.002 A 
ATOM     94  C   UNL A   1      45.232  25.804  35.597  1.00  0.00     0.091 A 
ATOM     95  F   UNL A   1      42.921  26.008  35.041  1.00  0.00    -0.205 F 
ATOM     96  C   UNL A   1      46.541  26.299  35.494  1.00  0.00     0.022 A 
BRANCH  94  97
ATOM     97  S   UNL A   1      44.968  24.325  36.582  1.00  0.00     0.127 S 
ATOM     98  O   UNL A   1      44.123  23.523  35.700  1.00  0.00    -0.237 OA
ATOM     99  O   UNL A   1      46.328  23.810  36.754  1.00  0.00    -0.237 OA
ATOM    100  O   UNL A   1      44.344  24.784  37.816  1.00  0.00    -0.744 OA
ENDBRANCH  94  97
ENDBRANCH  67  90
ENDBRANCH  41  42
ENDBRANCH  33  36
ENDBRANCH  31  32
ENDBRANCH   1  31
TORSDOF 17
ENDMDL
