MODEL 1
REMARK VINA RESULT:     -12.2      0.000      0.000
REMARK SMILES COC(=O)c1ccc(Cl)c(-c2ccc(C(=O)NCCCNC(=O)c3ccc(-c4c5nc(c(-c6cccc(S(=O)(=O)[O-])c6F)c6ccc([nH]6)c(-c6cccc(S(=O)(=O)[O-])c6F)c6nc(c(-c7cccc(S(=O)(=O)[O-])c7F)c7ccc4[nH]7)C=C6)C=C5)cc3)c(F)c2)c1
REMARK SMILES IDX 19 1 18 2 17 3 15 4 16 5 14 7 11 8 12 9 89 10 13 11 87 12
REMARK SMILES IDX 88 13 10 14 5 15 6 16 90 17 7 18 8 19 9 20 3 21 4 22 2 23
REMARK SMILES IDX 1 24 20 25 21 26 22 27 23 29 24 30 25 31 86 32 26 33 85 34
REMARK SMILES IDX 27 35 28 36 29 37 79 38 30 39 84 40 78 41 80 42 31 43 83 44
REMARK SMILES IDX 77 45 76 46 32 48 64 49 44 50 63 51 45 52 48 53 62 54 81 55
REMARK SMILES IDX 46 56 47 57 61 59 82 60 49 61 33 62 34 63 42 64 35 65 37 66
REMARK SMILES IDX 43 67 36 68 38 69 39 70 40 71 41 72 65 73 66 74 74 75 67 76
REMARK SMILES IDX 69 77 75 78 68 79 70 80 71 81 72 82 73 83 50 84 51 85 59 86
REMARK SMILES IDX 52 87 54 88 60 89 53 90 55 91 56 92 57 93 58 94
REMARK H PARENT 17 6 21 28 80 47 48 58
REMARK Flexibility Score: inf
ROOT
ATOM      1  C   UNL A   1      33.335  28.802  24.824  1.00  0.00     0.042 C 
ENDROOT
BRANCH   1   2
ATOM      2  C   UNL A   1      31.817  28.940  24.937  1.00  0.00     0.118 C 
BRANCH   2   3
ATOM      3  N   UNL A   1      31.161  28.698  23.663  1.00  0.00    -0.352 N 
ATOM      4  C   UNL A   1      31.111  27.600  22.845  1.00  0.00     0.254 C 
ATOM      5  O   UNL A   1      30.390  27.677  21.847  1.00  0.00    -0.269 OA
ATOM      6  H   UNL A   1      30.655  29.471  23.323  1.00  0.00     0.163 HD
BRANCH   4   7
ATOM      7  C   UNL A   1      31.800  26.310  23.113  1.00  0.00     0.075 A 
ATOM      8  C   UNL A   1      32.939  23.783  23.742  1.00  0.00    -0.014 A 
ATOM      9  C   UNL A   1      31.722  24.174  24.310  1.00  0.00     0.010 A 
ATOM     10  C   UNL A   1      33.555  24.655  22.837  1.00  0.00     0.048 A 
ATOM     11  C   UNL A   1      31.162  25.422  23.998  1.00  0.00     0.017 A 
ATOM     12  C   UNL A   1      32.981  25.882  22.515  1.00  0.00     0.136 A 
ATOM     13  F   UNL A   1      33.612  26.593  21.579  1.00  0.00    -0.206 F 
BRANCH   8  14
ATOM     14  C   UNL A   1      33.591  22.508  24.059  1.00  0.00     0.001 A 
ATOM     15  C   UNL A   1      33.374  20.078  24.234  1.00  0.00     0.060 A 
ATOM     16  C   UNL A   1      34.611  20.004  24.879  1.00  0.00     0.017 A 
ATOM     17  C   UNL A   1      32.882  21.317  23.809  1.00  0.00     0.026 A 
ATOM     18  C   UNL A   1      35.347  21.170  25.099  1.00  0.00     0.022 A 
ATOM     19  C   UNL A   1      34.842  22.414  24.698  1.00  0.00     0.048 A 
ATOM     20  Cl  UNL A   1      35.790  23.814  25.062  1.00  0.00    -0.084 Cl
BRANCH  15  21
ATOM     21  C   UNL A   1      32.523  18.885  24.007  1.00  0.00     0.337 C 
ATOM     22  O   UNL A   1      32.157  18.517  22.909  1.00  0.00    -0.246 OA
BRANCH  21  23
ATOM     23  O   UNL A   1      32.157  18.361  25.204  1.00  0.00    -0.465 OA
ATOM     24  C   UNL A   1      32.530  16.992  25.368  1.00  0.00     0.282 C 
ENDBRANCH  21  23
ENDBRANCH  15  21
ENDBRANCH   8  14
ENDBRANCH   4   7
ENDBRANCH   2   3
ENDBRANCH   1   2
BRANCH   1  25
ATOM     25  C   UNL A   1      34.075  28.934  26.149  1.00  0.00     0.118 C 
BRANCH  25  26
ATOM     26  N   UNL A   1      33.861  30.233  26.769  1.00  0.00    -0.352 N 
ATOM     27  C   UNL A   1      34.560  30.854  27.773  1.00  0.00     0.251 C 
ATOM     28  H   UNL A   1      33.098  30.744  26.414  1.00  0.00     0.163 HD
ATOM     29  O   UNL A   1      34.082  31.859  28.297  1.00  0.00    -0.269 OA
BRANCH  27  30
ATOM     30  C   UNL A   1      35.869  30.334  28.235  1.00  0.00     0.039 A 
ATOM     31  C   UNL A   1      35.930  29.680  29.470  1.00  0.00     0.014 A 
ATOM     32  C   UNL A   1      37.040  30.539  27.501  1.00  0.00     0.014 A 
ATOM     33  C   UNL A   1      37.154  29.205  29.950  1.00  0.00     0.010 A 
ATOM     34  C   UNL A   1      38.248  30.001  27.946  1.00  0.00     0.010 A 
ATOM     35  C   UNL A   1      38.322  29.346  29.183  1.00  0.00    -0.014 A 
BRANCH  35  36
ATOM     36  C   UNL A   1      39.625  28.821  29.666  1.00  0.00     0.031 A 
ATOM     37  C   UNL A   1      40.358  29.514  30.785  1.00  0.00     0.074 A 
ATOM     38  C   UNL A   1      40.185  27.762  29.047  1.00  0.00     0.049 A 
ATOM     39  N   UNL A   1      41.521  29.225  31.309  1.00  0.00    -0.248 NA
ATOM     40  C   UNL A   1      39.718  30.702  31.375  1.00  0.00     0.031 C 
ATOM     41  C   UNL A   1      39.615  27.061  27.896  1.00  0.00     0.029 A 
ATOM     42  N   UNL A   1      41.371  27.110  29.280  1.00  0.00    -0.354 N 
ATOM     43  C   UNL A   1      41.771  30.213  32.254  1.00  0.00     0.074 A 
ATOM     44  C   UNL A   1      40.650  31.125  32.218  1.00  0.00     0.031 C 
ATOM     45  C   UNL A   1      40.449  26.077  27.522  1.00  0.00     0.029 A 
ATOM     46  C   UNL A   1      41.624  26.092  28.389  1.00  0.00     0.049 A 
ATOM     47  H   UNL A   1      41.982  27.347  30.014  1.00  0.00     0.167 HD
ATOM     48  C   UNL A   1      42.825  30.332  33.093  1.00  0.00     0.034 A 
ATOM     49  C   UNL A   1      42.685  25.267  28.276  1.00  0.00     0.034 A 
ATOM     50  C   UNL A   1      43.900  29.381  33.174  1.00  0.00     0.049 A 
ATOM     51  C   UNL A   1      43.803  25.371  29.277  1.00  0.00     0.074 A 
ATOM     52  C   UNL A   1      44.948  29.350  34.076  1.00  0.00     0.029 A 
ATOM     53  N   UNL A   1      44.068  28.299  32.326  1.00  0.00    -0.354 N 
ATOM     54  N   UNL A   1      43.933  26.207  30.278  1.00  0.00    -0.248 NA
ATOM     55  C   UNL A   1      44.901  24.399  29.162  1.00  0.00     0.031 C 
ATOM     56  C   UNL A   1      45.763  28.262  33.759  1.00  0.00     0.029 A 
ATOM     57  C   UNL A   1      45.209  27.600  32.675  1.00  0.00     0.049 A 
ATOM     58  H   UNL A   1      43.465  28.063  31.584  1.00  0.00     0.167 HD
ATOM     59  C   UNL A   1      45.108  25.847  30.927  1.00  0.00     0.074 A 
ATOM     60  C   UNL A   1      45.643  24.702  30.220  1.00  0.00     0.031 C 
ATOM     61  C   UNL A   1      45.700  26.427  32.000  1.00  0.00     0.034 A 
BRANCH  48  62
ATOM     62  C   UNL A   1      42.851  31.492  34.055  1.00  0.00     0.023 A 
ATOM     63  C   UNL A   1      43.363  32.733  33.630  1.00  0.00     0.012 A 
ATOM     64  C   UNL A   1      42.251  31.387  35.326  1.00  0.00     0.148 A 
ATOM     65  C   UNL A   1      43.293  33.851  34.460  1.00  0.00     0.002 A 
ATOM     66  C   UNL A   1      42.145  32.515  36.130  1.00  0.00     0.091 A 
ATOM     67  F   UNL A   1      41.784  30.193  35.716  1.00  0.00    -0.205 F 
ATOM     68  C   UNL A   1      42.672  33.746  35.702  1.00  0.00     0.022 A 
BRANCH  66  69
ATOM     69  S   UNL A   1      41.288  32.510  37.709  1.00  0.00     0.127 S 
ATOM     70  O   UNL A   1      42.114  31.591  38.491  1.00  0.00    -0.237 OA
ATOM     71  O   UNL A   1      41.386  33.912  38.115  1.00  0.00    -0.237 OA
ATOM     72  O   UNL A   1      39.935  32.047  37.434  1.00  0.00    -0.744 OA
ENDBRANCH  66  69
ENDBRANCH  48  62
BRANCH  49  73
ATOM     73  C   UNL A   1      42.692  24.221  27.212  1.00  0.00     0.023 A 
ATOM     74  C   UNL A   1      43.409  24.449  26.022  1.00  0.00     0.012 A 
ATOM     75  C   UNL A   1      42.050  22.982  27.400  1.00  0.00     0.148 A 
ATOM     76  C   UNL A   1      43.469  23.469  25.029  1.00  0.00     0.002 A 
ATOM     77  C   UNL A   1      42.162  21.989  26.434  1.00  0.00     0.091 A 
ATOM     78  F   UNL A   1      41.358  22.789  28.533  1.00  0.00    -0.205 F 
ATOM     79  C   UNL A   1      42.858  22.236  25.240  1.00  0.00     0.022 A 
BRANCH  77  80
ATOM     80  S   UNL A   1      41.536  20.324  26.689  1.00  0.00     0.127 S 
ATOM     81  O   UNL A   1      41.942  19.658  25.454  1.00  0.00    -0.237 OA
ATOM     82  O   UNL A   1      42.267  19.904  27.886  1.00  0.00    -0.237 OA
ATOM     83  O   UNL A   1      40.101  20.473  26.889  1.00  0.00    -0.744 OA
ENDBRANCH  77  80
ENDBRANCH  49  73
BRANCH  61  84
ATOM     84  C   UNL A   1      46.990  25.837  32.507  1.00  0.00     0.023 A 
ATOM     85  C   UNL A   1      46.965  24.946  33.596  1.00  0.00     0.012 A 
ATOM     86  C   UNL A   1      48.200  26.062  31.820  1.00  0.00     0.148 A 
ATOM     87  C   UNL A   1      48.129  24.296  34.005  1.00  0.00     0.002 A 
ATOM     88  C   UNL A   1      49.345  25.374  32.202  1.00  0.00     0.091 A 
ATOM     89  F   UNL A   1      48.203  26.927  30.795  1.00  0.00    -0.205 F 
ATOM     90  C   UNL A   1      49.314  24.498  33.300  1.00  0.00     0.022 A 
BRANCH  88  91
ATOM     91  S   UNL A   1      50.889  25.488  31.289  1.00  0.00     0.127 S 
ATOM     92  O   UNL A   1      51.744  24.566  32.035  1.00  0.00    -0.237 OA
ATOM     93  O   UNL A   1      50.498  25.018  29.960  1.00  0.00    -0.237 OA
ATOM     94  O   UNL A   1      51.286  26.888  31.343  1.00  0.00    -0.744 OA
ENDBRANCH  88  91
ENDBRANCH  61  84
ENDBRANCH  35  36
ENDBRANCH  27  30
ENDBRANCH  25  26
ENDBRANCH   1  25
TORSDOF 16
ENDMDL
MODEL 2
REMARK VINA RESULT:     -12.1      4.779      9.858
REMARK SMILES COC(=O)c1ccc(Cl)c(-c2ccc(C(=O)NCCCNC(=O)c3ccc(-c4c5nc(c(-c6cccc(S(=O)(=O)[O-])c6F)c6ccc([nH]6)c(-c6cccc(S(=O)(=O)[O-])c6F)c6nc(c(-c7cccc(S(=O)(=O)[O-])c7F)c7ccc4[nH]7)C=C6)C=C5)cc3)c(F)c2)c1
REMARK SMILES IDX 19 1 18 2 17 3 15 4 16 5 14 7 11 8 12 9 89 10 13 11 87 12
REMARK SMILES IDX 88 13 10 14 5 15 6 16 90 17 7 18 8 19 9 20 3 21 4 22 2 23
REMARK SMILES IDX 1 24 20 25 21 26 22 27 23 29 24 30 25 31 86 32 26 33 85 34
REMARK SMILES IDX 27 35 28 36 29 37 79 38 30 39 84 40 78 41 80 42 31 43 83 44
REMARK SMILES IDX 77 45 76 46 32 48 64 49 44 50 63 51 45 52 48 53 62 54 81 55
REMARK SMILES IDX 46 56 47 57 61 59 82 60 49 61 33 62 34 63 42 64 35 65 37 66
REMARK SMILES IDX 43 67 36 68 38 69 39 70 40 71 41 72 65 73 66 74 74 75 67 76
REMARK SMILES IDX 69 77 75 78 68 79 70 80 71 81 72 82 73 83 50 84 51 85 59 86
REMARK SMILES IDX 52 87 54 88 60 89 53 90 55 91 56 92 57 93 58 94
REMARK H PARENT 17 6 21 28 80 47 48 58
REMARK Flexibility Score: inf
ROOT
ATOM      1  C   UNL A   1      36.008  21.587  25.262  1.00  0.00     0.042 C 
ENDROOT
BRANCH   1   2
ATOM      2  C   UNL A   1      34.998  21.466  26.403  1.00  0.00     0.118 C 
BRANCH   2   3
ATOM      3  N   UNL A   1      33.790  20.778  25.979  1.00  0.00    -0.352 N 
ATOM      4  C   UNL A   1      32.576  21.234  25.536  1.00  0.00     0.254 C 
ATOM      5  O   UNL A   1      31.760  20.386  25.167  1.00  0.00    -0.269 OA
ATOM      6  H   UNL A   1      33.856  19.797  26.018  1.00  0.00     0.163 HD
BRANCH   4   7
ATOM      7  C   UNL A   1      32.206  22.667  25.400  1.00  0.00     0.075 A 
ATOM      8  C   UNL A   1      31.587  25.403  24.937  1.00  0.00    -0.014 A 
ATOM      9  C   UNL A   1      32.344  24.680  24.010  1.00  0.00     0.010 A 
ATOM     10  C   UNL A   1      31.122  24.732  26.074  1.00  0.00     0.048 A 
ATOM     11  C   UNL A   1      32.649  23.330  24.240  1.00  0.00     0.017 A 
ATOM     12  C   UNL A   1      31.408  23.386  26.284  1.00  0.00     0.136 A 
ATOM     13  F   UNL A   1      30.843  22.831  27.357  1.00  0.00    -0.206 F 
BRANCH   8  14
ATOM     14  C   UNL A   1      31.270  26.825  24.769  1.00  0.00     0.001 A 
ATOM     15  C   UNL A   1      29.861  28.499  23.674  1.00  0.00     0.060 A 
ATOM     16  C   UNL A   1      30.701  29.518  24.130  1.00  0.00     0.017 A 
ATOM     17  C   UNL A   1      30.134  27.168  24.011  1.00  0.00     0.026 A 
ATOM     18  C   UNL A   1      31.810  29.200  24.917  1.00  0.00     0.022 A 
ATOM     19  C   UNL A   1      32.098  27.865  25.231  1.00  0.00     0.048 A 
ATOM     20  Cl  UNL A   1      33.524  27.554  26.159  1.00  0.00    -0.084 Cl
BRANCH  15  21
ATOM     21  C   UNL A   1      28.693  28.764  22.801  1.00  0.00     0.337 C 
ATOM     22  O   UNL A   1      27.563  28.398  23.058  1.00  0.00    -0.246 OA
BRANCH  21  23
ATOM     23  O   UNL A   1      29.111  29.371  21.663  1.00  0.00    -0.465 OA
ATOM     24  C   UNL A   1      28.327  30.507  21.297  1.00  0.00     0.282 C 
ENDBRANCH  21  23
ENDBRANCH  15  21
ENDBRANCH   8  14
ENDBRANCH   4   7
ENDBRANCH   2   3
ENDBRANCH   1   2
BRANCH   1  25
ATOM     25  C   UNL A   1      37.329  22.230  25.663  1.00  0.00     0.118 C 
BRANCH  25  26
ATOM     26  N   UNL A   1      38.322  21.242  26.057  1.00  0.00    -0.352 N 
ATOM     27  C   UNL A   1      39.610  21.416  26.497  1.00  0.00     0.251 C 
ATOM     28  H   UNL A   1      38.024  20.305  25.999  1.00  0.00     0.163 HD
ATOM     29  O   UNL A   1      40.350  20.437  26.573  1.00  0.00    -0.269 OA
BRANCH  27  30
ATOM     30  C   UNL A   1      40.119  22.756  26.875  1.00  0.00     0.039 A 
ATOM     31  C   UNL A   1      39.736  23.858  26.104  1.00  0.00     0.014 A 
ATOM     32  C   UNL A   1      41.015  22.929  27.934  1.00  0.00     0.014 A 
ATOM     33  C   UNL A   1      40.224  25.132  26.412  1.00  0.00     0.010 A 
ATOM     34  C   UNL A   1      41.442  24.209  28.286  1.00  0.00     0.010 A 
ATOM     35  C   UNL A   1      41.068  25.321  27.519  1.00  0.00    -0.014 A 
BRANCH  35  36
ATOM     36  C   UNL A   1      41.570  26.672  27.878  1.00  0.00     0.031 A 
ATOM     37  C   UNL A   1      42.999  27.054  27.594  1.00  0.00     0.074 A 
ATOM     38  C   UNL A   1      40.760  27.531  28.529  1.00  0.00     0.049 A 
ATOM     39  N   UNL A   1      43.623  28.169  27.872  1.00  0.00    -0.248 NA
ATOM     40  C   UNL A   1      43.848  26.045  26.936  1.00  0.00     0.031 C 
ATOM     41  C   UNL A   1      39.384  27.245  28.938  1.00  0.00     0.029 A 
ATOM     42  N   UNL A   1      40.984  28.807  28.985  1.00  0.00    -0.354 N 
ATOM     43  C   UNL A   1      44.939  27.983  27.467  1.00  0.00     0.074 A 
ATOM     44  C   UNL A   1      45.034  26.639  26.943  1.00  0.00     0.031 C 
ATOM     45  C   UNL A   1      38.886  28.311  29.584  1.00  0.00     0.029 A 
ATOM     46  C   UNL A   1      39.912  29.347  29.658  1.00  0.00     0.049 A 
ATOM     47  H   UNL A   1      41.830  29.290  28.844  1.00  0.00     0.167 HD
ATOM     48  C   UNL A   1      45.968  28.861  27.504  1.00  0.00     0.034 A 
ATOM     49  C   UNL A   1      39.771  30.539  30.273  1.00  0.00     0.034 A 
ATOM     50  C   UNL A   1      45.848  30.219  27.958  1.00  0.00     0.049 A 
ATOM     51  C   UNL A   1      40.905  31.527  30.223  1.00  0.00     0.074 A 
ATOM     52  C   UNL A   1      46.802  31.221  27.919  1.00  0.00     0.029 A 
ATOM     53  N   UNL A   1      44.715  30.767  28.535  1.00  0.00    -0.354 N 
ATOM     54  N   UNL A   1      42.088  31.391  29.675  1.00  0.00    -0.248 NA
ATOM     55  C   UNL A   1      40.677  32.843  30.839  1.00  0.00     0.031 C 
ATOM     56  C   UNL A   1      46.251  32.369  28.493  1.00  0.00     0.029 A 
ATOM     57  C   UNL A   1      44.946  32.089  28.867  1.00  0.00     0.049 A 
ATOM     58  H   UNL A   1      43.869  30.286  28.687  1.00  0.00     0.167 HD
ATOM     59  C   UNL A   1      42.735  32.608  29.855  1.00  0.00     0.074 A 
ATOM     60  C   UNL A   1      41.804  33.479  30.543  1.00  0.00     0.031 C 
ATOM     61  C   UNL A   1      43.993  32.964  29.499  1.00  0.00     0.034 A 
BRANCH  48  62
ATOM     62  C   UNL A   1      47.308  28.422  26.973  1.00  0.00     0.023 A 
ATOM     63  C   UNL A   1      48.344  28.114  27.877  1.00  0.00     0.012 A 
ATOM     64  C   UNL A   1      47.497  28.190  25.596  1.00  0.00     0.148 A 
ATOM     65  C   UNL A   1      49.553  27.596  27.419  1.00  0.00     0.002 A 
ATOM     66  C   UNL A   1      48.689  27.632  25.151  1.00  0.00     0.091 A 
ATOM     67  F   UNL A   1      46.504  28.504  24.753  1.00  0.00    -0.205 F 
ATOM     68  C   UNL A   1      49.721  27.342  26.060  1.00  0.00     0.022 A 
BRANCH  66  69
ATOM     69  S   UNL A   1      48.976  27.184  23.435  1.00  0.00     0.127 S 
ATOM     70  O   UNL A   1      50.428  27.008  23.414  1.00  0.00    -0.237 OA
ATOM     71  O   UNL A   1      48.210  25.944  23.310  1.00  0.00    -0.237 OA
ATOM     72  O   UNL A   1      48.475  28.295  22.638  1.00  0.00    -0.744 OA
ENDBRANCH  66  69
ENDBRANCH  48  62
BRANCH  49  73
ATOM     73  C   UNL A   1      38.472  30.883  30.920  1.00  0.00     0.023 A 
ATOM     74  C   UNL A   1      38.288  30.613  32.290  1.00  0.00     0.012 A 
ATOM     75  C   UNL A   1      37.447  31.533  30.204  1.00  0.00     0.148 A 
ATOM     76  C   UNL A   1      37.098  30.965  32.930  1.00  0.00     0.002 A 
ATOM     77  C   UNL A   1      36.289  31.934  30.861  1.00  0.00     0.091 A 
ATOM     78  F   UNL A   1      37.634  31.767  28.898  1.00  0.00    -0.205 F 
ATOM     79  C   UNL A   1      36.106  31.636  32.220  1.00  0.00     0.022 A 
BRANCH  77  80
ATOM     80  S   UNL A   1      35.029  32.934  30.062  1.00  0.00     0.127 S 
ATOM     81  O   UNL A   1      34.451  31.986  29.113  1.00  0.00    -0.237 OA
ATOM     82  O   UNL A   1      34.161  33.286  31.187  1.00  0.00    -0.237 OA
ATOM     83  O   UNL A   1      35.738  34.065  29.479  1.00  0.00    -0.744 OA
ENDBRANCH  77  80
ENDBRANCH  49  73
BRANCH  61  84
ATOM     84  C   UNL A   1      44.457  34.360  29.822  1.00  0.00     0.023 A 
ATOM     85  C   UNL A   1      45.169  34.597  31.012  1.00  0.00     0.012 A 
ATOM     86  C   UNL A   1      44.305  35.401  28.884  1.00  0.00     0.148 A 
ATOM     87  C   UNL A   1      45.712  35.855  31.274  1.00  0.00     0.002 A 
ATOM     88  C   UNL A   1      44.889  36.638  29.129  1.00  0.00     0.091 A 
ATOM     89  F   UNL A   1      43.609  35.157  27.764  1.00  0.00    -0.205 F 
ATOM     90  C   UNL A   1      45.585  36.869  30.327  1.00  0.00     0.022 A 
BRANCH  88  91
ATOM     91  S   UNL A   1      44.871  37.969  27.922  1.00  0.00     0.127 S 
ATOM     92  O   UNL A   1      45.523  37.340  26.775  1.00  0.00    -0.237 OA
ATOM     93  O   UNL A   1      43.438  38.213  27.751  1.00  0.00    -0.237 OA
ATOM     94  O   UNL A   1      45.604  39.072  28.529  1.00  0.00    -0.744 OA
ENDBRANCH  88  91
ENDBRANCH  61  84
ENDBRANCH  35  36
ENDBRANCH  27  30
ENDBRANCH  25  26
ENDBRANCH   1  25
TORSDOF 16
ENDMDL
MODEL 3
REMARK VINA RESULT:     -12.0      4.927      8.520
REMARK SMILES COC(=O)c1ccc(Cl)c(-c2ccc(C(=O)NCCCNC(=O)c3ccc(-c4c5nc(c(-c6cccc(S(=O)(=O)[O-])c6F)c6ccc([nH]6)c(-c6cccc(S(=O)(=O)[O-])c6F)c6nc(c(-c7cccc(S(=O)(=O)[O-])c7F)c7ccc4[nH]7)C=C6)C=C5)cc3)c(F)c2)c1
REMARK SMILES IDX 19 1 18 2 17 3 15 4 16 5 14 7 11 8 12 9 89 10 13 11 87 12
REMARK SMILES IDX 88 13 10 14 5 15 6 16 90 17 7 18 8 19 9 20 3 21 4 22 2 23
REMARK SMILES IDX 1 24 20 25 21 26 22 27 23 29 24 30 25 31 86 32 26 33 85 34
REMARK SMILES IDX 27 35 28 36 29 37 79 38 30 39 84 40 78 41 80 42 31 43 83 44
REMARK SMILES IDX 77 45 76 46 32 48 64 49 44 50 63 51 45 52 48 53 62 54 81 55
REMARK SMILES IDX 46 56 47 57 61 59 82 60 49 61 33 62 34 63 42 64 35 65 37 66
REMARK SMILES IDX 43 67 36 68 38 69 39 70 40 71 41 72 65 73 66 74 74 75 67 76
REMARK SMILES IDX 69 77 75 78 68 79 70 80 71 81 72 82 73 83 50 84 51 85 59 86
REMARK SMILES IDX 52 87 54 88 60 89 53 90 55 91 56 92 57 93 58 94
REMARK H PARENT 17 6 21 28 80 47 48 58
REMARK Flexibility Score: inf
ROOT
ATOM      1  C   UNL A   1      37.242  19.483  25.012  1.00  0.00     0.042 C 
ENDROOT
BRANCH   1   2
ATOM      2  C   UNL A   1      36.024  20.402  24.912  1.00  0.00     0.118 C 
BRANCH   2   3
ATOM      3  N   UNL A   1      34.788  19.684  25.169  1.00  0.00    -0.352 N 
ATOM      4  C   UNL A   1      33.484  20.095  25.262  1.00  0.00     0.254 C 
ATOM      5  O   UNL A   1      32.630  19.217  25.413  1.00  0.00    -0.269 OA
ATOM      6  H   UNL A   1      34.911  18.716  25.303  1.00  0.00     0.163 HD
BRANCH   4   7
ATOM      7  C   UNL A   1      33.025  21.501  25.119  1.00  0.00     0.075 A 
ATOM      8  C   UNL A   1      32.179  24.214  25.064  1.00  0.00    -0.014 A 
ATOM      9  C   UNL A   1      32.440  23.577  26.281  1.00  0.00     0.010 A 
ATOM     10  C   UNL A   1      32.377  23.489  23.884  1.00  0.00     0.048 A 
ATOM     11  C   UNL A   1      32.858  22.238  26.306  1.00  0.00     0.017 A 
ATOM     12  C   UNL A   1      32.815  22.167  23.916  1.00  0.00     0.136 A 
ATOM     13  F   UNL A   1      33.049  21.602  22.730  1.00  0.00    -0.206 F 
BRANCH   8  14
ATOM     14  C   UNL A   1      31.703  25.599  24.977  1.00  0.00     0.001 A 
ATOM     15  C   UNL A   1      29.920  27.117  24.272  1.00  0.00     0.060 A 
ATOM     16  C   UNL A   1      30.753  28.216  24.496  1.00  0.00     0.017 A 
ATOM     17  C   UNL A   1      30.386  25.824  24.532  1.00  0.00     0.026 A 
ATOM     18  C   UNL A   1      32.049  28.015  24.976  1.00  0.00     0.022 A 
ATOM     19  C   UNL A   1      32.524  26.718  25.211  1.00  0.00     0.048 A 
ATOM     20  Cl  UNL A   1      34.161  26.555  25.747  1.00  0.00    -0.084 Cl
BRANCH  15  21
ATOM     21  C   UNL A   1      28.549  27.258  23.723  1.00  0.00     0.337 C 
ATOM     22  O   UNL A   1      27.666  26.444  23.901  1.00  0.00    -0.246 OA
BRANCH  21  23
ATOM     23  O   UNL A   1      28.492  28.360  22.934  1.00  0.00    -0.465 OA
ATOM     24  C   UNL A   1      27.265  29.081  23.044  1.00  0.00     0.282 C 
ENDBRANCH  21  23
ENDBRANCH  15  21
ENDBRANCH   8  14
ENDBRANCH   4   7
ENDBRANCH   2   3
ENDBRANCH   1   2
BRANCH   1  25
ATOM     25  C   UNL A   1      38.547  20.206  25.319  1.00  0.00     0.118 C 
BRANCH  25  26
ATOM     26  N   UNL A   1      39.587  19.292  25.766  1.00  0.00    -0.352 N 
ATOM     27  C   UNL A   1      40.863  19.554  26.199  1.00  0.00     0.251 C 
ATOM     28  H   UNL A   1      39.338  18.339  25.757  1.00  0.00     0.163 HD
ATOM     29  O   UNL A   1      41.652  18.620  26.327  1.00  0.00    -0.269 OA
BRANCH  27  30
ATOM     30  C   UNL A   1      41.301  20.936  26.507  1.00  0.00     0.039 A 
ATOM     31  C   UNL A   1      41.693  21.764  25.450  1.00  0.00     0.014 A 
ATOM     32  C   UNL A   1      41.391  21.402  27.821  1.00  0.00     0.014 A 
ATOM     33  C   UNL A   1      42.143  23.063  25.707  1.00  0.00     0.010 A 
ATOM     34  C   UNL A   1      41.770  22.721  28.072  1.00  0.00     0.010 A 
ATOM     35  C   UNL A   1      42.168  23.559  27.021  1.00  0.00    -0.014 A 
BRANCH  35  36
ATOM     36  C   UNL A   1      42.614  24.946  27.308  1.00  0.00     0.031 A 
ATOM     37  C   UNL A   1      41.669  25.936  27.939  1.00  0.00     0.074 A 
ATOM     38  C   UNL A   1      43.848  25.339  26.931  1.00  0.00     0.049 A 
ATOM     39  N   UNL A   1      41.869  27.196  28.224  1.00  0.00    -0.248 NA
ATOM     40  C   UNL A   1      40.316  25.458  28.269  1.00  0.00     0.031 C 
ATOM     41  C   UNL A   1      44.822  24.498  26.233  1.00  0.00     0.029 A 
ATOM     42  N   UNL A   1      44.483  26.550  27.056  1.00  0.00    -0.354 N 
ATOM     43  C   UNL A   1      40.662  27.672  28.723  1.00  0.00     0.074 A 
ATOM     44  C   UNL A   1      39.725  26.571  28.682  1.00  0.00     0.031 C 
ATOM     45  C   UNL A   1      45.930  25.217  25.991  1.00  0.00     0.029 A 
ATOM     46  C   UNL A   1      45.738  26.575  26.493  1.00  0.00     0.049 A 
ATOM     47  H   UNL A   1      44.079  27.327  27.506  1.00  0.00     0.167 HD
ATOM     48  C   UNL A   1      40.370  28.905  29.197  1.00  0.00     0.034 A 
ATOM     49  C   UNL A   1      46.633  27.578  26.385  1.00  0.00     0.034 A 
ATOM     50  C   UNL A   1      41.327  29.972  29.303  1.00  0.00     0.049 A 
ATOM     51  C   UNL A   1      46.311  28.915  26.996  1.00  0.00     0.074 A 
ATOM     52  C   UNL A   1      41.158  31.217  29.883  1.00  0.00     0.029 A 
ATOM     53  N   UNL A   1      42.624  29.927  28.820  1.00  0.00    -0.354 N 
ATOM     54  N   UNL A   1      45.222  29.289  27.623  1.00  0.00    -0.248 NA
ATOM     55  C   UNL A   1      47.348  29.954  26.922  1.00  0.00     0.031 C 
ATOM     56  C   UNL A   1      42.348  31.933  29.730  1.00  0.00     0.029 A 
ATOM     57  C   UNL A   1      43.265  31.125  29.077  1.00  0.00     0.049 A 
ATOM     58  H   UNL A   1      43.030  29.156  28.360  1.00  0.00     0.167 HD
ATOM     59  C   UNL A   1      45.453  30.595  28.042  1.00  0.00     0.074 A 
ATOM     60  C   UNL A   1      46.794  30.940  27.618  1.00  0.00     0.031 C 
ATOM     61  C   UNL A   1      44.620  31.436  28.701  1.00  0.00     0.034 A 
BRANCH  48  62
ATOM     62  C   UNL A   1      38.979  29.166  29.713  1.00  0.00     0.023 A 
ATOM     63  C   UNL A   1      38.663  28.840  31.048  1.00  0.00     0.012 A 
ATOM     64  C   UNL A   1      38.033  29.849  28.923  1.00  0.00     0.148 A 
ATOM     65  C   UNL A   1      37.422  29.176  31.584  1.00  0.00     0.002 A 
ATOM     66  C   UNL A   1      36.814  30.219  29.478  1.00  0.00     0.091 A 
ATOM     67  F   UNL A   1      38.349  30.134  27.652  1.00  0.00    -0.205 F 
ATOM     68  C   UNL A   1      36.503  29.877  30.805  1.00  0.00     0.022 A 
BRANCH  66  69
ATOM     69  S   UNL A   1      35.597  31.198  28.591  1.00  0.00     0.127 S 
ATOM     70  O   UNL A   1      34.757  31.686  29.684  1.00  0.00    -0.237 OA
ATOM     71  O   UNL A   1      36.429  32.222  27.959  1.00  0.00    -0.237 OA
ATOM     72  O   UNL A   1      34.940  30.286  27.665  1.00  0.00    -0.744 OA
ENDBRANCH  66  69
ENDBRANCH  48  62
BRANCH  49  73
ATOM     73  C   UNL A   1      47.949  27.321  25.732  1.00  0.00     0.023 A 
ATOM     74  C   UNL A   1      49.004  26.779  26.490  1.00  0.00     0.012 A 
ATOM     75  C   UNL A   1      48.139  27.549  24.355  1.00  0.00     0.148 A 
ATOM     76  C   UNL A   1      50.232  26.488  25.893  1.00  0.00     0.002 A 
ATOM     77  C   UNL A   1      49.344  27.202  23.754  1.00  0.00     0.091 A 
ATOM     78  F   UNL A   1      47.128  28.081  23.652  1.00  0.00    -0.205 F 
ATOM     79  C   UNL A   1      50.398  26.687  24.525  1.00  0.00     0.022 A 
BRANCH  77  80
ATOM     80  S   UNL A   1      49.590  27.283  21.976  1.00  0.00     0.127 S 
ATOM     81  O   UNL A   1      50.993  26.899  21.850  1.00  0.00    -0.237 OA
ATOM     82  O   UNL A   1      48.632  26.289  21.491  1.00  0.00    -0.237 OA
ATOM     83  O   UNL A   1      49.270  28.654  21.599  1.00  0.00    -0.744 OA
ENDBRANCH  77  80
ENDBRANCH  49  73
BRANCH  61  84
ATOM     84  C   UNL A   1      45.119  32.819  29.032  1.00  0.00     0.023 A 
ATOM     85  C   UNL A   1      45.972  33.002  30.136  1.00  0.00     0.012 A 
ATOM     86  C   UNL A   1      44.852  33.903  28.173  1.00  0.00     0.148 A 
ATOM     87  C   UNL A   1      46.542  34.249  30.391  1.00  0.00     0.002 A 
ATOM     88  C   UNL A   1      45.462  35.130  28.404  1.00  0.00     0.091 A 
ATOM     89  F   UNL A   1      44.024  33.709  27.136  1.00  0.00    -0.205 F 
ATOM     90  C   UNL A   1      46.300  35.307  29.517  1.00  0.00     0.022 A 
BRANCH  88  91
ATOM     91  S   UNL A   1      45.294  36.518  27.276  1.00  0.00     0.127 S 
ATOM     92  O   UNL A   1      46.036  36.044  26.109  1.00  0.00    -0.237 OA
ATOM     93  O   UNL A   1      43.845  36.593  27.088  1.00  0.00    -0.237 OA
ATOM     94  O   UNL A   1      45.875  37.665  27.960  1.00  0.00    -0.744 OA
ENDBRANCH  88  91
ENDBRANCH  61  84
ENDBRANCH  35  36
ENDBRANCH  27  30
ENDBRANCH  25  26
ENDBRANCH   1  25
TORSDOF 16
ENDMDL
