MODEL 1
REMARK VINA RESULT:     -12.0      0.000      0.000
REMARK SMILES C[C@H]1[C@H](C(=O)NCCCNC(=O)c2ccc(-c3c4nc(c(-c5cccc(S(=O)(=O)[O-])c5F)c5ccc([nH]5)c(-c5cccc(S(=O)(=O)[O-])c5F)c5nc(c(-c6cccc(S(=O)(=O)[O-])c6F)c6ccc3[nH]6)C=C5)C=C4)cc2)CC[N@@H+]1[C@@H](c1ccccc1)c1ccco1
REMARK SMILES IDX 8 1 7 2 6 3 4 4 5 5 3 7 1 8 2 9 78 10 76 11 77 12 79 14
REMARK SMILES IDX 80 15 81 16 85 17 82 18 84 19 83 20 86 21 87 22 90 23 88 24
REMARK SMILES IDX 89 25 9 26 10 27 11 28 12 30 13 31 14 32 75 33 15 34 74 35
REMARK SMILES IDX 16 36 17 37 18 38 68 39 19 40 73 41 67 42 69 43 20 44 72 45
REMARK SMILES IDX 66 46 65 47 21 49 53 50 33 51 52 52 34 53 37 54 51 55 70 56
REMARK SMILES IDX 35 57 36 58 50 60 71 61 38 62 22 63 23 64 31 65 24 66 26 67
REMARK SMILES IDX 32 68 25 69 27 70 28 71 29 72 30 73 54 74 55 75 63 76 56 77
REMARK SMILES IDX 58 78 64 79 57 80 59 81 60 82 61 83 62 84 39 85 40 86 48 87
REMARK SMILES IDX 41 88 43 89 49 90 42 91 44 92 45 93 46 94 47 95
REMARK H PARENT 6 6 78 13 10 29 69 48 37 59
REMARK Flexibility Score: inf
ROOT
ATOM      1  C   UNL A   1      31.846  28.413  27.411  1.00  0.00     0.042 C 
ENDROOT
BRANCH   1   2
ATOM      2  C   UNL A   1      31.540  27.303  26.414  1.00  0.00     0.117 C 
BRANCH   2   3
ATOM      3  N   UNL A   1      32.676  26.941  25.600  1.00  0.00    -0.356 N 
ATOM      4  C   UNL A   1      33.001  25.742  25.051  1.00  0.00     0.229 C 
ATOM      5  O   UNL A   1      33.965  25.737  24.275  1.00  0.00    -0.275 OA
ATOM      6  H   UNL A   1      33.308  27.673  25.414  1.00  0.00     0.163 HD
BRANCH   4   7
ATOM      7  C   UNL A   1      32.215  24.449  25.280  1.00  0.00     0.142 C 
ATOM      8  C   UNL A   1      31.447  23.081  23.326  1.00  0.00     0.076 C 
ATOM      9  C   UNL A   1      32.533  23.218  24.404  1.00  0.00     0.194 C 
ATOM     10  N   UNL A   1      32.472  22.038  25.299  1.00  0.00    -0.319 N 
ATOM     11  C   UNL A   1      32.250  23.929  26.709  1.00  0.00     0.081 C 
ATOM     12  C   UNL A   1      31.866  22.462  26.551  1.00  0.00     0.264 C 
ATOM     13  H   UNL A   1      31.861  21.335  24.883  1.00  0.00     0.349 HD
BRANCH  10  14
ATOM     14  C   UNL A   1      33.657  21.137  25.341  1.00  0.00     0.283 C 
BRANCH  14  15
ATOM     15  C   UNL A   1      33.648  19.804  24.572  1.00  0.00     0.017 A 
ATOM     16  C   UNL A   1      32.564  19.528  23.715  1.00  0.00     0.010 A 
ATOM     17  C   UNL A   1      34.583  18.773  24.765  1.00  0.00     0.010 A 
ATOM     18  C   UNL A   1      32.485  18.325  23.009  1.00  0.00     0.001 A 
ATOM     19  C   UNL A   1      34.529  17.585  24.029  1.00  0.00     0.001 A 
ATOM     20  C   UNL A   1      33.485  17.368  23.140  1.00  0.00     0.000 A 
ENDBRANCH  14  15
BRANCH  14  21
ATOM     21  C   UNL A   1      34.962  21.867  25.104  1.00  0.00     0.165 A 
ATOM     22  C   UNL A   1      35.709  22.124  23.968  1.00  0.00     0.052 A 
ATOM     23  O   UNL A   1      35.489  22.571  26.155  1.00  0.00    -0.463 OA
ATOM     24  C   UNL A   1      36.687  23.084  24.337  1.00  0.00     0.042 A 
ATOM     25  C   UNL A   1      36.500  23.331  25.674  1.00  0.00     0.195 A 
ENDBRANCH  14  21
ENDBRANCH  10  14
ENDBRANCH   4   7
ENDBRANCH   2   3
ENDBRANCH   1   2
BRANCH   1  26
ATOM     26  C   UNL A   1      33.304  28.856  27.410  1.00  0.00     0.118 C 
BRANCH  26  27
ATOM     27  N   UNL A   1      33.483  30.303  27.520  1.00  0.00    -0.352 N 
ATOM     28  C   UNL A   1      34.502  31.085  28.005  1.00  0.00     0.251 C 
ATOM     29  H   UNL A   1      32.719  30.820  27.177  1.00  0.00     0.163 HD
ATOM     30  O   UNL A   1      34.330  32.302  28.078  1.00  0.00    -0.269 OA
BRANCH  28  31
ATOM     31  C   UNL A   1      35.783  30.509  28.471  1.00  0.00     0.039 A 
ATOM     32  C   UNL A   1      36.940  30.715  27.705  1.00  0.00     0.014 A 
ATOM     33  C   UNL A   1      35.853  29.722  29.615  1.00  0.00     0.014 A 
ATOM     34  C   UNL A   1      38.162  30.174  28.120  1.00  0.00     0.010 A 
ATOM     35  C   UNL A   1      37.085  29.291  30.092  1.00  0.00     0.010 A 
ATOM     36  C   UNL A   1      38.250  29.479  29.334  1.00  0.00    -0.014 A 
BRANCH  36  37
ATOM     37  C   UNL A   1      39.520  28.879  29.822  1.00  0.00     0.031 A 
ATOM     38  C   UNL A   1      40.279  29.553  30.940  1.00  0.00     0.074 A 
ATOM     39  C   UNL A   1      40.050  27.813  29.193  1.00  0.00     0.049 A 
ATOM     40  N   UNL A   1      41.477  29.300  31.399  1.00  0.00    -0.248 NA
ATOM     41  C   UNL A   1      39.620  30.696  31.596  1.00  0.00     0.031 C 
ATOM     42  C   UNL A   1      39.455  27.117  28.051  1.00  0.00     0.029 A 
ATOM     43  N   UNL A   1      41.235  27.151  29.404  1.00  0.00    -0.354 N 
ATOM     44  C   UNL A   1      41.735  30.282  32.348  1.00  0.00     0.074 A 
ATOM     45  C   UNL A   1      40.590  31.164  32.367  1.00  0.00     0.031 C 
ATOM     46  C   UNL A   1      40.276  26.131  27.658  1.00  0.00     0.029 A 
ATOM     47  C   UNL A   1      41.473  26.148  28.493  1.00  0.00     0.049 A 
ATOM     48  H   UNL A   1      41.854  27.372  30.136  1.00  0.00     0.167 HD
ATOM     49  C   UNL A   1      42.810  30.422  33.160  1.00  0.00     0.034 A 
ATOM     50  C   UNL A   1      42.545  25.346  28.334  1.00  0.00     0.034 A 
ATOM     51  C   UNL A   1      43.918  29.506  33.181  1.00  0.00     0.049 A 
ATOM     52  C   UNL A   1      43.702  25.481  29.285  1.00  0.00     0.074 A 
ATOM     53  C   UNL A   1      45.013  29.499  34.026  1.00  0.00     0.029 A 
ATOM     54  N   UNL A   1      44.071  28.433  32.317  1.00  0.00    -0.354 N 
ATOM     55  N   UNL A   1      43.868  26.333  30.268  1.00  0.00    -0.248 NA
ATOM     56  C   UNL A   1      44.803  24.520  29.130  1.00  0.00     0.031 C 
ATOM     57  C   UNL A   1      45.842  28.433  33.655  1.00  0.00     0.029 A 
ATOM     58  C   UNL A   1      45.244  27.756  32.603  1.00  0.00     0.049 A 
ATOM     59  H   UNL A   1      43.437  28.187  31.604  1.00  0.00     0.167 HD
ATOM     60  C   UNL A   1      45.074  25.990  30.870  1.00  0.00     0.074 A 
ATOM     61  C   UNL A   1      45.581  24.836  30.156  1.00  0.00     0.031 C 
ATOM     62  C   UNL A   1      45.712  26.584  31.910  1.00  0.00     0.034 A 
BRANCH  49  63
ATOM     63  C   UNL A   1      42.811  31.577  34.130  1.00  0.00     0.023 A 
ATOM     64  C   UNL A   1      43.378  32.811  33.747  1.00  0.00     0.012 A 
ATOM     65  C   UNL A   1      42.217  31.460  35.402  1.00  0.00     0.148 A 
ATOM     66  C   UNL A   1      43.399  33.892  34.629  1.00  0.00     0.002 A 
ATOM     67  C   UNL A   1      42.194  32.557  36.256  1.00  0.00     0.091 A 
ATOM     68  F   UNL A   1      41.699  30.277  35.760  1.00  0.00    -0.205 F 
ATOM     69  C   UNL A   1      42.799  33.768  35.877  1.00  0.00     0.022 A 
BRANCH  67  70
ATOM     70  S   UNL A   1      41.370  32.528  37.852  1.00  0.00     0.127 S 
ATOM     71  O   UNL A   1      40.045  32.020  37.489  1.00  0.00    -0.237 OA
ATOM     72  O   UNL A   1      42.196  31.582  38.605  1.00  0.00    -0.237 OA
ATOM     73  O   UNL A   1      41.400  33.893  38.348  1.00  0.00    -0.744 OA
ENDBRANCH  67  70
ENDBRANCH  49  63
BRANCH  50  74
ATOM     74  C   UNL A   1      42.544  24.309  27.263  1.00  0.00     0.023 A 
ATOM     75  C   UNL A   1      43.197  24.572  26.043  1.00  0.00     0.012 A 
ATOM     76  C   UNL A   1      41.935  23.055  27.458  1.00  0.00     0.148 A 
ATOM     77  C   UNL A   1      43.214  23.620  25.024  1.00  0.00     0.002 A 
ATOM     78  C   UNL A   1      42.006  22.088  26.462  1.00  0.00     0.091 A 
ATOM     79  F   UNL A   1      41.312  22.827  28.623  1.00  0.00    -0.205 F 
ATOM     80  C   UNL A   1      42.629  22.374  25.237  1.00  0.00     0.022 A 
BRANCH  78  81
ATOM     81  S   UNL A   1      41.402  20.413  26.699  1.00  0.00     0.127 S 
ATOM     82  O   UNL A   1      39.962  20.626  26.814  1.00  0.00    -0.237 OA
ATOM     83  O   UNL A   1      41.832  19.762  25.460  1.00  0.00    -0.237 OA
ATOM     84  O   UNL A   1      42.066  19.920  27.898  1.00  0.00    -0.744 OA
ENDBRANCH  78  81
ENDBRANCH  50  74
BRANCH  62  85
ATOM     85  C   UNL A   1      47.011  25.974  32.367  1.00  0.00     0.023 A 
ATOM     86  C   UNL A   1      48.228  26.395  31.794  1.00  0.00     0.012 A 
ATOM     87  C   UNL A   1      47.029  25.022  33.406  1.00  0.00     0.148 A 
ATOM     88  C   UNL A   1      49.438  25.847  32.216  1.00  0.00     0.002 A 
ATOM     89  C   UNL A   1      48.243  24.521  33.860  1.00  0.00     0.091 A 
ATOM     90  F   UNL A   1      45.861  24.622  33.926  1.00  0.00    -0.205 F 
ATOM     91  C   UNL A   1      49.446  24.919  33.255  1.00  0.00     0.022 A 
BRANCH  89  92
ATOM     92  S   UNL A   1      48.356  23.399  35.257  1.00  0.00     0.127 S 
ATOM     93  O   UNL A   1      49.802  23.307  35.450  1.00  0.00    -0.237 OA
ATOM     94  O   UNL A   1      47.647  24.136  36.304  1.00  0.00    -0.237 OA
ATOM     95  O   UNL A   1      47.702  22.167  34.838  1.00  0.00    -0.744 OA
ENDBRANCH  89  92
ENDBRANCH  62  85
ENDBRANCH  36  37
ENDBRANCH  28  31
ENDBRANCH  26  27
ENDBRANCH   1  26
TORSDOF 16
ENDMDL
MODEL 2
REMARK VINA RESULT:     -11.9      2.258      7.769
REMARK SMILES C[C@H]1[C@H](C(=O)NCCCNC(=O)c2ccc(-c3c4nc(c(-c5cccc(S(=O)(=O)[O-])c5F)c5ccc([nH]5)c(-c5cccc(S(=O)(=O)[O-])c5F)c5nc(c(-c6cccc(S(=O)(=O)[O-])c6F)c6ccc3[nH]6)C=C5)C=C4)cc2)CC[N@@H+]1[C@@H](c1ccccc1)c1ccco1
REMARK SMILES IDX 8 1 7 2 6 3 4 4 5 5 3 7 1 8 2 9 78 10 76 11 77 12 79 14
REMARK SMILES IDX 80 15 81 16 85 17 82 18 84 19 83 20 86 21 87 22 90 23 88 24
REMARK SMILES IDX 89 25 9 26 10 27 11 28 12 30 13 31 14 32 75 33 15 34 74 35
REMARK SMILES IDX 16 36 17 37 18 38 68 39 19 40 73 41 67 42 69 43 20 44 72 45
REMARK SMILES IDX 66 46 65 47 21 49 53 50 33 51 52 52 34 53 37 54 51 55 70 56
REMARK SMILES IDX 35 57 36 58 50 60 71 61 38 62 22 63 23 64 31 65 24 66 26 67
REMARK SMILES IDX 32 68 25 69 27 70 28 71 29 72 30 73 54 74 55 75 63 76 56 77
REMARK SMILES IDX 58 78 64 79 57 80 59 81 60 82 61 83 62 84 39 85 40 86 48 87
REMARK SMILES IDX 41 88 43 89 49 90 42 91 44 92 45 93 46 94 47 95
REMARK H PARENT 6 6 78 13 10 29 69 48 37 59
REMARK Flexibility Score: inf
ROOT
ATOM      1  C   UNL A   1      32.104  28.615  23.995  1.00  0.00     0.042 C 
ENDROOT
BRANCH   1   2
ATOM      2  C   UNL A   1      32.536  27.209  23.598  1.00  0.00     0.117 C 
BRANCH   2   3
ATOM      3  N   UNL A   1      33.650  26.717  24.372  1.00  0.00    -0.356 N 
ATOM      4  C   UNL A   1      33.874  25.476  24.875  1.00  0.00     0.229 C 
ATOM      5  O   UNL A   1      34.984  25.283  25.388  1.00  0.00    -0.275 OA
ATOM      6  H   UNL A   1      34.353  27.380  24.563  1.00  0.00     0.163 HD
BRANCH   4   7
ATOM      7  C   UNL A   1      32.880  24.316  24.779  1.00  0.00     0.142 C 
ATOM      8  C   UNL A   1      32.574  23.098  22.610  1.00  0.00     0.076 C 
ATOM      9  C   UNL A   1      33.276  23.059  23.976  1.00  0.00     0.194 C 
ATOM     10  N   UNL A   1      32.771  21.894  24.741  1.00  0.00    -0.319 N 
ATOM     11  C   UNL A   1      32.392  23.785  26.118  1.00  0.00     0.081 C 
ATOM     12  C   UNL A   1      31.871  22.395  25.767  1.00  0.00     0.264 C 
ATOM     13  H   UNL A   1      32.226  21.296  24.118  1.00  0.00     0.349 HD
BRANCH  10  14
ATOM     14  C   UNL A   1      33.742  20.822  25.094  1.00  0.00     0.283 C 
BRANCH  14  15
ATOM     15  C   UNL A   1      33.686  19.457  24.386  1.00  0.00     0.017 A 
ATOM     16  C   UNL A   1      32.594  19.182  23.539  1.00  0.00     0.010 A 
ATOM     17  C   UNL A   1      34.583  18.403  24.627  1.00  0.00     0.010 A 
ATOM     18  C   UNL A   1      32.473  17.953  22.887  1.00  0.00     0.001 A 
ATOM     19  C   UNL A   1      34.487  17.186  23.945  1.00  0.00     0.001 A 
ATOM     20  C   UNL A   1      33.438  16.967  23.064  1.00  0.00     0.000 A 
ENDBRANCH  14  15
BRANCH  14  21
ATOM     21  C   UNL A   1      35.171  21.318  25.160  1.00  0.00     0.165 A 
ATOM     22  C   UNL A   1      36.189  21.395  24.226  1.00  0.00     0.052 A 
ATOM     23  O   UNL A   1      35.557  21.977  26.298  1.00  0.00    -0.463 OA
ATOM     24  C   UNL A   1      37.205  22.200  24.802  1.00  0.00     0.042 A 
ATOM     25  C   UNL A   1      36.764  22.539  26.057  1.00  0.00     0.195 A 
ENDBRANCH  14  21
ENDBRANCH  10  14
ENDBRANCH   4   7
ENDBRANCH   2   3
ENDBRANCH   1   2
BRANCH   1  26
ATOM     26  C   UNL A   1      32.961  29.236  25.091  1.00  0.00     0.118 C 
BRANCH  26  27
ATOM     27  N   UNL A   1      32.390  30.448  25.675  1.00  0.00    -0.352 N 
ATOM     28  C   UNL A   1      32.762  31.243  26.731  1.00  0.00     0.251 C 
ATOM     29  H   UNL A   1      31.575  30.757  25.218  1.00  0.00     0.163 HD
ATOM     30  O   UNL A   1      32.013  32.158  27.074  1.00  0.00    -0.269 OA
BRANCH  28  31
ATOM     31  C   UNL A   1      34.014  31.015  27.485  1.00  0.00     0.039 A 
ATOM     32  C   UNL A   1      34.916  32.076  27.645  1.00  0.00     0.014 A 
ATOM     33  C   UNL A   1      34.342  29.759  27.987  1.00  0.00     0.014 A 
ATOM     34  C   UNL A   1      36.111  31.884  28.347  1.00  0.00     0.010 A 
ATOM     35  C   UNL A   1      35.465  29.600  28.789  1.00  0.00     0.010 A 
ATOM     36  C   UNL A   1      36.383  30.648  28.950  1.00  0.00    -0.014 A 
BRANCH  36  37
ATOM     37  C   UNL A   1      37.637  30.385  29.704  1.00  0.00     0.031 A 
ATOM     38  C   UNL A   1      38.672  29.451  29.124  1.00  0.00     0.074 A 
ATOM     39  C   UNL A   1      37.797  30.882  30.945  1.00  0.00     0.049 A 
ATOM     40  N   UNL A   1      39.746  28.955  29.680  1.00  0.00    -0.248 NA
ATOM     41  C   UNL A   1      38.438  28.972  27.750  1.00  0.00     0.031 C 
ATOM     42  C   UNL A   1      36.837  31.734  31.650  1.00  0.00     0.029 A 
ATOM     43  N   UNL A   1      38.813  30.706  31.853  1.00  0.00    -0.354 N 
ATOM     44  C   UNL A   1      40.279  28.067  28.752  1.00  0.00     0.074 A 
ATOM     45  C   UNL A   1      39.385  28.056  27.616  1.00  0.00     0.031 C 
ATOM     46  C   UNL A   1      37.306  32.003  32.878  1.00  0.00     0.029 A 
ATOM     47  C   UNL A   1      38.578  31.313  33.065  1.00  0.00     0.049 A 
ATOM     48  H   UNL A   1      39.630  30.195  31.655  1.00  0.00     0.167 HD
ATOM     49  C   UNL A   1      41.426  27.351  28.818  1.00  0.00     0.034 A 
ATOM     50  C   UNL A   1      39.296  31.297  34.205  1.00  0.00     0.034 A 
ATOM     51  C   UNL A   1      42.342  27.413  29.925  1.00  0.00     0.049 A 
ATOM     52  C   UNL A   1      40.597  30.542  34.236  1.00  0.00     0.074 A 
ATOM     53  C   UNL A   1      43.577  26.804  30.056  1.00  0.00     0.029 A 
ATOM     54  N   UNL A   1      42.123  28.130  31.091  1.00  0.00    -0.354 N 
ATOM     55  N   UNL A   1      41.152  29.816  33.297  1.00  0.00    -0.248 NA
ATOM     56  C   UNL A   1      41.388  30.636  35.470  1.00  0.00     0.031 C 
ATOM     57  C   UNL A   1      44.094  27.133  31.314  1.00  0.00     0.029 A 
ATOM     58  C   UNL A   1      43.196  27.977  31.951  1.00  0.00     0.049 A 
ATOM     59  H   UNL A   1      41.321  28.670  31.280  1.00  0.00     0.167 HD
ATOM     60  C   UNL A   1      42.373  29.394  33.813  1.00  0.00     0.074 A 
ATOM     61  C   UNL A   1      42.485  29.970  35.137  1.00  0.00     0.031 C 
ATOM     62  C   UNL A   1      43.311  28.592  33.248  1.00  0.00     0.034 A 
BRANCH  49  63
ATOM     63  C   UNL A   1      41.779  26.482  27.638  1.00  0.00     0.023 A 
ATOM     64  C   UNL A   1      42.424  27.050  26.518  1.00  0.00     0.012 A 
ATOM     65  C   UNL A   1      41.513  25.098  27.648  1.00  0.00     0.148 A 
ATOM     66  C   UNL A   1      42.752  26.268  25.410  1.00  0.00     0.002 A 
ATOM     67  C   UNL A   1      41.891  24.315  26.562  1.00  0.00     0.091 A 
ATOM     68  F   UNL A   1      40.884  24.575  28.709  1.00  0.00    -0.205 F 
ATOM     69  C   UNL A   1      42.495  24.902  25.437  1.00  0.00     0.022 A 
BRANCH  67  70
ATOM     70  S   UNL A   1      41.685  22.531  26.534  1.00  0.00     0.127 S 
ATOM     71  O   UNL A   1      40.226  22.404  26.532  1.00  0.00    -0.237 OA
ATOM     72  O   UNL A   1      42.327  22.170  25.267  1.00  0.00    -0.237 OA
ATOM     73  O   UNL A   1      42.354  22.028  27.721  1.00  0.00    -0.744 OA
ENDBRANCH  67  70
ENDBRANCH  49  63
BRANCH  50  74
ATOM     74  C   UNL A   1      38.823  32.066  35.391  1.00  0.00     0.023 A 
ATOM     75  C   UNL A   1      38.901  33.473  35.382  1.00  0.00     0.012 A 
ATOM     76  C   UNL A   1      38.264  31.418  36.510  1.00  0.00     0.148 A 
ATOM     77  C   UNL A   1      38.464  34.218  36.477  1.00  0.00     0.002 A 
ATOM     78  C   UNL A   1      37.777  32.168  37.573  1.00  0.00     0.091 A 
ATOM     79  F   UNL A   1      38.207  30.079  36.503  1.00  0.00    -0.205 F 
ATOM     80  C   UNL A   1      37.892  33.567  37.568  1.00  0.00     0.022 A 
BRANCH  78  81
ATOM     81  S   UNL A   1      36.902  31.427  38.956  1.00  0.00     0.127 S 
ATOM     82  O   UNL A   1      35.682  32.229  39.003  1.00  0.00    -0.237 OA
ATOM     83  O   UNL A   1      36.719  30.051  38.493  1.00  0.00    -0.237 OA
ATOM     84  O   UNL A   1      37.791  31.562  40.102  1.00  0.00    -0.744 OA
ENDBRANCH  78  81
ENDBRANCH  50  74
BRANCH  62  85
ATOM     85  C   UNL A   1      44.560  28.318  34.044  1.00  0.00     0.023 A 
ATOM     86  C   UNL A   1      45.674  29.171  33.924  1.00  0.00     0.012 A 
ATOM     87  C   UNL A   1      44.606  27.244  34.955  1.00  0.00     0.148 A 
ATOM     88  C   UNL A   1      46.832  28.935  34.665  1.00  0.00     0.002 A 
ATOM     89  C   UNL A   1      45.743  27.047  35.730  1.00  0.00     0.091 A 
ATOM     90  F   UNL A   1      43.543  26.433  35.043  1.00  0.00    -0.205 F 
ATOM     91  C   UNL A   1      46.861  27.880  35.575  1.00  0.00     0.022 A 
BRANCH  89  92
ATOM     92  S   UNL A   1      45.833  25.776  36.997  1.00  0.00     0.127 S 
ATOM     93  O   UNL A   1      47.269  25.724  37.264  1.00  0.00    -0.237 OA
ATOM     94  O   UNL A   1      45.032  26.358  38.076  1.00  0.00    -0.237 OA
ATOM     95  O   UNL A   1      45.263  24.575  36.402  1.00  0.00    -0.744 OA
ENDBRANCH  89  92
ENDBRANCH  62  85
ENDBRANCH  36  37
ENDBRANCH  28  31
ENDBRANCH  26  27
ENDBRANCH   1  26
TORSDOF 16
ENDMDL
MODEL 3
REMARK VINA RESULT:     -11.9      4.690      8.081
REMARK SMILES C[C@H]1[C@H](C(=O)NCCCNC(=O)c2ccc(-c3c4nc(c(-c5cccc(S(=O)(=O)[O-])c5F)c5ccc([nH]5)c(-c5cccc(S(=O)(=O)[O-])c5F)c5nc(c(-c6cccc(S(=O)(=O)[O-])c6F)c6ccc3[nH]6)C=C5)C=C4)cc2)CC[N@@H+]1[C@@H](c1ccccc1)c1ccco1
REMARK SMILES IDX 8 1 7 2 6 3 4 4 5 5 3 7 1 8 2 9 78 10 76 11 77 12 79 14
REMARK SMILES IDX 80 15 81 16 85 17 82 18 84 19 83 20 86 21 87 22 90 23 88 24
REMARK SMILES IDX 89 25 9 26 10 27 11 28 12 30 13 31 14 32 75 33 15 34 74 35
REMARK SMILES IDX 16 36 17 37 18 38 68 39 19 40 73 41 67 42 69 43 20 44 72 45
REMARK SMILES IDX 66 46 65 47 21 49 53 50 33 51 52 52 34 53 37 54 51 55 70 56
REMARK SMILES IDX 35 57 36 58 50 60 71 61 38 62 22 63 23 64 31 65 24 66 26 67
REMARK SMILES IDX 32 68 25 69 27 70 28 71 29 72 30 73 54 74 55 75 63 76 56 77
REMARK SMILES IDX 58 78 64 79 57 80 59 81 60 82 61 83 62 84 39 85 40 86 48 87
REMARK SMILES IDX 41 88 43 89 49 90 42 91 44 92 45 93 46 94 47 95
REMARK H PARENT 6 6 78 13 10 29 69 48 37 59
REMARK Flexibility Score: inf
ROOT
ATOM      1  C   UNL A   1      34.700  21.865  27.212  1.00  0.00     0.042 C 
ENDROOT
BRANCH   1   2
ATOM      2  C   UNL A   1      33.276  21.579  26.749  1.00  0.00     0.117 C 
BRANCH   2   3
ATOM      3  N   UNL A   1      32.316  22.537  27.242  1.00  0.00    -0.356 N 
ATOM      4  C   UNL A   1      31.825  23.655  26.648  1.00  0.00     0.229 C 
ATOM      5  O   UNL A   1      30.900  24.229  27.237  1.00  0.00    -0.275 OA
ATOM      6  H   UNL A   1      31.963  22.351  28.143  1.00  0.00     0.163 HD
BRANCH   4   7
ATOM      7  C   UNL A   1      32.296  24.187  25.292  1.00  0.00     0.142 C 
ATOM      8  C   UNL A   1      30.747  24.152  23.322  1.00  0.00     0.076 C 
ATOM      9  C   UNL A   1      31.321  25.031  24.444  1.00  0.00     0.194 C 
ATOM     10  N   UNL A   1      32.126  26.118  23.836  1.00  0.00    -0.319 N 
ATOM     11  C   UNL A   1      33.578  25.003  25.340  1.00  0.00     0.081 C 
ATOM     12  C   UNL A   1      33.529  25.797  24.038  1.00  0.00     0.264 C 
ATOM     13  H   UNL A   1      31.955  26.137  22.830  1.00  0.00     0.349 HD
BRANCH  10  14
ATOM     14  C   UNL A   1      31.670  27.520  24.047  1.00  0.00     0.283 C 
BRANCH  14  15
ATOM     15  C   UNL A   1      30.248  27.945  23.640  1.00  0.00     0.017 A 
ATOM     16  C   UNL A   1      30.060  29.231  23.095  1.00  0.00     0.010 A 
ATOM     17  C   UNL A   1      29.091  27.189  23.897  1.00  0.00     0.010 A 
ATOM     18  C   UNL A   1      28.791  29.685  22.729  1.00  0.00     0.001 A 
ATOM     19  C   UNL A   1      27.825  27.625  23.494  1.00  0.00     0.001 A 
ATOM     20  C   UNL A   1      27.678  28.869  22.897  1.00  0.00     0.000 A 
ENDBRANCH  14  15
BRANCH  14  21
ATOM     21  C   UNL A   1      31.996  28.045  25.430  1.00  0.00     0.165 A 
ATOM     22  C   UNL A   1      31.403  27.877  26.669  1.00  0.00     0.052 A 
ATOM     23  O   UNL A   1      33.190  28.698  25.589  1.00  0.00    -0.463 OA
ATOM     24  C   UNL A   1      32.317  28.389  27.626  1.00  0.00     0.042 A 
ATOM     25  C   UNL A   1      33.392  28.864  26.917  1.00  0.00     0.195 A 
ENDBRANCH  14  21
ENDBRANCH  10  14
ENDBRANCH   4   7
ENDBRANCH   2   3
ENDBRANCH   1   2
BRANCH   1  26
ATOM     26  C   UNL A   1      35.646  22.260  26.085  1.00  0.00     0.118 C 
BRANCH  26  27
ATOM     27  N   UNL A   1      36.646  21.242  25.768  1.00  0.00    -0.352 N 
ATOM     28  C   UNL A   1      38.019  21.250  25.760  1.00  0.00     0.251 C 
ATOM     29  H   UNL A   1      36.256  20.376  25.508  1.00  0.00     0.163 HD
ATOM     30  O   UNL A   1      38.613  20.261  25.332  1.00  0.00    -0.269 OA
BRANCH  28  31
ATOM     31  C   UNL A   1      38.801  22.419  26.218  1.00  0.00     0.039 A 
ATOM     32  C   UNL A   1      39.889  22.216  27.079  1.00  0.00     0.014 A 
ATOM     33  C   UNL A   1      38.448  23.716  25.861  1.00  0.00     0.014 A 
ATOM     34  C   UNL A   1      40.640  23.306  27.533  1.00  0.00     0.010 A 
ATOM     35  C   UNL A   1      39.265  24.784  26.209  1.00  0.00     0.010 A 
ATOM     36  C   UNL A   1      40.350  24.600  27.078  1.00  0.00    -0.014 A 
BRANCH  36  37
ATOM     37  C   UNL A   1      41.111  25.794  27.530  1.00  0.00     0.031 A 
ATOM     38  C   UNL A   1      40.398  26.888  28.287  1.00  0.00     0.074 A 
ATOM     39  C   UNL A   1      42.397  25.956  27.164  1.00  0.00     0.049 A 
ATOM     40  N   UNL A   1      40.823  28.078  28.623  1.00  0.00    -0.248 NA
ATOM     41  C   UNL A   1      39.000  26.624  28.676  1.00  0.00     0.031 C 
ATOM     42  C   UNL A   1      43.179  25.009  26.366  1.00  0.00     0.029 A 
ATOM     43  N   UNL A   1      43.263  26.999  27.383  1.00  0.00    -0.354 N 
ATOM     44  C   UNL A   1      39.735  28.720  29.205  1.00  0.00     0.074 A 
ATOM     45  C   UNL A   1      38.617  27.806  29.133  1.00  0.00     0.031 C 
ATOM     46  C   UNL A   1      44.405  25.515  26.159  1.00  0.00     0.029 A 
ATOM     47  C   UNL A   1      44.486  26.836  26.773  1.00  0.00     0.049 A 
ATOM     48  H   UNL A   1      43.032  27.788  27.924  1.00  0.00     0.167 HD
ATOM     49  C   UNL A   1      39.675  29.944  29.780  1.00  0.00     0.034 A 
ATOM     50  C   UNL A   1      45.544  27.666  26.698  1.00  0.00     0.034 A 
ATOM     51  C   UNL A   1      40.806  30.824  29.903  1.00  0.00     0.049 A 
ATOM     52  C   UNL A   1      45.475  28.998  27.395  1.00  0.00     0.074 A 
ATOM     53  C   UNL A   1      40.881  32.044  30.548  1.00  0.00     0.029 A 
ATOM     54  N   UNL A   1      42.061  30.574  29.370  1.00  0.00    -0.354 N 
ATOM     55  N   UNL A   1      44.479  29.532  28.059  1.00  0.00    -0.248 NA
ATOM     56  C   UNL A   1      46.689  29.824  27.366  1.00  0.00     0.031 C 
ATOM     57  C   UNL A   1      42.178  32.545  30.383  1.00  0.00     0.029 A 
ATOM     58  C   UNL A   1      42.919  31.619  29.666  1.00  0.00     0.049 A 
ATOM     59  H   UNL A   1      42.307  29.771  28.855  1.00  0.00     0.167 HD
ATOM     60  C   UNL A   1      44.955  30.741  28.555  1.00  0.00     0.074 A 
ATOM     61  C   UNL A   1      46.338  30.845  28.136  1.00  0.00     0.031 C 
ATOM     62  C   UNL A   1      44.304  31.686  29.279  1.00  0.00     0.034 A 
BRANCH  49  63
ATOM     63  C   UNL A   1      38.356  30.379  30.367  1.00  0.00     0.023 A 
ATOM     64  C   UNL A   1      38.015  29.998  31.683  1.00  0.00     0.012 A 
ATOM     65  C   UNL A   1      37.470  31.197  29.638  1.00  0.00     0.148 A 
ATOM     66  C   UNL A   1      36.797  30.380  32.244  1.00  0.00     0.002 A 
ATOM     67  C   UNL A   1      36.281  31.619  30.224  1.00  0.00     0.091 A 
ATOM     68  F   UNL A   1      37.797  31.536  28.384  1.00  0.00    -0.205 F 
ATOM     69  C   UNL A   1      35.937  31.198  31.520  1.00  0.00     0.022 A 
BRANCH  67  70
ATOM     70  S   UNL A   1      35.143  32.744  29.409  1.00  0.00     0.127 S 
ATOM     71  O   UNL A   1      36.019  33.877  29.102  1.00  0.00    -0.237 OA
ATOM     72  O   UNL A   1      34.728  31.965  28.240  1.00  0.00    -0.237 OA
ATOM     73  O   UNL A   1      34.085  33.015  30.367  1.00  0.00    -0.744 OA
ENDBRANCH  67  70
ENDBRANCH  49  63
BRANCH  50  74
ATOM     74  C   UNL A   1      46.777  27.235  25.981  1.00  0.00     0.023 A 
ATOM     75  C   UNL A   1      46.888  27.461  24.595  1.00  0.00     0.012 A 
ATOM     76  C   UNL A   1      47.852  26.636  26.666  1.00  0.00     0.148 A 
ATOM     77  C   UNL A   1      48.031  27.070  23.898  1.00  0.00     0.002 A 
ATOM     78  C   UNL A   1      49.012  26.302  25.978  1.00  0.00     0.091 A 
ATOM     79  F   UNL A   1      47.724  26.422  27.983  1.00  0.00    -0.205 F 
ATOM     80  C   UNL A   1      49.098  26.501  24.590  1.00  0.00     0.022 A 
BRANCH  78  81
ATOM     81  S   UNL A   1      50.485  25.693  26.806  1.00  0.00     0.127 S 
ATOM     82  O   UNL A   1      50.000  24.453  27.407  1.00  0.00    -0.237 OA
ATOM     83  O   UNL A   1      51.409  25.516  25.685  1.00  0.00    -0.237 OA
ATOM     84  O   UNL A   1      50.871  26.740  27.743  1.00  0.00    -0.744 OA
ENDBRANCH  78  81
ENDBRANCH  50  74
BRANCH  62  85
ATOM     85  C   UNL A   1      45.090  32.901  29.699  1.00  0.00     0.023 A 
ATOM     86  C   UNL A   1      45.811  32.890  30.909  1.00  0.00     0.012 A 
ATOM     87  C   UNL A   1      45.157  34.034  28.864  1.00  0.00     0.148 A 
ATOM     88  C   UNL A   1      46.552  34.004  31.303  1.00  0.00     0.002 A 
ATOM     89  C   UNL A   1      45.940  35.119  29.237  1.00  0.00     0.091 A 
ATOM     90  F   UNL A   1      44.449  34.032  27.726  1.00  0.00    -0.205 F 
ATOM     91  C   UNL A   1      46.625  35.112  30.463  1.00  0.00     0.022 A 
BRANCH  89  92
ATOM     92  S   UNL A   1      46.172  36.547  28.173  1.00  0.00     0.127 S 
ATOM     93  O   UNL A   1      47.089  37.364  28.966  1.00  0.00    -0.237 OA
ATOM     94  O   UNL A   1      46.768  35.948  26.977  1.00  0.00    -0.237 OA
ATOM     95  O   UNL A   1      44.847  37.114  27.967  1.00  0.00    -0.744 OA
ENDBRANCH  89  92
ENDBRANCH  62  85
ENDBRANCH  36  37
ENDBRANCH  28  31
ENDBRANCH  26  27
ENDBRANCH   1  26
TORSDOF 16
ENDMDL
