MODEL 1
REMARK VINA RESULT:     -13.6      0.000      0.000
REMARK SMILES CN1C(=O)C[C@@H](C(=O)NCCCNC(=O)c2ccc(-c3c4nc(c(-c5cccc(S(=O)(=O)[O-])c5F)c5ccc([nH]5)c(-c5cccc(S(=O)(=O)[O-])c5F)c5nc(c(-c6cccc(S(=O)(=O)[O-])c6F)c6ccc3[nH]6)C=C5)C=C4)cc2)C12CCN(C(=O)c1cccc3ccccc13)CC2
REMARK SMILES IDX 12 1 11 2 10 3 9 4 7 5 8 6 6 8 1 9 2 10 3 11 79 12 4 13 5 14
REMARK SMILES IDX 80 15 96 16 81 17 95 18 82 19 83 20 84 21 85 22 86 23 94 24
REMARK SMILES IDX 87 25 89 26 93 27 88 28 90 29 92 30 91 31 13 32 14 33 15 35
REMARK SMILES IDX 16 36 17 37 78 38 18 39 77 40 19 41 20 42 21 43 71 44 22 45
REMARK SMILES IDX 76 46 70 47 72 48 23 49 75 50 69 51 68 52 24 54 56 55 36 56
REMARK SMILES IDX 55 57 37 58 40 59 54 60 73 61 38 62 39 63 53 65 74 66 41 67
REMARK SMILES IDX 25 68 26 69 34 70 27 71 29 72 35 73 28 74 30 75 31 76 32 77
REMARK SMILES IDX 33 78 57 79 58 80 66 81 59 82 61 83 67 84 60 85 62 86 63 87
REMARK SMILES IDX 64 88 65 89 42 90 43 91 51 92 44 93 46 94 52 95 45 96 47 97
REMARK SMILES IDX 48 98 49 99 50 100
REMARK H PARENT 9 7 13 34 72 53 40 64
REMARK Flexibility Score: inf
ROOT
ATOM      1  C   UNL A   1      32.272  32.030  26.864  1.00  0.00     0.118 C 
ENDROOT
BRANCH   1   2
ATOM      2  C   UNL A   1      30.995  31.663  26.118  1.00  0.00     0.042 C 
BRANCH   2   3
ATOM      3  C   UNL A   1      31.076  30.333  25.368  1.00  0.00     0.117 C 
BRANCH   3   4
ATOM      4  N   UNL A   1      32.413  29.959  24.925  1.00  0.00    -0.356 N 
ATOM      5  C   UNL A   1      32.902  29.335  23.824  1.00  0.00     0.226 C 
ATOM      6  O   UNL A   1      34.134  29.290  23.729  1.00  0.00    -0.275 OA
ATOM      7  H   UNL A   1      33.116  30.214  25.565  1.00  0.00     0.163 HD
BRANCH   5   8
ATOM      8  C   UNL A   1      32.063  28.655  22.742  1.00  0.00     0.113 C 
ATOM      9  C   UNL A   1      29.109  26.687  23.953  1.00  0.00     0.147 C 
ATOM     10  N   UNL A   1      30.082  27.599  23.380  1.00  0.00    -0.339 N 
ATOM     11  C   UNL A   1      29.680  28.813  22.834  1.00  0.00     0.223 C 
ATOM     12  C   UNL A   1      31.481  27.260  23.077  1.00  0.00     0.058 C 
ATOM     13  O   UNL A   1      28.551  29.269  22.821  1.00  0.00    -0.275 OA
ATOM     14  C   UNL A   1      30.889  29.511  22.277  1.00  0.00     0.116 C 
ATOM     15  C   UNL A   1      32.241  26.548  24.219  1.00  0.00     0.051 C 
ATOM     16  C   UNL A   1      31.478  26.322  21.832  1.00  0.00     0.051 C 
ATOM     17  C   UNL A   1      33.635  26.076  23.798  1.00  0.00     0.122 C 
ATOM     18  C   UNL A   1      32.842  25.708  21.517  1.00  0.00     0.122 C 
ATOM     19  N   UNL A   1      33.466  25.140  22.709  1.00  0.00    -0.338 N 
ATOM     20  C   UNL A   1      33.744  23.777  22.759  1.00  0.00     0.254 C 
ATOM     21  O   UNL A   1      33.375  23.009  21.868  1.00  0.00    -0.269 OA
BRANCH  20  22
ATOM     22  C   UNL A   1      34.646  23.192  23.791  1.00  0.00     0.047 A 
ATOM     23  C   UNL A   1      35.906  22.835  23.277  1.00  0.00     0.014 A 
ATOM     24  C   UNL A   1      34.258  22.783  25.101  1.00  0.00    -0.006 A 
ATOM     25  C   UNL A   1      36.762  22.016  24.002  1.00  0.00     0.001 A 
ATOM     26  C   UNL A   1      35.132  21.908  25.803  1.00  0.00    -0.018 A 
ATOM     27  C   UNL A   1      33.076  23.169  25.776  1.00  0.00     0.009 A 
ATOM     28  C   UNL A   1      36.355  21.522  25.237  1.00  0.00     0.009 A 
ATOM     29  C   UNL A   1      34.780  21.414  27.071  1.00  0.00     0.009 A 
ATOM     30  C   UNL A   1      32.794  22.759  27.084  1.00  0.00     0.001 A 
ATOM     31  C   UNL A   1      33.631  21.855  27.720  1.00  0.00     0.001 A 
ENDBRANCH  20  22
ENDBRANCH   5   8
ENDBRANCH   3   4
ENDBRANCH   2   3
ENDBRANCH   1   2
BRANCH   1  32
ATOM     32  N   UNL A   1      32.337  33.462  27.110  1.00  0.00    -0.352 N 
ATOM     33  C   UNL A   1      33.050  34.154  28.056  1.00  0.00     0.251 C 
ATOM     34  H   UNL A   1      31.790  34.017  26.507  1.00  0.00     0.163 HD
ATOM     35  O   UNL A   1      32.706  35.299  28.342  1.00  0.00    -0.269 OA
BRANCH  33  36
ATOM     36  C   UNL A   1      34.222  33.542  28.720  1.00  0.00     0.039 A 
ATOM     37  C   UNL A   1      34.011  32.534  29.665  1.00  0.00     0.014 A 
ATOM     38  C   UNL A   1      35.521  33.997  28.472  1.00  0.00     0.014 A 
ATOM     39  C   UNL A   1      35.099  31.967  30.331  1.00  0.00     0.010 A 
ATOM     40  C   UNL A   1      36.611  33.368  29.070  1.00  0.00     0.010 A 
ATOM     41  C   UNL A   1      36.413  32.360  30.022  1.00  0.00    -0.014 A 
BRANCH  41  42
ATOM     42  C   UNL A   1      37.574  31.713  30.689  1.00  0.00     0.031 A 
ATOM     43  C   UNL A   1      38.381  30.653  29.983  1.00  0.00     0.074 A 
ATOM     44  C   UNL A   1      37.881  32.061  31.955  1.00  0.00     0.049 A 
ATOM     45  N   UNL A   1      39.434  30.004  30.408  1.00  0.00    -0.248 NA
ATOM     46  C   UNL A   1      37.937  30.251  28.639  1.00  0.00     0.031 C 
ATOM     47  C   UNL A   1      37.121  33.005  32.779  1.00  0.00     0.029 A 
ATOM     48  N   UNL A   1      38.901  31.654  32.776  1.00  0.00    -0.354 N 
ATOM     49  C   UNL A   1      39.767  29.108  29.398  1.00  0.00     0.074 A 
ATOM     50  C   UNL A   1      38.775  29.263  28.357  1.00  0.00     0.031 C 
ATOM     51  C   UNL A   1      37.713  33.119  33.978  1.00  0.00     0.029 A 
ATOM     52  C   UNL A   1      38.872  32.234  34.023  1.00  0.00     0.049 A 
ATOM     53  H   UNL A   1      39.590  31.007  32.499  1.00  0.00     0.167 HD
ATOM     54  C   UNL A   1      40.821  28.261  29.324  1.00  0.00     0.034 A 
ATOM     55  C   UNL A   1      39.684  32.070  35.085  1.00  0.00     0.034 A 
ATOM     56  C   UNL A   1      41.824  28.131  30.348  1.00  0.00     0.049 A 
ATOM     57  C   UNL A   1      40.869  31.154  34.959  1.00  0.00     0.074 A 
ATOM     58  C   UNL A   1      42.967  27.351  30.339  1.00  0.00     0.029 A 
ATOM     59  N   UNL A   1      41.802  28.793  31.566  1.00  0.00    -0.354 N 
ATOM     60  N   UNL A   1      41.250  30.432  33.932  1.00  0.00    -0.248 NA
ATOM     61  C   UNL A   1      41.761  31.061  36.123  1.00  0.00     0.031 C 
ATOM     62  C   UNL A   1      43.622  27.520  31.563  1.00  0.00     0.029 A 
ATOM     63  C   UNL A   1      42.908  28.435  32.319  1.00  0.00     0.049 A 
ATOM     64  H   UNL A   1      41.105  29.425  31.853  1.00  0.00     0.167 HD
ATOM     65  C   UNL A   1      42.439  29.824  34.315  1.00  0.00     0.074 A 
ATOM     66  C   UNL A   1      42.735  30.295  35.653  1.00  0.00     0.031 C 
ATOM     67  C   UNL A   1      43.209  28.940  33.633  1.00  0.00     0.034 A 
BRANCH  54  68
ATOM     68  C   UNL A   1      40.984  27.447  28.065  1.00  0.00     0.023 A 
ATOM     69  C   UNL A   1      41.563  28.041  26.925  1.00  0.00     0.012 A 
ATOM     70  C   UNL A   1      40.646  26.080  28.032  1.00  0.00     0.148 A 
ATOM     71  C   UNL A   1      41.777  27.299  25.764  1.00  0.00     0.002 A 
ATOM     72  C   UNL A   1      40.905  25.334  26.887  1.00  0.00     0.091 A 
ATOM     73  F   UNL A   1      40.082  25.535  29.120  1.00  0.00    -0.205 F 
ATOM     74  C   UNL A   1      41.459  25.944  25.750  1.00  0.00     0.022 A 
BRANCH  72  75
ATOM     75  S   UNL A   1      40.609  23.564  26.789  1.00  0.00     0.127 S 
ATOM     76  O   UNL A   1      39.198  23.523  26.408  1.00  0.00    -0.237 OA
ATOM     77  O   UNL A   1      41.537  23.158  25.735  1.00  0.00    -0.237 OA
ATOM     78  O   UNL A   1      40.909  23.030  28.110  1.00  0.00    -0.744 OA
ENDBRANCH  72  75
ENDBRANCH  54  68
BRANCH  55  79
ATOM     79  C   UNL A   1      39.430  32.820  36.348  1.00  0.00     0.023 A 
ATOM     80  C   UNL A   1      40.066  34.057  36.573  1.00  0.00     0.012 A 
ATOM     81  C   UNL A   1      38.556  32.312  37.328  1.00  0.00     0.148 A 
ATOM     82  C   UNL A   1      39.876  34.748  37.769  1.00  0.00     0.002 A 
ATOM     83  C   UNL A   1      38.321  33.037  38.489  1.00  0.00     0.091 A 
ATOM     84  F   UNL A   1      37.967  31.129  37.102  1.00  0.00    -0.205 F 
ATOM     85  C   UNL A   1      38.997  34.243  38.723  1.00  0.00     0.022 A 
BRANCH  83  86
ATOM     86  S   UNL A   1      37.095  32.528  39.700  1.00  0.00     0.127 S 
ATOM     87  O   UNL A   1      37.623  31.237  40.134  1.00  0.00    -0.237 OA
ATOM     88  O   UNL A   1      37.186  33.599  40.692  1.00  0.00    -0.237 OA
ATOM     89  O   UNL A   1      35.830  32.489  38.979  1.00  0.00    -0.744 OA
ENDBRANCH  83  86
ENDBRANCH  55  79
BRANCH  67  90
ATOM     90  C   UNL A   1      44.461  28.449  34.313  1.00  0.00     0.023 A 
ATOM     91  C   UNL A   1      45.667  29.164  34.168  1.00  0.00     0.012 A 
ATOM     92  C   UNL A   1      44.436  27.294  35.118  1.00  0.00     0.148 A 
ATOM     93  C   UNL A   1      46.840  28.707  34.767  1.00  0.00     0.002 A 
ATOM     94  C   UNL A   1      45.596  26.876  35.759  1.00  0.00     0.091 A 
ATOM     95  F   UNL A   1      43.284  26.616  35.232  1.00  0.00    -0.205 F 
ATOM     96  C   UNL A   1      46.802  27.569  35.570  1.00  0.00     0.022 A 
BRANCH  94  97
ATOM     97  S   UNL A   1      45.620  25.479  36.888  1.00  0.00     0.127 S 
ATOM     98  O   UNL A   1      44.657  25.899  37.903  1.00  0.00    -0.237 OA
ATOM     99  O   UNL A   1      45.167  24.382  36.031  1.00  0.00    -0.237 OA
ATOM    100  O   UNL A   1      46.998  25.357  37.343  1.00  0.00    -0.744 OA
ENDBRANCH  94  97
ENDBRANCH  67  90
ENDBRANCH  41  42
ENDBRANCH  33  36
ENDBRANCH   1  32
TORSDOF 14
ENDMDL
MODEL 2
REMARK VINA RESULT:     -13.6      5.626     11.123
REMARK SMILES CN1C(=O)C[C@@H](C(=O)NCCCNC(=O)c2ccc(-c3c4nc(c(-c5cccc(S(=O)(=O)[O-])c5F)c5ccc([nH]5)c(-c5cccc(S(=O)(=O)[O-])c5F)c5nc(c(-c6cccc(S(=O)(=O)[O-])c6F)c6ccc3[nH]6)C=C5)C=C4)cc2)C12CCN(C(=O)c1cccc3ccccc13)CC2
REMARK SMILES IDX 12 1 11 2 10 3 9 4 7 5 8 6 6 8 1 9 2 10 3 11 79 12 4 13 5 14
REMARK SMILES IDX 80 15 96 16 81 17 95 18 82 19 83 20 84 21 85 22 86 23 94 24
REMARK SMILES IDX 87 25 89 26 93 27 88 28 90 29 92 30 91 31 13 32 14 33 15 35
REMARK SMILES IDX 16 36 17 37 78 38 18 39 77 40 19 41 20 42 21 43 71 44 22 45
REMARK SMILES IDX 76 46 70 47 72 48 23 49 75 50 69 51 68 52 24 54 56 55 36 56
REMARK SMILES IDX 55 57 37 58 40 59 54 60 73 61 38 62 39 63 53 65 74 66 41 67
REMARK SMILES IDX 25 68 26 69 34 70 27 71 29 72 35 73 28 74 30 75 31 76 32 77
REMARK SMILES IDX 33 78 57 79 58 80 66 81 59 82 61 83 67 84 60 85 62 86 63 87
REMARK SMILES IDX 64 88 65 89 42 90 43 91 51 92 44 93 46 94 52 95 45 96 47 97
REMARK SMILES IDX 48 98 49 99 50 100
REMARK H PARENT 9 7 13 34 72 53 40 64
REMARK Flexibility Score: inf
ROOT
ATOM      1  C   UNL A   1      38.476  20.104  25.376  1.00  0.00     0.118 C 
ENDROOT
BRANCH   1   2
ATOM      2  C   UNL A   1      37.230  19.320  24.984  1.00  0.00     0.042 C 
BRANCH   2   3
ATOM      3  C   UNL A   1      35.960  20.168  24.915  1.00  0.00     0.117 C 
BRANCH   3   4
ATOM      4  N   UNL A   1      35.765  21.075  26.039  1.00  0.00    -0.356 N 
ATOM      5  C   UNL A   1      34.686  21.454  26.768  1.00  0.00     0.226 C 
ATOM      6  O   UNL A   1      34.920  22.172  27.748  1.00  0.00    -0.275 OA
ATOM      7  H   UNL A   1      36.598  21.506  26.334  1.00  0.00     0.163 HD
BRANCH   5   8
ATOM      8  C   UNL A   1      33.231  21.112  26.447  1.00  0.00     0.113 C 
ATOM      9  C   UNL A   1      32.297  21.167  22.815  1.00  0.00     0.147 C 
ATOM     10  N   UNL A   1      32.614  20.900  24.206  1.00  0.00    -0.339 N 
ATOM     11  C   UNL A   1      32.750  19.594  24.665  1.00  0.00     0.223 C 
ATOM     12  C   UNL A   1      32.564  21.894  25.290  1.00  0.00     0.058 C 
ATOM     13  O   UNL A   1      32.689  18.577  23.999  1.00  0.00    -0.275 OA
ATOM     14  C   UNL A   1      33.024  19.631  26.143  1.00  0.00     0.116 C 
ATOM     15  C   UNL A   1      33.272  23.232  24.979  1.00  0.00     0.051 C 
ATOM     16  C   UNL A   1      31.062  22.192  25.585  1.00  0.00     0.051 C 
ATOM     17  C   UNL A   1      33.053  24.284  26.070  1.00  0.00     0.122 C 
ATOM     18  C   UNL A   1      30.841  23.364  26.542  1.00  0.00     0.122 C 
ATOM     19  N   UNL A   1      31.631  24.531  26.158  1.00  0.00    -0.338 N 
ATOM     20  C   UNL A   1      30.989  25.716  25.812  1.00  0.00     0.254 C 
ATOM     21  O   UNL A   1      29.762  25.779  25.709  1.00  0.00    -0.269 OA
BRANCH  20  22
ATOM     22  C   UNL A   1      31.720  27.011  25.716  1.00  0.00     0.047 A 
ATOM     23  C   UNL A   1      31.428  27.883  26.781  1.00  0.00     0.014 A 
ATOM     24  C   UNL A   1      32.446  27.476  24.580  1.00  0.00    -0.006 A 
ATOM     25  C   UNL A   1      31.775  29.226  26.713  1.00  0.00     0.001 A 
ATOM     26  C   UNL A   1      32.747  28.864  24.514  1.00  0.00    -0.018 A 
ATOM     27  C   UNL A   1      32.900  26.680  23.502  1.00  0.00     0.009 A 
ATOM     28  C   UNL A   1      32.389  29.718  25.567  1.00  0.00     0.009 A 
ATOM     29  C   UNL A   1      33.402  29.400  23.392  1.00  0.00     0.009 A 
ATOM     30  C   UNL A   1      33.651  27.210  22.446  1.00  0.00     0.001 A 
ATOM     31  C   UNL A   1      33.874  28.576  22.375  1.00  0.00     0.001 A 
ENDBRANCH  20  22
ENDBRANCH   5   8
ENDBRANCH   3   4
ENDBRANCH   2   3
ENDBRANCH   1   2
BRANCH   1  32
ATOM     32  N   UNL A   1      39.525  19.213  25.846  1.00  0.00    -0.352 N 
ATOM     33  C   UNL A   1      40.842  19.484  26.123  1.00  0.00     0.251 C 
ATOM     34  H   UNL A   1      39.250  18.278  25.986  1.00  0.00     0.163 HD
ATOM     35  O   UNL A   1      41.646  18.556  26.155  1.00  0.00    -0.269 OA
BRANCH  33  36
ATOM     36  C   UNL A   1      41.292  20.868  26.389  1.00  0.00     0.039 A 
ATOM     37  C   UNL A   1      41.954  21.568  25.376  1.00  0.00     0.014 A 
ATOM     38  C   UNL A   1      41.129  21.459  27.646  1.00  0.00     0.014 A 
ATOM     39  C   UNL A   1      42.419  22.861  25.616  1.00  0.00     0.010 A 
ATOM     40  C   UNL A   1      41.512  22.782  27.854  1.00  0.00     0.010 A 
ATOM     41  C   UNL A   1      42.181  23.492  26.849  1.00  0.00    -0.014 A 
BRANCH  41  42
ATOM     42  C   UNL A   1      42.625  24.892  27.082  1.00  0.00     0.031 A 
ATOM     43  C   UNL A   1      41.704  25.901  27.720  1.00  0.00     0.074 A 
ATOM     44  C   UNL A   1      43.858  25.265  26.684  1.00  0.00     0.049 A 
ATOM     45  N   UNL A   1      41.937  27.154  28.016  1.00  0.00    -0.248 NA
ATOM     46  C   UNL A   1      40.339  25.457  28.046  1.00  0.00     0.031 C 
ATOM     47  C   UNL A   1      44.810  24.408  25.971  1.00  0.00     0.029 A 
ATOM     48  N   UNL A   1      44.519  26.460  26.807  1.00  0.00    -0.354 N 
ATOM     49  C   UNL A   1      40.750  27.651  28.544  1.00  0.00     0.074 A 
ATOM     50  C   UNL A   1      39.782  26.578  28.482  1.00  0.00     0.031 C 
ATOM     51  C   UNL A   1      45.937  25.099  25.739  1.00  0.00     0.029 A 
ATOM     52  C   UNL A   1      45.779  26.455  26.254  1.00  0.00     0.049 A 
ATOM     53  H   UNL A   1      44.129  27.248  27.250  1.00  0.00     0.167 HD
ATOM     54  C   UNL A   1      40.496  28.874  29.065  1.00  0.00     0.034 A 
ATOM     55  C   UNL A   1      46.702  27.431  26.168  1.00  0.00     0.034 A 
ATOM     56  C   UNL A   1      41.470  29.931  29.153  1.00  0.00     0.049 A 
ATOM     57  C   UNL A   1      46.407  28.767  26.792  1.00  0.00     0.074 A 
ATOM     58  C   UNL A   1      41.332  31.184  29.723  1.00  0.00     0.029 A 
ATOM     59  N   UNL A   1      42.761  29.862  28.650  1.00  0.00    -0.354 N 
ATOM     60  N   UNL A   1      45.329  29.164  27.423  1.00  0.00    -0.248 NA
ATOM     61  C   UNL A   1      47.473  29.777  26.729  1.00  0.00     0.031 C 
ATOM     62  C   UNL A   1      42.530  31.883  29.542  1.00  0.00     0.029 A 
ATOM     63  C   UNL A   1      43.427  31.051  28.892  1.00  0.00     0.049 A 
ATOM     64  H   UNL A   1      43.146  29.083  28.190  1.00  0.00     0.167 HD
ATOM     65  C   UNL A   1      45.597  30.456  27.858  1.00  0.00     0.074 A 
ATOM     66  C   UNL A   1      46.954  30.759  27.451  1.00  0.00     0.031 C 
ATOM     67  C   UNL A   1      44.790  31.324  28.516  1.00  0.00     0.034 A 
BRANCH  54  68
ATOM     68  C   UNL A   1      39.126  29.125  29.641  1.00  0.00     0.023 A 
ATOM     69  C   UNL A   1      38.844  28.719  30.963  1.00  0.00     0.012 A 
ATOM     70  C   UNL A   1      38.147  29.832  28.916  1.00  0.00     0.148 A 
ATOM     71  C   UNL A   1      37.605  28.985  31.542  1.00  0.00     0.002 A 
ATOM     72  C   UNL A   1      36.930  30.135  29.516  1.00  0.00     0.091 A 
ATOM     73  F   UNL A   1      38.426  30.197  27.656  1.00  0.00    -0.205 F 
ATOM     74  C   UNL A   1      36.653  29.703  30.823  1.00  0.00     0.022 A 
BRANCH  72  75
ATOM     75  S   UNL A   1      35.664  31.124  28.709  1.00  0.00     0.127 S 
ATOM     76  O   UNL A   1      36.469  32.156  28.056  1.00  0.00    -0.237 OA
ATOM     77  O   UNL A   1      35.058  30.156  27.796  1.00  0.00    -0.237 OA
ATOM     78  O   UNL A   1      34.787  31.600  29.768  1.00  0.00    -0.744 OA
ENDBRANCH  72  75
ENDBRANCH  54  68
BRANCH  55  79
ATOM     79  C   UNL A   1      48.010  27.172  25.499  1.00  0.00     0.023 A 
ATOM     80  C   UNL A   1      49.095  26.673  26.246  1.00  0.00     0.012 A 
ATOM     81  C   UNL A   1      48.180  27.418  24.125  1.00  0.00     0.148 A 
ATOM     82  C   UNL A   1      50.338  26.470  25.646  1.00  0.00     0.002 A 
ATOM     83  C   UNL A   1      49.402  27.153  23.519  1.00  0.00     0.091 A 
ATOM     84  F   UNL A   1      47.140  27.904  23.431  1.00  0.00    -0.205 F 
ATOM     85  C   UNL A   1      50.489  26.702  24.282  1.00  0.00     0.022 A 
BRANCH  83  86
ATOM     86  S   UNL A   1      49.637  27.287  21.743  1.00  0.00     0.127 S 
ATOM     87  O   UNL A   1      49.447  28.718  21.524  1.00  0.00    -0.237 OA
ATOM     88  O   UNL A   1      51.012  26.813  21.583  1.00  0.00    -0.237 OA
ATOM     89  O   UNL A   1      48.633  26.413  21.152  1.00  0.00    -0.744 OA
ENDBRANCH  83  86
ENDBRANCH  55  79
BRANCH  67  90
ATOM     90  C   UNL A   1      45.365  32.673  28.863  1.00  0.00     0.023 A 
ATOM     91  C   UNL A   1      46.022  32.862  30.095  1.00  0.00     0.012 A 
ATOM     92  C   UNL A   1      45.280  33.746  27.955  1.00  0.00     0.148 A 
ATOM     93  C   UNL A   1      46.535  34.111  30.443  1.00  0.00     0.002 A 
ATOM     94  C   UNL A   1      45.844  34.974  28.283  1.00  0.00     0.091 A 
ATOM     95  F   UNL A   1      44.637  33.554  26.793  1.00  0.00    -0.205 F 
ATOM     96  C   UNL A   1      46.454  35.163  29.533  1.00  0.00     0.022 A 
BRANCH  94  97
ATOM     97  S   UNL A   1      45.872  36.356  27.137  1.00  0.00     0.127 S 
ATOM     98  O   UNL A   1      44.451  36.666  27.008  1.00  0.00    -0.237 OA
ATOM     99  O   UNL A   1      46.651  37.352  27.874  1.00  0.00    -0.237 OA
ATOM    100  O   UNL A   1      46.518  35.860  25.930  1.00  0.00    -0.744 OA
ENDBRANCH  94  97
ENDBRANCH  67  90
ENDBRANCH  41  42
ENDBRANCH  33  36
ENDBRANCH   1  32
TORSDOF 14
ENDMDL
MODEL 3
REMARK VINA RESULT:     -13.5      0.967      7.314
REMARK SMILES CN1C(=O)C[C@@H](C(=O)NCCCNC(=O)c2ccc(-c3c4nc(c(-c5cccc(S(=O)(=O)[O-])c5F)c5ccc([nH]5)c(-c5cccc(S(=O)(=O)[O-])c5F)c5nc(c(-c6cccc(S(=O)(=O)[O-])c6F)c6ccc3[nH]6)C=C5)C=C4)cc2)C12CCN(C(=O)c1cccc3ccccc13)CC2
REMARK SMILES IDX 12 1 11 2 10 3 9 4 7 5 8 6 6 8 1 9 2 10 3 11 79 12 4 13 5 14
REMARK SMILES IDX 80 15 96 16 81 17 95 18 82 19 83 20 84 21 85 22 86 23 94 24
REMARK SMILES IDX 87 25 89 26 93 27 88 28 90 29 92 30 91 31 13 32 14 33 15 35
REMARK SMILES IDX 16 36 17 37 78 38 18 39 77 40 19 41 20 42 21 43 71 44 22 45
REMARK SMILES IDX 76 46 70 47 72 48 23 49 75 50 69 51 68 52 24 54 56 55 36 56
REMARK SMILES IDX 55 57 37 58 40 59 54 60 73 61 38 62 39 63 53 65 74 66 41 67
REMARK SMILES IDX 25 68 26 69 34 70 27 71 29 72 35 73 28 74 30 75 31 76 32 77
REMARK SMILES IDX 33 78 57 79 58 80 66 81 59 82 61 83 67 84 60 85 62 86 63 87
REMARK SMILES IDX 64 88 65 89 42 90 43 91 51 92 44 93 46 94 52 95 45 96 47 97
REMARK SMILES IDX 48 98 49 99 50 100
REMARK H PARENT 9 7 13 34 72 53 40 64
REMARK Flexibility Score: inf
ROOT
ATOM      1  C   UNL A   1      32.740  31.269  27.068  1.00  0.00     0.118 C 
ENDROOT
BRANCH   1   2
ATOM      2  C   UNL A   1      31.374  30.897  26.503  1.00  0.00     0.042 C 
BRANCH   2   3
ATOM      3  C   UNL A   1      31.426  29.829  25.411  1.00  0.00     0.117 C 
BRANCH   3   4
ATOM      4  N   UNL A   1      32.694  29.741  24.697  1.00  0.00    -0.356 N 
ATOM      5  C   UNL A   1      33.053  29.309  23.463  1.00  0.00     0.226 C 
ATOM      6  O   UNL A   1      34.234  29.496  23.145  1.00  0.00    -0.275 OA
ATOM      7  H   UNL A   1      33.456  30.067  25.226  1.00  0.00     0.163 HD
BRANCH   5   8
ATOM      8  C   UNL A   1      32.141  28.578  22.477  1.00  0.00     0.113 C 
ATOM      9  C   UNL A   1      29.202  26.793  23.975  1.00  0.00     0.147 C 
ATOM     10  N   UNL A   1      30.168  27.632  23.288  1.00  0.00    -0.339 N 
ATOM     11  C   UNL A   1      29.771  28.814  22.674  1.00  0.00     0.223 C 
ATOM     12  C   UNL A   1      31.540  27.229  22.942  1.00  0.00     0.058 C 
ATOM     13  O   UNL A   1      28.656  29.303  22.684  1.00  0.00    -0.275 OA
ATOM     14  C   UNL A   1      30.968  29.433  22.008  1.00  0.00     0.116 C 
ATOM     15  C   UNL A   1      32.338  26.579  24.095  1.00  0.00     0.051 C 
ATOM     16  C   UNL A   1      31.448  26.203  21.772  1.00  0.00     0.051 C 
ATOM     17  C   UNL A   1      33.696  26.035  23.641  1.00  0.00     0.122 C 
ATOM     18  C   UNL A   1      32.777  25.527  21.436  1.00  0.00     0.122 C 
ATOM     19  N   UNL A   1      33.446  25.028  22.634  1.00  0.00    -0.338 N 
ATOM     20  C   UNL A   1      33.689  23.664  22.771  1.00  0.00     0.254 C 
ATOM     21  O   UNL A   1      33.254  22.846  21.959  1.00  0.00    -0.269 OA
BRANCH  20  22
ATOM     22  C   UNL A   1      34.627  23.129  23.798  1.00  0.00     0.047 A 
ATOM     23  C   UNL A   1      35.877  22.770  23.262  1.00  0.00     0.014 A 
ATOM     24  C   UNL A   1      34.282  22.761  25.132  1.00  0.00    -0.006 A 
ATOM     25  C   UNL A   1      36.765  21.989  23.992  1.00  0.00     0.001 A 
ATOM     26  C   UNL A   1      35.186  21.924  25.840  1.00  0.00    -0.018 A 
ATOM     27  C   UNL A   1      33.112  23.155  25.825  1.00  0.00     0.009 A 
ATOM     28  C   UNL A   1      36.399  21.535  25.254  1.00  0.00     0.009 A 
ATOM     29  C   UNL A   1      34.876  21.471  27.133  1.00  0.00     0.009 A 
ATOM     30  C   UNL A   1      32.872  22.789  27.155  1.00  0.00     0.001 A 
ATOM     31  C   UNL A   1      33.739  21.919  27.798  1.00  0.00     0.001 A 
ENDBRANCH  20  22
ENDBRANCH   5   8
ENDBRANCH   3   4
ENDBRANCH   2   3
ENDBRANCH   1   2
BRANCH   1  32
ATOM     32  N   UNL A   1      32.875  32.711  27.196  1.00  0.00    -0.352 N 
ATOM     33  C   UNL A   1      33.693  33.442  28.020  1.00  0.00     0.251 C 
ATOM     34  H   UNL A   1      32.294  33.241  26.603  1.00  0.00     0.163 HD
ATOM     35  O   UNL A   1      33.414  34.617  28.246  1.00  0.00    -0.269 OA
BRANCH  33  36
ATOM     36  C   UNL A   1      34.900  32.834  28.624  1.00  0.00     0.039 A 
ATOM     37  C   UNL A   1      34.741  31.875  29.628  1.00  0.00     0.014 A 
ATOM     38  C   UNL A   1      36.185  33.249  28.260  1.00  0.00     0.014 A 
ATOM     39  C   UNL A   1      35.865  31.314  30.237  1.00  0.00     0.010 A 
ATOM     40  C   UNL A   1      37.305  32.623  28.804  1.00  0.00     0.010 A 
ATOM     41  C   UNL A   1      37.158  31.663  29.814  1.00  0.00    -0.014 A 
BRANCH  41  42
ATOM     42  C   UNL A   1      38.354  31.021  30.423  1.00  0.00     0.031 A 
ATOM     43  C   UNL A   1      38.817  31.403  31.806  1.00  0.00     0.074 A 
ATOM     44  C   UNL A   1      39.047  30.112  29.709  1.00  0.00     0.049 A 
ATOM     45  N   UNL A   1      39.823  30.929  32.496  1.00  0.00    -0.248 NA
ATOM     46  C   UNL A   1      38.073  32.470  32.496  1.00  0.00     0.031 C 
ATOM     47  C   UNL A   1      38.756  29.725  28.326  1.00  0.00     0.029 A 
ATOM     48  N   UNL A   1      40.144  29.358  30.038  1.00  0.00    -0.354 N 
ATOM     49  C   UNL A   1      39.844  31.647  33.686  1.00  0.00     0.074 A 
ATOM     50  C   UNL A   1      38.781  32.624  33.607  1.00  0.00     0.031 C 
ATOM     51  C   UNL A   1      39.638  28.793  27.934  1.00  0.00     0.029 A 
ATOM     52  C   UNL A   1      40.578  28.539  29.021  1.00  0.00     0.049 A 
ATOM     53  H   UNL A   1      40.581  29.398  30.920  1.00  0.00     0.167 HD
ATOM     54  C   UNL A   1      40.650  31.487  34.763  1.00  0.00     0.034 A 
ATOM     55  C   UNL A   1      41.616  27.684  28.967  1.00  0.00     0.034 A 
ATOM     56  C   UNL A   1      41.688  30.494  34.852  1.00  0.00     0.049 A 
ATOM     57  C   UNL A   1      42.468  27.497  30.192  1.00  0.00     0.074 A 
ATOM     58  C   UNL A   1      42.514  30.206  35.924  1.00  0.00     0.029 A 
ATOM     59  N   UNL A   1      42.048  29.630  33.829  1.00  0.00    -0.354 N 
ATOM     60  N   UNL A   1      42.371  28.080  31.363  1.00  0.00    -0.248 NA
ATOM     61  C   UNL A   1      43.547  26.503  30.103  1.00  0.00     0.031 C 
ATOM     62  C   UNL A   1      43.392  29.188  35.540  1.00  0.00     0.029 A 
ATOM     63  C   UNL A   1      43.087  28.814  34.241  1.00  0.00     0.049 A 
ATOM     64  H   UNL A   1      41.626  29.602  32.940  1.00  0.00     0.167 HD
ATOM     65  C   UNL A   1      43.355  27.504  32.157  1.00  0.00     0.074 A 
ATOM     66  C   UNL A   1      44.009  26.498  31.345  1.00  0.00     0.031 C 
ATOM     67  C   UNL A   1      43.702  27.792  33.435  1.00  0.00     0.034 A 
BRANCH  54  68
ATOM     68  C   UNL A   1      40.405  32.365  35.964  1.00  0.00     0.023 A 
ATOM     69  C   UNL A   1      41.184  33.527  36.144  1.00  0.00     0.012 A 
ATOM     70  C   UNL A   1      39.358  32.092  36.866  1.00  0.00     0.148 A 
ATOM     71  C   UNL A   1      40.946  34.387  37.215  1.00  0.00     0.002 A 
ATOM     72  C   UNL A   1      39.095  32.978  37.905  1.00  0.00     0.091 A 
ATOM     73  F   UNL A   1      38.637  30.975  36.689  1.00  0.00    -0.205 F 
ATOM     74  C   UNL A   1      39.894  34.119  38.087  1.00  0.00     0.022 A 
BRANCH  72  75
ATOM     75  S   UNL A   1      37.716  32.771  39.038  1.00  0.00     0.127 S 
ATOM     76  O   UNL A   1      37.916  33.894  39.954  1.00  0.00    -0.237 OA
ATOM     77  O   UNL A   1      36.565  32.910  38.146  1.00  0.00    -0.237 OA
ATOM     78  O   UNL A   1      37.876  31.452  39.632  1.00  0.00    -0.744 OA
ENDBRANCH  72  75
ENDBRANCH  54  68
BRANCH  55  79
ATOM     79  C   UNL A   1      41.885  26.906  27.724  1.00  0.00     0.023 A 
ATOM     80  C   UNL A   1      42.426  27.551  26.594  1.00  0.00     0.012 A 
ATOM     81  C   UNL A   1      41.609  25.528  27.658  1.00  0.00     0.148 A 
ATOM     82  C   UNL A   1      42.640  26.847  25.408  1.00  0.00     0.002 A 
ATOM     83  C   UNL A   1      41.885  24.820  26.495  1.00  0.00     0.091 A 
ATOM     84  F   UNL A   1      41.084  24.932  28.740  1.00  0.00    -0.205 F 
ATOM     85  C   UNL A   1      42.378  25.481  25.362  1.00  0.00     0.022 A 
BRANCH  83  86
ATOM     86  S   UNL A   1      41.712  23.034  26.401  1.00  0.00     0.127 S 
ATOM     87  O   UNL A   1      42.438  22.601  27.592  1.00  0.00    -0.237 OA
ATOM     88  O   UNL A   1      40.259  22.867  26.468  1.00  0.00    -0.237 OA
ATOM     89  O   UNL A   1      42.298  22.654  25.123  1.00  0.00    -0.744 OA
ENDBRANCH  83  86
ENDBRANCH  55  79
BRANCH  67  90
ATOM     90  C   UNL A   1      44.821  26.986  34.044  1.00  0.00     0.023 A 
ATOM     91  C   UNL A   1      46.156  27.412  33.896  1.00  0.00     0.012 A 
ATOM     92  C   UNL A   1      44.547  25.821  34.786  1.00  0.00     0.148 A 
ATOM     93  C   UNL A   1      47.205  26.663  34.428  1.00  0.00     0.002 A 
ATOM     94  C   UNL A   1      45.592  25.109  35.363  1.00  0.00     0.091 A 
ATOM     95  F   UNL A   1      43.273  25.420  34.904  1.00  0.00    -0.205 F 
ATOM     96  C   UNL A   1      46.922  25.518  35.170  1.00  0.00     0.022 A 
BRANCH  94  97
ATOM     97  S   UNL A   1      45.317  23.679  36.413  1.00  0.00     0.127 S 
ATOM     98  O   UNL A   1      46.685  23.242  36.686  1.00  0.00    -0.237 OA
ATOM     99  O   UNL A   1      44.624  24.267  37.561  1.00  0.00    -0.237 OA
ATOM    100  O   UNL A   1      44.508  22.757  35.629  1.00  0.00    -0.744 OA
ENDBRANCH  94  97
ENDBRANCH  67  90
ENDBRANCH  41  42
ENDBRANCH  33  36
ENDBRANCH   1  32
TORSDOF 14
ENDMDL
