MODEL 1
REMARK VINA RESULT:     -13.1      0.000      0.000
REMARK SMILES CCOc1cc(C(=O)N2CCC(C(=O)NCCCNC(=O)c3ccc(-c4c5nc(c(-c6cccc(S(=O)(=O)[O-])c6F)c6ccc([nH]6)c(-c6cccc(S(=O)(=O)[O-])c6F)c6nc(c(-c7cccc(S(=O)(=O)[O-])c7F)c7ccc4[nH]7)C=C6)C=C5)cc3)(c3ccccc3)CC2)ccc1OC
REMARK SMILES IDX 17 1 16 2 15 3 13 4 14 5 12 7 7 8 8 9 9 10 10 11 92 12 11 13
REMARK SMILES IDX 91 14 6 15 4 16 5 17 95 18 94 19 93 20 3 21 2 22 1 23 96 24
REMARK SMILES IDX 97 25 85 26 86 27 90 28 87 29 89 30 88 31 18 32 19 33 20 34
REMARK SMILES IDX 21 36 22 37 23 38 84 39 24 40 83 41 25 42 26 43 27 44 77 45
REMARK SMILES IDX 28 46 82 47 76 48 78 49 29 50 81 51 75 52 74 53 30 55 62 56
REMARK SMILES IDX 42 57 61 58 43 59 46 60 60 61 79 62 44 63 45 64 59 66 80 67
REMARK SMILES IDX 47 68 31 69 32 70 40 71 33 72 35 73 41 74 34 75 36 76 37 77
REMARK SMILES IDX 38 78 39 79 63 80 64 81 72 82 65 83 67 84 73 85 66 86 68 87
REMARK SMILES IDX 69 88 70 89 71 90 48 91 49 92 57 93 50 94 52 95 58 96 51 97
REMARK SMILES IDX 53 98 54 99 55 100 56 101
REMARK H PARENT 15 6 19 35 78 54 46 65
REMARK Flexibility Score: inf
ROOT
ATOM      1  C   UNL A   1      31.905  31.108  26.629  1.00  0.00     0.042 C 
ENDROOT
BRANCH   1   2
ATOM      2  C   UNL A   1      32.338  29.741  26.115  1.00  0.00     0.117 C 
BRANCH   2   3
ATOM      3  N   UNL A   1      33.204  29.843  24.947  1.00  0.00    -0.355 N 
ATOM      4  C   UNL A   1      33.416  29.047  23.858  1.00  0.00     0.230 C 
ATOM      5  O   UNL A   1      34.312  29.477  23.127  1.00  0.00    -0.274 OA
ATOM      6  H   UNL A   1      33.753  30.660  24.943  1.00  0.00     0.163 HD
BRANCH   4   7
ATOM      7  C   UNL A   1      32.580  27.740  23.586  1.00  0.00     0.077 C 
ATOM      8  C   UNL A   1      34.130  23.658  23.255  1.00  0.00     0.253 C 
ATOM      9  O   UNL A   1      35.033  23.450  22.451  1.00  0.00    -0.269 OA
ATOM     10  N   UNL A   1      33.494  24.912  23.388  1.00  0.00    -0.339 N 
ATOM     11  C   UNL A   1      33.215  25.627  22.152  1.00  0.00     0.121 C 
ATOM     12  C   UNL A   1      32.796  25.339  24.595  1.00  0.00     0.121 C 
ATOM     13  C   UNL A   1      33.140  27.144  22.264  1.00  0.00     0.043 C 
ATOM     14  C   UNL A   1      32.801  26.841  24.838  1.00  0.00     0.043 C 
BRANCH   8  15
ATOM     15  C   UNL A   1      33.622  22.501  24.055  1.00  0.00     0.043 A 
ATOM     16  C   UNL A   1      31.902  21.380  25.372  1.00  0.00     0.161 A 
ATOM     17  C   UNL A   1      32.365  22.521  24.680  1.00  0.00     0.064 A 
ATOM     18  C   UNL A   1      32.670  20.207  25.378  1.00  0.00     0.160 A 
ATOM     19  C   UNL A   1      33.968  20.254  24.865  1.00  0.00     0.051 A 
ATOM     20  C   UNL A   1      34.458  21.403  24.258  1.00  0.00     0.018 A 
BRANCH  16  21
ATOM     21  O   UNL A   1      30.657  21.410  25.941  1.00  0.00    -0.490 OA
BRANCH  21  22
ATOM     22  C   UNL A   1      30.331  22.681  26.526  1.00  0.00     0.226 C 
ATOM     23  C   UNL A   1      29.075  22.528  27.377  1.00  0.00     0.049 C 
ENDBRANCH  21  22
ENDBRANCH  16  21
BRANCH  18  24
ATOM     24  O   UNL A   1      32.360  18.954  25.822  1.00  0.00    -0.493 OA
ATOM     25  C   UNL A   1      32.735  17.819  25.068  1.00  0.00     0.278 C 
ENDBRANCH  18  24
ENDBRANCH   8  15
BRANCH   7  26
ATOM     26  C   UNL A   1      31.023  27.938  23.427  1.00  0.00    -0.032 A 
ATOM     27  C   UNL A   1      30.053  27.010  23.847  1.00  0.00     0.005 A 
ATOM     28  C   UNL A   1      30.514  29.097  22.799  1.00  0.00     0.005 A 
ATOM     29  C   UNL A   1      28.680  27.212  23.641  1.00  0.00     0.000 A 
ATOM     30  C   UNL A   1      29.145  29.298  22.576  1.00  0.00     0.000 A 
ATOM     31  C   UNL A   1      28.224  28.352  22.995  1.00  0.00     0.000 A 
ENDBRANCH   7  26
ENDBRANCH   4   7
ENDBRANCH   2   3
ENDBRANCH   1   2
BRANCH   1  32
ATOM     32  C   UNL A   1      33.037  31.949  27.206  1.00  0.00     0.118 C 
BRANCH  32  33
ATOM     33  N   UNL A   1      32.650  33.334  27.440  1.00  0.00    -0.352 N 
ATOM     34  C   UNL A   1      33.113  34.233  28.373  1.00  0.00     0.251 C 
ATOM     35  H   UNL A   1      31.951  33.679  26.839  1.00  0.00     0.163 HD
ATOM     36  O   UNL A   1      32.529  35.297  28.536  1.00  0.00    -0.269 OA
BRANCH  34  37
ATOM     37  C   UNL A   1      34.301  33.904  29.192  1.00  0.00     0.039 A 
ATOM     38  C   UNL A   1      34.132  33.153  30.357  1.00  0.00     0.014 A 
ATOM     39  C   UNL A   1      35.577  34.323  28.807  1.00  0.00     0.014 A 
ATOM     40  C   UNL A   1      35.252  32.744  31.086  1.00  0.00     0.010 A 
ATOM     41  C   UNL A   1      36.694  33.846  29.487  1.00  0.00     0.010 A 
ATOM     42  C   UNL A   1      36.545  33.043  30.628  1.00  0.00    -0.014 A 
BRANCH  42  43
ATOM     43  C   UNL A   1      37.754  32.491  31.293  1.00  0.00     0.031 A 
ATOM     44  C   UNL A   1      38.491  31.327  30.687  1.00  0.00     0.074 A 
ATOM     45  C   UNL A   1      38.126  32.973  32.497  1.00  0.00     0.049 A 
ATOM     46  N   UNL A   1      39.487  30.637  31.177  1.00  0.00    -0.248 NA
ATOM     47  C   UNL A   1      38.036  30.865  29.365  1.00  0.00     0.031 C 
ATOM     48  C   UNL A   1      37.454  34.055  33.222  1.00  0.00     0.029 A 
ATOM     49  N   UNL A   1      39.138  32.590  33.343  1.00  0.00    -0.354 N 
ATOM     50  C   UNL A   1      39.762  29.647  30.242  1.00  0.00     0.074 A 
ATOM     51  C   UNL A   1      38.808  29.804  29.168  1.00  0.00     0.031 C 
ATOM     52  C   UNL A   1      38.062  34.240  34.404  1.00  0.00     0.029 A 
ATOM     53  C   UNL A   1      39.139  33.266  34.543  1.00  0.00     0.049 A 
ATOM     54  H   UNL A   1      39.801  31.899  33.114  1.00  0.00     0.167 HD
ATOM     55  C   UNL A   1      40.741  28.711  30.262  1.00  0.00     0.034 A 
ATOM     56  C   UNL A   1      39.898  33.100  35.644  1.00  0.00     0.034 A 
ATOM     57  C   UNL A   1      41.706  28.572  31.320  1.00  0.00     0.049 A 
ATOM     58  C   UNL A   1      40.971  32.044  35.637  1.00  0.00     0.074 A 
ATOM     59  C   UNL A   1      42.771  27.690  31.400  1.00  0.00     0.029 A 
ATOM     60  N   UNL A   1      41.722  29.325  32.482  1.00  0.00    -0.354 N 
ATOM     61  N   UNL A   1      41.307  31.212  34.681  1.00  0.00    -0.248 NA
ATOM     62  C   UNL A   1      41.792  31.925  36.851  1.00  0.00     0.031 C 
ATOM     63  C   UNL A   1      43.415  27.894  32.625  1.00  0.00     0.029 A 
ATOM     64  C   UNL A   1      42.771  28.924  33.291  1.00  0.00     0.049 A 
ATOM     65  H   UNL A   1      41.083  30.041  32.701  1.00  0.00     0.167 HD
ATOM     66  C   UNL A   1      42.396  30.495  35.166  1.00  0.00     0.074 A 
ATOM     67  C   UNL A   1      42.684  31.014  36.486  1.00  0.00     0.031 C 
ATOM     68  C   UNL A   1      43.083  29.486  34.580  1.00  0.00     0.034 A 
BRANCH  55  69
ATOM     69  C   UNL A   1      40.861  27.791  29.074  1.00  0.00     0.023 A 
ATOM     70  C   UNL A   1      40.012  26.668  28.984  1.00  0.00     0.012 A 
ATOM     71  C   UNL A   1      41.735  28.085  28.010  1.00  0.00     0.148 A 
ATOM     72  C   UNL A   1      40.049  25.837  27.864  1.00  0.00     0.002 A 
ATOM     73  C   UNL A   1      41.735  27.278  26.877  1.00  0.00     0.091 A 
ATOM     74  F   UNL A   1      42.543  29.149  28.121  1.00  0.00    -0.205 F 
ATOM     75  C   UNL A   1      40.900  26.149  26.807  1.00  0.00     0.022 A 
BRANCH  73  76
ATOM     76  S   UNL A   1      42.733  27.632  25.426  1.00  0.00     0.127 S 
ATOM     77  O   UNL A   1      42.668  26.361  24.707  1.00  0.00    -0.237 OA
ATOM     78  O   UNL A   1      41.988  28.725  24.802  1.00  0.00    -0.237 OA
ATOM     79  O   UNL A   1      44.053  27.995  25.922  1.00  0.00    -0.744 OA
ENDBRANCH  73  76
ENDBRANCH  55  69
BRANCH  56  80
ATOM     80  C   UNL A   1      39.690  33.960  36.844  1.00  0.00     0.023 A 
ATOM     81  C   UNL A   1      40.128  35.299  36.826  1.00  0.00     0.012 A 
ATOM     82  C   UNL A   1      39.085  33.454  38.011  1.00  0.00     0.148 A 
ATOM     83  C   UNL A   1      40.014  36.101  37.963  1.00  0.00     0.002 A 
ATOM     84  C   UNL A   1      38.921  34.276  39.119  1.00  0.00     0.091 A 
ATOM     85  F   UNL A   1      38.687  32.173  38.017  1.00  0.00    -0.205 F 
ATOM     86  C   UNL A   1      39.403  35.593  39.105  1.00  0.00     0.022 A 
BRANCH  84  87
ATOM     87  S   UNL A   1      38.034  33.741  40.587  1.00  0.00     0.127 S 
ATOM     88  O   UNL A   1      37.895  34.993  41.325  1.00  0.00    -0.237 OA
ATOM     89  O   UNL A   1      36.791  33.221  40.017  1.00  0.00    -0.237 OA
ATOM     90  O   UNL A   1      38.880  32.730  41.206  1.00  0.00    -0.744 OA
ENDBRANCH  84  87
ENDBRANCH  56  80
BRANCH  68  91
ATOM     91  C   UNL A   1      44.241  28.895  35.341  1.00  0.00     0.023 A 
ATOM     92  C   UNL A   1      45.530  29.446  35.196  1.00  0.00     0.012 A 
ATOM     93  C   UNL A   1      44.039  27.836  36.247  1.00  0.00     0.148 A 
ATOM     94  C   UNL A   1      46.607  28.928  35.915  1.00  0.00     0.002 A 
ATOM     95  C   UNL A   1      45.107  27.359  36.998  1.00  0.00     0.091 A 
ATOM     96  F   UNL A   1      42.808  27.315  36.360  1.00  0.00    -0.205 F 
ATOM     97  C   UNL A   1      46.393  27.894  36.823  1.00  0.00     0.022 A 
BRANCH  95  98
ATOM     98  S   UNL A   1      44.913  26.096  38.262  1.00  0.00     0.127 S 
ATOM     99  O   UNL A   1      44.621  24.912  37.456  1.00  0.00    -0.237 OA
ATOM    100  O   UNL A   1      46.231  26.091  38.896  1.00  0.00    -0.237 OA
ATOM    101  O   UNL A   1      43.827  26.547  39.121  1.00  0.00    -0.744 OA
ENDBRANCH  95  98
ENDBRANCH  68  91
ENDBRANCH  42  43
ENDBRANCH  34  37
ENDBRANCH  32  33
ENDBRANCH   1  32
TORSDOF 18
ENDMDL
MODEL 2
REMARK VINA RESULT:     -13.0      1.286      1.903
REMARK SMILES CCOc1cc(C(=O)N2CCC(C(=O)NCCCNC(=O)c3ccc(-c4c5nc(c(-c6cccc(S(=O)(=O)[O-])c6F)c6ccc([nH]6)c(-c6cccc(S(=O)(=O)[O-])c6F)c6nc(c(-c7cccc(S(=O)(=O)[O-])c7F)c7ccc4[nH]7)C=C6)C=C5)cc3)(c3ccccc3)CC2)ccc1OC
REMARK SMILES IDX 17 1 16 2 15 3 13 4 14 5 12 7 7 8 8 9 9 10 10 11 92 12 11 13
REMARK SMILES IDX 91 14 6 15 4 16 5 17 95 18 94 19 93 20 3 21 2 22 1 23 96 24
REMARK SMILES IDX 97 25 85 26 86 27 90 28 87 29 89 30 88 31 18 32 19 33 20 34
REMARK SMILES IDX 21 36 22 37 23 38 84 39 24 40 83 41 25 42 26 43 27 44 77 45
REMARK SMILES IDX 28 46 82 47 76 48 78 49 29 50 81 51 75 52 74 53 30 55 62 56
REMARK SMILES IDX 42 57 61 58 43 59 46 60 60 61 79 62 44 63 45 64 59 66 80 67
REMARK SMILES IDX 47 68 31 69 32 70 40 71 33 72 35 73 41 74 34 75 36 76 37 77
REMARK SMILES IDX 38 78 39 79 63 80 64 81 72 82 65 83 67 84 73 85 66 86 68 87
REMARK SMILES IDX 69 88 70 89 71 90 48 91 49 92 57 93 50 94 52 95 58 96 51 97
REMARK SMILES IDX 53 98 54 99 55 100 56 101
REMARK H PARENT 15 6 19 35 78 54 46 65
REMARK Flexibility Score: inf
ROOT
ATOM      1  C   UNL A   1      31.731  31.830  26.637  1.00  0.00     0.042 C 
ENDROOT
BRANCH   1   2
ATOM      2  C   UNL A   1      32.124  30.442  26.148  1.00  0.00     0.117 C 
BRANCH   2   3
ATOM      3  N   UNL A   1      31.860  29.413  27.145  1.00  0.00    -0.355 N 
ATOM      4  C   UNL A   1      31.705  28.058  27.085  1.00  0.00     0.230 C 
ATOM      5  O   UNL A   1      31.412  27.567  28.178  1.00  0.00    -0.274 OA
ATOM      6  H   UNL A   1      31.776  29.773  28.058  1.00  0.00     0.163 HD
BRANCH   4   7
ATOM      7  C   UNL A   1      31.901  27.241  25.752  1.00  0.00     0.077 C 
ATOM      8  C   UNL A   1      34.297  23.614  25.228  1.00  0.00     0.253 C 
ATOM      9  O   UNL A   1      35.473  23.646  25.580  1.00  0.00    -0.269 OA
ATOM     10  N   UNL A   1      33.453  24.745  25.269  1.00  0.00    -0.339 N 
ATOM     11  C   UNL A   1      34.047  26.008  24.857  1.00  0.00     0.121 C 
ATOM     12  C   UNL A   1      31.998  24.664  25.331  1.00  0.00     0.121 C 
ATOM     13  C   UNL A   1      33.429  27.262  25.462  1.00  0.00     0.043 C 
ATOM     14  C   UNL A   1      31.324  25.825  26.046  1.00  0.00     0.043 C 
BRANCH   8  15
ATOM     15  C   UNL A   1      33.775  22.343  24.640  1.00  0.00     0.043 A 
ATOM     16  C   UNL A   1      33.536  19.915  24.619  1.00  0.00     0.161 A 
ATOM     17  C   UNL A   1      34.104  21.085  25.170  1.00  0.00     0.064 A 
ATOM     18  C   UNL A   1      32.594  20.016  23.585  1.00  0.00     0.160 A 
ATOM     19  C   UNL A   1      32.385  21.262  22.989  1.00  0.00     0.051 A 
ATOM     20  C   UNL A   1      33.009  22.403  23.476  1.00  0.00     0.018 A 
BRANCH  16  21
ATOM     21  O   UNL A   1      33.842  18.703  25.178  1.00  0.00    -0.490 OA
BRANCH  21  22
ATOM     22  C   UNL A   1      34.901  18.013  24.494  1.00  0.00     0.226 C 
ATOM     23  C   UNL A   1      34.769  16.518  24.758  1.00  0.00     0.049 C 
ENDBRANCH  21  22
ENDBRANCH  16  21
BRANCH  18  24
ATOM     24  O   UNL A   1      31.800  19.060  23.023  1.00  0.00    -0.493 OA
ATOM     25  C   UNL A   1      32.339  18.146  22.088  1.00  0.00     0.278 C 
ENDBRANCH  18  24
ENDBRANCH   8  15
BRANCH   7  26
ATOM     26  C   UNL A   1      31.142  27.797  24.485  1.00  0.00    -0.032 A 
ATOM     27  C   UNL A   1      31.712  28.654  23.526  1.00  0.00     0.005 A 
ATOM     28  C   UNL A   1      29.786  27.466  24.266  1.00  0.00     0.005 A 
ATOM     29  C   UNL A   1      30.980  29.159  22.440  1.00  0.00     0.000 A 
ATOM     30  C   UNL A   1      29.046  27.980  23.193  1.00  0.00     0.000 A 
ATOM     31  C   UNL A   1      29.643  28.831  22.278  1.00  0.00     0.000 A 
ENDBRANCH   7  26
ENDBRANCH   4   7
ENDBRANCH   2   3
ENDBRANCH   1   2
BRANCH   1  32
ATOM     32  C   UNL A   1      32.849  32.588  27.343  1.00  0.00     0.118 C 
BRANCH  32  33
ATOM     33  N   UNL A   1      32.507  33.978  27.615  1.00  0.00    -0.352 N 
ATOM     34  C   UNL A   1      33.024  34.846  28.550  1.00  0.00     0.251 C 
ATOM     35  H   UNL A   1      31.798  34.353  27.044  1.00  0.00     0.163 HD
ATOM     36  O   UNL A   1      32.473  35.921  28.752  1.00  0.00    -0.269 OA
BRANCH  34  37
ATOM     37  C   UNL A   1      34.228  34.469  29.323  1.00  0.00     0.039 A 
ATOM     38  C   UNL A   1      34.073  33.990  30.626  1.00  0.00     0.014 A 
ATOM     39  C   UNL A   1      35.503  34.577  28.762  1.00  0.00     0.014 A 
ATOM     40  C   UNL A   1      35.189  33.532  31.332  1.00  0.00     0.010 A 
ATOM     41  C   UNL A   1      36.600  34.044  29.435  1.00  0.00     0.010 A 
ATOM     42  C   UNL A   1      36.453  33.507  30.723  1.00  0.00    -0.014 A 
BRANCH  42  43
ATOM     43  C   UNL A   1      37.627  32.883  31.388  1.00  0.00     0.031 A 
ATOM     44  C   UNL A   1      38.306  31.691  30.771  1.00  0.00     0.074 A 
ATOM     45  C   UNL A   1      38.014  33.328  32.602  1.00  0.00     0.049 A 
ATOM     46  N   UNL A   1      39.261  30.942  31.259  1.00  0.00    -0.248 NA
ATOM     47  C   UNL A   1      37.839  31.271  29.439  1.00  0.00     0.031 C 
ATOM     48  C   UNL A   1      37.393  34.434  33.338  1.00  0.00     0.029 A 
ATOM     49  N   UNL A   1      38.997  32.881  33.450  1.00  0.00    -0.354 N 
ATOM     50  C   UNL A   1      39.492  29.952  30.312  1.00  0.00     0.074 A 
ATOM     51  C   UNL A   1      38.555  30.175  29.233  1.00  0.00     0.031 C 
ATOM     52  C   UNL A   1      38.001  34.570  34.527  1.00  0.00     0.029 A 
ATOM     53  C   UNL A   1      39.023  33.539  34.660  1.00  0.00     0.049 A 
ATOM     54  H   UNL A   1      39.624  32.159  33.216  1.00  0.00     0.167 HD
ATOM     55  C   UNL A   1      40.420  28.966  30.325  1.00  0.00     0.034 A 
ATOM     56  C   UNL A   1      39.764  33.318  35.763  1.00  0.00     0.034 A 
ATOM     57  C   UNL A   1      41.368  28.762  31.388  1.00  0.00     0.049 A 
ATOM     58  C   UNL A   1      40.780  32.207  35.750  1.00  0.00     0.074 A 
ATOM     59  C   UNL A   1      42.384  27.825  31.464  1.00  0.00     0.029 A 
ATOM     60  N   UNL A   1      41.414  29.497  32.562  1.00  0.00    -0.354 N 
ATOM     61  N   UNL A   1      41.080  31.372  34.784  1.00  0.00    -0.248 NA
ATOM     62  C   UNL A   1      41.584  32.028  36.968  1.00  0.00     0.031 C 
ATOM     63  C   UNL A   1      43.028  27.977  32.696  1.00  0.00     0.029 A 
ATOM     64  C   UNL A   1      42.434  29.030  33.372  1.00  0.00     0.049 A 
ATOM     65  H   UNL A   1      40.811  30.242  32.786  1.00  0.00     0.167 HD
ATOM     66  C   UNL A   1      42.126  30.593  35.267  1.00  0.00     0.074 A 
ATOM     67  C   UNL A   1      42.430  31.076  36.596  1.00  0.00     0.031 C 
ATOM     68  C   UNL A   1      42.764  29.556  34.671  1.00  0.00     0.034 A 
BRANCH  55  69
ATOM     69  C   UNL A   1      40.501  28.058  29.125  1.00  0.00     0.023 A 
ATOM     70  C   UNL A   1      39.549  27.028  28.974  1.00  0.00     0.012 A 
ATOM     71  C   UNL A   1      41.449  28.278  28.107  1.00  0.00     0.148 A 
ATOM     72  C   UNL A   1      39.553  26.217  27.840  1.00  0.00     0.002 A 
ATOM     73  C   UNL A   1      41.420  27.494  26.959  1.00  0.00     0.091 A 
ATOM     74  F   UNL A   1      42.353  29.253  28.276  1.00  0.00    -0.205 F 
ATOM     75  C   UNL A   1      40.479  26.457  26.829  1.00  0.00     0.022 A 
BRANCH  73  76
ATOM     76  S   UNL A   1      42.514  27.768  25.562  1.00  0.00     0.127 S 
ATOM     77  O   UNL A   1      42.220  26.605  24.726  1.00  0.00    -0.237 OA
ATOM     78  O   UNL A   1      42.022  29.039  25.033  1.00  0.00    -0.237 OA
ATOM     79  O   UNL A   1      43.863  27.812  26.107  1.00  0.00    -0.744 OA
ENDBRANCH  73  76
ENDBRANCH  55  69
BRANCH  56  80
ATOM     80  C   UNL A   1      39.592  34.171  36.975  1.00  0.00     0.023 A 
ATOM     81  C   UNL A   1      40.070  35.496  36.967  1.00  0.00     0.012 A 
ATOM     82  C   UNL A   1      38.981  33.670  38.141  1.00  0.00     0.148 A 
ATOM     83  C   UNL A   1      39.988  36.289  38.113  1.00  0.00     0.002 A 
ATOM     84  C   UNL A   1      38.850  34.485  39.260  1.00  0.00     0.091 A 
ATOM     85  F   UNL A   1      38.544  32.402  38.137  1.00  0.00    -0.205 F 
ATOM     86  C   UNL A   1      39.372  35.787  39.255  1.00  0.00     0.022 A 
BRANCH  84  87
ATOM     87  S   UNL A   1      37.960  33.961  40.729  1.00  0.00     0.127 S 
ATOM     88  O   UNL A   1      36.812  33.268  40.151  1.00  0.00    -0.237 OA
ATOM     89  O   UNL A   1      38.939  33.093  41.383  1.00  0.00    -0.237 OA
ATOM     90  O   UNL A   1      37.660  35.185  41.459  1.00  0.00    -0.744 OA
ENDBRANCH  84  87
ENDBRANCH  56  80
BRANCH  68  91
ATOM     91  C   UNL A   1      43.883  28.895  35.432  1.00  0.00     0.023 A 
ATOM     92  C   UNL A   1      45.186  29.427  35.366  1.00  0.00     0.012 A 
ATOM     93  C   UNL A   1      43.629  27.786  36.263  1.00  0.00     0.148 A 
ATOM     94  C   UNL A   1      46.228  28.842  36.087  1.00  0.00     0.002 A 
ATOM     95  C   UNL A   1      44.661  27.241  37.018  1.00  0.00     0.091 A 
ATOM     96  F   UNL A   1      42.386  27.286  36.301  1.00  0.00    -0.205 F 
ATOM     97  C   UNL A   1      45.963  27.759  36.920  1.00  0.00     0.022 A 
BRANCH  95  98
ATOM     98  S   UNL A   1      44.399  25.906  38.193  1.00  0.00     0.127 S 
ATOM     99  O   UNL A   1      43.466  25.049  37.464  1.00  0.00    -0.237 OA
ATOM    100  O   UNL A   1      45.747  25.356  38.339  1.00  0.00    -0.237 OA
ATOM    101  O   UNL A   1      43.862  26.527  39.396  1.00  0.00    -0.744 OA
ENDBRANCH  95  98
ENDBRANCH  68  91
ENDBRANCH  42  43
ENDBRANCH  34  37
ENDBRANCH  32  33
ENDBRANCH   1  32
TORSDOF 18
ENDMDL
MODEL 3
REMARK VINA RESULT:     -12.5      5.865     11.140
REMARK SMILES CCOc1cc(C(=O)N2CCC(C(=O)NCCCNC(=O)c3ccc(-c4c5nc(c(-c6cccc(S(=O)(=O)[O-])c6F)c6ccc([nH]6)c(-c6cccc(S(=O)(=O)[O-])c6F)c6nc(c(-c7cccc(S(=O)(=O)[O-])c7F)c7ccc4[nH]7)C=C6)C=C5)cc3)(c3ccccc3)CC2)ccc1OC
REMARK SMILES IDX 17 1 16 2 15 3 13 4 14 5 12 7 7 8 8 9 9 10 10 11 92 12 11 13
REMARK SMILES IDX 91 14 6 15 4 16 5 17 95 18 94 19 93 20 3 21 2 22 1 23 96 24
REMARK SMILES IDX 97 25 85 26 86 27 90 28 87 29 89 30 88 31 18 32 19 33 20 34
REMARK SMILES IDX 21 36 22 37 23 38 84 39 24 40 83 41 25 42 26 43 27 44 77 45
REMARK SMILES IDX 28 46 82 47 76 48 78 49 29 50 81 51 75 52 74 53 30 55 62 56
REMARK SMILES IDX 42 57 61 58 43 59 46 60 60 61 79 62 44 63 45 64 59 66 80 67
REMARK SMILES IDX 47 68 31 69 32 70 40 71 33 72 35 73 41 74 34 75 36 76 37 77
REMARK SMILES IDX 38 78 39 79 63 80 64 81 72 82 65 83 67 84 73 85 66 86 68 87
REMARK SMILES IDX 69 88 70 89 71 90 48 91 49 92 57 93 50 94 52 95 58 96 51 97
REMARK SMILES IDX 53 98 54 99 55 100 56 101
REMARK H PARENT 15 6 19 35 78 54 46 65
REMARK Flexibility Score: inf
ROOT
ATOM      1  C   UNL A   1      37.874  20.949  26.035  1.00  0.00     0.042 C 
ENDROOT
BRANCH   1   2
ATOM      2  C   UNL A   1      37.567  22.418  25.768  1.00  0.00     0.117 C 
BRANCH   2   3
ATOM      3  N   UNL A   1      37.410  22.696  24.346  1.00  0.00    -0.355 N 
ATOM      4  C   UNL A   1      36.342  23.029  23.562  1.00  0.00     0.230 C 
ATOM      5  O   UNL A   1      36.639  23.103  22.367  1.00  0.00    -0.274 OA
ATOM      6  H   UNL A   1      38.254  22.630  23.844  1.00  0.00     0.163 HD
BRANCH   4   7
ATOM      7  C   UNL A   1      34.907  23.298  24.154  1.00  0.00     0.077 C 
ATOM      8  C   UNL A   1      33.049  27.201  24.854  1.00  0.00     0.253 C 
ATOM      9  O   UNL A   1      33.667  28.018  25.532  1.00  0.00    -0.269 OA
ATOM     10  N   UNL A   1      33.509  25.884  24.634  1.00  0.00    -0.339 N 
ATOM     11  C   UNL A   1      34.108  25.211  25.776  1.00  0.00     0.121 C 
ATOM     12  C   UNL A   1      33.097  25.066  23.499  1.00  0.00     0.121 C 
ATOM     13  C   UNL A   1      35.131  24.130  25.449  1.00  0.00     0.043 C 
ATOM     14  C   UNL A   1      34.133  24.053  23.034  1.00  0.00     0.043 C 
BRANCH   8  15
ATOM     15  C   UNL A   1      31.708  27.597  24.327  1.00  0.00     0.043 A 
ATOM     16  C   UNL A   1      30.254  29.020  22.981  1.00  0.00     0.161 A 
ATOM     17  C   UNL A   1      31.531  28.722  23.506  1.00  0.00     0.064 A 
ATOM     18  C   UNL A   1      29.178  28.156  23.227  1.00  0.00     0.160 A 
ATOM     19  C   UNL A   1      29.348  27.122  24.151  1.00  0.00     0.051 A 
ATOM     20  C   UNL A   1      30.584  26.878  24.734  1.00  0.00     0.018 A 
BRANCH  16  21
ATOM     21  O   UNL A   1      30.115  30.101  22.152  1.00  0.00    -0.490 OA
BRANCH  21  22
ATOM     22  C   UNL A   1      28.974  30.915  22.466  1.00  0.00     0.226 C 
ATOM     23  C   UNL A   1      29.212  31.607  23.803  1.00  0.00     0.049 C 
ENDBRANCH  21  22
ENDBRANCH  16  21
BRANCH  18  24
ATOM     24  O   UNL A   1      27.921  28.143  22.697  1.00  0.00    -0.493 OA
ATOM     25  C   UNL A   1      26.794  28.003  23.539  1.00  0.00     0.278 C 
ENDBRANCH  18  24
ENDBRANCH   8  15
BRANCH   7  26
ATOM     26  C   UNL A   1      34.061  22.018  24.520  1.00  0.00    -0.032 A 
ATOM     27  C   UNL A   1      34.162  21.316  25.735  1.00  0.00     0.005 A 
ATOM     28  C   UNL A   1      33.146  21.479  23.588  1.00  0.00     0.005 A 
ATOM     29  C   UNL A   1      33.420  20.153  25.995  1.00  0.00     0.000 A 
ATOM     30  C   UNL A   1      32.414  20.310  23.835  1.00  0.00     0.000 A 
ATOM     31  C   UNL A   1      32.553  19.642  25.041  1.00  0.00     0.000 A 
ENDBRANCH   7  26
ENDBRANCH   4   7
ENDBRANCH   2   3
ENDBRANCH   1   2
BRANCH   1  32
ATOM     32  C   UNL A   1      38.857  20.325  25.051  1.00  0.00     0.118 C 
BRANCH  32  33
ATOM     33  N   UNL A   1      39.849  19.480  25.703  1.00  0.00    -0.352 N 
ATOM     34  C   UNL A   1      40.990  19.829  26.390  1.00  0.00     0.251 C 
ATOM     35  H   UNL A   1      39.678  18.513  25.642  1.00  0.00     0.163 HD
ATOM     36  O   UNL A   1      41.799  18.965  26.704  1.00  0.00    -0.269 OA
BRANCH  34  37
ATOM     37  C   UNL A   1      41.246  21.247  26.726  1.00  0.00     0.039 A 
ATOM     38  C   UNL A   1      41.289  21.626  28.069  1.00  0.00     0.014 A 
ATOM     39  C   UNL A   1      41.457  22.196  25.722  1.00  0.00     0.014 A 
ATOM     40  C   UNL A   1      41.633  22.938  28.407  1.00  0.00     0.010 A 
ATOM     41  C   UNL A   1      41.879  23.478  26.062  1.00  0.00     0.010 A 
ATOM     42  C   UNL A   1      41.982  23.860  27.408  1.00  0.00    -0.014 A 
BRANCH  42  43
ATOM     43  C   UNL A   1      42.502  25.212  27.742  1.00  0.00     0.031 A 
ATOM     44  C   UNL A   1      41.595  26.247  28.351  1.00  0.00     0.074 A 
ATOM     45  C   UNL A   1      43.766  25.539  27.401  1.00  0.00     0.049 A 
ATOM     46  N   UNL A   1      41.833  27.509  28.598  1.00  0.00    -0.248 NA
ATOM     47  C   UNL A   1      40.234  25.813  28.709  1.00  0.00     0.031 C 
ATOM     48  C   UNL A   1      44.725  24.645  26.744  1.00  0.00     0.029 A 
ATOM     49  N   UNL A   1      44.451  26.723  27.522  1.00  0.00    -0.354 N 
ATOM     50  C   UNL A   1      40.652  28.025  29.116  1.00  0.00     0.074 A 
ATOM     51  C   UNL A   1      39.685  26.950  29.118  1.00  0.00     0.031 C 
ATOM     52  C   UNL A   1      45.865  25.315  26.511  1.00  0.00     0.029 A 
ATOM     53  C   UNL A   1      45.707  26.694  26.960  1.00  0.00     0.049 A 
ATOM     54  H   UNL A   1      44.079  27.518  27.968  1.00  0.00     0.167 HD
ATOM     55  C   UNL A   1      40.403  29.274  29.577  1.00  0.00     0.034 A 
ATOM     56  C   UNL A   1      46.618  27.673  26.795  1.00  0.00     0.034 A 
ATOM     57  C   UNL A   1      41.373  30.337  29.598  1.00  0.00     0.049 A 
ATOM     58  C   UNL A   1      46.308  29.053  27.310  1.00  0.00     0.074 A 
ATOM     59  C   UNL A   1      41.231  31.620  30.099  1.00  0.00     0.029 A 
ATOM     60  N   UNL A   1      42.659  30.246  29.092  1.00  0.00    -0.354 N 
ATOM     61  N   UNL A   1      45.234  29.483  27.927  1.00  0.00    -0.248 NA
ATOM     62  C   UNL A   1      47.348  30.077  27.133  1.00  0.00     0.031 C 
ATOM     63  C   UNL A   1      42.424  32.313  29.871  1.00  0.00     0.029 A 
ATOM     64  C   UNL A   1      43.319  31.451  29.259  1.00  0.00     0.049 A 
ATOM     65  H   UNL A   1      43.047  29.443  28.675  1.00  0.00     0.167 HD
ATOM     66  C   UNL A   1      45.483  30.815  28.240  1.00  0.00     0.074 A 
ATOM     67  C   UNL A   1      46.821  31.111  27.774  1.00  0.00     0.031 C 
ATOM     68  C   UNL A   1      44.671  31.718  28.841  1.00  0.00     0.034 A 
BRANCH  55  69
ATOM     69  C   UNL A   1      39.039  29.555  30.155  1.00  0.00     0.023 A 
ATOM     70  C   UNL A   1      38.760  29.166  31.482  1.00  0.00     0.012 A 
ATOM     71  C   UNL A   1      38.075  30.281  29.429  1.00  0.00     0.148 A 
ATOM     72  C   UNL A   1      37.534  29.475  32.069  1.00  0.00     0.002 A 
ATOM     73  C   UNL A   1      36.872  30.623  30.036  1.00  0.00     0.091 A 
ATOM     74  F   UNL A   1      38.354  30.629  28.165  1.00  0.00    -0.205 F 
ATOM     75  C   UNL A   1      36.597  30.213  31.352  1.00  0.00     0.022 A 
BRANCH  73  76
ATOM     76  S   UNL A   1      35.627  31.637  29.233  1.00  0.00     0.127 S 
ATOM     77  O   UNL A   1      34.780  32.015  30.363  1.00  0.00    -0.237 OA
ATOM     78  O   UNL A   1      36.430  32.728  28.682  1.00  0.00    -0.237 OA
ATOM     79  O   UNL A   1      34.989  30.785  28.240  1.00  0.00    -0.744 OA
ENDBRANCH  73  76
ENDBRANCH  55  69
BRANCH  56  80
ATOM     80  C   UNL A   1      47.923  27.390  26.128  1.00  0.00     0.023 A 
ATOM     81  C   UNL A   1      49.035  27.014  26.906  1.00  0.00     0.012 A 
ATOM     82  C   UNL A   1      48.072  27.514  24.734  1.00  0.00     0.148 A 
ATOM     83  C   UNL A   1      50.284  26.818  26.314  1.00  0.00     0.002 A 
ATOM     84  C   UNL A   1      49.305  27.260  24.144  1.00  0.00     0.091 A 
ATOM     85  F   UNL A   1      47.007  27.887  24.009  1.00  0.00    -0.205 F 
ATOM     86  C   UNL A   1      50.417  26.932  24.934  1.00  0.00     0.022 A 
BRANCH  84  87
ATOM     87  S   UNL A   1      49.535  27.262  22.362  1.00  0.00     0.127 S 
ATOM     88  O   UNL A   1      49.234  28.650  22.024  1.00  0.00    -0.237 OA
ATOM     89  O   UNL A   1      50.944  26.889  22.237  1.00  0.00    -0.237 OA
ATOM     90  O   UNL A   1      48.603  26.268  21.848  1.00  0.00    -0.744 OA
ENDBRANCH  84  87
ENDBRANCH  56  80
BRANCH  68  91
ATOM     91  C   UNL A   1      45.215  33.105  29.068  1.00  0.00     0.023 A 
ATOM     92  C   UNL A   1      46.041  33.361  30.180  1.00  0.00     0.012 A 
ATOM     93  C   UNL A   1      44.958  34.135  28.143  1.00  0.00     0.148 A 
ATOM     94  C   UNL A   1      46.574  34.633  30.388  1.00  0.00     0.002 A 
ATOM     95  C   UNL A   1      45.536  35.386  28.329  1.00  0.00     0.091 A 
ATOM     96  F   UNL A   1      44.158  33.876  27.099  1.00  0.00    -0.205 F 
ATOM     97  C   UNL A   1      46.331  35.640  29.458  1.00  0.00     0.022 A 
BRANCH  95  98
ATOM     98  S   UNL A   1      45.360  36.720  27.137  1.00  0.00     0.127 S 
ATOM     99  O   UNL A   1      45.829  37.870  27.908  1.00  0.00    -0.237 OA
ATOM    100  O   UNL A   1      46.260  36.295  26.066  1.00  0.00    -0.237 OA
ATOM    101  O   UNL A   1      43.950  36.751  26.770  1.00  0.00    -0.744 OA
ENDBRANCH  95  98
ENDBRANCH  68  91
ENDBRANCH  42  43
ENDBRANCH  34  37
ENDBRANCH  32  33
ENDBRANCH   1  32
TORSDOF 18
ENDMDL
