MODEL 1
REMARK VINA RESULT:     -11.8      0.000      0.000
REMARK SMILES CC[C@]1(C(=O)NCCCNC(=O)c2ccc(-c3c4nc(c(-c5cccc(S(=O)(=O)[O-])c5F)c5ccc([nH]5)c(-c5cccc(S(=O)(=O)[O-])c5F)c5nc(c(-c6cccc(S(=O)(=O)[O-])c6F)c6ccc3[nH]6)C=C5)C=C4)cc2)CC[N@@H+](Cc2ccc(CC(C)C)cc2)C1
REMARK SMILES IDX 7 1 6 2 4 3 5 4 3 6 76 7 90 8 77 9 78 10 2 12 1 13 79 14
REMARK SMILES IDX 80 15 81 16 89 17 82 18 88 19 83 20 84 21 85 22 86 23 87 24
REMARK SMILES IDX 8 25 9 26 10 27 11 28 12 30 13 31 14 32 75 33 15 34 74 35
REMARK SMILES IDX 16 36 17 37 18 38 68 39 19 40 73 41 67 42 69 43 20 44 72 45
REMARK SMILES IDX 66 46 65 47 21 49 53 50 33 51 52 52 34 53 37 54 51 55 70 56
REMARK SMILES IDX 35 57 36 58 50 60 71 61 38 62 22 63 23 64 31 65 24 66 26 67
REMARK SMILES IDX 32 68 25 69 27 70 28 71 29 72 30 73 54 74 55 75 63 76 56 77
REMARK SMILES IDX 58 78 64 79 57 80 59 81 60 82 61 83 62 84 39 85 40 86 48 87
REMARK SMILES IDX 41 88 43 89 49 90 42 91 44 92 45 93 46 94 47 95
REMARK H PARENT 6 5 78 11 10 29 69 48 37 59
REMARK Flexibility Score: inf
ROOT
ATOM      1  C   UNL A   1      34.860  24.531  25.321  1.00  0.00     0.117 C 
ENDROOT
BRANCH   1   2
ATOM      2  N   UNL A   1      33.613  24.732  26.104  1.00  0.00    -0.355 N 
ATOM      3  C   UNL A   1      32.562  25.612  26.227  1.00  0.00     0.232 C 
ATOM      4  O   UNL A   1      31.641  25.125  26.912  1.00  0.00    -0.274 OA
ATOM      5  H   UNL A   1      33.503  23.994  26.746  1.00  0.00     0.163 HD
BRANCH   3   6
ATOM      6  C   UNL A   1      32.378  27.129  25.733  1.00  0.00     0.103 C 
ATOM      7  C   UNL A   1      33.482  27.569  24.717  1.00  0.00     0.084 C 
ATOM      8  C   UNL A   1      31.075  27.486  24.985  1.00  0.00     0.279 C 
ATOM      9  C   UNL A   1      32.771  28.410  23.649  1.00  0.00     0.263 C 
ATOM     10  N   UNL A   1      31.390  27.939  23.613  1.00  0.00    -0.330 N 
ATOM     11  H   UNL A   1      30.728  28.680  23.383  1.00  0.00     0.348 HD
BRANCH   6  12
ATOM     12  C   UNL A   1      32.621  28.012  27.020  1.00  0.00     0.020 C 
ATOM     13  C   UNL A   1      31.424  28.726  27.656  1.00  0.00     0.005 C 
ENDBRANCH   6  12
BRANCH  10  14
ATOM     14  C   UNL A   1      31.065  27.051  22.457  1.00  0.00     0.299 C 
BRANCH  14  15
ATOM     15  C   UNL A   1      31.545  25.612  22.518  1.00  0.00     0.006 A 
ATOM     16  C   UNL A   1      32.719  25.084  21.998  1.00  0.00     0.010 A 
ATOM     17  C   UNL A   1      30.720  24.706  23.150  1.00  0.00     0.010 A 
ATOM     18  C   UNL A   1      33.049  23.728  22.240  1.00  0.00     0.004 A 
ATOM     19  C   UNL A   1      31.020  23.399  23.453  1.00  0.00     0.004 A 
ATOM     20  C   UNL A   1      32.219  22.896  23.012  1.00  0.00    -0.048 A 
BRANCH  20  21
ATOM     21  C   UNL A   1      32.503  21.458  23.345  1.00  0.00     0.038 C 
BRANCH  21  22
ATOM     22  C   UNL A   1      33.350  21.342  24.617  1.00  0.00    -0.013 C 
ATOM     23  C   UNL A   1      32.427  21.365  25.832  1.00  0.00     0.008 C 
ATOM     24  C   UNL A   1      34.212  20.082  24.565  1.00  0.00     0.008 C 
ENDBRANCH  21  22
ENDBRANCH  20  21
ENDBRANCH  14  15
ENDBRANCH  10  14
ENDBRANCH   3   6
ENDBRANCH   1   2
BRANCH   1  25
ATOM     25  C   UNL A   1      36.128  23.839  25.939  1.00  0.00     0.042 C 
BRANCH  25  26
ATOM     26  C   UNL A   1      37.013  22.859  25.117  1.00  0.00     0.118 C 
BRANCH  26  27
ATOM     27  N   UNL A   1      37.930  22.123  26.004  1.00  0.00    -0.352 N 
ATOM     28  C   UNL A   1      39.186  22.415  26.499  1.00  0.00     0.251 C 
ATOM     29  H   UNL A   1      37.580  21.252  26.301  1.00  0.00     0.163 HD
ATOM     30  O   UNL A   1      39.944  21.463  26.697  1.00  0.00    -0.269 OA
BRANCH  28  31
ATOM     31  C   UNL A   1      39.657  23.775  26.904  1.00  0.00     0.039 A 
ATOM     32  C   UNL A   1      39.406  24.233  28.209  1.00  0.00     0.014 A 
ATOM     33  C   UNL A   1      40.125  24.703  25.980  1.00  0.00     0.014 A 
ATOM     34  C   UNL A   1      39.676  25.569  28.593  1.00  0.00     0.010 A 
ATOM     35  C   UNL A   1      40.413  26.031  26.382  1.00  0.00     0.010 A 
ATOM     36  C   UNL A   1      40.235  26.499  27.699  1.00  0.00    -0.014 A 
BRANCH  36  37
ATOM     37  C   UNL A   1      40.708  27.876  28.160  1.00  0.00     0.031 A 
ATOM     38  C   UNL A   1      42.179  28.284  28.227  1.00  0.00     0.074 A 
ATOM     39  C   UNL A   1      39.824  28.774  28.671  1.00  0.00     0.049 A 
ATOM     40  N   UNL A   1      42.706  29.442  28.565  1.00  0.00    -0.248 NA
ATOM     41  C   UNL A   1      43.189  27.257  27.937  1.00  0.00     0.031 C 
ATOM     42  C   UNL A   1      38.398  28.528  28.902  1.00  0.00     0.029 A 
ATOM     43  N   UNL A   1      39.997  30.070  29.125  1.00  0.00    -0.354 N 
ATOM     44  C   UNL A   1      44.089  29.265  28.576  1.00  0.00     0.074 A 
ATOM     45  C   UNL A   1      44.316  27.867  28.279  1.00  0.00     0.031 C 
ATOM     46  C   UNL A   1      37.830  29.626  29.426  1.00  0.00     0.029 A 
ATOM     47  C   UNL A   1      38.839  30.669  29.577  1.00  0.00     0.049 A 
ATOM     48  H   UNL A   1      40.870  30.524  29.124  1.00  0.00     0.167 HD
ATOM     49  C   UNL A   1      45.091  30.168  28.756  1.00  0.00     0.034 A 
ATOM     50  C   UNL A   1      38.586  31.912  30.042  1.00  0.00     0.034 A 
ATOM     51  C   UNL A   1      44.898  31.580  28.976  1.00  0.00     0.049 A 
ATOM     52  C   UNL A   1      39.680  32.947  30.082  1.00  0.00     0.074 A 
ATOM     53  C   UNL A   1      45.847  32.591  28.971  1.00  0.00     0.029 A 
ATOM     54  N   UNL A   1      43.686  32.181  29.262  1.00  0.00    -0.354 N 
ATOM     55  N   UNL A   1      40.951  32.814  29.800  1.00  0.00    -0.248 NA
ATOM     56  C   UNL A   1      39.292  34.320  30.446  1.00  0.00     0.031 C 
ATOM     57  C   UNL A   1      45.211  33.798  29.287  1.00  0.00     0.029 A 
ATOM     58  C   UNL A   1      43.861  33.545  29.449  1.00  0.00     0.049 A 
ATOM     59  H   UNL A   1      42.824  31.710  29.322  1.00  0.00     0.167 HD
ATOM     60  C   UNL A   1      41.505  34.086  29.918  1.00  0.00     0.074 A 
ATOM     61  C   UNL A   1      40.425  34.983  30.265  1.00  0.00     0.031 C 
ATOM     62  C   UNL A   1      42.798  34.465  29.760  1.00  0.00     0.034 A 
BRANCH  49  63
ATOM     63  C   UNL A   1      46.521  29.678  28.624  1.00  0.00     0.023 A 
ATOM     64  C   UNL A   1      47.318  29.551  29.782  1.00  0.00     0.012 A 
ATOM     65  C   UNL A   1      47.052  29.267  27.384  1.00  0.00     0.148 A 
ATOM     66  C   UNL A   1      48.632  29.091  29.703  1.00  0.00     0.002 A 
ATOM     67  C   UNL A   1      48.345  28.754  27.320  1.00  0.00     0.091 A 
ATOM     68  F   UNL A   1      46.289  29.386  26.287  1.00  0.00    -0.205 F 
ATOM     69  C   UNL A   1      49.142  28.684  28.476  1.00  0.00     0.022 A 
BRANCH  67  70
ATOM     70  S   UNL A   1      49.071  28.106  25.809  1.00  0.00     0.127 S 
ATOM     71  O   UNL A   1      50.241  28.965  25.651  1.00  0.00    -0.237 OA
ATOM     72  O   UNL A   1      49.372  26.725  26.178  1.00  0.00    -0.237 OA
ATOM     73  O   UNL A   1      48.045  28.249  24.779  1.00  0.00    -0.744 OA
ENDBRANCH  67  70
ENDBRANCH  49  63
BRANCH  50  74
ATOM     74  C   UNL A   1      37.188  32.298  30.407  1.00  0.00     0.023 A 
ATOM     75  C   UNL A   1      36.744  32.112  31.733  1.00  0.00     0.012 A 
ATOM     76  C   UNL A   1      36.309  32.863  29.465  1.00  0.00     0.148 A 
ATOM     77  C   UNL A   1      35.442  32.448  32.105  1.00  0.00     0.002 A 
ATOM     78  C   UNL A   1      35.031  33.250  29.855  1.00  0.00     0.091 A 
ATOM     79  F   UNL A   1      36.746  33.025  28.208  1.00  0.00    -0.205 F 
ATOM     80  C   UNL A   1      34.589  33.026  31.168  1.00  0.00     0.022 A 
BRANCH  78  81
ATOM     81  S   UNL A   1      33.904  34.123  28.763  1.00  0.00     0.127 S 
ATOM     82  O   UNL A   1      32.878  34.581  29.692  1.00  0.00    -0.237 OA
ATOM     83  O   UNL A   1      34.765  35.176  28.224  1.00  0.00    -0.237 OA
ATOM     84  O   UNL A   1      33.469  33.139  27.776  1.00  0.00    -0.744 OA
ENDBRANCH  78  81
ENDBRANCH  50  74
BRANCH  62  85
ATOM     85  C   UNL A   1      43.132  35.928  29.929  1.00  0.00     0.023 A 
ATOM     86  C   UNL A   1      43.691  36.393  31.138  1.00  0.00     0.012 A 
ATOM     87  C   UNL A   1      42.926  36.843  28.876  1.00  0.00     0.148 A 
ATOM     88  C   UNL A   1      43.989  37.745  31.313  1.00  0.00     0.002 A 
ATOM     89  C   UNL A   1      43.274  38.180  29.039  1.00  0.00     0.091 A 
ATOM     90  F   UNL A   1      42.376  36.395  27.737  1.00  0.00    -0.205 F 
ATOM     91  C   UNL A   1      43.789  38.635  30.262  1.00  0.00     0.022 A 
BRANCH  89  92
ATOM     92  S   UNL A   1      43.140  39.379  27.707  1.00  0.00     0.127 S 
ATOM     93  O   UNL A   1      43.959  38.761  26.665  1.00  0.00    -0.237 OA
ATOM     94  O   UNL A   1      41.703  39.381  27.431  1.00  0.00    -0.237 OA
ATOM     95  O   UNL A   1      43.651  40.633  28.246  1.00  0.00    -0.744 OA
ENDBRANCH  89  92
ENDBRANCH  62  85
ENDBRANCH  36  37
ENDBRANCH  28  31
ENDBRANCH  26  27
ENDBRANCH  25  26
ENDBRANCH   1  25
TORSDOF 18
ENDMDL
MODEL 2
REMARK VINA RESULT:     -11.8      5.228     10.076
REMARK SMILES CC[C@]1(C(=O)NCCCNC(=O)c2ccc(-c3c4nc(c(-c5cccc(S(=O)(=O)[O-])c5F)c5ccc([nH]5)c(-c5cccc(S(=O)(=O)[O-])c5F)c5nc(c(-c6cccc(S(=O)(=O)[O-])c6F)c6ccc3[nH]6)C=C5)C=C4)cc2)CC[N@@H+](Cc2ccc(CC(C)C)cc2)C1
REMARK SMILES IDX 7 1 6 2 4 3 5 4 3 6 76 7 90 8 77 9 78 10 2 12 1 13 79 14
REMARK SMILES IDX 80 15 81 16 89 17 82 18 88 19 83 20 84 21 85 22 86 23 87 24
REMARK SMILES IDX 8 25 9 26 10 27 11 28 12 30 13 31 14 32 75 33 15 34 74 35
REMARK SMILES IDX 16 36 17 37 18 38 68 39 19 40 73 41 67 42 69 43 20 44 72 45
REMARK SMILES IDX 66 46 65 47 21 49 53 50 33 51 52 52 34 53 37 54 51 55 70 56
REMARK SMILES IDX 35 57 36 58 50 60 71 61 38 62 22 63 23 64 31 65 24 66 26 67
REMARK SMILES IDX 32 68 25 69 27 70 28 71 29 72 30 73 54 74 55 75 63 76 56 77
REMARK SMILES IDX 58 78 64 79 57 80 59 81 60 82 61 83 62 84 39 85 40 86 48 87
REMARK SMILES IDX 41 88 43 89 49 90 42 91 44 92 45 93 46 94 47 95
REMARK H PARENT 6 5 78 11 10 29 69 48 37 59
REMARK Flexibility Score: inf
ROOT
ATOM      1  C   UNL A   1      33.201  26.259  26.147  1.00  0.00     0.117 C 
ENDROOT
BRANCH   1   2
ATOM      2  N   UNL A   1      32.114  25.308  26.496  1.00  0.00    -0.355 N 
ATOM      3  C   UNL A   1      31.870  23.958  26.598  1.00  0.00     0.232 C 
ATOM      4  O   UNL A   1      30.799  23.734  27.194  1.00  0.00    -0.274 OA
ATOM      5  H   UNL A   1      31.300  25.810  26.731  1.00  0.00     0.163 HD
BRANCH   3   6
ATOM      6  C   UNL A   1      32.660  22.686  26.017  1.00  0.00     0.103 C 
ATOM      7  C   UNL A   1      31.705  21.622  25.384  1.00  0.00     0.084 C 
ATOM      8  C   UNL A   1      33.682  22.932  24.886  1.00  0.00     0.279 C 
ATOM      9  C   UNL A   1      32.407  21.115  24.119  1.00  0.00     0.263 C 
ATOM     10  N   UNL A   1      33.269  22.203  23.668  1.00  0.00    -0.330 N 
ATOM     11  H   UNL A   1      34.120  21.869  23.215  1.00  0.00     0.348 HD
BRANCH   6  12
ATOM     12  C   UNL A   1      33.288  21.980  27.283  1.00  0.00     0.020 C 
ATOM     13  C   UNL A   1      34.626  22.497  27.822  1.00  0.00     0.005 C 
ENDBRANCH   6  12
BRANCH  10  14
ATOM     14  C   UNL A   1      32.742  22.971  22.500  1.00  0.00     0.299 C 
BRANCH  14  15
ATOM     15  C   UNL A   1      32.113  24.326  22.774  1.00  0.00     0.006 A 
ATOM     16  C   UNL A   1      32.698  25.577  22.643  1.00  0.00     0.010 A 
ATOM     17  C   UNL A   1      30.809  24.328  23.221  1.00  0.00     0.010 A 
ATOM     18  C   UNL A   1      31.922  26.744  22.850  1.00  0.00     0.004 A 
ATOM     19  C   UNL A   1      30.003  25.429  23.384  1.00  0.00     0.004 A 
ATOM     20  C   UNL A   1      30.555  26.668  23.174  1.00  0.00    -0.048 A 
BRANCH  20  21
ATOM     21  C   UNL A   1      29.648  27.849  23.380  1.00  0.00     0.038 C 
BRANCH  21  22
ATOM     22  C   UNL A   1      30.367  29.162  23.054  1.00  0.00    -0.013 C 
ATOM     23  C   UNL A   1      29.613  29.878  21.937  1.00  0.00     0.008 C 
ATOM     24  C   UNL A   1      30.496  30.020  24.312  1.00  0.00     0.008 C 
ENDBRANCH  21  22
ENDBRANCH  20  21
ENDBRANCH  14  15
ENDBRANCH  10  14
ENDBRANCH   3   6
ENDBRANCH   1   2
BRANCH   1  25
ATOM     25  C   UNL A   1      33.119  27.787  26.504  1.00  0.00     0.042 C 
BRANCH  25  26
ATOM     26  C   UNL A   1      33.689  28.884  25.562  1.00  0.00     0.118 C 
BRANCH  26  27
ATOM     27  N   UNL A   1      33.780  30.175  26.266  1.00  0.00    -0.352 N 
ATOM     28  C   UNL A   1      34.385  30.553  27.450  1.00  0.00     0.251 C 
ATOM     29  H   UNL A   1      33.318  30.912  25.805  1.00  0.00     0.163 HD
ATOM     30  O   UNL A   1      33.847  31.461  28.087  1.00  0.00    -0.269 OA
BRANCH  28  31
ATOM     31  C   UNL A   1      35.685  30.020  27.960  1.00  0.00     0.039 A 
ATOM     32  C   UNL A   1      35.803  29.664  29.314  1.00  0.00     0.014 A 
ATOM     33  C   UNL A   1      36.855  30.080  27.211  1.00  0.00     0.014 A 
ATOM     34  C   UNL A   1      37.052  29.317  29.886  1.00  0.00     0.010 A 
ATOM     35  C   UNL A   1      38.095  29.709  27.788  1.00  0.00     0.010 A 
ATOM     36  C   UNL A   1      38.232  29.283  29.124  1.00  0.00    -0.014 A 
BRANCH  36  37
ATOM     37  C   UNL A   1      39.538  28.722  29.685  1.00  0.00     0.031 A 
ATOM     38  C   UNL A   1      40.301  29.362  30.843  1.00  0.00     0.074 A 
ATOM     39  C   UNL A   1      40.159  27.679  29.075  1.00  0.00     0.049 A 
ATOM     40  N   UNL A   1      41.404  28.957  31.438  1.00  0.00    -0.248 NA
ATOM     41  C   UNL A   1      39.808  30.645  31.364  1.00  0.00     0.031 C 
ATOM     42  C   UNL A   1      39.726  27.039  27.830  1.00  0.00     0.029 A 
ATOM     43  N   UNL A   1      41.314  26.987  29.398  1.00  0.00    -0.354 N 
ATOM     44  C   UNL A   1      41.754  29.948  32.353  1.00  0.00     0.074 A 
ATOM     45  C   UNL A   1      40.784  31.009  32.185  1.00  0.00     0.031 C 
ATOM     46  C   UNL A   1      40.577  26.051  27.510  1.00  0.00     0.029 A 
ATOM     47  C   UNL A   1      41.629  25.971  28.518  1.00  0.00     0.049 A 
ATOM     48  H   UNL A   1      41.863  27.202  30.186  1.00  0.00     0.167 HD
ATOM     49  C   UNL A   1      42.742  29.974  33.289  1.00  0.00     0.034 A 
ATOM     50  C   UNL A   1      42.623  25.057  28.511  1.00  0.00     0.034 A 
ATOM     51  C   UNL A   1      43.674  28.901  33.532  1.00  0.00     0.049 A 
ATOM     52  C   UNL A   1      43.614  25.003  29.645  1.00  0.00     0.074 A 
ATOM     53  C   UNL A   1      44.571  28.759  34.580  1.00  0.00     0.029 A 
ATOM     54  N   UNL A   1      43.848  27.799  32.715  1.00  0.00    -0.354 N 
ATOM     55  N   UNL A   1      43.737  25.804  30.672  1.00  0.00    -0.248 NA
ATOM     56  C   UNL A   1      44.568  23.879  29.648  1.00  0.00     0.031 C 
ATOM     57  C   UNL A   1      45.311  27.588  34.376  1.00  0.00     0.029 A 
ATOM     58  C   UNL A   1      44.846  26.980  33.223  1.00  0.00     0.049 A 
ATOM     59  H   UNL A   1      43.338  27.622  31.893  1.00  0.00     0.167 HD
ATOM     60  C   UNL A   1      44.752  25.265  31.458  1.00  0.00     0.074 A 
ATOM     61  C   UNL A   1      45.189  24.051  30.806  1.00  0.00     0.031 C 
ATOM     62  C   UNL A   1      45.275  25.748  32.613  1.00  0.00     0.034 A 
BRANCH  49  63
ATOM     63  C   UNL A   1      42.817  31.178  34.209  1.00  0.00     0.023 A 
ATOM     64  C   UNL A   1      43.562  32.308  33.810  1.00  0.00     0.012 A 
ATOM     65  C   UNL A   1      42.096  31.230  35.421  1.00  0.00     0.148 A 
ATOM     66  C   UNL A   1      43.643  33.439  34.622  1.00  0.00     0.002 A 
ATOM     67  C   UNL A   1      42.135  32.384  36.200  1.00  0.00     0.091 A 
ATOM     68  F   UNL A   1      41.387  30.155  35.793  1.00  0.00    -0.205 F 
ATOM     69  C   UNL A   1      42.923  33.480  35.811  1.00  0.00     0.022 A 
BRANCH  67  70
ATOM     70  S   UNL A   1      41.168  32.588  37.701  1.00  0.00     0.127 S 
ATOM     71  O   UNL A   1      39.879  32.033  37.301  1.00  0.00    -0.237 OA
ATOM     72  O   UNL A   1      41.913  31.774  38.660  1.00  0.00    -0.237 OA
ATOM     73  O   UNL A   1      41.172  34.020  37.989  1.00  0.00    -0.744 OA
ENDBRANCH  67  70
ENDBRANCH  49  63
BRANCH  50  74
ATOM     74  C   UNL A   1      42.670  24.019  27.436  1.00  0.00     0.023 A 
ATOM     75  C   UNL A   1      43.633  24.130  26.411  1.00  0.00     0.012 A 
ATOM     76  C   UNL A   1      41.790  22.921  27.432  1.00  0.00     0.148 A 
ATOM     77  C   UNL A   1      43.695  23.187  25.384  1.00  0.00     0.002 A 
ATOM     78  C   UNL A   1      41.895  21.953  26.438  1.00  0.00     0.091 A 
ATOM     79  F   UNL A   1      40.877  22.837  28.409  1.00  0.00    -0.205 F 
ATOM     80  C   UNL A   1      42.833  22.094  25.403  1.00  0.00     0.022 A 
BRANCH  78  81
ATOM     81  S   UNL A   1      40.925  20.442  26.447  1.00  0.00     0.127 S 
ATOM     82  O   UNL A   1      40.977  20.058  27.852  1.00  0.00    -0.237 OA
ATOM     83  O   UNL A   1      39.622  20.920  25.984  1.00  0.00    -0.237 OA
ATOM     84  O   UNL A   1      41.597  19.536  25.520  1.00  0.00    -0.744 OA
ENDBRANCH  78  81
ENDBRANCH  50  74
BRANCH  62  85
ATOM     85  C   UNL A   1      46.369  24.950  33.283  1.00  0.00     0.023 A 
ATOM     86  C   UNL A   1      47.720  25.324  33.121  1.00  0.00     0.012 A 
ATOM     87  C   UNL A   1      46.060  23.847  34.104  1.00  0.00     0.148 A 
ATOM     88  C   UNL A   1      48.741  24.586  33.719  1.00  0.00     0.002 A 
ATOM     89  C   UNL A   1      47.080  23.148  34.741  1.00  0.00     0.091 A 
ATOM     90  F   UNL A   1      44.774  23.488  34.237  1.00  0.00    -0.205 F 
ATOM     91  C   UNL A   1      48.421  23.504  34.535  1.00  0.00     0.022 A 
BRANCH  89  92
ATOM     92  S   UNL A   1      46.754  21.801  35.886  1.00  0.00     0.127 S 
ATOM     93  O   UNL A   1      45.817  22.422  36.819  1.00  0.00    -0.237 OA
ATOM     94  O   UNL A   1      46.164  20.785  35.014  1.00  0.00    -0.237 OA
ATOM     95  O   UNL A   1      48.048  21.433  36.447  1.00  0.00    -0.744 OA
ENDBRANCH  89  92
ENDBRANCH  62  85
ENDBRANCH  36  37
ENDBRANCH  28  31
ENDBRANCH  26  27
ENDBRANCH  25  26
ENDBRANCH   1  25
TORSDOF 18
ENDMDL
MODEL 3
REMARK VINA RESULT:     -11.7      4.728      9.820
REMARK SMILES CC[C@]1(C(=O)NCCCNC(=O)c2ccc(-c3c4nc(c(-c5cccc(S(=O)(=O)[O-])c5F)c5ccc([nH]5)c(-c5cccc(S(=O)(=O)[O-])c5F)c5nc(c(-c6cccc(S(=O)(=O)[O-])c6F)c6ccc3[nH]6)C=C5)C=C4)cc2)CC[N@@H+](Cc2ccc(CC(C)C)cc2)C1
REMARK SMILES IDX 7 1 6 2 4 3 5 4 3 6 76 7 90 8 77 9 78 10 2 12 1 13 79 14
REMARK SMILES IDX 80 15 81 16 89 17 82 18 88 19 83 20 84 21 85 22 86 23 87 24
REMARK SMILES IDX 8 25 9 26 10 27 11 28 12 30 13 31 14 32 75 33 15 34 74 35
REMARK SMILES IDX 16 36 17 37 18 38 68 39 19 40 73 41 67 42 69 43 20 44 72 45
REMARK SMILES IDX 66 46 65 47 21 49 53 50 33 51 52 52 34 53 37 54 51 55 70 56
REMARK SMILES IDX 35 57 36 58 50 60 71 61 38 62 22 63 23 64 31 65 24 66 26 67
REMARK SMILES IDX 32 68 25 69 27 70 28 71 29 72 30 73 54 74 55 75 63 76 56 77
REMARK SMILES IDX 58 78 64 79 57 80 59 81 60 82 61 83 62 84 39 85 40 86 48 87
REMARK SMILES IDX 41 88 43 89 49 90 42 91 44 92 45 93 46 94 47 95
REMARK H PARENT 6 5 78 11 10 29 69 48 37 59
REMARK Flexibility Score: inf
ROOT
ATOM      1  C   UNL A   1      33.518  26.807  25.678  1.00  0.00     0.117 C 
ENDROOT
BRANCH   1   2
ATOM      2  N   UNL A   1      33.931  26.137  24.418  1.00  0.00    -0.355 N 
ATOM      3  C   UNL A   1      34.254  24.891  23.929  1.00  0.00     0.232 C 
ATOM      4  O   UNL A   1      34.289  24.889  22.683  1.00  0.00    -0.274 OA
ATOM      5  H   UNL A   1      33.998  26.803  23.696  1.00  0.00     0.163 HD
BRANCH   3   6
ATOM      6  C   UNL A   1      34.666  23.529  24.672  1.00  0.00     0.103 C 
ATOM      7  C   UNL A   1      34.392  23.576  26.211  1.00  0.00     0.084 C 
ATOM      8  C   UNL A   1      33.943  22.233  24.244  1.00  0.00     0.279 C 
ATOM      9  C   UNL A   1      33.839  22.196  26.590  1.00  0.00     0.263 C 
ATOM     10  N   UNL A   1      33.195  21.672  25.390  1.00  0.00    -0.330 N 
ATOM     11  H   UNL A   1      33.260  20.656  25.321  1.00  0.00     0.348 HD
BRANCH   6  12
ATOM     12  C   UNL A   1      36.237  23.443  24.532  1.00  0.00     0.020 C 
ATOM     13  C   UNL A   1      36.831  22.421  23.557  1.00  0.00     0.005 C 
ENDBRANCH   6  12
BRANCH  10  14
ATOM     14  C   UNL A   1      31.704  21.751  25.398  1.00  0.00     0.299 C 
BRANCH  14  15
ATOM     15  C   UNL A   1      31.070  23.119  25.213  1.00  0.00     0.006 A 
ATOM     16  C   UNL A   1      30.690  24.020  26.198  1.00  0.00     0.010 A 
ATOM     17  C   UNL A   1      30.825  23.521  23.918  1.00  0.00     0.010 A 
ATOM     18  C   UNL A   1      30.203  25.298  25.833  1.00  0.00     0.004 A 
ATOM     19  C   UNL A   1      30.405  24.766  23.515  1.00  0.00     0.004 A 
ATOM     20  C   UNL A   1      30.107  25.691  24.485  1.00  0.00    -0.048 A 
BRANCH  20  21
ATOM     21  C   UNL A   1      29.632  27.033  24.006  1.00  0.00     0.038 C 
BRANCH  21  22
ATOM     22  C   UNL A   1      30.813  27.952  23.678  1.00  0.00    -0.013 C 
ATOM     23  C   UNL A   1      31.121  27.853  22.186  1.00  0.00     0.008 C 
ATOM     24  C   UNL A   1      30.507  29.384  24.114  1.00  0.00     0.008 C 
ENDBRANCH  21  22
ENDBRANCH  20  21
ENDBRANCH  14  15
ENDBRANCH  10  14
ENDBRANCH   3   6
ENDBRANCH   1   2
BRANCH   1  25
ATOM     25  C   UNL A   1      33.664  28.358  25.884  1.00  0.00     0.042 C 
BRANCH  25  26
ATOM     26  C   UNL A   1      33.102  29.078  27.142  1.00  0.00     0.118 C 
BRANCH  26  27
ATOM     27  N   UNL A   1      33.512  30.493  27.154  1.00  0.00    -0.352 N 
ATOM     28  C   UNL A   1      34.398  31.202  27.941  1.00  0.00     0.251 C 
ATOM     29  H   UNL A   1      33.066  31.040  26.468  1.00  0.00     0.163 HD
ATOM     30  O   UNL A   1      34.134  32.388  28.151  1.00  0.00    -0.269 OA
BRANCH  28  31
ATOM     31  C   UNL A   1      35.694  30.674  28.469  1.00  0.00     0.039 A 
ATOM     32  C   UNL A   1      36.841  30.721  27.658  1.00  0.00     0.014 A 
ATOM     33  C   UNL A   1      35.767  29.925  29.638  1.00  0.00     0.014 A 
ATOM     34  C   UNL A   1      38.047  30.084  28.040  1.00  0.00     0.010 A 
ATOM     35  C   UNL A   1      36.986  29.311  30.020  1.00  0.00     0.010 A 
ATOM     36  C   UNL A   1      38.169  29.398  29.261  1.00  0.00    -0.014 A 
BRANCH  36  37
ATOM     37  C   UNL A   1      39.516  28.882  29.763  1.00  0.00     0.031 A 
ATOM     38  C   UNL A   1      40.295  29.530  30.907  1.00  0.00     0.074 A 
ATOM     39  C   UNL A   1      40.158  27.878  29.109  1.00  0.00     0.049 A 
ATOM     40  N   UNL A   1      41.434  29.159  31.453  1.00  0.00    -0.248 NA
ATOM     41  C   UNL A   1      39.768  30.780  31.473  1.00  0.00     0.031 C 
ATOM     42  C   UNL A   1      39.707  27.246  27.866  1.00  0.00     0.029 A 
ATOM     43  N   UNL A   1      41.352  27.230  29.375  1.00  0.00    -0.354 N 
ATOM     44  C   UNL A   1      41.776  30.146  32.376  1.00  0.00     0.074 A 
ATOM     45  C   UNL A   1      40.758  31.168  32.266  1.00  0.00     0.031 C 
ATOM     46  C   UNL A   1      40.586  26.302  27.495  1.00  0.00     0.029 A 
ATOM     47  C   UNL A   1      41.676  26.246  28.463  1.00  0.00     0.049 A 
ATOM     48  H   UNL A   1      41.920  27.452  30.147  1.00  0.00     0.167 HD
ATOM     49  C   UNL A   1      42.795  30.194  33.277  1.00  0.00     0.034 A 
ATOM     50  C   UNL A   1      42.707  25.375  28.400  1.00  0.00     0.034 A 
ATOM     51  C   UNL A   1      43.779  29.157  33.463  1.00  0.00     0.049 A 
ATOM     52  C   UNL A   1      43.740  25.340  29.496  1.00  0.00     0.074 A 
ATOM     53  C   UNL A   1      44.719  29.032  34.475  1.00  0.00     0.029 A 
ATOM     54  N   UNL A   1      43.970  28.081  32.617  1.00  0.00    -0.354 N 
ATOM     55  N   UNL A   1      43.867  26.124  30.535  1.00  0.00    -0.248 NA
ATOM     56  C   UNL A   1      44.739  24.258  29.441  1.00  0.00     0.031 C 
ATOM     57  C   UNL A   1      45.499  27.898  34.219  1.00  0.00     0.029 A 
ATOM     58  C   UNL A   1      45.019  27.294  33.070  1.00  0.00     0.049 A 
ATOM     59  H   UNL A   1      43.437  27.898  31.809  1.00  0.00     0.167 HD
ATOM     60  C   UNL A   1      44.932  25.613  31.273  1.00  0.00     0.074 A 
ATOM     61  C   UNL A   1      45.395  24.432  30.579  1.00  0.00     0.031 C 
ATOM     62  C   UNL A   1      45.476  26.094  32.419  1.00  0.00     0.034 A 
BRANCH  49  63
ATOM     63  C   UNL A   1      42.854  31.381  34.220  1.00  0.00     0.023 A 
ATOM     64  C   UNL A   1      43.508  32.561  33.806  1.00  0.00     0.012 A 
ATOM     65  C   UNL A   1      42.202  31.367  35.471  1.00  0.00     0.148 A 
ATOM     66  C   UNL A   1      43.571  33.678  34.640  1.00  0.00     0.002 A 
ATOM     67  C   UNL A   1      42.219  32.504  36.274  1.00  0.00     0.091 A 
ATOM     68  F   UNL A   1      41.578  30.244  35.857  1.00  0.00    -0.205 F 
ATOM     69  C   UNL A   1      42.919  33.653  35.868  1.00  0.00     0.022 A 
BRANCH  67  70
ATOM     70  S   UNL A   1      41.330  32.620  37.832  1.00  0.00     0.127 S 
ATOM     71  O   UNL A   1      41.422  34.048  38.120  1.00  0.00    -0.237 OA
ATOM     72  O   UNL A   1      39.995  32.156  37.460  1.00  0.00    -0.237 OA
ATOM     73  O   UNL A   1      42.039  31.745  38.763  1.00  0.00    -0.744 OA
ENDBRANCH  67  70
ENDBRANCH  49  63
BRANCH  50  74
ATOM     74  C   UNL A   1      42.758  24.362  27.301  1.00  0.00     0.023 A 
ATOM     75  C   UNL A   1      43.509  24.640  26.140  1.00  0.00     0.012 A 
ATOM     76  C   UNL A   1      42.090  23.128  27.405  1.00  0.00     0.148 A 
ATOM     77  C   UNL A   1      43.566  23.724  25.090  1.00  0.00     0.002 A 
ATOM     78  C   UNL A   1      42.198  22.194  26.379  1.00  0.00     0.091 A 
ATOM     79  F   UNL A   1      41.375  22.885  28.512  1.00  0.00    -0.205 F 
ATOM     80  C   UNL A   1      42.919  22.497  25.213  1.00  0.00     0.022 A 
BRANCH  78  81
ATOM     81  S   UNL A   1      41.516  20.537  26.498  1.00  0.00     0.127 S 
ATOM     82  O   UNL A   1      42.033  20.089  27.786  1.00  0.00    -0.237 OA
ATOM     83  O   UNL A   1      40.078  20.802  26.466  1.00  0.00    -0.237 OA
ATOM     84  O   UNL A   1      42.021  19.819  25.331  1.00  0.00    -0.744 OA
ENDBRANCH  78  81
ENDBRANCH  50  74
BRANCH  62  85
ATOM     85  C   UNL A   1      46.626  25.330  33.032  1.00  0.00     0.023 A 
ATOM     86  C   UNL A   1      46.388  24.393  34.058  1.00  0.00     0.012 A 
ATOM     87  C   UNL A   1      47.944  25.514  32.567  1.00  0.00     0.148 A 
ATOM     88  C   UNL A   1      47.442  23.693  34.645  1.00  0.00     0.002 A 
ATOM     89  C   UNL A   1      48.985  24.775  33.121  1.00  0.00     0.091 A 
ATOM     90  F   UNL A   1      48.164  26.422  31.604  1.00  0.00    -0.205 F 
ATOM     91  C   UNL A   1      48.738  23.878  34.171  1.00  0.00     0.022 A 
BRANCH  89  92
ATOM     92  S   UNL A   1      50.671  24.877  32.507  1.00  0.00     0.127 S 
ATOM     93  O   UNL A   1      51.381  23.999  33.435  1.00  0.00    -0.237 OA
ATOM     94  O   UNL A   1      50.542  24.351  31.148  1.00  0.00    -0.237 OA
ATOM     95  O   UNL A   1      51.035  26.287  32.574  1.00  0.00    -0.744 OA
ENDBRANCH  89  92
ENDBRANCH  62  85
ENDBRANCH  36  37
ENDBRANCH  28  31
ENDBRANCH  26  27
ENDBRANCH  25  26
ENDBRANCH   1  25
TORSDOF 18
ENDMDL
