MODEL 1
REMARK VINA RESULT:     -12.7      0.000      0.000
REMARK SMILES Cc1cc(Cl)c2c(c1)C=C(C(=O)NCCCNC(=O)c1ccc(-c3c4nc(c(-c5cccc(S(=O)(=O)[O-])c5F)c5ccc([nH]5)c(-c5cccc(S(=O)(=O)[O-])c5F)c5nc(c(-c6cccc(S(=O)(=O)[O-])c6F)c6ccc3[nH]6)C=C5)C=C4)cc1)[C@@H](C(F)(F)F)O2
REMARK SMILES IDX 16 1 15 2 14 3 13 4 11 5 12 6 10 8 1 9 2 10 3 11 8 12 4 13
REMARK SMILES IDX 7 14 5 15 6 16 9 17 88 18 83 19 84 20 85 21 86 22 87 23
REMARK SMILES IDX 17 24 18 25 19 27 20 28 21 29 82 30 22 31 81 32 23 33 24 34
REMARK SMILES IDX 25 35 75 36 26 37 80 38 74 39 76 40 27 41 79 42 73 43 72 44
REMARK SMILES IDX 28 46 60 47 40 48 59 49 41 50 44 51 58 52 77 53 42 54 43 55
REMARK SMILES IDX 57 57 78 58 45 59 29 60 30 61 38 62 31 63 33 64 39 65 32 66
REMARK SMILES IDX 34 67 35 68 36 69 37 70 61 71 62 72 70 73 63 74 65 75 71 76
REMARK SMILES IDX 64 77 66 78 67 79 68 80 69 81 46 82 47 83 55 84 48 85 50 86
REMARK SMILES IDX 56 87 49 88 51 89 52 90 53 91 54 92
REMARK H PARENT 13 7 17 26 76 45 44 56
REMARK Flexibility Score: inf
ROOT
ATOM      1  C   UNL A   1      33.290  28.929  25.085  1.00  0.00     0.118 C 
ENDROOT
BRANCH   1   2
ATOM      2  C   UNL A   1      33.275  28.869  23.563  1.00  0.00     0.042 C 
BRANCH   2   3
ATOM      3  C   UNL A   1      32.093  28.074  23.031  1.00  0.00     0.118 C 
BRANCH   3   4
ATOM      4  N   UNL A   1      32.477  27.174  21.954  1.00  0.00    -0.352 N 
ATOM      5  C   UNL A   1      32.934  25.905  21.839  1.00  0.00     0.251 C 
ATOM      6  O   UNL A   1      33.107  25.510  20.682  1.00  0.00    -0.270 OA
ATOM      7  H   UNL A   1      32.379  27.603  21.073  1.00  0.00     0.163 HD
BRANCH   5   8
ATOM      8  C   UNL A   1      33.217  24.990  22.983  1.00  0.00     0.067 C 
ATOM      9  C   UNL A   1      37.402  20.846  24.883  1.00  0.00     0.044 C 
ATOM     10  C   UNL A   1      36.209  21.748  24.989  1.00  0.00    -0.049 A 
ATOM     11  C   UNL A   1      35.392  21.702  26.126  1.00  0.00     0.028 A 
ATOM     12  C   UNL A   1      35.868  22.607  23.935  1.00  0.00     0.015 A 
ATOM     13  C   UNL A   1      34.269  22.524  26.218  1.00  0.00     0.084 A 
ATOM     14  C   UNL A   1      34.739  23.431  24.024  1.00  0.00     0.019 A 
ATOM     15  Cl  UNL A   1      33.296  22.432  27.642  1.00  0.00    -0.080 Cl
ATOM     16  C   UNL A   1      33.939  23.385  25.168  1.00  0.00     0.146 A 
ATOM     17  C   UNL A   1      34.405  24.360  22.951  1.00  0.00     0.025 C 
ATOM     18  O   UNL A   1      32.852  24.199  25.316  1.00  0.00    -0.474 OA
ATOM     19  C   UNL A   1      32.255  24.726  24.105  1.00  0.00     0.314 C 
BRANCH  19  20
ATOM     20  C   UNL A   1      31.090  23.812  23.676  1.00  0.00     0.429 C 
ATOM     21  F   UNL A   1      30.589  23.140  24.742  1.00  0.00    -0.167 F 
ATOM     22  F   UNL A   1      30.056  24.500  23.136  1.00  0.00    -0.167 F 
ATOM     23  F   UNL A   1      31.464  22.893  22.756  1.00  0.00    -0.167 F 
ENDBRANCH  19  20
ENDBRANCH   5   8
ENDBRANCH   3   4
ENDBRANCH   2   3
ENDBRANCH   1   2
BRANCH   1  24
ATOM     24  N   UNL A   1      32.742  30.189  25.583  1.00  0.00    -0.352 N 
ATOM     25  C   UNL A   1      33.073  30.916  26.698  1.00  0.00     0.251 C 
ATOM     26  H   UNL A   1      32.025  30.578  25.032  1.00  0.00     0.163 HD
ATOM     27  O   UNL A   1      32.311  31.795  27.099  1.00  0.00    -0.269 OA
BRANCH  25  28
ATOM     28  C   UNL A   1      34.337  30.646  27.407  1.00  0.00     0.039 A 
ATOM     29  C   UNL A   1      35.243  31.686  27.626  1.00  0.00     0.014 A 
ATOM     30  C   UNL A   1      34.635  29.350  27.836  1.00  0.00     0.014 A 
ATOM     31  C   UNL A   1      36.422  31.433  28.329  1.00  0.00     0.010 A 
ATOM     32  C   UNL A   1      35.751  29.123  28.625  1.00  0.00     0.010 A 
ATOM     33  C   UNL A   1      36.668  30.156  28.860  1.00  0.00    -0.014 A 
BRANCH  33  34
ATOM     34  C   UNL A   1      37.892  29.863  29.643  1.00  0.00     0.031 A 
ATOM     35  C   UNL A   1      38.928  28.925  29.084  1.00  0.00     0.074 A 
ATOM     36  C   UNL A   1      38.027  30.373  30.882  1.00  0.00     0.049 A 
ATOM     37  N   UNL A   1      40.030  28.493  29.637  1.00  0.00    -0.248 NA
ATOM     38  C   UNL A   1      38.679  28.375  27.739  1.00  0.00     0.031 C 
ATOM     39  C   UNL A   1      37.052  31.235  31.553  1.00  0.00     0.029 A 
ATOM     40  N   UNL A   1      39.032  30.227  31.805  1.00  0.00    -0.354 N 
ATOM     41  C   UNL A   1      40.586  27.604  28.726  1.00  0.00     0.074 A 
ATOM     42  C   UNL A   1      39.677  27.515  27.607  1.00  0.00     0.031 C 
ATOM     43  C   UNL A   1      37.516  31.560  32.769  1.00  0.00     0.029 A 
ATOM     44  C   UNL A   1      38.803  30.904  32.980  1.00  0.00     0.049 A 
ATOM     45  H   UNL A   1      39.840  29.689  31.642  1.00  0.00     0.167 HD
ATOM     46  C   UNL A   1      41.772  26.955  28.794  1.00  0.00     0.034 A 
ATOM     47  C   UNL A   1      39.549  30.987  34.099  1.00  0.00     0.034 A 
ATOM     48  C   UNL A   1      42.692  27.091  29.889  1.00  0.00     0.049 A 
ATOM     49  C   UNL A   1      40.873  30.274  34.142  1.00  0.00     0.074 A 
ATOM     50  C   UNL A   1      43.952  26.537  30.023  1.00  0.00     0.029 A 
ATOM     51  N   UNL A   1      42.455  27.834  31.035  1.00  0.00    -0.354 N 
ATOM     52  N   UNL A   1      41.449  29.550  33.212  1.00  0.00    -0.248 NA
ATOM     53  C   UNL A   1      41.666  30.411  35.372  1.00  0.00     0.031 C 
ATOM     54  C   UNL A   1      44.465  26.925  31.264  1.00  0.00     0.029 A 
ATOM     55  C   UNL A   1      43.539  27.746  31.888  1.00  0.00     0.049 A 
ATOM     56  H   UNL A   1      41.634  28.350  31.215  1.00  0.00     0.167 HD
ATOM     57  C   UNL A   1      42.681  29.170  33.732  1.00  0.00     0.074 A 
ATOM     58  C   UNL A   1      42.778  29.765  35.049  1.00  0.00     0.031 C 
ATOM     59  C   UNL A   1      43.638  28.385  33.176  1.00  0.00     0.034 A 
BRANCH  46  60
ATOM     60  C   UNL A   1      42.174  26.096  27.624  1.00  0.00     0.023 A 
ATOM     61  C   UNL A   1      43.025  26.630  26.634  1.00  0.00     0.012 A 
ATOM     62  C   UNL A   1      41.781  24.747  27.539  1.00  0.00     0.148 A 
ATOM     63  C   UNL A   1      43.454  25.847  25.565  1.00  0.00     0.002 A 
ATOM     64  C   UNL A   1      42.253  23.957  26.497  1.00  0.00     0.091 A 
ATOM     65  F   UNL A   1      40.954  24.261  28.477  1.00  0.00    -0.205 F 
ATOM     66  C   UNL A   1      43.079  24.509  25.503  1.00  0.00     0.022 A 
BRANCH  64  67
ATOM     67  S   UNL A   1      41.903  22.200  26.371  1.00  0.00     0.127 S 
ATOM     68  O   UNL A   1      40.457  22.203  26.151  1.00  0.00    -0.237 OA
ATOM     69  O   UNL A   1      42.696  21.812  25.204  1.00  0.00    -0.237 OA
ATOM     70  O   UNL A   1      42.338  21.610  27.629  1.00  0.00    -0.744 OA
ENDBRANCH  64  67
ENDBRANCH  46  60
BRANCH  47  71
ATOM     71  C   UNL A   1      39.096  31.852  35.227  1.00  0.00     0.023 A 
ATOM     72  C   UNL A   1      38.195  31.327  36.174  1.00  0.00     0.012 A 
ATOM     73  C   UNL A   1      39.595  33.156  35.406  1.00  0.00     0.148 A 
ATOM     74  C   UNL A   1      37.782  32.091  37.266  1.00  0.00     0.002 A 
ATOM     75  C   UNL A   1      39.227  33.892  36.526  1.00  0.00     0.091 A 
ATOM     76  F   UNL A   1      40.446  33.641  34.490  1.00  0.00    -0.205 F 
ATOM     77  C   UNL A   1      38.308  33.368  37.449  1.00  0.00     0.022 A 
BRANCH  75  78
ATOM     78  S   UNL A   1      39.957  35.485  36.922  1.00  0.00     0.127 S 
ATOM     79  O   UNL A   1      39.284  35.819  38.176  1.00  0.00    -0.237 OA
ATOM     80  O   UNL A   1      41.373  35.140  37.055  1.00  0.00    -0.237 OA
ATOM     81  O   UNL A   1      39.651  36.352  35.793  1.00  0.00    -0.744 OA
ENDBRANCH  75  78
ENDBRANCH  47  71
BRANCH  59  82
ATOM     82  C   UNL A   1      44.888  28.122  33.975  1.00  0.00     0.023 A 
ATOM     83  C   UNL A   1      45.958  29.037  33.911  1.00  0.00     0.012 A 
ATOM     84  C   UNL A   1      44.952  27.042  34.878  1.00  0.00     0.148 A 
ATOM     85  C   UNL A   1      47.081  28.869  34.719  1.00  0.00     0.002 A 
ATOM     86  C   UNL A   1      46.050  26.913  35.719  1.00  0.00     0.091 A 
ATOM     87  F   UNL A   1      43.929  26.177  34.913  1.00  0.00    -0.205 F 
ATOM     88  C   UNL A   1      47.120  27.819  35.632  1.00  0.00     0.022 A 
BRANCH  86  89
ATOM     89  S   UNL A   1      46.142  25.662  37.004  1.00  0.00     0.127 S 
ATOM     90  O   UNL A   1      46.140  24.428  36.219  1.00  0.00    -0.237 OA
ATOM     91  O   UNL A   1      47.418  25.973  37.648  1.00  0.00    -0.237 OA
ATOM     92  O   UNL A   1      44.972  25.863  37.848  1.00  0.00    -0.744 OA
ENDBRANCH  86  89
ENDBRANCH  59  82
ENDBRANCH  33  34
ENDBRANCH  25  28
ENDBRANCH   1  24
TORSDOF 14
ENDMDL
MODEL 2
REMARK VINA RESULT:     -12.5      0.408      7.844
REMARK SMILES Cc1cc(Cl)c2c(c1)C=C(C(=O)NCCCNC(=O)c1ccc(-c3c4nc(c(-c5cccc(S(=O)(=O)[O-])c5F)c5ccc([nH]5)c(-c5cccc(S(=O)(=O)[O-])c5F)c5nc(c(-c6cccc(S(=O)(=O)[O-])c6F)c6ccc3[nH]6)C=C5)C=C4)cc1)[C@@H](C(F)(F)F)O2
REMARK SMILES IDX 16 1 15 2 14 3 13 4 11 5 12 6 10 8 1 9 2 10 3 11 8 12 4 13
REMARK SMILES IDX 7 14 5 15 6 16 9 17 88 18 83 19 84 20 85 21 86 22 87 23
REMARK SMILES IDX 17 24 18 25 19 27 20 28 21 29 82 30 22 31 81 32 23 33 24 34
REMARK SMILES IDX 25 35 75 36 26 37 80 38 74 39 76 40 27 41 79 42 73 43 72 44
REMARK SMILES IDX 28 46 60 47 40 48 59 49 41 50 44 51 58 52 77 53 42 54 43 55
REMARK SMILES IDX 57 57 78 58 45 59 29 60 30 61 38 62 31 63 33 64 39 65 32 66
REMARK SMILES IDX 34 67 35 68 36 69 37 70 61 71 62 72 70 73 63 74 65 75 71 76
REMARK SMILES IDX 64 77 66 78 67 79 68 80 69 81 46 82 47 83 55 84 48 85 50 86
REMARK SMILES IDX 56 87 49 88 51 89 52 90 53 91 54 92
REMARK H PARENT 13 7 17 26 76 45 44 56
REMARK Flexibility Score: inf
ROOT
ATOM      1  C   UNL A   1      33.150  29.103  25.366  1.00  0.00     0.118 C 
ENDROOT
BRANCH   1   2
ATOM      2  C   UNL A   1      33.258  29.020  23.849  1.00  0.00     0.042 C 
BRANCH   2   3
ATOM      3  C   UNL A   1      32.112  28.233  23.234  1.00  0.00     0.118 C 
BRANCH   3   4
ATOM      4  N   UNL A   1      32.559  27.363  22.157  1.00  0.00    -0.352 N 
ATOM      5  C   UNL A   1      33.034  26.102  22.035  1.00  0.00     0.251 C 
ATOM      6  O   UNL A   1      33.270  25.736  20.880  1.00  0.00    -0.270 OA
ATOM      7  H   UNL A   1      32.500  27.811  21.282  1.00  0.00     0.163 HD
BRANCH   5   8
ATOM      8  C   UNL A   1      33.270  25.162  23.171  1.00  0.00     0.067 C 
ATOM      9  C   UNL A   1      37.197  20.742  24.997  1.00  0.00     0.044 C 
ATOM     10  C   UNL A   1      36.066  21.718  25.122  1.00  0.00    -0.049 A 
ATOM     11  C   UNL A   1      35.261  21.719  26.269  1.00  0.00     0.028 A 
ATOM     12  C   UNL A   1      35.771  22.605  24.078  1.00  0.00     0.015 A 
ATOM     13  C   UNL A   1      34.195  22.612  26.379  1.00  0.00     0.084 A 
ATOM     14  C   UNL A   1      34.699  23.500  24.184  1.00  0.00     0.019 A 
ATOM     15  Cl  UNL A   1      33.234  22.573  27.813  1.00  0.00    -0.080 Cl
ATOM     16  C   UNL A   1      33.911  23.499  25.338  1.00  0.00     0.146 A 
ATOM     17  C   UNL A   1      34.415  24.457  23.121  1.00  0.00     0.025 C 
ATOM     18  O   UNL A   1      32.880  24.381  25.503  1.00  0.00    -0.474 OA
ATOM     19  C   UNL A   1      32.306  24.954  24.302  1.00  0.00     0.314 C 
BRANCH  19  20
ATOM     20  C   UNL A   1      31.079  24.121  23.882  1.00  0.00     0.429 C 
ATOM     21  F   UNL A   1      30.058  24.926  23.500  1.00  0.00    -0.167 F 
ATOM     22  F   UNL A   1      31.336  23.305  22.831  1.00  0.00    -0.167 F 
ATOM     23  F   UNL A   1      30.622  23.330  24.880  1.00  0.00    -0.167 F 
ENDBRANCH  19  20
ENDBRANCH   5   8
ENDBRANCH   3   4
ENDBRANCH   2   3
ENDBRANCH   1   2
BRANCH   1  24
ATOM     24  N   UNL A   1      32.782  30.447  25.809  1.00  0.00    -0.352 N 
ATOM     25  C   UNL A   1      33.246  31.185  26.868  1.00  0.00     0.251 C 
ATOM     26  H   UNL A   1      32.095  30.892  25.262  1.00  0.00     0.163 HD
ATOM     27  O   UNL A   1      32.614  32.172  27.245  1.00  0.00    -0.269 OA
BRANCH  25  28
ATOM     28  C   UNL A   1      34.496  30.798  27.546  1.00  0.00     0.039 A 
ATOM     29  C   UNL A   1      35.514  31.741  27.709  1.00  0.00     0.014 A 
ATOM     30  C   UNL A   1      34.669  29.489  28.001  1.00  0.00     0.014 A 
ATOM     31  C   UNL A   1      36.681  31.380  28.384  1.00  0.00     0.010 A 
ATOM     32  C   UNL A   1      35.780  29.163  28.761  1.00  0.00     0.010 A 
ATOM     33  C   UNL A   1      36.808  30.097  28.941  1.00  0.00    -0.014 A 
BRANCH  33  34
ATOM     34  C   UNL A   1      38.019  29.693  29.694  1.00  0.00     0.031 A 
ATOM     35  C   UNL A   1      38.268  30.257  31.067  1.00  0.00     0.074 A 
ATOM     36  C   UNL A   1      38.927  28.887  29.111  1.00  0.00     0.049 A 
ATOM     37  N   UNL A   1      39.293  30.078  31.856  1.00  0.00    -0.248 NA
ATOM     38  C   UNL A   1      37.245  31.167  31.613  1.00  0.00     0.031 C 
ATOM     39  C   UNL A   1      38.826  28.339  27.757  1.00  0.00     0.029 A 
ATOM     40  N   UNL A   1      40.124  28.403  29.575  1.00  0.00    -0.354 N 
ATOM     41  C   UNL A   1      39.053  30.871  32.972  1.00  0.00     0.074 A 
ATOM     42  C   UNL A   1      37.814  31.575  32.737  1.00  0.00     0.031 C 
ATOM     43  C   UNL A   1      39.901  27.576  27.509  1.00  0.00     0.029 A 
ATOM     44  C   UNL A   1      40.785  27.607  28.670  1.00  0.00     0.049 A 
ATOM     45  H   UNL A   1      40.476  28.606  30.472  1.00  0.00     0.167 HD
ATOM     46  C   UNL A   1      39.778  30.971  34.110  1.00  0.00     0.034 A 
ATOM     47  C   UNL A   1      41.970  26.973  28.767  1.00  0.00     0.034 A 
ATOM     48  C   UNL A   1      40.983  30.227  34.354  1.00  0.00     0.049 A 
ATOM     49  C   UNL A   1      42.747  27.080  30.051  1.00  0.00     0.074 A 
ATOM     50  C   UNL A   1      41.754  30.197  35.502  1.00  0.00     0.029 A 
ATOM     51  N   UNL A   1      41.591  29.383  33.438  1.00  0.00    -0.354 N 
ATOM     52  N   UNL A   1      42.435  27.724  31.150  1.00  0.00    -0.248 NA
ATOM     53  C   UNL A   1      44.022  26.353  30.124  1.00  0.00     0.031 C 
ATOM     54  C   UNL A   1      42.843  29.352  35.270  1.00  0.00     0.029 A 
ATOM     55  C   UNL A   1      42.734  28.833  33.989  1.00  0.00     0.049 A 
ATOM     56  H   UNL A   1      41.258  29.201  32.529  1.00  0.00     0.167 HD
ATOM     57  C   UNL A   1      43.457  27.457  32.054  1.00  0.00     0.074 A 
ATOM     58  C   UNL A   1      44.386  26.572  31.380  1.00  0.00     0.031 C 
ATOM     59  C   UNL A   1      43.622  27.916  33.320  1.00  0.00     0.034 A 
BRANCH  46  60
ATOM     60  C   UNL A   1      39.251  31.860  35.206  1.00  0.00     0.023 A 
ATOM     61  C   UNL A   1      38.297  31.350  36.112  1.00  0.00     0.012 A 
ATOM     62  C   UNL A   1      39.751  33.163  35.393  1.00  0.00     0.148 A 
ATOM     63  C   UNL A   1      37.826  32.131  37.164  1.00  0.00     0.002 A 
ATOM     64  C   UNL A   1      39.315  33.918  36.476  1.00  0.00     0.091 A 
ATOM     65  F   UNL A   1      40.642  33.639  34.511  1.00  0.00    -0.205 F 
ATOM     66  C   UNL A   1      38.344  33.409  37.354  1.00  0.00     0.022 A 
BRANCH  64  67
ATOM     67  S   UNL A   1      39.981  35.541  36.861  1.00  0.00     0.127 S 
ATOM     68  O   UNL A   1      39.278  35.860  38.103  1.00  0.00    -0.237 OA
ATOM     69  O   UNL A   1      41.407  35.255  37.024  1.00  0.00    -0.237 OA
ATOM     70  O   UNL A   1      39.655  36.393  35.727  1.00  0.00    -0.744 OA
ENDBRANCH  64  67
ENDBRANCH  46  60
BRANCH  47  71
ATOM     71  C   UNL A   1      42.441  26.109  27.645  1.00  0.00     0.023 A 
ATOM     72  C   UNL A   1      43.392  26.618  26.740  1.00  0.00     0.012 A 
ATOM     73  C   UNL A   1      42.007  24.776  27.506  1.00  0.00     0.148 A 
ATOM     74  C   UNL A   1      43.887  25.824  25.705  1.00  0.00     0.002 A 
ATOM     75  C   UNL A   1      42.547  23.971  26.509  1.00  0.00     0.091 A 
ATOM     76  F   UNL A   1      41.095  24.312  28.374  1.00  0.00    -0.205 F 
ATOM     77  C   UNL A   1      43.474  24.498  25.597  1.00  0.00     0.022 A 
BRANCH  75  78
ATOM     78  S   UNL A   1      42.185  22.217  26.379  1.00  0.00     0.127 S 
ATOM     79  O   UNL A   1      40.746  22.225  26.130  1.00  0.00    -0.237 OA
ATOM     80  O   UNL A   1      43.008  21.826  25.234  1.00  0.00    -0.237 OA
ATOM     81  O   UNL A   1      42.601  21.632  27.646  1.00  0.00    -0.744 OA
ENDBRANCH  75  78
ENDBRANCH  47  71
BRANCH  59  82
ATOM     82  C   UNL A   1      44.843  27.470  34.080  1.00  0.00     0.023 A 
ATOM     83  C   UNL A   1      46.000  28.274  34.068  1.00  0.00     0.012 A 
ATOM     84  C   UNL A   1      44.802  26.327  34.903  1.00  0.00     0.148 A 
ATOM     85  C   UNL A   1      47.105  27.935  34.847  1.00  0.00     0.002 A 
ATOM     86  C   UNL A   1      45.886  26.026  35.718  1.00  0.00     0.091 A 
ATOM     87  F   UNL A   1      43.696  25.570  34.889  1.00  0.00    -0.205 F 
ATOM     88  C   UNL A   1      47.042  26.822  35.682  1.00  0.00     0.022 A 
BRANCH  86  89
ATOM     89  S   UNL A   1      45.857  24.682  36.909  1.00  0.00     0.127 S 
ATOM     90  O   UNL A   1      47.113  24.893  37.627  1.00  0.00    -0.237 OA
ATOM     91  O   UNL A   1      44.654  24.983  37.685  1.00  0.00    -0.237 OA
ATOM     92  O   UNL A   1      45.784  23.454  36.130  1.00  0.00    -0.744 OA
ENDBRANCH  86  89
ENDBRANCH  59  82
ENDBRANCH  33  34
ENDBRANCH  25  28
ENDBRANCH   1  24
TORSDOF 14
ENDMDL
MODEL 3
REMARK VINA RESULT:     -12.5      2.688      3.572
REMARK SMILES Cc1cc(Cl)c2c(c1)C=C(C(=O)NCCCNC(=O)c1ccc(-c3c4nc(c(-c5cccc(S(=O)(=O)[O-])c5F)c5ccc([nH]5)c(-c5cccc(S(=O)(=O)[O-])c5F)c5nc(c(-c6cccc(S(=O)(=O)[O-])c6F)c6ccc3[nH]6)C=C5)C=C4)cc1)[C@@H](C(F)(F)F)O2
REMARK SMILES IDX 16 1 15 2 14 3 13 4 11 5 12 6 10 8 1 9 2 10 3 11 8 12 4 13
REMARK SMILES IDX 7 14 5 15 6 16 9 17 88 18 83 19 84 20 85 21 86 22 87 23
REMARK SMILES IDX 17 24 18 25 19 27 20 28 21 29 82 30 22 31 81 32 23 33 24 34
REMARK SMILES IDX 25 35 75 36 26 37 80 38 74 39 76 40 27 41 79 42 73 43 72 44
REMARK SMILES IDX 28 46 60 47 40 48 59 49 41 50 44 51 58 52 77 53 42 54 43 55
REMARK SMILES IDX 57 57 78 58 45 59 29 60 30 61 38 62 31 63 33 64 39 65 32 66
REMARK SMILES IDX 34 67 35 68 36 69 37 70 61 71 62 72 70 73 63 74 65 75 71 76
REMARK SMILES IDX 64 77 66 78 67 79 68 80 69 81 46 82 47 83 55 84 48 85 50 86
REMARK SMILES IDX 56 87 49 88 51 89 52 90 53 91 54 92
REMARK H PARENT 13 7 17 26 76 45 44 56
REMARK Flexibility Score: inf
ROOT
ATOM      1  C   UNL A   1      32.880  32.517  27.228  1.00  0.00     0.118 C 
ENDROOT
BRANCH   1   2
ATOM      2  C   UNL A   1      31.561  31.868  26.834  1.00  0.00     0.042 C 
BRANCH   2   3
ATOM      3  C   UNL A   1      31.678  30.358  26.708  1.00  0.00     0.118 C 
BRANCH   3   4
ATOM      4  N   UNL A   1      32.498  29.963  25.573  1.00  0.00    -0.352 N 
ATOM      5  C   UNL A   1      32.852  28.810  24.960  1.00  0.00     0.251 C 
ATOM      6  O   UNL A   1      33.572  28.940  23.966  1.00  0.00    -0.270 OA
ATOM      7  H   UNL A   1      32.905  30.745  25.132  1.00  0.00     0.163 HD
BRANCH   5   8
ATOM      8  C   UNL A   1      32.430  27.445  25.393  1.00  0.00     0.067 C 
ATOM      9  C   UNL A   1      34.781  21.835  26.531  1.00  0.00     0.044 C 
ATOM     10  C   UNL A   1      33.739  22.912  26.499  1.00  0.00    -0.049 A 
ATOM     11  C   UNL A   1      32.415  22.620  26.853  1.00  0.00     0.028 A 
ATOM     12  C   UNL A   1      34.063  24.207  26.071  1.00  0.00     0.015 A 
ATOM     13  C   UNL A   1      31.438  23.614  26.805  1.00  0.00     0.084 A 
ATOM     14  C   UNL A   1      33.083  25.206  26.018  1.00  0.00     0.019 A 
ATOM     15  Cl  UNL A   1      29.822  23.203  27.253  1.00  0.00    -0.080 Cl
ATOM     16  C   UNL A   1      31.769  24.905  26.385  1.00  0.00     0.146 A 
ATOM     17  C   UNL A   1      33.423  26.567  25.617  1.00  0.00     0.025 C 
ATOM     18  O   UNL A   1      30.789  25.857  26.388  1.00  0.00    -0.474 OA
ATOM     19  C   UNL A   1      30.999  27.019  25.547  1.00  0.00     0.314 C 
BRANCH  19  20
ATOM     20  C   UNL A   1      30.304  26.792  24.189  1.00  0.00     0.429 C 
ATOM     21  F   UNL A   1      29.886  27.967  23.660  1.00  0.00    -0.167 F 
ATOM     22  F   UNL A   1      31.125  26.229  23.270  1.00  0.00    -0.167 F 
ATOM     23  F   UNL A   1      29.225  25.983  24.288  1.00  0.00    -0.167 F 
ENDBRANCH  19  20
ENDBRANCH   5   8
ENDBRANCH   3   4
ENDBRANCH   2   3
ENDBRANCH   1   2
BRANCH   1  24
ATOM     24  N   UNL A   1      32.701  33.912  27.629  1.00  0.00    -0.352 N 
ATOM     25  C   UNL A   1      33.199  34.591  28.711  1.00  0.00     0.251 C 
ATOM     26  H   UNL A   1      32.135  34.448  27.027  1.00  0.00     0.163 HD
ATOM     27  O   UNL A   1      32.708  35.673  29.029  1.00  0.00    -0.269 OA
BRANCH  25  28
ATOM     28  C   UNL A   1      34.320  34.026  29.485  1.00  0.00     0.039 A 
ATOM     29  C   UNL A   1      34.058  33.174  30.560  1.00  0.00     0.014 A 
ATOM     30  C   UNL A   1      35.635  34.360  29.154  1.00  0.00     0.014 A 
ATOM     31  C   UNL A   1      35.123  32.612  31.266  1.00  0.00     0.010 A 
ATOM     32  C   UNL A   1      36.690  33.720  29.786  1.00  0.00     0.010 A 
ATOM     33  C   UNL A   1      36.446  32.858  30.863  1.00  0.00    -0.014 A 
BRANCH  33  34
ATOM     34  C   UNL A   1      37.599  32.249  31.568  1.00  0.00     0.031 A 
ATOM     35  C   UNL A   1      38.356  31.119  30.923  1.00  0.00     0.074 A 
ATOM     36  C   UNL A   1      37.908  32.657  32.813  1.00  0.00     0.049 A 
ATOM     37  N   UNL A   1      39.347  30.415  31.401  1.00  0.00    -0.248 NA
ATOM     38  C   UNL A   1      37.922  30.704  29.577  1.00  0.00     0.031 C 
ATOM     39  C   UNL A   1      37.198  33.694  33.564  1.00  0.00     0.029 A 
ATOM     40  N   UNL A   1      38.890  32.238  33.675  1.00  0.00    -0.354 N 
ATOM     41  C   UNL A   1      39.634  29.461  30.433  1.00  0.00     0.074 A 
ATOM     42  C   UNL A   1      38.680  29.639  29.363  1.00  0.00     0.031 C 
ATOM     43  C   UNL A   1      37.780  33.846  34.763  1.00  0.00     0.029 A 
ATOM     44  C   UNL A   1      38.882  32.897  34.882  1.00  0.00     0.049 A 
ATOM     45  H   UNL A   1      39.538  31.532  33.451  1.00  0.00     0.167 HD
ATOM     46  C   UNL A   1      40.632  28.548  30.415  1.00  0.00     0.034 A 
ATOM     47  C   UNL A   1      39.676  32.752  35.961  1.00  0.00     0.034 A 
ATOM     48  C   UNL A   1      41.608  28.415  31.461  1.00  0.00     0.049 A 
ATOM     49  C   UNL A   1      40.793  31.745  35.908  1.00  0.00     0.074 A 
ATOM     50  C   UNL A   1      42.704  27.573  31.509  1.00  0.00     0.029 A 
ATOM     51  N   UNL A   1      41.606  29.141  32.642  1.00  0.00    -0.354 N 
ATOM     52  N   UNL A   1      41.137  30.947  34.926  1.00  0.00    -0.248 NA
ATOM     53  C   UNL A   1      41.651  31.636  37.097  1.00  0.00     0.031 C 
ATOM     54  C   UNL A   1      43.351  27.774  32.731  1.00  0.00     0.029 A 
ATOM     55  C   UNL A   1      42.676  28.761  33.431  1.00  0.00     0.049 A 
ATOM     56  H   UNL A   1      40.941  29.827  32.883  1.00  0.00     0.167 HD
ATOM     57  C   UNL A   1      42.266  30.264  35.365  1.00  0.00     0.074 A 
ATOM     58  C   UNL A   1      42.562  30.760  36.693  1.00  0.00     0.031 C 
ATOM     59  C   UNL A   1      42.982  29.301  34.733  1.00  0.00     0.034 A 
BRANCH  46  60
ATOM     60  C   UNL A   1      40.765  27.671  29.197  1.00  0.00     0.023 A 
ATOM     61  C   UNL A   1      39.982  26.502  29.098  1.00  0.00     0.012 A 
ATOM     62  C   UNL A   1      41.596  28.037  28.121  1.00  0.00     0.148 A 
ATOM     63  C   UNL A   1      40.045  25.696  27.963  1.00  0.00     0.002 A 
ATOM     64  C   UNL A   1      41.617  27.255  26.971  1.00  0.00     0.091 A 
ATOM     65  F   UNL A   1      42.350  29.140  28.242  1.00  0.00    -0.205 F 
ATOM     66  C   UNL A   1      40.852  26.079  26.896  1.00  0.00     0.022 A 
BRANCH  64  67
ATOM     67  S   UNL A   1      42.553  27.705  25.506  1.00  0.00     0.127 S 
ATOM     68  O   UNL A   1      42.291  26.565  24.628  1.00  0.00    -0.237 OA
ATOM     69  O   UNL A   1      41.903  28.951  25.099  1.00  0.00    -0.237 OA
ATOM     70  O   UNL A   1      43.936  27.850  25.938  1.00  0.00    -0.744 OA
ENDBRANCH  64  67
ENDBRANCH  46  60
BRANCH  47  71
ATOM     71  C   UNL A   1      39.494  33.648  37.139  1.00  0.00     0.023 A 
ATOM     72  C   UNL A   1      39.915  34.989  37.052  1.00  0.00     0.012 A 
ATOM     73  C   UNL A   1      38.853  33.205  38.313  1.00  0.00     0.148 A 
ATOM     74  C   UNL A   1      39.721  35.868  38.119  1.00  0.00     0.002 A 
ATOM     75  C   UNL A   1      38.610  34.100  39.349  1.00  0.00     0.091 A 
ATOM     76  F   UNL A   1      38.466  31.923  38.379  1.00  0.00    -0.205 F 
ATOM     77  C   UNL A   1      39.058  35.427  39.261  1.00  0.00     0.022 A 
BRANCH  75  78
ATOM     78  S   UNL A   1      37.640  33.664  40.797  1.00  0.00     0.127 S 
ATOM     79  O   UNL A   1      36.440  33.092  40.192  1.00  0.00    -0.237 OA
ATOM     80  O   UNL A   1      38.515  32.700  41.464  1.00  0.00    -0.237 OA
ATOM     81  O   UNL A   1      37.444  34.907  41.530  1.00  0.00    -0.744 OA
ENDBRANCH  75  78
ENDBRANCH  47  71
BRANCH  59  82
ATOM     82  C   UNL A   1      44.169  28.715  35.453  1.00  0.00     0.023 A 
ATOM     83  C   UNL A   1      45.440  29.298  35.284  1.00  0.00     0.012 A 
ATOM     84  C   UNL A   1      44.002  27.673  36.387  1.00  0.00     0.148 A 
ATOM     85  C   UNL A   1      46.532  28.839  36.019  1.00  0.00     0.002 A 
ATOM     86  C   UNL A   1      45.082  27.259  37.155  1.00  0.00     0.091 A 
ATOM     87  F   UNL A   1      42.786  27.125  36.521  1.00  0.00    -0.205 F 
ATOM     88  C   UNL A   1      46.350  27.832  36.964  1.00  0.00     0.022 A 
BRANCH  86  89
ATOM     89  S   UNL A   1      44.924  26.050  38.474  1.00  0.00     0.127 S 
ATOM     90  O   UNL A   1      46.298  25.967  38.968  1.00  0.00    -0.237 OA
ATOM     91  O   UNL A   1      43.988  26.708  39.385  1.00  0.00    -0.237 OA
ATOM     92  O   UNL A   1      44.412  24.837  37.851  1.00  0.00    -0.744 OA
ENDBRANCH  86  89
ENDBRANCH  59  82
ENDBRANCH  33  34
ENDBRANCH  25  28
ENDBRANCH   1  24
TORSDOF 14
ENDMDL
