MODEL 1
REMARK VINA RESULT:     -11.0      0.000      0.000
REMARK SMILES CC(C)C[C@@H](CNC(=O)[C@@H]1CCOC1)C(=O)NCCCNC(=O)c1ccc(-c2c3nc(c(-c4cccc(S(=O)(=O)[O-])c4F)c4ccc([nH]4)c(-c4cccc(S(=O)(=O)[O-])c4F)c4nc(c(-c5cccc(S(=O)(=O)[O-])c5F)c5ccc2[nH]5)C=C4)C=C3)cc1
REMARK SMILES IDX 19 1 18 2 17 3 15 4 16 5 5 7 4 8 2 9 1 10 3 11 6 12 7 13
REMARK SMILES IDX 8 14 9 16 10 17 11 18 14 19 12 20 13 21 20 22 21 23 22 24
REMARK SMILES IDX 23 26 24 27 25 28 86 29 26 30 85 31 27 32 28 33 29 34 79 35
REMARK SMILES IDX 30 36 84 37 78 38 80 39 31 40 83 41 77 42 76 43 32 45 64 46
REMARK SMILES IDX 44 47 63 48 45 49 48 50 62 51 81 52 46 53 47 54 61 56 82 57
REMARK SMILES IDX 49 58 33 59 34 60 42 61 35 62 37 63 43 64 36 65 38 66 39 67
REMARK SMILES IDX 40 68 41 69 65 70 66 71 74 72 67 73 69 74 75 75 68 76 70 77
REMARK SMILES IDX 71 78 72 79 73 80 50 81 51 82 59 83 52 84 54 85 60 86 53 87
REMARK SMILES IDX 55 88 56 89 57 90 58 91
REMARK H PARENT 17 6 7 15 21 25 80 44 48 55
REMARK Flexibility Score: inf
ROOT
ATOM      1  C   UNL A   1      35.753  21.622  25.805  1.00  0.00     0.042 C 
ENDROOT
BRANCH   1   2
ATOM      2  C   UNL A   1      35.216  23.006  26.118  1.00  0.00     0.117 C 
BRANCH   2   3
ATOM      3  N   UNL A   1      34.199  22.987  27.157  1.00  0.00    -0.356 N 
ATOM      4  C   UNL A   1      32.845  22.904  27.095  1.00  0.00     0.224 C 
ATOM      5  O   UNL A   1      32.240  22.803  28.167  1.00  0.00    -0.275 OA
ATOM      6  H   UNL A   1      34.556  23.046  28.072  1.00  0.00     0.163 HD
BRANCH   4   7
ATOM      7  C   UNL A   1      32.071  22.907  25.782  1.00  0.00     0.098 C 
BRANCH   7   8
ATOM      8  C   UNL A   1      31.762  21.479  25.301  1.00  0.00     0.018 C 
BRANCH   8   9
ATOM      9  C   UNL A   1      32.246  21.094  23.893  1.00  0.00    -0.017 C 
ATOM     10  C   UNL A   1      33.110  22.174  23.243  1.00  0.00     0.007 C 
ATOM     11  C   UNL A   1      33.045  19.787  23.982  1.00  0.00     0.007 C 
ENDBRANCH   8   9
ENDBRANCH   7   8
BRANCH   7  12
ATOM     12  C   UNL A   1      30.968  23.981  25.748  1.00  0.00     0.129 C 
BRANCH  12  13
ATOM     13  N   UNL A   1      31.153  25.149  26.587  1.00  0.00    -0.355 N 
ATOM     14  C   UNL A   1      31.580  26.411  26.345  1.00  0.00     0.225 C 
ATOM     15  H   UNL A   1      30.920  24.990  27.530  1.00  0.00     0.163 HD
ATOM     16  O   UNL A   1      31.656  27.145  27.341  1.00  0.00    -0.275 OA
BRANCH  14  17
ATOM     17  C   UNL A   1      31.898  27.012  24.981  1.00  0.00     0.106 C 
ATOM     18  C   UNL A   1      33.189  27.796  24.964  1.00  0.00     0.044 C 
ATOM     19  C   UNL A   1      30.900  27.934  24.327  1.00  0.00     0.173 C 
ATOM     20  C   UNL A   1      32.751  29.240  24.894  1.00  0.00     0.161 C 
ATOM     21  O   UNL A   1      31.412  29.271  24.402  1.00  0.00    -0.381 OA
ENDBRANCH  14  17
ENDBRANCH  12  13
ENDBRANCH   7  12
ENDBRANCH   4   7
ENDBRANCH   2   3
ENDBRANCH   1   2
BRANCH   1  22
ATOM     22  C   UNL A   1      37.043  21.656  24.999  1.00  0.00     0.118 C 
BRANCH  22  23
ATOM     23  N   UNL A   1      38.006  20.648  25.436  1.00  0.00    -0.352 N 
ATOM     24  C   UNL A   1      39.227  20.798  26.049  1.00  0.00     0.251 C 
ATOM     25  H   UNL A   1      37.738  19.716  25.264  1.00  0.00     0.163 HD
ATOM     26  O   UNL A   1      39.972  19.829  26.175  1.00  0.00    -0.269 OA
BRANCH  24  27
ATOM     27  C   UNL A   1      39.648  22.127  26.534  1.00  0.00     0.039 A 
ATOM     28  C   UNL A   1      40.681  22.218  27.469  1.00  0.00     0.014 A 
ATOM     29  C   UNL A   1      39.038  23.282  26.044  1.00  0.00     0.014 A 
ATOM     30  C   UNL A   1      41.164  23.475  27.841  1.00  0.00     0.010 A 
ATOM     31  C   UNL A   1      39.587  24.524  26.334  1.00  0.00     0.010 A 
ATOM     32  C   UNL A   1      40.654  24.635  27.236  1.00  0.00    -0.014 A 
BRANCH  32  33
ATOM     33  C   UNL A   1      41.227  25.979  27.505  1.00  0.00     0.031 A 
ATOM     34  C   UNL A   1      42.639  26.292  27.091  1.00  0.00     0.074 A 
ATOM     35  C   UNL A   1      40.521  26.867  28.234  1.00  0.00     0.049 A 
ATOM     36  N   UNL A   1      43.355  27.357  27.343  1.00  0.00    -0.248 NA
ATOM     37  C   UNL A   1      43.354  25.256  26.324  1.00  0.00     0.031 C 
ATOM     38  C   UNL A   1      39.176  26.646  28.772  1.00  0.00     0.029 A 
ATOM     39  N   UNL A   1      40.852  28.123  28.679  1.00  0.00    -0.354 N 
ATOM     40  C   UNL A   1      44.613  27.102  26.809  1.00  0.00     0.074 A 
ATOM     41  C   UNL A   1      44.575  25.767  26.251  1.00  0.00     0.031 C 
ATOM     42  C   UNL A   1      38.798  27.728  29.470  1.00  0.00     0.029 A 
ATOM     43  C   UNL A   1      39.881  28.705  29.461  1.00  0.00     0.049 A 
ATOM     44  H   UNL A   1      41.703  28.566  28.459  1.00  0.00     0.167 HD
ATOM     45  C   UNL A   1      45.694  27.915  26.758  1.00  0.00     0.034 A 
ATOM     46  C   UNL A   1      39.869  29.887  30.108  1.00  0.00     0.034 A 
ATOM     47  C   UNL A   1      45.707  29.263  27.260  1.00  0.00     0.049 A 
ATOM     48  C   UNL A   1      41.062  30.794  29.990  1.00  0.00     0.074 A 
ATOM     49  C   UNL A   1      46.713  30.207  27.159  1.00  0.00     0.029 A 
ATOM     50  N   UNL A   1      44.667  29.856  27.958  1.00  0.00    -0.354 N 
ATOM     51  N   UNL A   1      42.183  30.602  29.335  1.00  0.00    -0.248 NA
ATOM     52  C   UNL A   1      40.981  32.094  30.671  1.00  0.00     0.031 C 
ATOM     53  C   UNL A   1      46.287  31.367  27.814  1.00  0.00     0.029 A 
ATOM     54  C   UNL A   1      45.010  31.150  28.306  1.00  0.00     0.049 A 
ATOM     55  H   UNL A   1      43.812  29.421  28.175  1.00  0.00     0.167 HD
ATOM     56  C   UNL A   1      42.926  31.764  29.503  1.00  0.00     0.074 A 
ATOM     57  C   UNL A   1      42.118  32.666  30.298  1.00  0.00     0.031 C 
ATOM     58  C   UNL A   1      44.174  32.053  29.056  1.00  0.00     0.034 A 
BRANCH  45  59
ATOM     59  C   UNL A   1      46.932  27.392  26.078  1.00  0.00     0.023 A 
ATOM     60  C   UNL A   1      47.115  27.622  24.699  1.00  0.00     0.012 A 
ATOM     61  C   UNL A   1      47.934  26.722  26.806  1.00  0.00     0.148 A 
ATOM     62  C   UNL A   1      48.258  27.162  24.047  1.00  0.00     0.002 A 
ATOM     63  C   UNL A   1      49.091  26.305  26.158  1.00  0.00     0.091 A 
ATOM     64  F   UNL A   1      47.732  26.492  28.111  1.00  0.00    -0.205 F 
ATOM     65  C   UNL A   1      49.249  26.514  24.777  1.00  0.00     0.022 A 
BRANCH  63  66
ATOM     66  S   UNL A   1      50.461  25.530  27.023  1.00  0.00     0.127 S 
ATOM     67  O   UNL A   1      51.415  25.318  25.935  1.00  0.00    -0.237 OA
ATOM     68  O   UNL A   1      50.849  26.569  27.979  1.00  0.00    -0.237 OA
ATOM     69  O   UNL A   1      49.921  24.321  27.627  1.00  0.00    -0.744 OA
ENDBRANCH  63  66
ENDBRANCH  45  59
BRANCH  46  70
ATOM     70  C   UNL A   1      38.656  30.307  30.868  1.00  0.00     0.023 A 
ATOM     71  C   UNL A   1      38.562  29.992  32.237  1.00  0.00     0.012 A 
ATOM     72  C   UNL A   1      37.619  31.038  30.258  1.00  0.00     0.148 A 
ATOM     73  C   UNL A   1      37.442  30.373  32.979  1.00  0.00     0.002 A 
ATOM     74  C   UNL A   1      36.533  31.462  31.015  1.00  0.00     0.091 A 
ATOM     75  F   UNL A   1      37.721  31.316  28.950  1.00  0.00    -0.205 F 
ATOM     76  C   UNL A   1      36.434  31.116  32.372  1.00  0.00     0.022 A 
BRANCH  74  77
ATOM     77  S   UNL A   1      35.256  32.536  30.348  1.00  0.00     0.127 S 
ATOM     78  O   UNL A   1      34.332  32.639  31.474  1.00  0.00    -0.237 OA
ATOM     79  O   UNL A   1      36.009  33.757  30.055  1.00  0.00    -0.237 OA
ATOM     80  O   UNL A   1      34.746  31.851  29.167  1.00  0.00    -0.744 OA
ENDBRANCH  74  77
ENDBRANCH  46  70
BRANCH  58  81
ATOM     81  C   UNL A   1      44.740  33.404  29.399  1.00  0.00     0.023 A 
ATOM     82  C   UNL A   1      45.525  33.556  30.559  1.00  0.00     0.012 A 
ATOM     83  C   UNL A   1      44.563  34.503  28.535  1.00  0.00     0.148 A 
ATOM     84  C   UNL A   1      46.100  34.787  30.869  1.00  0.00     0.002 A 
ATOM     85  C   UNL A   1      45.177  35.714  28.826  1.00  0.00     0.091 A 
ATOM     86  F   UNL A   1      43.797  34.342  27.446  1.00  0.00    -0.205 F 
ATOM     87  C   UNL A   1      45.936  35.862  29.999  1.00  0.00     0.022 A 
BRANCH  85  88
ATOM     88  S   UNL A   1      45.100  37.124  27.716  1.00  0.00     0.127 S 
ATOM     89  O   UNL A   1      43.769  36.969  27.130  1.00  0.00    -0.237 OA
ATOM     90  O   UNL A   1      45.233  38.253  28.637  1.00  0.00    -0.237 OA
ATOM     91  O   UNL A   1      46.213  36.966  26.790  1.00  0.00    -0.744 OA
ENDBRANCH  85  88
ENDBRANCH  58  81
ENDBRANCH  32  33
ENDBRANCH  24  27
ENDBRANCH  22  23
ENDBRANCH   1  22
TORSDOF 18
ENDMDL
MODEL 2
REMARK VINA RESULT:     -11.0      0.966      7.986
REMARK SMILES CC(C)C[C@@H](CNC(=O)[C@@H]1CCOC1)C(=O)NCCCNC(=O)c1ccc(-c2c3nc(c(-c4cccc(S(=O)(=O)[O-])c4F)c4ccc([nH]4)c(-c4cccc(S(=O)(=O)[O-])c4F)c4nc(c(-c5cccc(S(=O)(=O)[O-])c5F)c5ccc2[nH]5)C=C4)C=C3)cc1
REMARK SMILES IDX 19 1 18 2 17 3 15 4 16 5 5 7 4 8 2 9 1 10 3 11 6 12 7 13
REMARK SMILES IDX 8 14 9 16 10 17 11 18 14 19 12 20 13 21 20 22 21 23 22 24
REMARK SMILES IDX 23 26 24 27 25 28 86 29 26 30 85 31 27 32 28 33 29 34 79 35
REMARK SMILES IDX 30 36 84 37 78 38 80 39 31 40 83 41 77 42 76 43 32 45 64 46
REMARK SMILES IDX 44 47 63 48 45 49 48 50 62 51 81 52 46 53 47 54 61 56 82 57
REMARK SMILES IDX 49 58 33 59 34 60 42 61 35 62 37 63 43 64 36 65 38 66 39 67
REMARK SMILES IDX 40 68 41 69 65 70 66 71 74 72 67 73 69 74 75 75 68 76 70 77
REMARK SMILES IDX 71 78 72 79 73 80 50 81 51 82 59 83 52 84 54 85 60 86 53 87
REMARK SMILES IDX 55 88 56 89 57 90 58 91
REMARK H PARENT 17 6 7 15 21 25 80 44 48 55
REMARK Flexibility Score: inf
ROOT
ATOM      1  C   UNL A   1      35.177  21.962  26.668  1.00  0.00     0.042 C 
ENDROOT
BRANCH   1   2
ATOM      2  C   UNL A   1      33.871  21.284  26.300  1.00  0.00     0.117 C 
BRANCH   2   3
ATOM      3  N   UNL A   1      32.734  21.838  27.018  1.00  0.00    -0.356 N 
ATOM      4  C   UNL A   1      31.992  22.955  26.810  1.00  0.00     0.224 C 
ATOM      5  O   UNL A   1      31.004  23.114  27.535  1.00  0.00    -0.275 OA
ATOM      6  H   UNL A   1      32.452  21.306  27.796  1.00  0.00     0.163 HD
BRANCH   4   7
ATOM      7  C   UNL A   1      32.313  23.977  25.727  1.00  0.00     0.098 C 
BRANCH   7   8
ATOM      8  C   UNL A   1      31.502  23.722  24.444  1.00  0.00     0.018 C 
BRANCH   8   9
ATOM      9  C   UNL A   1      32.291  23.334  23.183  1.00  0.00    -0.017 C 
ATOM     10  C   UNL A   1      33.771  23.703  23.268  1.00  0.00     0.007 C 
ATOM     11  C   UNL A   1      32.154  21.823  22.955  1.00  0.00     0.007 C 
ENDBRANCH   8   9
ENDBRANCH   7   8
BRANCH   7  12
ATOM     12  C   UNL A   1      32.434  25.409  26.281  1.00  0.00     0.129 C 
BRANCH  12  13
ATOM     13  N   UNL A   1      33.100  26.389  25.446  1.00  0.00    -0.355 N 
ATOM     14  C   UNL A   1      32.657  27.410  24.674  1.00  0.00     0.225 C 
ATOM     15  H   UNL A   1      34.080  26.291  25.439  1.00  0.00     0.163 HD
ATOM     16  O   UNL A   1      33.535  28.022  24.050  1.00  0.00    -0.275 OA
BRANCH  14  17
ATOM     17  C   UNL A   1      31.219  27.902  24.564  1.00  0.00     0.106 C 
ATOM     18  C   UNL A   1      30.423  27.179  23.504  1.00  0.00     0.044 C 
ATOM     19  C   UNL A   1      30.954  29.361  24.290  1.00  0.00     0.173 C 
ATOM     20  C   UNL A   1      30.280  28.186  22.387  1.00  0.00     0.161 C 
ATOM     21  O   UNL A   1      30.499  29.485  22.936  1.00  0.00    -0.381 OA
ENDBRANCH  14  17
ENDBRANCH  12  13
ENDBRANCH   7  12
ENDBRANCH   4   7
ENDBRANCH   2   3
ENDBRANCH   1   2
BRANCH   1  22
ATOM     22  C   UNL A   1      36.131  22.086  25.490  1.00  0.00     0.118 C 
BRANCH  22  23
ATOM     23  N   UNL A   1      37.130  21.020  25.460  1.00  0.00    -0.352 N 
ATOM     24  C   UNL A   1      38.472  21.057  25.756  1.00  0.00     0.251 C 
ATOM     25  H   UNL A   1      36.789  20.139  25.185  1.00  0.00     0.163 HD
ATOM     26  O   UNL A   1      39.184  20.090  25.496  1.00  0.00    -0.269 OA
BRANCH  24  27
ATOM     27  C   UNL A   1      39.058  22.267  26.365  1.00  0.00     0.039 A 
ATOM     28  C   UNL A   1      40.134  22.138  27.246  1.00  0.00     0.014 A 
ATOM     29  C   UNL A   1      38.559  23.530  26.044  1.00  0.00     0.014 A 
ATOM     30  C   UNL A   1      40.768  23.284  27.732  1.00  0.00     0.010 A 
ATOM     31  C   UNL A   1      39.254  24.664  26.442  1.00  0.00     0.010 A 
ATOM     32  C   UNL A   1      40.364  24.555  27.291  1.00  0.00    -0.014 A 
BRANCH  32  33
ATOM     33  C   UNL A   1      41.093  25.789  27.680  1.00  0.00     0.031 A 
ATOM     34  C   UNL A   1      40.369  26.897  28.397  1.00  0.00     0.074 A 
ATOM     35  C   UNL A   1      42.368  25.963  27.275  1.00  0.00     0.049 A 
ATOM     36  N   UNL A   1      40.795  28.092  28.711  1.00  0.00    -0.248 NA
ATOM     37  C   UNL A   1      38.968  26.641  28.777  1.00  0.00     0.031 C 
ATOM     38  C   UNL A   1      43.149  25.001  26.495  1.00  0.00     0.029 A 
ATOM     39  N   UNL A   1      43.219  27.028  27.434  1.00  0.00    -0.354 N 
ATOM     40  C   UNL A   1      39.708  28.744  29.281  1.00  0.00     0.074 A 
ATOM     41  C   UNL A   1      38.591  27.825  29.237  1.00  0.00     0.031 C 
ATOM     42  C   UNL A   1      44.363  25.517  26.247  1.00  0.00     0.029 A 
ATOM     43  C   UNL A   1      44.437  26.857  26.816  1.00  0.00     0.049 A 
ATOM     44  H   UNL A   1      42.982  27.838  27.942  1.00  0.00     0.167 HD
ATOM     45  C   UNL A   1      39.650  29.983  29.822  1.00  0.00     0.034 A 
ATOM     46  C   UNL A   1      45.490  27.692  26.711  1.00  0.00     0.034 A 
ATOM     47  C   UNL A   1      40.778  30.869  29.918  1.00  0.00     0.049 A 
ATOM     48  C   UNL A   1      45.418  29.042  27.368  1.00  0.00     0.074 A 
ATOM     49  C   UNL A   1      40.853  32.100  30.545  1.00  0.00     0.029 A 
ATOM     50  N   UNL A   1      42.026  30.621  29.370  1.00  0.00    -0.354 N 
ATOM     51  N   UNL A   1      44.433  29.576  28.051  1.00  0.00    -0.248 NA
ATOM     52  C   UNL A   1      46.611  29.896  27.268  1.00  0.00     0.031 C 
ATOM     53  C   UNL A   1      42.144  32.604  30.360  1.00  0.00     0.029 A 
ATOM     54  C   UNL A   1      42.877  31.680  29.634  1.00  0.00     0.049 A 
ATOM     55  H   UNL A   1      42.272  29.812  28.867  1.00  0.00     0.167 HD
ATOM     56  C   UNL A   1      44.897  30.812  28.485  1.00  0.00     0.074 A 
ATOM     57  C   UNL A   1      46.260  30.938  28.011  1.00  0.00     0.031 C 
ATOM     58  C   UNL A   1      44.247  31.767  29.196  1.00  0.00     0.034 A 
BRANCH  45  59
ATOM     59  C   UNL A   1      38.337  30.429  30.412  1.00  0.00     0.023 A 
ATOM     60  C   UNL A   1      38.022  30.081  31.742  1.00  0.00     0.012 A 
ATOM     61  C   UNL A   1      37.442  31.229  29.676  1.00  0.00     0.148 A 
ATOM     62  C   UNL A   1      36.821  30.492  32.318  1.00  0.00     0.002 A 
ATOM     63  C   UNL A   1      36.267  31.671  30.272  1.00  0.00     0.091 A 
ATOM     64  F   UNL A   1      37.748  31.529  28.406  1.00  0.00    -0.205 F 
ATOM     65  C   UNL A   1      35.950  31.294  31.588  1.00  0.00     0.022 A 
BRANCH  63  66
ATOM     66  S   UNL A   1      35.115  32.772  29.444  1.00  0.00     0.127 S 
ATOM     67  O   UNL A   1      35.979  33.905  29.112  1.00  0.00    -0.237 OA
ATOM     68  O   UNL A   1      34.695  31.970  28.294  1.00  0.00    -0.237 OA
ATOM     69  O   UNL A   1      34.061  33.050  30.408  1.00  0.00    -0.744 OA
ENDBRANCH  63  66
ENDBRANCH  45  59
BRANCH  46  70
ATOM     70  C   UNL A   1      46.728  27.242  26.011  1.00  0.00     0.023 A 
ATOM     71  C   UNL A   1      46.853  27.468  24.626  1.00  0.00     0.012 A 
ATOM     72  C   UNL A   1      47.787  26.628  26.706  1.00  0.00     0.148 A 
ATOM     73  C   UNL A   1      48.000  27.063  23.941  1.00  0.00     0.002 A 
ATOM     74  C   UNL A   1      48.949  26.276  26.026  1.00  0.00     0.091 A 
ATOM     75  F   UNL A   1      47.643  26.409  28.021  1.00  0.00    -0.205 F 
ATOM     76  C   UNL A   1      49.051  26.478  24.641  1.00  0.00     0.022 A 
BRANCH  74  77
ATOM     77  S   UNL A   1      50.402  25.642  26.872  1.00  0.00     0.127 S 
ATOM     78  O   UNL A   1      49.869  24.454  27.533  1.00  0.00    -0.237 OA
ATOM     79  O   UNL A   1      51.310  25.373  25.756  1.00  0.00    -0.237 OA
ATOM     80  O   UNL A   1      50.842  26.717  27.753  1.00  0.00    -0.744 OA
ENDBRANCH  74  77
ENDBRANCH  46  70
BRANCH  58  81
ATOM     81  C   UNL A   1      45.003  33.027  29.521  1.00  0.00     0.023 A 
ATOM     82  C   UNL A   1      45.783  33.088  30.693  1.00  0.00     0.012 A 
ATOM     83  C   UNL A   1      45.006  34.119  28.630  1.00  0.00     0.148 A 
ATOM     84  C   UNL A   1      46.530  34.227  30.988  1.00  0.00     0.002 A 
ATOM     85  C   UNL A   1      45.789  35.232  28.908  1.00  0.00     0.091 A 
ATOM     86  F   UNL A   1      44.242  34.048  27.530  1.00  0.00    -0.205 F 
ATOM     87  C   UNL A   1      46.543  35.293  30.092  1.00  0.00     0.022 A 
BRANCH  85  88
ATOM     88  S   UNL A   1      45.941  36.610  27.766  1.00  0.00     0.127 S 
ATOM     89  O   UNL A   1      46.723  37.564  28.552  1.00  0.00    -0.237 OA
ATOM     90  O   UNL A   1      46.663  36.007  26.645  1.00  0.00    -0.237 OA
ATOM     91  O   UNL A   1      44.580  37.024  27.454  1.00  0.00    -0.744 OA
ENDBRANCH  85  88
ENDBRANCH  58  81
ENDBRANCH  32  33
ENDBRANCH  24  27
ENDBRANCH  22  23
ENDBRANCH   1  22
TORSDOF 18
ENDMDL
MODEL 3
REMARK VINA RESULT:     -10.9      2.606      3.212
REMARK SMILES CC(C)C[C@@H](CNC(=O)[C@@H]1CCOC1)C(=O)NCCCNC(=O)c1ccc(-c2c3nc(c(-c4cccc(S(=O)(=O)[O-])c4F)c4ccc([nH]4)c(-c4cccc(S(=O)(=O)[O-])c4F)c4nc(c(-c5cccc(S(=O)(=O)[O-])c5F)c5ccc2[nH]5)C=C4)C=C3)cc1
REMARK SMILES IDX 19 1 18 2 17 3 15 4 16 5 5 7 4 8 2 9 1 10 3 11 6 12 7 13
REMARK SMILES IDX 8 14 9 16 10 17 11 18 14 19 12 20 13 21 20 22 21 23 22 24
REMARK SMILES IDX 23 26 24 27 25 28 86 29 26 30 85 31 27 32 28 33 29 34 79 35
REMARK SMILES IDX 30 36 84 37 78 38 80 39 31 40 83 41 77 42 76 43 32 45 64 46
REMARK SMILES IDX 44 47 63 48 45 49 48 50 62 51 81 52 46 53 47 54 61 56 82 57
REMARK SMILES IDX 49 58 33 59 34 60 42 61 35 62 37 63 43 64 36 65 38 66 39 67
REMARK SMILES IDX 40 68 41 69 65 70 66 71 74 72 67 73 69 74 75 75 68 76 70 77
REMARK SMILES IDX 71 78 72 79 73 80 50 81 51 82 59 83 52 84 54 85 60 86 53 87
REMARK SMILES IDX 55 88 56 89 57 90 58 91
REMARK H PARENT 17 6 7 15 21 25 80 44 48 55
REMARK Flexibility Score: inf
ROOT
ATOM      1  C   UNL A   1      35.175  23.734  26.757  1.00  0.00     0.042 C 
ENDROOT
BRANCH   1   2
ATOM      2  C   UNL A   1      34.103  22.860  26.135  1.00  0.00     0.117 C 
BRANCH   2   3
ATOM      3  N   UNL A   1      32.830  22.959  26.830  1.00  0.00    -0.356 N 
ATOM      4  C   UNL A   1      31.679  23.609  26.520  1.00  0.00     0.224 C 
ATOM      5  O   UNL A   1      30.711  23.421  27.265  1.00  0.00    -0.275 OA
ATOM      6  H   UNL A   1      32.796  22.466  27.681  1.00  0.00     0.163 HD
BRANCH   4   7
ATOM      7  C   UNL A   1      31.537  24.516  25.305  1.00  0.00     0.098 C 
BRANCH   7   8
ATOM      8  C   UNL A   1      31.562  23.716  23.991  1.00  0.00     0.018 C 
BRANCH   8   9
ATOM      9  C   UNL A   1      32.511  24.211  22.886  1.00  0.00    -0.017 C 
ATOM     10  C   UNL A   1      33.526  25.237  23.388  1.00  0.00     0.007 C 
ATOM     11  C   UNL A   1      33.253  23.008  22.292  1.00  0.00     0.007 C 
ENDBRANCH   8   9
ENDBRANCH   7   8
BRANCH   7  12
ATOM     12  C   UNL A   1      30.481  25.619  25.509  1.00  0.00     0.129 C 
BRANCH  12  13
ATOM     13  N   UNL A   1      30.646  26.491  26.654  1.00  0.00    -0.355 N 
ATOM     14  C   UNL A   1      31.492  27.511  26.935  1.00  0.00     0.225 C 
ATOM     15  H   UNL A   1      30.010  26.301  27.381  1.00  0.00     0.163 HD
ATOM     16  O   UNL A   1      31.368  28.008  28.063  1.00  0.00    -0.275 OA
BRANCH  14  17
ATOM     17  C   UNL A   1      32.508  28.130  25.983  1.00  0.00     0.106 C 
ATOM     18  C   UNL A   1      33.933  27.740  26.298  1.00  0.00     0.044 C 
ATOM     19  C   UNL A   1      32.563  29.629  25.831  1.00  0.00     0.173 C 
ATOM     20  C   UNL A   1      34.541  28.987  26.894  1.00  0.00     0.161 C 
ATOM     21  O   UNL A   1      33.745  30.102  26.491  1.00  0.00    -0.381 OA
ENDBRANCH  14  17
ENDBRANCH  12  13
ENDBRANCH   7  12
ENDBRANCH   4   7
ENDBRANCH   2   3
ENDBRANCH   1   2
BRANCH   1  22
ATOM     22  C   UNL A   1      36.408  23.875  25.876  1.00  0.00     0.118 C 
BRANCH  22  23
ATOM     23  N   UNL A   1      37.328  22.749  26.013  1.00  0.00    -0.352 N 
ATOM     24  C   UNL A   1      38.666  22.733  26.331  1.00  0.00     0.251 C 
ATOM     25  H   UNL A   1      36.928  21.864  25.854  1.00  0.00     0.163 HD
ATOM     26  O   UNL A   1      39.310  21.693  26.220  1.00  0.00    -0.269 OA
BRANCH  24  27
ATOM     27  C   UNL A   1      39.329  23.972  26.782  1.00  0.00     0.039 A 
ATOM     28  C   UNL A   1      39.974  24.783  25.847  1.00  0.00     0.014 A 
ATOM     29  C   UNL A   1      39.287  24.345  28.127  1.00  0.00     0.014 A 
ATOM     30  C   UNL A   1      40.498  26.015  26.247  1.00  0.00     0.010 A 
ATOM     31  C   UNL A   1      39.714  25.611  28.502  1.00  0.00     0.010 A 
ATOM     32  C   UNL A   1      40.325  26.460  27.568  1.00  0.00    -0.014 A 
BRANCH  32  33
ATOM     33  C   UNL A   1      40.751  27.815  28.002  1.00  0.00     0.031 A 
ATOM     34  C   UNL A   1      42.213  28.166  28.046  1.00  0.00     0.074 A 
ATOM     35  C   UNL A   1      39.831  28.680  28.476  1.00  0.00     0.049 A 
ATOM     36  N   UNL A   1      42.788  29.246  28.508  1.00  0.00    -0.248 NA
ATOM     37  C   UNL A   1      43.157  27.155  27.539  1.00  0.00     0.031 C 
ATOM     38  C   UNL A   1      38.392  28.421  28.571  1.00  0.00     0.029 A 
ATOM     39  N   UNL A   1      39.975  29.940  29.003  1.00  0.00    -0.354 N 
ATOM     40  C   UNL A   1      44.155  29.026  28.390  1.00  0.00     0.074 A 
ATOM     41  C   UNL A   1      44.326  27.696  27.848  1.00  0.00     0.031 C 
ATOM     42  C   UNL A   1      37.787  29.488  29.117  1.00  0.00     0.029 A 
ATOM     43  C   UNL A   1      38.794  30.491  29.445  1.00  0.00     0.049 A 
ATOM     44  H   UNL A   1      40.841  30.405  29.058  1.00  0.00     0.167 HD
ATOM     45  C   UNL A   1      45.177  29.867  28.677  1.00  0.00     0.034 A 
ATOM     46  C   UNL A   1      38.552  31.667  30.057  1.00  0.00     0.034 A 
ATOM     47  C   UNL A   1      44.999  31.210  29.158  1.00  0.00     0.049 A 
ATOM     48  C   UNL A   1      39.700  32.604  30.314  1.00  0.00     0.074 A 
ATOM     49  C   UNL A   1      45.962  32.179  29.375  1.00  0.00     0.029 A 
ATOM     50  N   UNL A   1      43.780  31.771  29.500  1.00  0.00    -0.354 N 
ATOM     51  N   UNL A   1      40.972  32.445  30.039  1.00  0.00    -0.248 NA
ATOM     52  C   UNL A   1      39.377  33.896  30.937  1.00  0.00     0.031 C 
ATOM     53  C   UNL A   1      45.324  33.323  29.866  1.00  0.00     0.029 A 
ATOM     54  C   UNL A   1      43.964  33.071  29.937  1.00  0.00     0.049 A 
ATOM     55  H   UNL A   1      42.911  31.314  29.441  1.00  0.00     0.167 HD
ATOM     56  C   UNL A   1      41.597  33.623  30.429  1.00  0.00     0.074 A 
ATOM     57  C   UNL A   1      40.559  34.499  30.935  1.00  0.00     0.031 C 
ATOM     58  C   UNL A   1      42.913  33.946  30.391  1.00  0.00     0.034 A 
BRANCH  45  59
ATOM     59  C   UNL A   1      46.578  29.379  28.415  1.00  0.00     0.023 A 
ATOM     60  C   UNL A   1      47.193  29.672  27.180  1.00  0.00     0.012 A 
ATOM     61  C   UNL A   1      47.303  28.681  29.400  1.00  0.00     0.148 A 
ATOM     62  C   UNL A   1      48.494  29.247  26.916  1.00  0.00     0.002 A 
ATOM     63  C   UNL A   1      48.616  28.299  29.145  1.00  0.00     0.091 A 
ATOM     64  F   UNL A   1      46.694  28.392  30.558  1.00  0.00    -0.205 F 
ATOM     65  C   UNL A   1      49.208  28.570  27.900  1.00  0.00     0.022 A 
BRANCH  63  66
ATOM     66  S   UNL A   1      49.645  27.492  30.376  1.00  0.00     0.127 S 
ATOM     67  O   UNL A   1      49.573  28.440  31.487  1.00  0.00    -0.237 OA
ATOM     68  O   UNL A   1      48.929  26.235  30.600  1.00  0.00    -0.237 OA
ATOM     69  O   UNL A   1      50.957  27.342  29.765  1.00  0.00    -0.744 OA
ENDBRANCH  63  66
ENDBRANCH  45  59
BRANCH  46  70
ATOM     70  C   UNL A   1      37.153  32.051  30.403  1.00  0.00     0.023 A 
ATOM     71  C   UNL A   1      36.671  31.787  31.699  1.00  0.00     0.012 A 
ATOM     72  C   UNL A   1      36.315  32.699  29.476  1.00  0.00     0.148 A 
ATOM     73  C   UNL A   1      35.368  32.137  32.058  1.00  0.00     0.002 A 
ATOM     74  C   UNL A   1      35.036  33.093  29.857  1.00  0.00     0.091 A 
ATOM     75  F   UNL A   1      36.787  32.929  28.243  1.00  0.00    -0.205 F 
ATOM     76  C   UNL A   1      34.555  32.798  31.142  1.00  0.00     0.022 A 
BRANCH  74  77
ATOM     77  S   UNL A   1      33.972  34.069  28.787  1.00  0.00     0.127 S 
ATOM     78  O   UNL A   1      34.887  35.107  28.320  1.00  0.00    -0.237 OA
ATOM     79  O   UNL A   1      33.581  33.089  27.772  1.00  0.00    -0.237 OA
ATOM     80  O   UNL A   1      32.876  34.522  29.633  1.00  0.00    -0.744 OA
ENDBRANCH  74  77
ENDBRANCH  46  70
BRANCH  58  81
ATOM     81  C   UNL A   1      43.310  35.309  30.893  1.00  0.00     0.023 A 
ATOM     82  C   UNL A   1      43.555  36.346  29.972  1.00  0.00     0.012 A 
ATOM     83  C   UNL A   1      43.363  35.583  32.274  1.00  0.00     0.148 A 
ATOM     84  C   UNL A   1      43.876  37.627  30.417  1.00  0.00     0.002 A 
ATOM     85  C   UNL A   1      43.637  36.873  32.710  1.00  0.00     0.091 A 
ATOM     86  F   UNL A   1      43.145  34.577  33.134  1.00  0.00    -0.205 F 
ATOM     87  C   UNL A   1      43.905  37.894  31.783  1.00  0.00     0.022 A 
BRANCH  85  88
ATOM     88  S   UNL A   1      43.602  37.329  34.447  1.00  0.00     0.127 S 
ATOM     89  O   UNL A   1      43.882  38.764  34.384  1.00  0.00    -0.237 OA
ATOM     90  O   UNL A   1      42.231  36.991  34.830  1.00  0.00    -0.237 OA
ATOM     91  O   UNL A   1      44.626  36.520  35.094  1.00  0.00    -0.744 OA
ENDBRANCH  85  88
ENDBRANCH  58  81
ENDBRANCH  32  33
ENDBRANCH  24  27
ENDBRANCH  22  23
ENDBRANCH   1  22
TORSDOF 18
ENDMDL
