MODEL 1
REMARK VINA RESULT:     -12.4      0.000      0.000
REMARK SMILES C[N@H+]1[C@H]2CC[C@@H]1c1sc(=O)n(CCCC(=O)NCCCNC(=O)c3ccc(-c4c5nc(c(-c6cccc(S(=O)(=O)[O-])c6F)c6ccc([nH]6)c(-c6cccc(S(=O)(=O)[O-])c6F)c6nc(c(-c7cccc(S(=O)(=O)[O-])c7F)c7ccc4[nH]7)C=C6)C=C5)cc3)c1C2
REMARK SMILES IDX 19 1 18 2 17 3 15 4 16 5 14 7 13 8 12 9 11 10 1 11 2 12 3 13
REMARK SMILES IDX 6 14 4 16 88 17 5 18 7 19 87 20 8 21 9 22 10 23 20 24 21 25
REMARK SMILES IDX 22 26 23 28 24 29 25 30 86 31 26 32 85 33 27 34 28 35 29 36
REMARK SMILES IDX 79 37 30 38 84 39 78 40 80 41 31 42 83 43 77 44 76 45 32 47
REMARK SMILES IDX 64 48 44 49 63 50 45 51 48 52 62 53 81 54 46 55 47 56 61 58
REMARK SMILES IDX 82 59 49 60 33 61 34 62 42 63 35 64 37 65 43 66 36 67 38 68
REMARK SMILES IDX 39 69 40 70 41 71 65 72 66 73 74 74 67 75 69 76 75 77 68 78
REMARK SMILES IDX 70 79 71 80 72 81 73 82 50 83 51 84 59 85 52 86 54 87 60 88
REMARK SMILES IDX 53 89 55 90 56 91 57 92 58 93
REMARK H PARENT 17 6 2 15 21 27 80 46 48 57
REMARK Flexibility Score: inf
ROOT
ATOM      1  C   UNL A   1      38.160  19.762  25.025  1.00  0.00     0.042 C 
ENDROOT
BRANCH   1   2
ATOM      2  C   UNL A   1      37.035  20.801  24.928  1.00  0.00     0.117 C 
BRANCH   2   3
ATOM      3  N   UNL A   1      35.728  20.271  25.274  1.00  0.00    -0.356 N 
ATOM      4  C   UNL A   1      34.481  20.754  25.033  1.00  0.00     0.220 C 
ATOM      5  O   UNL A   1      33.538  19.977  25.194  1.00  0.00    -0.275 OA
ATOM      6  H   UNL A   1      35.750  19.419  25.766  1.00  0.00     0.163 HD
BRANCH   4   7
ATOM      7  C   UNL A   1      34.215  22.147  24.493  1.00  0.00     0.102 C 
BRANCH   7   8
ATOM      8  C   UNL A   1      34.596  23.371  25.322  1.00  0.00     0.032 C 
BRANCH   8   9
ATOM      9  C   UNL A   1      33.596  24.101  26.208  1.00  0.00     0.127 C 
BRANCH   9  10
ATOM     10  N   UNL A   1      32.413  24.827  25.721  1.00  0.00    -0.302 N 
ATOM     11  C   UNL A   1      34.086  28.671  22.662  1.00  0.00     0.333 C 
ATOM     12  N   UNL A   1      33.343  28.138  23.762  1.00  0.00    -0.328 N 
ATOM     13  C   UNL A   1      33.700  28.446  25.134  1.00  0.00     0.190 C 
ATOM     14  C   UNL A   1      31.895  27.910  23.743  1.00  0.00     0.227 C 
ATOM     15  H   UNL A   1      33.787  27.280  23.437  1.00  0.00     0.348 HD
ATOM     16  C   UNL A   1      32.574  29.417  25.514  1.00  0.00     0.072 C 
ATOM     17  C   UNL A   1      33.658  27.075  25.875  1.00  0.00     0.120 C 
ATOM     18  C   UNL A   1      31.347  28.961  24.714  1.00  0.00     0.077 C 
ATOM     19  C   UNL A   1      31.708  26.576  24.410  1.00  0.00     0.087 A 
ATOM     20  C   UNL A   1      32.574  26.154  25.346  1.00  0.00     0.047 A 
ATOM     21  S   UNL A   1      30.491  25.414  24.079  1.00  0.00    -0.073 S 
ATOM     22  C   UNL A   1      31.214  24.273  25.258  1.00  0.00     0.307 A 
ATOM     23  O   UNL A   1      30.693  23.219  25.508  1.00  0.00    -0.257 OA
ENDBRANCH   9  10
ENDBRANCH   8   9
ENDBRANCH   7   8
ENDBRANCH   4   7
ENDBRANCH   2   3
ENDBRANCH   1   2
BRANCH   1  24
ATOM     24  C   UNL A   1      39.337  20.223  25.860  1.00  0.00     0.118 C 
BRANCH  24  25
ATOM     25  N   UNL A   1      40.449  19.255  25.931  1.00  0.00    -0.352 N 
ATOM     26  C   UNL A   1      41.819  19.520  25.936  1.00  0.00     0.251 C 
ATOM     27  H   UNL A   1      40.192  18.306  25.982  1.00  0.00     0.163 HD
ATOM     28  O   UNL A   1      42.631  18.669  25.593  1.00  0.00    -0.269 OA
BRANCH  26  29
ATOM     29  C   UNL A   1      42.266  20.853  26.388  1.00  0.00     0.039 A 
ATOM     30  C   UNL A   1      42.536  21.945  25.557  1.00  0.00     0.014 A 
ATOM     31  C   UNL A   1      42.275  21.016  27.754  1.00  0.00     0.014 A 
ATOM     32  C   UNL A   1      42.756  23.186  26.164  1.00  0.00     0.010 A 
ATOM     33  C   UNL A   1      41.924  22.244  28.199  1.00  0.00     0.010 A 
ATOM     34  C   UNL A   1      42.448  23.314  27.525  1.00  0.00    -0.014 A 
BRANCH  34  35
ATOM     35  C   UNL A   1      42.482  24.543  28.299  1.00  0.00     0.031 A 
ATOM     36  C   UNL A   1      41.257  25.343  28.122  1.00  0.00     0.074 A 
ATOM     37  C   UNL A   1      43.392  24.776  29.277  1.00  0.00     0.049 A 
ATOM     38  N   UNL A   1      41.089  26.313  27.288  1.00  0.00    -0.248 NA
ATOM     39  C   UNL A   1      40.009  24.849  28.724  1.00  0.00     0.031 C 
ATOM     40  C   UNL A   1      44.439  23.878  29.799  1.00  0.00     0.029 A 
ATOM     41  N   UNL A   1      43.504  25.848  30.108  1.00  0.00    -0.354 N 
ATOM     42  C   UNL A   1      39.799  26.760  27.533  1.00  0.00     0.074 A 
ATOM     43  C   UNL A   1      39.114  25.650  28.138  1.00  0.00     0.031 C 
ATOM     44  C   UNL A   1      44.913  24.352  30.976  1.00  0.00     0.029 A 
ATOM     45  C   UNL A   1      44.340  25.662  31.209  1.00  0.00     0.049 A 
ATOM     46  H   UNL A   1      43.028  26.693  29.944  1.00  0.00     0.167 HD
ATOM     47  C   UNL A   1      39.536  28.095  27.578  1.00  0.00     0.034 A 
ATOM     48  C   UNL A   1      44.524  26.524  32.243  1.00  0.00     0.034 A 
ATOM     49  C   UNL A   1      40.671  28.849  27.082  1.00  0.00     0.049 A 
ATOM     50  C   UNL A   1      44.105  27.859  31.755  1.00  0.00     0.074 A 
ATOM     51  C   UNL A   1      41.400  28.881  25.909  1.00  0.00     0.029 A 
ATOM     52  N   UNL A   1      41.472  29.419  28.045  1.00  0.00    -0.354 N 
ATOM     53  N   UNL A   1      44.726  28.499  30.806  1.00  0.00    -0.248 NA
ATOM     54  C   UNL A   1      42.733  28.268  31.997  1.00  0.00     0.031 C 
ATOM     55  C   UNL A   1      42.755  29.068  26.318  1.00  0.00     0.029 A 
ATOM     56  C   UNL A   1      42.783  29.231  27.704  1.00  0.00     0.049 A 
ATOM     57  H   UNL A   1      41.152  29.885  28.850  1.00  0.00     0.167 HD
ATOM     58  C   UNL A   1      43.703  29.017  30.023  1.00  0.00     0.074 A 
ATOM     59  C   UNL A   1      42.513  28.957  30.873  1.00  0.00     0.031 C 
ATOM     60  C   UNL A   1      43.859  29.150  28.672  1.00  0.00     0.034 A 
BRANCH  47  61
ATOM     61  C   UNL A   1      38.506  28.763  28.473  1.00  0.00     0.023 A 
ATOM     62  C   UNL A   1      37.643  29.691  27.845  1.00  0.00     0.012 A 
ATOM     63  C   UNL A   1      38.509  28.761  29.887  1.00  0.00     0.148 A 
ATOM     64  C   UNL A   1      36.899  30.622  28.577  1.00  0.00     0.002 A 
ATOM     65  C   UNL A   1      37.717  29.643  30.614  1.00  0.00     0.091 A 
ATOM     66  F   UNL A   1      39.363  27.995  30.565  1.00  0.00    -0.205 F 
ATOM     67  C   UNL A   1      36.938  30.600  29.965  1.00  0.00     0.022 A 
BRANCH  65  68
ATOM     68  S   UNL A   1      37.704  29.636  32.414  1.00  0.00     0.127 S 
ATOM     69  O   UNL A   1      39.027  30.177  32.714  1.00  0.00    -0.237 OA
ATOM     70  O   UNL A   1      36.584  30.533  32.703  1.00  0.00    -0.237 OA
ATOM     71  O   UNL A   1      37.476  28.251  32.806  1.00  0.00    -0.744 OA
ENDBRANCH  65  68
ENDBRANCH  47  61
BRANCH  48  72
ATOM     72  C   UNL A   1      44.787  26.284  33.684  1.00  0.00     0.023 A 
ATOM     73  C   UNL A   1      46.084  26.486  34.206  1.00  0.00     0.012 A 
ATOM     74  C   UNL A   1      43.714  26.180  34.596  1.00  0.00     0.148 A 
ATOM     75  C   UNL A   1      46.297  26.626  35.584  1.00  0.00     0.002 A 
ATOM     76  C   UNL A   1      43.931  26.327  35.964  1.00  0.00     0.091 A 
ATOM     77  F   UNL A   1      42.475  26.032  34.109  1.00  0.00    -0.205 F 
ATOM     78  C   UNL A   1      45.219  26.562  36.461  1.00  0.00     0.022 A 
BRANCH  76  79
ATOM     79  S   UNL A   1      42.588  26.320  37.161  1.00  0.00     0.127 S 
ATOM     80  O   UNL A   1      42.021  24.986  36.966  1.00  0.00    -0.237 OA
ATOM     81  O   UNL A   1      43.306  26.500  38.421  1.00  0.00    -0.237 OA
ATOM     82  O   UNL A   1      41.711  27.418  36.777  1.00  0.00    -0.744 OA
ENDBRANCH  76  79
ENDBRANCH  48  72
BRANCH  60  83
ATOM     83  C   UNL A   1      45.254  28.999  28.112  1.00  0.00     0.023 A 
ATOM     84  C   UNL A   1      46.248  29.994  28.237  1.00  0.00     0.012 A 
ATOM     85  C   UNL A   1      45.609  27.753  27.573  1.00  0.00     0.148 A 
ATOM     86  C   UNL A   1      47.560  29.755  27.814  1.00  0.00     0.002 A 
ATOM     87  C   UNL A   1      46.922  27.503  27.196  1.00  0.00     0.091 A 
ATOM     88  F   UNL A   1      44.654  26.818  27.465  1.00  0.00    -0.205 F 
ATOM     89  C   UNL A   1      47.900  28.504  27.305  1.00  0.00     0.022 A 
BRANCH  87  90
ATOM     90  S   UNL A   1      47.443  25.878  26.644  1.00  0.00     0.127 S 
ATOM     91  O   UNL A   1      47.106  25.916  25.222  1.00  0.00    -0.237 OA
ATOM     92  O   UNL A   1      48.877  25.893  26.935  1.00  0.00    -0.237 OA
ATOM     93  O   UNL A   1      46.685  24.921  27.441  1.00  0.00    -0.744 OA
ENDBRANCH  87  90
ENDBRANCH  60  83
ENDBRANCH  34  35
ENDBRANCH  26  29
ENDBRANCH  24  25
ENDBRANCH   1  24
TORSDOF 16
ENDMDL
MODEL 2
REMARK VINA RESULT:     -12.2      1.663      1.900
REMARK SMILES C[N@H+]1[C@H]2CC[C@@H]1c1sc(=O)n(CCCC(=O)NCCCNC(=O)c3ccc(-c4c5nc(c(-c6cccc(S(=O)(=O)[O-])c6F)c6ccc([nH]6)c(-c6cccc(S(=O)(=O)[O-])c6F)c6nc(c(-c7cccc(S(=O)(=O)[O-])c7F)c7ccc4[nH]7)C=C6)C=C5)cc3)c1C2
REMARK SMILES IDX 19 1 18 2 17 3 15 4 16 5 14 7 13 8 12 9 11 10 1 11 2 12 3 13
REMARK SMILES IDX 6 14 4 16 88 17 5 18 7 19 87 20 8 21 9 22 10 23 20 24 21 25
REMARK SMILES IDX 22 26 23 28 24 29 25 30 86 31 26 32 85 33 27 34 28 35 29 36
REMARK SMILES IDX 79 37 30 38 84 39 78 40 80 41 31 42 83 43 77 44 76 45 32 47
REMARK SMILES IDX 64 48 44 49 63 50 45 51 48 52 62 53 81 54 46 55 47 56 61 58
REMARK SMILES IDX 82 59 49 60 33 61 34 62 42 63 35 64 37 65 43 66 36 67 38 68
REMARK SMILES IDX 39 69 40 70 41 71 65 72 66 73 74 74 67 75 69 76 75 77 68 78
REMARK SMILES IDX 70 79 71 80 72 81 73 82 50 83 51 84 59 85 52 86 54 87 60 88
REMARK SMILES IDX 53 89 55 90 56 91 57 92 58 93
REMARK H PARENT 17 6 2 15 21 27 80 46 48 57
REMARK Flexibility Score: inf
ROOT
ATOM      1  C   UNL A   1      38.156  19.728  25.238  1.00  0.00     0.042 C 
ENDROOT
BRANCH   1   2
ATOM      2  C   UNL A   1      37.447  20.811  24.414  1.00  0.00     0.117 C 
BRANCH   2   3
ATOM      3  N   UNL A   1      37.421  22.108  25.064  1.00  0.00    -0.356 N 
ATOM      4  C   UNL A   1      36.646  23.202  24.837  1.00  0.00     0.220 C 
ATOM      5  O   UNL A   1      36.642  24.075  25.706  1.00  0.00    -0.275 OA
ATOM      6  H   UNL A   1      38.076  22.213  25.792  1.00  0.00     0.163 HD
BRANCH   4   7
ATOM      7  C   UNL A   1      35.735  23.343  23.632  1.00  0.00     0.102 C 
BRANCH   7   8
ATOM      8  C   UNL A   1      34.315  22.785  23.680  1.00  0.00     0.032 C 
BRANCH   8   9
ATOM      9  C   UNL A   1      33.084  23.679  23.624  1.00  0.00     0.127 C 
BRANCH   9  10
ATOM     10  N   UNL A   1      32.368  24.199  24.799  1.00  0.00    -0.302 N 
ATOM     11  C   UNL A   1      31.829  29.321  24.165  1.00  0.00     0.333 C 
ATOM     12  N   UNL A   1      32.229  28.154  24.888  1.00  0.00    -0.328 N 
ATOM     13  C   UNL A   1      33.628  27.859  25.133  1.00  0.00     0.190 C 
ATOM     14  C   UNL A   1      31.474  27.580  26.005  1.00  0.00     0.227 C 
ATOM     15  H   UNL A   1      31.890  27.708  24.035  1.00  0.00     0.348 HD
ATOM     16  C   UNL A   1      33.734  28.189  26.627  1.00  0.00     0.072 C 
ATOM     17  C   UNL A   1      33.786  26.348  24.785  1.00  0.00     0.120 C 
ATOM     18  C   UNL A   1      32.361  27.854  27.225  1.00  0.00     0.077 C 
ATOM     19  C   UNL A   1      31.515  26.096  25.774  1.00  0.00     0.087 A 
ATOM     20  C   UNL A   1      32.555  25.533  25.137  1.00  0.00     0.047 A 
ATOM     21  S   UNL A   1      30.310  24.949  26.191  1.00  0.00    -0.073 S 
ATOM     22  C   UNL A   1      31.256  23.630  25.430  1.00  0.00     0.307 A 
ATOM     23  O   UNL A   1      30.887  22.486  25.480  1.00  0.00    -0.257 OA
ENDBRANCH   9  10
ENDBRANCH   8   9
ENDBRANCH   7   8
ENDBRANCH   4   7
ENDBRANCH   2   3
ENDBRANCH   1   2
BRANCH   1  24
ATOM     24  C   UNL A   1      39.401  20.224  25.943  1.00  0.00     0.118 C 
BRANCH  24  25
ATOM     25  N   UNL A   1      40.539  19.285  25.902  1.00  0.00    -0.352 N 
ATOM     26  C   UNL A   1      41.900  19.588  25.847  1.00  0.00     0.251 C 
ATOM     27  H   UNL A   1      40.309  18.328  25.916  1.00  0.00     0.163 HD
ATOM     28  O   UNL A   1      42.713  18.780  25.416  1.00  0.00    -0.269 OA
BRANCH  26  29
ATOM     29  C   UNL A   1      42.337  20.908  26.345  1.00  0.00     0.039 A 
ATOM     30  C   UNL A   1      42.665  22.010  25.549  1.00  0.00     0.014 A 
ATOM     31  C   UNL A   1      42.275  21.048  27.713  1.00  0.00     0.014 A 
ATOM     32  C   UNL A   1      42.866  23.238  26.188  1.00  0.00     0.010 A 
ATOM     33  C   UNL A   1      41.915  22.273  28.159  1.00  0.00     0.010 A 
ATOM     34  C   UNL A   1      42.487  23.348  27.532  1.00  0.00    -0.014 A 
BRANCH  34  35
ATOM     35  C   UNL A   1      42.494  24.563  28.328  1.00  0.00     0.031 A 
ATOM     36  C   UNL A   1      41.275  25.365  28.123  1.00  0.00     0.074 A 
ATOM     37  C   UNL A   1      43.370  24.779  29.340  1.00  0.00     0.049 A 
ATOM     38  N   UNL A   1      41.134  26.350  27.300  1.00  0.00    -0.248 NA
ATOM     39  C   UNL A   1      40.007  24.861  28.674  1.00  0.00     0.031 C 
ATOM     40  C   UNL A   1      44.400  23.873  29.882  1.00  0.00     0.029 A 
ATOM     41  N   UNL A   1      43.453  25.837  30.192  1.00  0.00    -0.354 N 
ATOM     42  C   UNL A   1      39.836  26.792  27.510  1.00  0.00     0.074 A 
ATOM     43  C   UNL A   1      39.133  25.671  28.071  1.00  0.00     0.031 C 
ATOM     44  C   UNL A   1      44.833  24.328  31.082  1.00  0.00     0.029 A 
ATOM     45  C   UNL A   1      44.251  25.632  31.318  1.00  0.00     0.049 A 
ATOM     46  H   UNL A   1      42.982  26.685  30.027  1.00  0.00     0.167 HD
ATOM     47  C   UNL A   1      39.571  28.127  27.569  1.00  0.00     0.034 A 
ATOM     48  C   UNL A   1      44.400  26.478  32.372  1.00  0.00     0.034 A 
ATOM     49  C   UNL A   1      40.722  28.888  27.124  1.00  0.00     0.049 A 
ATOM     50  C   UNL A   1      43.996  27.820  31.893  1.00  0.00     0.074 A 
ATOM     51  C   UNL A   1      41.489  28.941  25.977  1.00  0.00     0.029 A 
ATOM     52  N   UNL A   1      41.489  29.442  28.123  1.00  0.00    -0.354 N 
ATOM     53  N   UNL A   1      44.648  28.476  30.976  1.00  0.00    -0.248 NA
ATOM     54  C   UNL A   1      42.616  28.225  32.095  1.00  0.00     0.031 C 
ATOM     55  C   UNL A   1      42.830  29.121  26.435  1.00  0.00     0.029 A 
ATOM     56  C   UNL A   1      42.811  29.261  27.824  1.00  0.00     0.049 A 
ATOM     57  H   UNL A   1      41.141  29.895  28.924  1.00  0.00     0.167 HD
ATOM     58  C   UNL A   1      43.652  29.007  30.169  1.00  0.00     0.074 A 
ATOM     59  C   UNL A   1      42.434  28.933  30.976  1.00  0.00     0.031 C 
ATOM     60  C   UNL A   1      43.854  29.163  28.826  1.00  0.00     0.034 A 
BRANCH  47  61
ATOM     61  C   UNL A   1      38.511  28.779  28.439  1.00  0.00     0.023 A 
ATOM     62  C   UNL A   1      37.627  29.668  27.784  1.00  0.00     0.012 A 
ATOM     63  C   UNL A   1      38.497  28.802  29.853  1.00  0.00     0.148 A 
ATOM     64  C   UNL A   1      36.848  30.589  28.491  1.00  0.00     0.002 A 
ATOM     65  C   UNL A   1      37.670  29.672  30.555  1.00  0.00     0.091 A 
ATOM     66  F   UNL A   1      39.365  28.075  30.554  1.00  0.00    -0.205 F 
ATOM     67  C   UNL A   1      36.871  30.593  29.879  1.00  0.00     0.022 A 
BRANCH  65  68
ATOM     68  S   UNL A   1      37.636  29.697  32.354  1.00  0.00     0.127 S 
ATOM     69  O   UNL A   1      38.948  30.261  32.659  1.00  0.00    -0.237 OA
ATOM     70  O   UNL A   1      36.501  30.584  32.613  1.00  0.00    -0.237 OA
ATOM     71  O   UNL A   1      37.421  28.317  32.769  1.00  0.00    -0.744 OA
ENDBRANCH  65  68
ENDBRANCH  47  61
BRANCH  48  72
ATOM     72  C   UNL A   1      44.614  26.213  33.816  1.00  0.00     0.023 A 
ATOM     73  C   UNL A   1      45.892  26.405  34.386  1.00  0.00     0.012 A 
ATOM     74  C   UNL A   1      43.511  26.093  34.690  1.00  0.00     0.148 A 
ATOM     75  C   UNL A   1      46.058  26.522  35.773  1.00  0.00     0.002 A 
ATOM     76  C   UNL A   1      43.682  26.217  36.067  1.00  0.00     0.091 A 
ATOM     77  F   UNL A   1      42.289  25.954  34.159  1.00  0.00    -0.205 F 
ATOM     78  C   UNL A   1      44.952  26.443  36.611  1.00  0.00     0.022 A 
BRANCH  76  79
ATOM     79  S   UNL A   1      42.299  26.190  37.217  1.00  0.00     0.127 S 
ATOM     80  O   UNL A   1      41.737  24.861  36.978  1.00  0.00    -0.237 OA
ATOM     81  O   UNL A   1      42.974  26.345  38.504  1.00  0.00    -0.237 OA
ATOM     82  O   UNL A   1      41.437  27.297  36.825  1.00  0.00    -0.744 OA
ENDBRANCH  76  79
ENDBRANCH  48  72
BRANCH  60  83
ATOM     83  C   UNL A   1      45.267  29.023  28.311  1.00  0.00     0.023 A 
ATOM     84  C   UNL A   1      45.810  27.796  27.871  1.00  0.00     0.012 A 
ATOM     85  C   UNL A   1      46.015  30.197  28.131  1.00  0.00     0.148 A 
ATOM     86  C   UNL A   1      47.079  27.743  27.283  1.00  0.00     0.002 A 
ATOM     87  C   UNL A   1      47.255  30.146  27.508  1.00  0.00     0.091 A 
ATOM     88  F   UNL A   1      45.484  31.353  28.552  1.00  0.00    -0.205 F 
ATOM     89  C   UNL A   1      47.796  28.920  27.090  1.00  0.00     0.022 A 
BRANCH  87  90
ATOM     90  S   UNL A   1      48.171  31.641  27.128  1.00  0.00     0.127 S 
ATOM     91  O   UNL A   1      49.410  31.106  26.567  1.00  0.00    -0.237 OA
ATOM     92  O   UNL A   1      47.297  32.307  26.162  1.00  0.00    -0.237 OA
ATOM     93  O   UNL A   1      48.315  32.355  28.391  1.00  0.00    -0.744 OA
ENDBRANCH  87  90
ENDBRANCH  60  83
ENDBRANCH  34  35
ENDBRANCH  26  29
ENDBRANCH  24  25
ENDBRANCH   1  24
TORSDOF 16
ENDMDL
MODEL 3
REMARK VINA RESULT:     -12.1      3.184      7.408
REMARK SMILES C[N@H+]1[C@H]2CC[C@@H]1c1sc(=O)n(CCCC(=O)NCCCNC(=O)c3ccc(-c4c5nc(c(-c6cccc(S(=O)(=O)[O-])c6F)c6ccc([nH]6)c(-c6cccc(S(=O)(=O)[O-])c6F)c6nc(c(-c7cccc(S(=O)(=O)[O-])c7F)c7ccc4[nH]7)C=C6)C=C5)cc3)c1C2
REMARK SMILES IDX 19 1 18 2 17 3 15 4 16 5 14 7 13 8 12 9 11 10 1 11 2 12 3 13
REMARK SMILES IDX 6 14 4 16 88 17 5 18 7 19 87 20 8 21 9 22 10 23 20 24 21 25
REMARK SMILES IDX 22 26 23 28 24 29 25 30 86 31 26 32 85 33 27 34 28 35 29 36
REMARK SMILES IDX 79 37 30 38 84 39 78 40 80 41 31 42 83 43 77 44 76 45 32 47
REMARK SMILES IDX 64 48 44 49 63 50 45 51 48 52 62 53 81 54 46 55 47 56 61 58
REMARK SMILES IDX 82 59 49 60 33 61 34 62 42 63 35 64 37 65 43 66 36 67 38 68
REMARK SMILES IDX 39 69 40 70 41 71 65 72 66 73 74 74 67 75 69 76 75 77 68 78
REMARK SMILES IDX 70 79 71 80 72 81 73 82 50 83 51 84 59 85 52 86 54 87 60 88
REMARK SMILES IDX 53 89 55 90 56 91 57 92 58 93
REMARK H PARENT 17 6 2 15 21 27 80 46 48 57
REMARK Flexibility Score: inf
ROOT
ATOM      1  C   UNL A   1      41.770  19.489  26.142  1.00  0.00     0.042 C 
ENDROOT
BRANCH   1   2
ATOM      2  C   UNL A   1      40.930  20.135  27.252  1.00  0.00     0.117 C 
BRANCH   2   3
ATOM      3  N   UNL A   1      40.604  21.526  26.994  1.00  0.00    -0.356 N 
ATOM      4  C   UNL A   1      39.532  22.088  26.377  1.00  0.00     0.220 C 
ATOM      5  O   UNL A   1      39.369  23.300  26.531  1.00  0.00    -0.275 OA
ATOM      6  H   UNL A   1      41.273  22.169  27.322  1.00  0.00     0.163 HD
BRANCH   4   7
ATOM      7  C   UNL A   1      38.498  21.288  25.605  1.00  0.00     0.102 C 
BRANCH   7   8
ATOM      8  C   UNL A   1      37.126  21.891  25.319  1.00  0.00     0.032 C 
BRANCH   8   9
ATOM      9  C   UNL A   1      35.833  21.234  25.782  1.00  0.00     0.127 C 
BRANCH   9  10
ATOM     10  N   UNL A   1      34.642  21.035  24.941  1.00  0.00    -0.302 N 
ATOM     11  C   UNL A   1      32.801  16.286  25.930  1.00  0.00     0.333 C 
ATOM     12  N   UNL A   1      33.274  17.324  25.067  1.00  0.00    -0.328 N 
ATOM     13  C   UNL A   1      34.529  17.196  24.351  1.00  0.00     0.190 C 
ATOM     14  C   UNL A   1      32.405  18.173  24.249  1.00  0.00     0.227 C 
ATOM     15  H   UNL A   1      33.394  17.793  25.965  1.00  0.00     0.348 HD
ATOM     16  C   UNL A   1      34.024  16.951  22.924  1.00  0.00     0.072 C 
ATOM     17  C   UNL A   1      35.250  18.563  24.563  1.00  0.00     0.120 C 
ATOM     18  C   UNL A   1      32.704  17.725  22.813  1.00  0.00     0.077 C 
ATOM     19  C   UNL A   1      32.974  19.556  24.390  1.00  0.00     0.087 A 
ATOM     20  C   UNL A   1      34.287  19.733  24.615  1.00  0.00     0.047 A 
ATOM     21  S   UNL A   1      32.113  21.039  24.359  1.00  0.00    -0.073 S 
ATOM     22  C   UNL A   1      33.616  21.956  24.701  1.00  0.00     0.307 A 
ATOM     23  O   UNL A   1      33.621  23.158  24.731  1.00  0.00    -0.257 OA
ENDBRANCH   9  10
ENDBRANCH   8   9
ENDBRANCH   7   8
ENDBRANCH   4   7
ENDBRANCH   2   3
ENDBRANCH   1   2
BRANCH   1  24
ATOM     24  C   UNL A   1      43.226  19.307  26.515  1.00  0.00     0.118 C 
BRANCH  24  25
ATOM     25  N   UNL A   1      44.127  19.092  25.366  1.00  0.00    -0.352 N 
ATOM     26  C   UNL A   1      44.551  20.028  24.421  1.00  0.00     0.251 C 
ATOM     27  H   UNL A   1      44.472  18.177  25.253  1.00  0.00     0.163 HD
ATOM     28  O   UNL A   1      44.947  19.679  23.316  1.00  0.00    -0.269 OA
BRANCH  26  29
ATOM     29  C   UNL A   1      44.528  21.455  24.800  1.00  0.00     0.039 A 
ATOM     30  C   UNL A   1      43.570  22.389  24.395  1.00  0.00     0.014 A 
ATOM     31  C   UNL A   1      45.477  21.810  25.732  1.00  0.00     0.014 A 
ATOM     32  C   UNL A   1      43.588  23.647  25.006  1.00  0.00     0.010 A 
ATOM     33  C   UNL A   1      45.091  22.744  26.632  1.00  0.00     0.010 A 
ATOM     34  C   UNL A   1      44.387  23.812  26.145  1.00  0.00    -0.014 A 
BRANCH  34  35
ATOM     35  C   UNL A   1      44.441  24.992  26.990  1.00  0.00     0.031 A 
ATOM     36  C   UNL A   1      45.591  25.853  26.666  1.00  0.00     0.074 A 
ATOM     37  C   UNL A   1      43.405  25.390  27.771  1.00  0.00     0.049 A 
ATOM     38  N   UNL A   1      46.744  25.844  27.246  1.00  0.00    -0.248 NA
ATOM     39  C   UNL A   1      45.565  26.605  25.401  1.00  0.00     0.031 C 
ATOM     40  C   UNL A   1      42.056  24.806  27.886  1.00  0.00     0.029 A 
ATOM     41  N   UNL A   1      43.301  26.492  28.562  1.00  0.00    -0.354 N 
ATOM     42  C   UNL A   1      47.457  26.853  26.615  1.00  0.00     0.074 A 
ATOM     43  C   UNL A   1      46.833  27.021  25.331  1.00  0.00     0.031 C 
ATOM     44  C   UNL A   1      41.227  25.675  28.512  1.00  0.00     0.029 A 
ATOM     45  C   UNL A   1      42.009  26.793  28.995  1.00  0.00     0.049 A 
ATOM     46  H   UNL A   1      44.081  27.039  28.809  1.00  0.00     0.167 HD
ATOM     47  C   UNL A   1      48.225  27.706  27.347  1.00  0.00     0.034 A 
ATOM     48  C   UNL A   1      41.622  27.897  29.686  1.00  0.00     0.034 A 
ATOM     49  C   UNL A   1      48.365  27.219  28.706  1.00  0.00     0.049 A 
ATOM     50  C   UNL A   1      42.842  28.442  30.324  1.00  0.00     0.074 A 
ATOM     51  C   UNL A   1      48.827  26.060  29.297  1.00  0.00     0.029 A 
ATOM     52  N   UNL A   1      47.564  27.833  29.642  1.00  0.00    -0.354 N 
ATOM     53  N   UNL A   1      43.506  27.811  31.250  1.00  0.00    -0.248 NA
ATOM     54  C   UNL A   1      43.582  29.467  29.608  1.00  0.00     0.031 C 
ATOM     55  C   UNL A   1      47.938  25.820  30.389  1.00  0.00     0.029 A 
ATOM     56  C   UNL A   1      47.036  26.882  30.471  1.00  0.00     0.049 A 
ATOM     57  H   UNL A   1      47.398  28.801  29.703  1.00  0.00     0.167 HD
ATOM     58  C   UNL A   1      44.836  27.999  30.899  1.00  0.00     0.074 A 
ATOM     59  C   UNL A   1      44.823  29.127  29.968  1.00  0.00     0.031 C 
ATOM     60  C   UNL A   1      45.766  27.030  31.155  1.00  0.00     0.034 A 
BRANCH  47  61
ATOM     61  C   UNL A   1      48.461  29.174  27.032  1.00  0.00     0.023 A 
ATOM     62  C   UNL A   1      49.803  29.616  27.094  1.00  0.00     0.012 A 
ATOM     63  C   UNL A   1      47.467  30.177  26.962  1.00  0.00     0.148 A 
ATOM     64  C   UNL A   1      50.130  30.974  27.176  1.00  0.00     0.002 A 
ATOM     65  C   UNL A   1      47.800  31.527  26.975  1.00  0.00     0.091 A 
ATOM     66  F   UNL A   1      46.174  29.860  27.004  1.00  0.00    -0.205 F 
ATOM     67  C   UNL A   1      49.126  31.931  27.119  1.00  0.00     0.022 A 
BRANCH  65  68
ATOM     68  S   UNL A   1      46.542  32.811  26.871  1.00  0.00     0.127 S 
ATOM     69  O   UNL A   1      45.915  32.707  28.186  1.00  0.00    -0.237 OA
ATOM     70  O   UNL A   1      47.360  34.007  26.664  1.00  0.00    -0.237 OA
ATOM     71  O   UNL A   1      45.704  32.457  25.733  1.00  0.00    -0.744 OA
ENDBRANCH  65  68
ENDBRANCH  47  61
BRANCH  48  72
ATOM     72  C   UNL A   1      40.360  28.678  29.656  1.00  0.00     0.023 A 
ATOM     73  C   UNL A   1      39.667  28.851  28.437  1.00  0.00     0.012 A 
ATOM     74  C   UNL A   1      39.673  28.967  30.855  1.00  0.00     0.148 A 
ATOM     75  C   UNL A   1      38.324  29.252  28.417  1.00  0.00     0.002 A 
ATOM     76  C   UNL A   1      38.336  29.358  30.829  1.00  0.00     0.091 A 
ATOM     77  F   UNL A   1      40.306  28.765  32.018  1.00  0.00    -0.205 F 
ATOM     78  C   UNL A   1      37.655  29.490  29.612  1.00  0.00     0.022 A 
BRANCH  76  79
ATOM     79  S   UNL A   1      37.379  29.627  32.328  1.00  0.00     0.127 S 
ATOM     80  O   UNL A   1      38.135  30.698  32.977  1.00  0.00    -0.237 OA
ATOM     81  O   UNL A   1      36.082  30.034  31.789  1.00  0.00    -0.237 OA
ATOM     82  O   UNL A   1      37.391  28.354  33.037  1.00  0.00    -0.744 OA
ENDBRANCH  76  79
ENDBRANCH  48  72
BRANCH  60  83
ATOM     83  C   UNL A   1      45.367  25.904  32.078  1.00  0.00     0.023 A 
ATOM     84  C   UNL A   1      44.733  24.725  31.628  1.00  0.00     0.012 A 
ATOM     85  C   UNL A   1      45.780  25.980  33.417  1.00  0.00     0.148 A 
ATOM     86  C   UNL A   1      44.500  23.658  32.502  1.00  0.00     0.002 A 
ATOM     87  C   UNL A   1      45.588  24.902  34.271  1.00  0.00     0.091 A 
ATOM     88  F   UNL A   1      46.384  27.105  33.827  1.00  0.00    -0.205 F 
ATOM     89  C   UNL A   1      44.939  23.741  33.821  1.00  0.00     0.022 A 
BRANCH  87  90
ATOM     90  S   UNL A   1      46.234  24.907  35.944  1.00  0.00     0.127 S 
ATOM     91  O   UNL A   1      45.720  23.647  36.474  1.00  0.00    -0.237 OA
ATOM     92  O   UNL A   1      47.680  24.934  35.720  1.00  0.00    -0.237 OA
ATOM     93  O   UNL A   1      45.708  26.113  36.573  1.00  0.00    -0.744 OA
ENDBRANCH  87  90
ENDBRANCH  60  83
ENDBRANCH  34  35
ENDBRANCH  26  29
ENDBRANCH  24  25
ENDBRANCH   1  24
TORSDOF 16
ENDMDL
