MODEL 1
REMARK VINA RESULT:     -12.4      0.000      0.000
REMARK SMILES CS(=O)(=O)c1ccc(-c2cc(Cl)cnc2-c2ccc(C(=O)NCCCNC(=O)c3ccc(-c4c5nc(c(-c6cccc(S(=O)(=O)[O-])c6F)c6ccc([nH]6)c(-c6cccc(S(=O)(=O)[O-])c6F)c6nc(c(-c7cccc(S(=O)(=O)[O-])c7F)c7ccc4[nH]7)C=C6)C=C5)cc3)nc2)cc1
REMARK SMILES IDX 24 1 23 2 22 3 20 4 21 5 19 7 16 8 17 9 93 10 18 11 92 12
REMARK SMILES IDX 15 13 9 14 10 15 11 16 14 17 12 18 13 19 8 20 5 21 6 22
REMARK SMILES IDX 95 23 7 24 94 25 2 26 1 27 3 28 4 29 25 30 26 31 27 32 28 34
REMARK SMILES IDX 29 35 30 36 91 37 31 38 90 39 32 40 33 41 34 42 84 43 35 44
REMARK SMILES IDX 89 45 83 46 85 47 36 48 88 49 82 50 81 51 37 53 69 54 49 55
REMARK SMILES IDX 68 56 50 57 53 58 67 59 86 60 51 61 52 62 66 64 87 65 54 66
REMARK SMILES IDX 38 67 39 68 47 69 40 70 42 71 48 72 41 73 43 74 44 75 45 76
REMARK SMILES IDX 46 77 70 78 71 79 79 80 72 81 74 82 80 83 73 84 75 85 76 86
REMARK SMILES IDX 77 87 78 88 55 89 56 90 64 91 57 92 59 93 65 94 58 95 60 96
REMARK SMILES IDX 61 97 62 98 63 99
REMARK H PARENT 22 6 26 33 85 52 53 63
REMARK Flexibility Score: inf
ROOT
ATOM      1  C   UNL A   1      38.287  19.613  25.010  1.00  0.00     0.042 C 
ENDROOT
BRANCH   1   2
ATOM      2  C   UNL A   1      37.700  20.937  24.522  1.00  0.00     0.118 C 
BRANCH   2   3
ATOM      3  N   UNL A   1      38.331  22.068  25.176  1.00  0.00    -0.351 N 
ATOM      4  C   UNL A   1      37.887  23.331  25.500  1.00  0.00     0.269 C 
ATOM      5  O   UNL A   1      38.677  24.038  26.132  1.00  0.00    -0.268 OA
ATOM      6  H   UNL A   1      39.264  21.899  25.439  1.00  0.00     0.163 HD
BRANCH   4   7
ATOM      7  C   UNL A   1      36.511  23.850  25.169  1.00  0.00     0.128 A 
ATOM      8  C   UNL A   1      33.894  24.684  24.785  1.00  0.00     0.019 A 
ATOM      9  C   UNL A   1      34.710  24.405  23.688  1.00  0.00     0.014 A 
ATOM     10  C   UNL A   1      34.488  24.600  26.038  1.00  0.00     0.122 A 
ATOM     11  C   UNL A   1      36.034  24.015  23.876  1.00  0.00     0.035 A 
ATOM     12  N   UNL A   1      35.750  24.163  26.254  1.00  0.00    -0.250 NA
BRANCH   8  13
ATOM     13  C   UNL A   1      32.480  25.011  24.612  1.00  0.00     0.080 A 
ATOM     14  C   UNL A   1      31.517  24.042  24.245  1.00  0.00     0.010 A 
ATOM     15  C   UNL A   1      30.226  24.512  23.954  1.00  0.00     0.033 A 
ATOM     16  C   UNL A   1      29.936  25.870  24.051  1.00  0.00     0.060 A 
ATOM     17  N   UNL A   1      32.198  26.333  24.746  1.00  0.00    -0.254 NA
ATOM     18  Cl  UNL A   1      28.367  26.456  23.679  1.00  0.00    -0.083 Cl
ATOM     19  C   UNL A   1      30.938  26.732  24.459  1.00  0.00     0.132 A 
BRANCH  14  20
ATOM     20  C   UNL A   1      31.818  22.597  24.172  1.00  0.00    -0.016 A 
ATOM     21  C   UNL A   1      32.342  19.831  24.014  1.00  0.00     0.067 A 
ATOM     22  C   UNL A   1      32.252  20.591  22.848  1.00  0.00     0.021 A 
ATOM     23  C   UNL A   1      32.178  20.435  25.261  1.00  0.00     0.021 A 
ATOM     24  C   UNL A   1      32.008  21.963  22.931  1.00  0.00     0.010 A 
ATOM     25  C   UNL A   1      31.915  21.811  25.334  1.00  0.00     0.010 A 
BRANCH  21  26
ATOM     26  S   UNL A   1      32.664  18.091  23.843  1.00  0.00     0.175 S 
ATOM     27  C   UNL A   1      34.391  17.845  24.142  1.00  0.00     0.163 C 
ATOM     28  O   UNL A   1      32.399  17.761  22.457  1.00  0.00    -0.224 OA
ATOM     29  O   UNL A   1      31.952  17.427  24.921  1.00  0.00    -0.224 OA
ENDBRANCH  21  26
ENDBRANCH  14  20
ENDBRANCH   8  13
ENDBRANCH   4   7
ENDBRANCH   2   3
ENDBRANCH   1   2
BRANCH   1  30
ATOM     30  C   UNL A   1      39.176  19.766  26.242  1.00  0.00     0.118 C 
BRANCH  30  31
ATOM     31  N   UNL A   1      40.414  19.005  26.112  1.00  0.00    -0.352 N 
ATOM     32  C   UNL A   1      41.712  19.440  26.023  1.00  0.00     0.251 C 
ATOM     33  H   UNL A   1      40.299  18.028  26.084  1.00  0.00     0.163 HD
ATOM     34  O   UNL A   1      42.584  18.657  25.655  1.00  0.00    -0.269 OA
BRANCH  32  35
ATOM     35  C   UNL A   1      42.063  20.836  26.363  1.00  0.00     0.039 A 
ATOM     36  C   UNL A   1      42.391  21.149  27.686  1.00  0.00     0.014 A 
ATOM     37  C   UNL A   1      42.026  21.843  25.396  1.00  0.00     0.014 A 
ATOM     38  C   UNL A   1      42.733  22.460  28.025  1.00  0.00     0.010 A 
ATOM     39  C   UNL A   1      42.444  23.131  25.718  1.00  0.00     0.010 A 
ATOM     40  C   UNL A   1      42.792  23.456  27.038  1.00  0.00    -0.014 A 
BRANCH  40  41
ATOM     41  C   UNL A   1      43.220  24.842  27.357  1.00  0.00     0.031 A 
ATOM     42  C   UNL A   1      42.262  25.798  28.014  1.00  0.00     0.074 A 
ATOM     43  C   UNL A   1      44.439  25.264  26.966  1.00  0.00     0.049 A 
ATOM     44  N   UNL A   1      42.424  27.065  28.293  1.00  0.00    -0.248 NA
ATOM     45  C   UNL A   1      40.936  25.271  28.379  1.00  0.00     0.031 C 
ATOM     46  C   UNL A   1      45.427  24.450  26.254  1.00  0.00     0.029 A 
ATOM     47  N   UNL A   1      45.042  26.491  27.083  1.00  0.00    -0.354 N 
ATOM     48  C   UNL A   1      41.215  27.496  28.824  1.00  0.00     0.074 A 
ATOM     49  C   UNL A   1      40.316  26.363  28.801  1.00  0.00     0.031 C 
ATOM     50  C   UNL A   1      46.512  25.199  25.999  1.00  0.00     0.029 A 
ATOM     51  C   UNL A   1      46.285  26.552  26.494  1.00  0.00     0.049 A 
ATOM     52  H   UNL A   1      44.627  27.254  27.544  1.00  0.00     0.167 HD
ATOM     53  C   UNL A   1      40.888  28.717  29.313  1.00  0.00     0.034 A 
ATOM     54  C   UNL A   1      47.137  27.585  26.354  1.00  0.00     0.034 A 
ATOM     55  C   UNL A   1      41.800  29.827  29.369  1.00  0.00     0.049 A 
ATOM     56  C   UNL A   1      46.764  28.921  26.938  1.00  0.00     0.074 A 
ATOM     57  C   UNL A   1      41.598  31.078  29.926  1.00  0.00     0.029 A 
ATOM     58  N   UNL A   1      43.082  29.826  28.843  1.00  0.00    -0.354 N 
ATOM     59  N   UNL A   1      45.673  29.266  27.577  1.00  0.00    -0.248 NA
ATOM     60  C   UNL A   1      47.755  30.000  26.814  1.00  0.00     0.031 C 
ATOM     61  C   UNL A   1      42.749  31.843  29.709  1.00  0.00     0.029 A 
ATOM     62  C   UNL A   1      43.681  31.056  29.051  1.00  0.00     0.049 A 
ATOM     63  H   UNL A   1      43.505  29.061  28.388  1.00  0.00     0.167 HD
ATOM     64  C   UNL A   1      45.861  30.587  27.965  1.00  0.00     0.074 A 
ATOM     65  C   UNL A   1      47.178  30.975  27.505  1.00  0.00     0.031 C 
ATOM     66  C   UNL A   1      45.014  31.409  28.633  1.00  0.00     0.034 A 
BRANCH  53  67
ATOM     67  C   UNL A   1      39.499  28.904  29.867  1.00  0.00     0.023 A 
ATOM     68  C   UNL A   1      39.201  28.456  31.171  1.00  0.00     0.012 A 
ATOM     69  C   UNL A   1      38.508  29.576  29.126  1.00  0.00     0.148 A 
ATOM     70  C   UNL A   1      37.929  28.637  31.712  1.00  0.00     0.002 A 
ATOM     71  C   UNL A   1      37.256  29.796  29.690  1.00  0.00     0.091 A 
ATOM     72  F   UNL A   1      38.802  29.980  27.882  1.00  0.00    -0.205 F 
ATOM     73  C   UNL A   1      36.961  29.316  30.977  1.00  0.00     0.022 A 
BRANCH  71  74
ATOM     74  S   UNL A   1      35.968  30.733  28.861  1.00  0.00     0.127 S 
ATOM     75  O   UNL A   1      35.276  29.684  28.112  1.00  0.00    -0.237 OA
ATOM     76  O   UNL A   1      35.210  31.278  29.987  1.00  0.00    -0.237 OA
ATOM     77  O   UNL A   1      36.653  31.730  28.049  1.00  0.00    -0.744 OA
ENDBRANCH  71  74
ENDBRANCH  53  67
BRANCH  54  78
ATOM     78  C   UNL A   1      48.453  27.380  25.685  1.00  0.00     0.023 A 
ATOM     79  C   UNL A   1      49.568  26.988  26.453  1.00  0.00     0.012 A 
ATOM     80  C   UNL A   1      48.601  27.540  24.293  1.00  0.00     0.148 A 
ATOM     81  C   UNL A   1      50.812  26.793  25.854  1.00  0.00     0.002 A 
ATOM     82  C   UNL A   1      49.830  27.288  23.694  1.00  0.00     0.091 A 
ATOM     83  F   UNL A   1      47.532  27.920  23.580  1.00  0.00    -0.205 F 
ATOM     84  C   UNL A   1      50.942  26.934  24.475  1.00  0.00     0.022 A 
BRANCH  82  85
ATOM     85  S   UNL A   1      50.057  27.308  21.912  1.00  0.00     0.127 S 
ATOM     86  O   UNL A   1      49.016  26.386  21.468  1.00  0.00    -0.237 OA
ATOM     87  O   UNL A   1      49.812  28.715  21.593  1.00  0.00    -0.237 OA
ATOM     88  O   UNL A   1      51.428  26.874  21.685  1.00  0.00    -0.744 OA
ENDBRANCH  82  85
ENDBRANCH  54  78
BRANCH  66  89
ATOM     89  C   UNL A   1      45.497  32.799  28.957  1.00  0.00     0.023 A 
ATOM     90  C   UNL A   1      46.194  33.042  30.156  1.00  0.00     0.012 A 
ATOM     91  C   UNL A   1      45.326  33.846  28.031  1.00  0.00     0.148 A 
ATOM     92  C   UNL A   1      46.689  34.314  30.441  1.00  0.00     0.002 A 
ATOM     93  C   UNL A   1      45.866  35.097  28.297  1.00  0.00     0.091 A 
ATOM     94  F   UNL A   1      44.642  33.597  26.903  1.00  0.00    -0.205 F 
ATOM     95  C   UNL A   1      46.537  35.337  29.508  1.00  0.00     0.022 A 
BRANCH  93  96
ATOM     96  S   UNL A   1      45.808  36.446  27.112  1.00  0.00     0.127 S 
ATOM     97  O   UNL A   1      46.387  35.821  25.923  1.00  0.00    -0.237 OA
ATOM     98  O   UNL A   1      44.373  36.717  27.022  1.00  0.00    -0.237 OA
ATOM     99  O   UNL A   1      46.593  37.526  27.693  1.00  0.00    -0.744 OA
ENDBRANCH  93  96
ENDBRANCH  66  89
ENDBRANCH  40  41
ENDBRANCH  32  35
ENDBRANCH  30  31
ENDBRANCH   1  30
TORSDOF 16
ENDMDL
MODEL 2
REMARK VINA RESULT:     -11.8      6.563     11.372
REMARK SMILES CS(=O)(=O)c1ccc(-c2cc(Cl)cnc2-c2ccc(C(=O)NCCCNC(=O)c3ccc(-c4c5nc(c(-c6cccc(S(=O)(=O)[O-])c6F)c6ccc([nH]6)c(-c6cccc(S(=O)(=O)[O-])c6F)c6nc(c(-c7cccc(S(=O)(=O)[O-])c7F)c7ccc4[nH]7)C=C6)C=C5)cc3)nc2)cc1
REMARK SMILES IDX 24 1 23 2 22 3 20 4 21 5 19 7 16 8 17 9 93 10 18 11 92 12
REMARK SMILES IDX 15 13 9 14 10 15 11 16 14 17 12 18 13 19 8 20 5 21 6 22
REMARK SMILES IDX 95 23 7 24 94 25 2 26 1 27 3 28 4 29 25 30 26 31 27 32 28 34
REMARK SMILES IDX 29 35 30 36 91 37 31 38 90 39 32 40 33 41 34 42 84 43 35 44
REMARK SMILES IDX 89 45 83 46 85 47 36 48 88 49 82 50 81 51 37 53 69 54 49 55
REMARK SMILES IDX 68 56 50 57 53 58 67 59 86 60 51 61 52 62 66 64 87 65 54 66
REMARK SMILES IDX 38 67 39 68 47 69 40 70 42 71 48 72 41 73 43 74 44 75 45 76
REMARK SMILES IDX 46 77 70 78 71 79 79 80 72 81 74 82 80 83 73 84 75 85 76 86
REMARK SMILES IDX 77 87 78 88 55 89 56 90 64 91 57 92 59 93 65 94 58 95 60 96
REMARK SMILES IDX 61 97 62 98 63 99
REMARK H PARENT 22 6 26 33 85 52 53 63
REMARK Flexibility Score: inf
ROOT
ATOM      1  C   UNL A   1      32.139  32.806  26.917  1.00  0.00     0.042 C 
ENDROOT
BRANCH   1   2
ATOM      2  C   UNL A   1      32.195  31.316  27.251  1.00  0.00     0.118 C 
BRANCH   2   3
ATOM      3  N   UNL A   1      33.520  30.923  27.692  1.00  0.00    -0.351 N 
ATOM      4  C   UNL A   1      34.324  29.843  27.399  1.00  0.00     0.269 C 
ATOM      5  O   UNL A   1      35.449  29.852  27.904  1.00  0.00    -0.268 OA
ATOM      6  H   UNL A   1      33.925  31.554  28.329  1.00  0.00     0.163 HD
BRANCH   4   7
ATOM      7  C   UNL A   1      33.917  28.716  26.484  1.00  0.00     0.128 A 
ATOM      8  C   UNL A   1      33.179  26.483  25.016  1.00  0.00     0.019 A 
ATOM      9  C   UNL A   1      33.931  27.496  24.421  1.00  0.00     0.014 A 
ATOM     10  C   UNL A   1      32.768  26.700  26.324  1.00  0.00     0.122 A 
ATOM     11  C   UNL A   1      34.277  28.634  25.146  1.00  0.00     0.035 A 
ATOM     12  N   UNL A   1      33.142  27.764  27.073  1.00  0.00    -0.250 NA
BRANCH   8  13
ATOM     13  C   UNL A   1      32.879  25.245  24.299  1.00  0.00     0.080 A 
ATOM     14  C   UNL A   1      31.687  25.065  23.560  1.00  0.00     0.010 A 
ATOM     15  C   UNL A   1      31.444  23.778  23.053  1.00  0.00     0.033 A 
ATOM     16  C   UNL A   1      32.364  22.755  23.268  1.00  0.00     0.060 A 
ATOM     17  N   UNL A   1      33.800  24.264  24.482  1.00  0.00    -0.254 NA
ATOM     18  Cl  UNL A   1      32.067  21.175  22.669  1.00  0.00    -0.083 Cl
ATOM     19  C   UNL A   1      33.521  23.044  23.969  1.00  0.00     0.132 A 
BRANCH  14  20
ATOM     20  C   UNL A   1      30.726  26.160  23.306  1.00  0.00    -0.016 A 
ATOM     21  C   UNL A   1      28.924  28.280  22.849  1.00  0.00     0.067 A 
ATOM     22  C   UNL A   1      30.166  28.271  22.213  1.00  0.00     0.021 A 
ATOM     23  C   UNL A   1      28.568  27.240  23.708  1.00  0.00     0.021 A 
ATOM     24  C   UNL A   1      31.049  27.212  22.429  1.00  0.00     0.010 A 
ATOM     25  C   UNL A   1      29.469  26.189  23.934  1.00  0.00     0.010 A 
BRANCH  21  26
ATOM     26  S   UNL A   1      27.840  29.651  22.525  1.00  0.00     0.175 S 
ATOM     27  C   UNL A   1      28.445  31.029  23.456  1.00  0.00     0.163 C 
ATOM     28  O   UNL A   1      26.545  29.283  23.060  1.00  0.00    -0.224 OA
ATOM     29  O   UNL A   1      28.004  29.989  21.121  1.00  0.00    -0.224 OA
ENDBRANCH  21  26
ENDBRANCH  14  20
ENDBRANCH   8  13
ENDBRANCH   4   7
ENDBRANCH   2   3
ENDBRANCH   1   2
BRANCH   1  30
ATOM     30  C   UNL A   1      33.335  33.589  27.452  1.00  0.00     0.118 C 
BRANCH  30  31
ATOM     31  N   UNL A   1      32.929  34.601  28.421  1.00  0.00    -0.352 N 
ATOM     32  C   UNL A   1      33.327  34.789  29.721  1.00  0.00     0.251 C 
ATOM     33  H   UNL A   1      32.266  35.249  28.091  1.00  0.00     0.163 HD
ATOM     34  O   UNL A   1      32.674  35.533  30.447  1.00  0.00    -0.269 OA
BRANCH  32  35
ATOM     35  C   UNL A   1      34.528  34.104  30.247  1.00  0.00     0.039 A 
ATOM     36  C   UNL A   1      35.791  34.549  29.846  1.00  0.00     0.014 A 
ATOM     37  C   UNL A   1      34.413  33.000  31.094  1.00  0.00     0.014 A 
ATOM     38  C   UNL A   1      36.937  33.920  30.337  1.00  0.00     0.010 A 
ATOM     39  C   UNL A   1      35.554  32.426  31.646  1.00  0.00     0.010 A 
ATOM     40  C   UNL A   1      36.828  32.872  31.266  1.00  0.00    -0.014 A 
BRANCH  40  41
ATOM     41  C   UNL A   1      38.031  32.232  31.859  1.00  0.00     0.031 A 
ATOM     42  C   UNL A   1      38.733  31.119  31.130  1.00  0.00     0.074 A 
ATOM     43  C   UNL A   1      38.428  32.590  33.096  1.00  0.00     0.049 A 
ATOM     44  N   UNL A   1      39.742  30.385  31.522  1.00  0.00    -0.248 NA
ATOM     45  C   UNL A   1      38.217  30.762  29.798  1.00  0.00     0.031 C 
ATOM     46  C   UNL A   1      37.780  33.604  33.932  1.00  0.00     0.029 A 
ATOM     47  N   UNL A   1      39.451  32.118  33.880  1.00  0.00    -0.354 N 
ATOM     48  C   UNL A   1      39.953  29.456  30.510  1.00  0.00     0.074 A 
ATOM     49  C   UNL A   1      38.949  29.700  29.498  1.00  0.00     0.031 C 
ATOM     50  C   UNL A   1      38.421  33.678  35.109  1.00  0.00     0.029 A 
ATOM     51  C   UNL A   1      39.499  32.696  35.128  1.00  0.00     0.049 A 
ATOM     52  H   UNL A   1      40.090  31.433  33.578  1.00  0.00     0.167 HD
ATOM     53  C   UNL A   1      40.914  28.505  30.417  1.00  0.00     0.034 A 
ATOM     54  C   UNL A   1      40.311  32.451  36.175  1.00  0.00     0.034 A 
ATOM     55  C   UNL A   1      41.933  28.296  31.409  1.00  0.00     0.049 A 
ATOM     56  C   UNL A   1      41.391  31.414  36.032  1.00  0.00     0.074 A 
ATOM     57  C   UNL A   1      43.005  27.422  31.370  1.00  0.00     0.029 A 
ATOM     58  N   UNL A   1      42.005  28.962  32.623  1.00  0.00    -0.354 N 
ATOM     59  N   UNL A   1      41.672  30.652  35.003  1.00  0.00    -0.248 NA
ATOM     60  C   UNL A   1      42.290  31.227  37.181  1.00  0.00     0.031 C 
ATOM     61  C   UNL A   1      43.706  27.537  32.575  1.00  0.00     0.029 A 
ATOM     62  C   UNL A   1      43.094  28.511  33.348  1.00  0.00     0.049 A 
ATOM     63  H   UNL A   1      41.372  29.655  32.925  1.00  0.00     0.167 HD
ATOM     64  C   UNL A   1      42.801  29.926  35.363  1.00  0.00     0.074 A 
ATOM     65  C   UNL A   1      43.162  30.351  36.699  1.00  0.00     0.031 C 
ATOM     66  C   UNL A   1      43.472  28.984  34.655  1.00  0.00     0.034 A 
BRANCH  53  67
ATOM     67  C   UNL A   1      40.935  27.646  29.179  1.00  0.00     0.023 A 
ATOM     68  C   UNL A   1      40.045  26.557  29.068  1.00  0.00     0.012 A 
ATOM     69  C   UNL A   1      41.789  27.949  28.101  1.00  0.00     0.148 A 
ATOM     70  C   UNL A   1      40.032  25.762  27.924  1.00  0.00     0.002 A 
ATOM     71  C   UNL A   1      41.737  27.182  26.943  1.00  0.00     0.091 A 
ATOM     72  F   UNL A   1      42.642  28.976  28.229  1.00  0.00    -0.205 F 
ATOM     73  C   UNL A   1      40.869  26.080  26.858  1.00  0.00     0.022 A 
BRANCH  71  74
ATOM     74  S   UNL A   1      42.713  27.558  25.483  1.00  0.00     0.127 S 
ATOM     75  O   UNL A   1      42.437  26.397  24.637  1.00  0.00    -0.237 OA
ATOM     76  O   UNL A   1      42.106  28.806  25.021  1.00  0.00    -0.237 OA
ATOM     77  O   UNL A   1      44.090  27.683  25.940  1.00  0.00    -0.744 OA
ENDBRANCH  71  74
ENDBRANCH  53  67
BRANCH  54  78
ATOM     78  C   UNL A   1      40.170  33.245  37.429  1.00  0.00     0.023 A 
ATOM     79  C   UNL A   1      39.185  32.885  38.370  1.00  0.00     0.012 A 
ATOM     80  C   UNL A   1      41.022  34.330  37.710  1.00  0.00     0.148 A 
ATOM     81  C   UNL A   1      39.027  33.612  39.549  1.00  0.00     0.002 A 
ATOM     82  C   UNL A   1      40.898  35.015  38.913  1.00  0.00     0.091 A 
ATOM     83  F   UNL A   1      41.949  34.662  36.800  1.00  0.00    -0.205 F 
ATOM     84  C   UNL A   1      39.888  34.670  39.826  1.00  0.00     0.022 A 
BRANCH  82  85
ATOM     85  S   UNL A   1      42.050  36.299  39.416  1.00  0.00     0.127 S 
ATOM     86  O   UNL A   1      43.303  35.556  39.510  1.00  0.00    -0.237 OA
ATOM     87  O   UNL A   1      41.969  37.233  38.291  1.00  0.00    -0.237 OA
ATOM     88  O   UNL A   1      41.530  36.826  40.669  1.00  0.00    -0.744 OA
ENDBRANCH  82  85
ENDBRANCH  54  78
BRANCH  66  89
ATOM     89  C   UNL A   1      44.698  28.376  35.284  1.00  0.00     0.023 A 
ATOM     90  C   UNL A   1      45.953  28.995  35.125  1.00  0.00     0.012 A 
ATOM     91  C   UNL A   1      44.589  27.233  36.100  1.00  0.00     0.148 A 
ATOM     92  C   UNL A   1      47.086  28.469  35.745  1.00  0.00     0.002 A 
ATOM     93  C   UNL A   1      45.711  26.745  36.757  1.00  0.00     0.091 A 
ATOM     94  F   UNL A   1      43.388  26.648  36.223  1.00  0.00    -0.205 F 
ATOM     95  C   UNL A   1      46.963  27.353  36.570  1.00  0.00     0.022 A 
BRANCH  93  96
ATOM     96  S   UNL A   1      45.630  25.376  37.917  1.00  0.00     0.127 S 
ATOM     97  O   UNL A   1      44.663  25.872  38.895  1.00  0.00    -0.237 OA
ATOM     98  O   UNL A   1      45.141  24.285  37.074  1.00  0.00    -0.237 OA
ATOM     99  O   UNL A   1      46.986  25.193  38.418  1.00  0.00    -0.744 OA
ENDBRANCH  93  96
ENDBRANCH  66  89
ENDBRANCH  40  41
ENDBRANCH  32  35
ENDBRANCH  30  31
ENDBRANCH   1  30
TORSDOF 16
ENDMDL
MODEL 3
REMARK VINA RESULT:     -11.8      6.407     10.143
REMARK SMILES CS(=O)(=O)c1ccc(-c2cc(Cl)cnc2-c2ccc(C(=O)NCCCNC(=O)c3ccc(-c4c5nc(c(-c6cccc(S(=O)(=O)[O-])c6F)c6ccc([nH]6)c(-c6cccc(S(=O)(=O)[O-])c6F)c6nc(c(-c7cccc(S(=O)(=O)[O-])c7F)c7ccc4[nH]7)C=C6)C=C5)cc3)nc2)cc1
REMARK SMILES IDX 24 1 23 2 22 3 20 4 21 5 19 7 16 8 17 9 93 10 18 11 92 12
REMARK SMILES IDX 15 13 9 14 10 15 11 16 14 17 12 18 13 19 8 20 5 21 6 22
REMARK SMILES IDX 95 23 7 24 94 25 2 26 1 27 3 28 4 29 25 30 26 31 27 32 28 34
REMARK SMILES IDX 29 35 30 36 91 37 31 38 90 39 32 40 33 41 34 42 84 43 35 44
REMARK SMILES IDX 89 45 83 46 85 47 36 48 88 49 82 50 81 51 37 53 69 54 49 55
REMARK SMILES IDX 68 56 50 57 53 58 67 59 86 60 51 61 52 62 66 64 87 65 54 66
REMARK SMILES IDX 38 67 39 68 47 69 40 70 42 71 48 72 41 73 43 74 44 75 45 76
REMARK SMILES IDX 46 77 70 78 71 79 79 80 72 81 74 82 80 83 73 84 75 85 76 86
REMARK SMILES IDX 77 87 78 88 55 89 56 90 64 91 57 92 59 93 65 94 58 95 60 96
REMARK SMILES IDX 61 97 62 98 63 99
REMARK H PARENT 22 6 26 33 85 52 53 63
REMARK Flexibility Score: inf
ROOT
ATOM      1  C   UNL A   1      32.143  32.997  27.329  1.00  0.00     0.042 C 
ENDROOT
BRANCH   1   2
ATOM      2  C   UNL A   1      32.462  31.567  26.896  1.00  0.00     0.118 C 
BRANCH   2   3
ATOM      3  N   UNL A   1      33.571  31.020  27.654  1.00  0.00    -0.351 N 
ATOM      4  C   UNL A   1      34.232  29.813  27.611  1.00  0.00     0.269 C 
ATOM      5  O   UNL A   1      35.201  29.697  28.366  1.00  0.00    -0.268 OA
ATOM      6  H   UNL A   1      33.919  31.636  28.339  1.00  0.00     0.163 HD
BRANCH   4   7
ATOM      7  C   UNL A   1      33.864  28.686  26.680  1.00  0.00     0.128 A 
ATOM      8  C   UNL A   1      33.167  26.457  25.184  1.00  0.00     0.019 A 
ATOM      9  C   UNL A   1      34.021  27.421  24.649  1.00  0.00     0.014 A 
ATOM     10  C   UNL A   1      32.640  26.722  26.442  1.00  0.00     0.122 A 
ATOM     11  C   UNL A   1      34.349  28.558  25.386  1.00  0.00     0.035 A 
ATOM     12  N   UNL A   1      32.990  27.784  27.205  1.00  0.00    -0.250 NA
BRANCH   8  13
ATOM     13  C   UNL A   1      32.880  25.218  24.463  1.00  0.00     0.080 A 
ATOM     14  C   UNL A   1      31.707  25.043  23.694  1.00  0.00     0.010 A 
ATOM     15  C   UNL A   1      31.471  23.755  23.184  1.00  0.00     0.033 A 
ATOM     16  C   UNL A   1      32.380  22.729  23.425  1.00  0.00     0.060 A 
ATOM     17  N   UNL A   1      33.791  24.233  24.673  1.00  0.00    -0.254 NA
ATOM     18  Cl  UNL A   1      32.091  21.148  22.823  1.00  0.00    -0.083 Cl
ATOM     19  C   UNL A   1      33.520  23.014  24.155  1.00  0.00     0.132 A 
BRANCH  14  20
ATOM     20  C   UNL A   1      30.758  26.141  23.412  1.00  0.00    -0.016 A 
ATOM     21  C   UNL A   1      28.978  28.268  22.905  1.00  0.00     0.067 A 
ATOM     22  C   UNL A   1      30.253  28.276  22.339  1.00  0.00     0.021 A 
ATOM     23  C   UNL A   1      28.577  27.208  23.718  1.00  0.00     0.021 A 
ATOM     24  C   UNL A   1      31.126  27.214  22.580  1.00  0.00     0.010 A 
ATOM     25  C   UNL A   1      29.467  26.153  23.969  1.00  0.00     0.010 A 
BRANCH  21  26
ATOM     26  S   UNL A   1      27.909  29.645  22.553  1.00  0.00     0.175 S 
ATOM     27  C   UNL A   1      28.572  31.052  23.396  1.00  0.00     0.163 C 
ATOM     28  O   UNL A   1      26.626  29.329  23.150  1.00  0.00    -0.224 OA
ATOM     29  O   UNL A   1      28.029  29.912  21.130  1.00  0.00    -0.224 OA
ENDBRANCH  21  26
ENDBRANCH  14  20
ENDBRANCH   8  13
ENDBRANCH   4   7
ENDBRANCH   2   3
ENDBRANCH   1   2
BRANCH   1  30
ATOM     30  C   UNL A   1      33.362  33.758  27.844  1.00  0.00     0.118 C 
BRANCH  30  31
ATOM     31  N   UNL A   1      33.007  34.693  28.905  1.00  0.00    -0.352 N 
ATOM     32  C   UNL A   1      33.412  34.736  30.216  1.00  0.00     0.251 C 
ATOM     33  H   UNL A   1      32.379  35.403  28.640  1.00  0.00     0.163 HD
ATOM     34  O   UNL A   1      32.796  35.442  31.011  1.00  0.00    -0.269 OA
BRANCH  32  35
ATOM     35  C   UNL A   1      34.574  33.944  30.671  1.00  0.00     0.039 A 
ATOM     36  C   UNL A   1      35.857  34.332  30.274  1.00  0.00     0.014 A 
ATOM     37  C   UNL A   1      34.401  32.795  31.447  1.00  0.00     0.014 A 
ATOM     38  C   UNL A   1      36.967  33.601  30.700  1.00  0.00     0.010 A 
ATOM     39  C   UNL A   1      35.512  32.114  31.937  1.00  0.00     0.010 A 
ATOM     40  C   UNL A   1      36.806  32.503  31.560  1.00  0.00    -0.014 A 
BRANCH  40  41
ATOM     41  C   UNL A   1      37.974  31.750  32.085  1.00  0.00     0.031 A 
ATOM     42  C   UNL A   1      38.603  32.145  33.395  1.00  0.00     0.074 A 
ATOM     43  C   UNL A   1      38.526  30.777  31.334  1.00  0.00     0.049 A 
ATOM     44  N   UNL A   1      39.673  31.665  33.972  1.00  0.00    -0.248 NA
ATOM     45  C   UNL A   1      37.963  33.242  34.139  1.00  0.00     0.031 C 
ATOM     46  C   UNL A   1      38.050  30.357  30.013  1.00  0.00     0.029 A 
ATOM     47  N   UNL A   1      39.625  29.986  31.558  1.00  0.00    -0.354 N 
ATOM     48  C   UNL A   1      39.860  32.425  35.120  1.00  0.00     0.074 A 
ATOM     49  C   UNL A   1      38.809  33.418  35.144  1.00  0.00     0.031 C 
ATOM     50  C   UNL A   1      38.852  29.387  29.546  1.00  0.00     0.029 A 
ATOM     51  C   UNL A   1      39.917  29.141  30.512  1.00  0.00     0.049 A 
ATOM     52  H   UNL A   1      40.154  30.021  32.386  1.00  0.00     0.167 HD
ATOM     53  C   UNL A   1      40.803  32.291  36.084  1.00  0.00     0.034 A 
ATOM     54  C   UNL A   1      40.936  28.276  30.344  1.00  0.00     0.034 A 
ATOM     55  C   UNL A   1      41.820  31.275  36.073  1.00  0.00     0.049 A 
ATOM     56  C   UNL A   1      41.949  28.122  31.445  1.00  0.00     0.074 A 
ATOM     57  C   UNL A   1      42.767  30.996  37.043  1.00  0.00     0.029 A 
ATOM     58  N   UNL A   1      42.031  30.376  35.039  1.00  0.00    -0.354 N 
ATOM     59  N   UNL A   1      42.017  28.744  32.597  1.00  0.00    -0.248 NA
ATOM     60  C   UNL A   1      43.007  27.121  31.240  1.00  0.00     0.031 C 
ATOM     61  C   UNL A   1      43.570  29.948  36.581  1.00  0.00     0.029 A 
ATOM     62  C   UNL A   1      43.099  29.549  35.340  1.00  0.00     0.049 A 
ATOM     63  H   UNL A   1      41.498  30.333  34.212  1.00  0.00     0.167 HD
ATOM     64  C   UNL A   1      43.096  28.184  33.270  1.00  0.00     0.074 A 
ATOM     65  C   UNL A   1      43.643  27.161  32.404  1.00  0.00     0.031 C 
ATOM     66  C   UNL A   1      43.597  28.498  34.490  1.00  0.00     0.034 A 
BRANCH  53  67
ATOM     67  C   UNL A   1      40.753  33.240  37.254  1.00  0.00     0.023 A 
ATOM     68  C   UNL A   1      39.882  32.975  38.331  1.00  0.00     0.012 A 
ATOM     69  C   UNL A   1      41.607  34.358  37.317  1.00  0.00     0.148 A 
ATOM     70  C   UNL A   1      39.835  33.828  39.433  1.00  0.00     0.002 A 
ATOM     71  C   UNL A   1      41.589  35.177  38.440  1.00  0.00     0.091 A 
ATOM     72  F   UNL A   1      42.416  34.606  36.276  1.00  0.00    -0.205 F 
ATOM     73  C   UNL A   1      40.694  34.921  39.493  1.00  0.00     0.022 A 
BRANCH  71  74
ATOM     74  S   UNL A   1      42.714  36.560  38.653  1.00  0.00     0.127 S 
ATOM     75  O   UNL A   1      43.958  35.877  39.007  1.00  0.00    -0.237 OA
ATOM     76  O   UNL A   1      42.710  37.167  37.322  1.00  0.00    -0.237 OA
ATOM     77  O   UNL A   1      42.138  37.390  39.702  1.00  0.00    -0.744 OA
ENDBRANCH  71  74
ENDBRANCH  53  67
BRANCH  54  78
ATOM     78  C   UNL A   1      41.012  27.445  29.109  1.00  0.00     0.023 A 
ATOM     79  C   UNL A   1      40.188  26.309  28.986  1.00  0.00     0.012 A 
ATOM     80  C   UNL A   1      41.869  27.788  28.045  1.00  0.00     0.148 A 
ATOM     81  C   UNL A   1      40.241  25.511  27.843  1.00  0.00     0.002 A 
ATOM     82  C   UNL A   1      41.875  27.022  26.885  1.00  0.00     0.091 A 
ATOM     83  F   UNL A   1      42.651  28.869  28.182  1.00  0.00    -0.205 F 
ATOM     84  C   UNL A   1      41.077  25.871  26.790  1.00  0.00     0.022 A 
BRANCH  82  85
ATOM     85  S   UNL A   1      42.814  27.488  25.426  1.00  0.00     0.127 S 
ATOM     86  O   UNL A   1      44.155  27.660  25.975  1.00  0.00    -0.237 OA
ATOM     87  O   UNL A   1      42.642  26.313  24.570  1.00  0.00    -0.237 OA
ATOM     88  O   UNL A   1      42.177  28.695  24.918  1.00  0.00    -0.744 OA
ENDBRANCH  82  85
ENDBRANCH  54  78
BRANCH  66  89
ATOM     89  C   UNL A   1      44.768  27.696  34.994  1.00  0.00     0.023 A 
ATOM     90  C   UNL A   1      46.076  28.199  34.863  1.00  0.00     0.012 A 
ATOM     91  C   UNL A   1      44.559  26.478  35.671  1.00  0.00     0.148 A 
ATOM     92  C   UNL A   1      47.162  27.487  35.372  1.00  0.00     0.002 A 
ATOM     93  C   UNL A   1      45.639  25.800  36.221  1.00  0.00     0.091 A 
ATOM     94  F   UNL A   1      43.306  26.008  35.768  1.00  0.00    -0.205 F 
ATOM     95  C   UNL A   1      46.943  26.296  36.062  1.00  0.00     0.022 A 
BRANCH  93  96
ATOM     96  S   UNL A   1      45.443  24.314  37.211  1.00  0.00     0.127 S 
ATOM     97  O   UNL A   1      44.647  24.808  38.333  1.00  0.00    -0.237 OA
ATOM     98  O   UNL A   1      44.725  23.426  36.296  1.00  0.00    -0.237 OA
ATOM     99  O   UNL A   1      46.790  23.875  37.548  1.00  0.00    -0.744 OA
ENDBRANCH  93  96
ENDBRANCH  66  89
ENDBRANCH  40  41
ENDBRANCH  32  35
ENDBRANCH  30  31
ENDBRANCH   1  30
TORSDOF 16
ENDMDL
