MODEL 1
REMARK VINA RESULT:     -10.6      0.000      0.000
REMARK SMILES C[C@@H]([NH2+]C1(CO)CCCCC1)[C@@H](C)C(=O)NCCCNC(=O)c1ccc(-c2c3nc(c(-c4cccc(S(=O)(=O)[O-])c4F)c4ccc([nH]4)c(-c4cccc(S(=O)(=O)[O-])c4F)c4nc(c(-c5cccc(S(=O)(=O)[O-])c5F)c5ccc2[nH]5)C=C4)C=C3)cc1
REMARK SMILES IDX 17 1 16 2 14 3 15 4 12 6 13 7 2 8 1 9 3 10 4 13 7 14 11 15
REMARK SMILES IDX 8 16 10 17 9 18 5 19 6 20 18 22 19 23 20 24 21 25 22 27
REMARK SMILES IDX 23 28 24 29 85 30 25 31 84 32 26 33 27 34 28 35 78 36 29 37
REMARK SMILES IDX 83 38 77 39 79 40 30 41 82 42 76 43 75 44 31 46 63 47 43 48
REMARK SMILES IDX 62 49 44 50 47 51 61 52 80 53 45 54 46 55 60 57 81 58 48 59
REMARK SMILES IDX 32 60 33 61 41 62 34 63 36 64 42 65 35 66 37 67 38 68 39 69
REMARK SMILES IDX 40 70 64 71 65 72 73 73 66 74 68 75 74 76 67 77 69 78 70 79
REMARK SMILES IDX 71 80 72 81 49 82 50 83 58 84 51 85 53 86 59 87 52 88 54 89
REMARK SMILES IDX 55 90 56 91 57 92
REMARK H PARENT 16 5 3 11 3 12 6 21 20 26 79 45 47 56
REMARK Flexibility Score: inf
ROOT
ATOM      1  C   UNL A   1      31.608  28.017  26.850  1.00  0.00     0.117 C 
ENDROOT
BRANCH   1   2
ATOM      2  N   UNL A   1      30.935  26.734  26.928  1.00  0.00    -0.356 N 
ATOM      3  C   UNL A   1      31.032  25.605  26.182  1.00  0.00     0.228 C 
ATOM      4  O   UNL A   1      30.714  24.558  26.759  1.00  0.00    -0.275 OA
ATOM      5  H   UNL A   1      30.283  26.670  27.663  1.00  0.00     0.163 HD
BRANCH   3   6
ATOM      6  C   UNL A   1      31.564  25.551  24.750  1.00  0.00     0.133 C 
ATOM      7  C   UNL A   1      30.379  25.122  23.870  1.00  0.00     0.024 C 
BRANCH   6   8
ATOM      8  C   UNL A   1      32.911  24.786  24.538  1.00  0.00     0.192 C 
ATOM      9  C   UNL A   1      33.919  25.662  23.756  1.00  0.00     0.076 C 
BRANCH   8  10
ATOM     10  N   UNL A   1      33.643  24.393  25.784  1.00  0.00    -0.337 N 
ATOM     11  H   UNL A   1      33.039  24.635  26.569  1.00  0.00     0.347 HD
ATOM     12  H   UNL A   1      34.530  24.891  25.699  1.00  0.00     0.347 HD
BRANCH  10  13
ATOM     13  C   UNL A   1      34.072  22.969  25.992  1.00  0.00     0.120 C 
ATOM     14  C   UNL A   1      33.374  21.986  25.039  1.00  0.00     0.071 C 
ATOM     15  C   UNL A   1      35.595  22.899  25.656  1.00  0.00     0.071 C 
ATOM     16  C   UNL A   1      33.875  20.550  25.173  1.00  0.00     0.007 C 
ATOM     17  C   UNL A   1      36.176  21.485  25.784  1.00  0.00     0.007 C 
ATOM     18  C   UNL A   1      35.385  20.441  24.999  1.00  0.00     0.001 C 
BRANCH  13  19
ATOM     19  C   UNL A   1      33.897  22.576  27.486  1.00  0.00     0.224 C 
BRANCH  19  20
ATOM     20  O   UNL A   1      32.510  22.447  27.805  1.00  0.00    -0.390 OA
ATOM     21  H   UNL A   1      32.282  21.507  27.877  1.00  0.00     0.210 HD
ENDBRANCH  19  20
ENDBRANCH  13  19
ENDBRANCH  10  13
ENDBRANCH   8  10
ENDBRANCH   6   8
ENDBRANCH   3   6
ENDBRANCH   1   2
BRANCH   1  22
ATOM     22  C   UNL A   1      33.133  27.962  26.914  1.00  0.00     0.042 C 
BRANCH  22  23
ATOM     23  C   UNL A   1      33.884  29.063  26.168  1.00  0.00     0.118 C 
BRANCH  23  24
ATOM     24  N   UNL A   1      33.723  30.376  26.764  1.00  0.00    -0.352 N 
ATOM     25  C   UNL A   1      34.475  31.006  27.726  1.00  0.00     0.251 C 
ATOM     26  H   UNL A   1      32.957  30.895  26.428  1.00  0.00     0.163 HD
ATOM     27  O   UNL A   1      34.078  32.072  28.190  1.00  0.00    -0.269 OA
BRANCH  25  28
ATOM     28  C   UNL A   1      35.734  30.410  28.231  1.00  0.00     0.039 A 
ATOM     29  C   UNL A   1      36.888  30.543  27.451  1.00  0.00     0.014 A 
ATOM     30  C   UNL A   1      35.787  29.687  29.426  1.00  0.00     0.014 A 
ATOM     31  C   UNL A   1      38.096  29.995  27.889  1.00  0.00     0.010 A 
ATOM     32  C   UNL A   1      37.009  29.196  29.894  1.00  0.00     0.010 A 
ATOM     33  C   UNL A   1      38.176  29.336  29.127  1.00  0.00    -0.014 A 
BRANCH  33  34
ATOM     34  C   UNL A   1      39.476  28.807  29.624  1.00  0.00     0.031 A 
ATOM     35  C   UNL A   1      40.219  29.501  30.734  1.00  0.00     0.074 A 
ATOM     36  C   UNL A   1      40.027  27.730  29.029  1.00  0.00     0.049 A 
ATOM     37  N   UNL A   1      41.361  29.182  31.285  1.00  0.00    -0.248 NA
ATOM     38  C   UNL A   1      39.611  30.724  31.281  1.00  0.00     0.031 C 
ATOM     39  C   UNL A   1      39.455  27.013  27.887  1.00  0.00     0.029 A 
ATOM     40  N   UNL A   1      41.201  27.065  29.283  1.00  0.00    -0.354 N 
ATOM     41  C   UNL A   1      41.630  30.179  32.215  1.00  0.00     0.074 A 
ATOM     42  C   UNL A   1      40.542  31.130  32.136  1.00  0.00     0.031 C 
ATOM     43  C   UNL A   1      40.281  26.015  27.536  1.00  0.00     0.029 A 
ATOM     44  C   UNL A   1      41.451  26.031  28.411  1.00  0.00     0.049 A 
ATOM     45  H   UNL A   1      41.808  27.306  30.019  1.00  0.00     0.167 HD
ATOM     46  C   UNL A   1      42.672  30.283  33.075  1.00  0.00     0.034 A 
ATOM     47  C   UNL A   1      42.502  25.193  28.317  1.00  0.00     0.034 A 
ATOM     48  C   UNL A   1      43.731  29.316  33.187  1.00  0.00     0.049 A 
ATOM     49  C   UNL A   1      43.618  25.294  29.321  1.00  0.00     0.074 A 
ATOM     50  C   UNL A   1      44.767  29.277  34.105  1.00  0.00     0.029 A 
ATOM     51  N   UNL A   1      43.902  28.226  32.348  1.00  0.00    -0.354 N 
ATOM     52  N   UNL A   1      43.756  26.134  30.316  1.00  0.00    -0.248 NA
ATOM     53  C   UNL A   1      44.702  24.305  29.215  1.00  0.00     0.031 C 
ATOM     54  C   UNL A   1      45.579  28.179  33.803  1.00  0.00     0.029 A 
ATOM     55  C   UNL A   1      45.035  27.518  32.713  1.00  0.00     0.049 A 
ATOM     56  H   UNL A   1      43.305  27.990  31.602  1.00  0.00     0.167 HD
ATOM     57  C   UNL A   1      44.924  25.761  30.973  1.00  0.00     0.074 A 
ATOM     58  C   UNL A   1      45.441  24.602  30.275  1.00  0.00     0.031 C 
ATOM     59  C   UNL A   1      45.521  26.338  32.045  1.00  0.00     0.034 A 
BRANCH  46  60
ATOM     60  C   UNL A   1      42.696  31.469  34.007  1.00  0.00     0.023 A 
ATOM     61  C   UNL A   1      43.258  32.686  33.572  1.00  0.00     0.012 A 
ATOM     62  C   UNL A   1      42.109  31.398  35.286  1.00  0.00     0.148 A 
ATOM     63  C   UNL A   1      43.270  33.803  34.407  1.00  0.00     0.002 A 
ATOM     64  C   UNL A   1      42.085  32.528  36.095  1.00  0.00     0.091 A 
ATOM     65  F   UNL A   1      41.597  30.227  35.692  1.00  0.00    -0.205 F 
ATOM     66  C   UNL A   1      42.674  33.726  35.663  1.00  0.00     0.022 A 
BRANCH  64  67
ATOM     67  S   UNL A   1      41.270  32.551  37.697  1.00  0.00     0.127 S 
ATOM     68  O   UNL A   1      41.336  33.971  38.041  1.00  0.00    -0.237 OA
ATOM     69  O   UNL A   1      39.930  32.065  37.370  1.00  0.00    -0.237 OA
ATOM     70  O   UNL A   1      42.045  31.662  38.552  1.00  0.00    -0.744 OA
ENDBRANCH  64  67
ENDBRANCH  46  60
BRANCH  47  71
ATOM     71  C   UNL A   1      42.514  24.144  27.258  1.00  0.00     0.023 A 
ATOM     72  C   UNL A   1      43.320  24.315  26.117  1.00  0.00     0.012 A 
ATOM     73  C   UNL A   1      41.768  22.957  27.402  1.00  0.00     0.148 A 
ATOM     74  C   UNL A   1      43.363  23.335  25.125  1.00  0.00     0.002 A 
ATOM     75  C   UNL A   1      41.862  21.960  26.439  1.00  0.00     0.091 A 
ATOM     76  F   UNL A   1      40.996  22.820  28.490  1.00  0.00    -0.205 F 
ATOM     77  C   UNL A   1      42.645  22.154  25.291  1.00  0.00     0.022 A 
BRANCH  75  78
ATOM     78  S   UNL A   1      41.087  20.352  26.646  1.00  0.00     0.127 S 
ATOM     79  O   UNL A   1      41.033  20.233  28.104  1.00  0.00    -0.237 OA
ATOM     80  O   UNL A   1      39.789  20.558  25.998  1.00  0.00    -0.237 OA
ATOM     81  O   UNL A   1      41.953  19.406  25.964  1.00  0.00    -0.744 OA
ENDBRANCH  75  78
ENDBRANCH  47  71
BRANCH  59  82
ATOM     82  C   UNL A   1      46.795  25.717  32.557  1.00  0.00     0.023 A 
ATOM     83  C   UNL A   1      48.038  26.170  32.070  1.00  0.00     0.012 A 
ATOM     84  C   UNL A   1      46.766  24.739  33.571  1.00  0.00     0.148 A 
ATOM     85  C   UNL A   1      49.229  25.638  32.563  1.00  0.00     0.002 A 
ATOM     86  C   UNL A   1      47.957  24.248  34.091  1.00  0.00     0.091 A 
ATOM     87  F   UNL A   1      45.573  24.306  34.006  1.00  0.00    -0.205 F 
ATOM     88  C   UNL A   1      49.189  24.687  33.580  1.00  0.00     0.022 A 
BRANCH  86  89
ATOM     89  S   UNL A   1      48.003  23.093  35.466  1.00  0.00     0.127 S 
ATOM     90  O   UNL A   1      47.368  21.910  34.884  1.00  0.00    -0.237 OA
ATOM     91  O   UNL A   1      49.438  22.955  35.711  1.00  0.00    -0.237 OA
ATOM     92  O   UNL A   1      47.264  23.730  36.549  1.00  0.00    -0.744 OA
ENDBRANCH  86  89
ENDBRANCH  59  82
ENDBRANCH  33  34
ENDBRANCH  25  28
ENDBRANCH  23  24
ENDBRANCH  22  23
ENDBRANCH   1  22
TORSDOF 18
ENDMDL
MODEL 2
REMARK VINA RESULT:     -10.5      5.394      8.759
REMARK SMILES C[C@@H]([NH2+]C1(CO)CCCCC1)[C@@H](C)C(=O)NCCCNC(=O)c1ccc(-c2c3nc(c(-c4cccc(S(=O)(=O)[O-])c4F)c4ccc([nH]4)c(-c4cccc(S(=O)(=O)[O-])c4F)c4nc(c(-c5cccc(S(=O)(=O)[O-])c5F)c5ccc2[nH]5)C=C4)C=C3)cc1
REMARK SMILES IDX 17 1 16 2 14 3 15 4 12 6 13 7 2 8 1 9 3 10 4 13 7 14 11 15
REMARK SMILES IDX 8 16 10 17 9 18 5 19 6 20 18 22 19 23 20 24 21 25 22 27
REMARK SMILES IDX 23 28 24 29 85 30 25 31 84 32 26 33 27 34 28 35 78 36 29 37
REMARK SMILES IDX 83 38 77 39 79 40 30 41 82 42 76 43 75 44 31 46 63 47 43 48
REMARK SMILES IDX 62 49 44 50 47 51 61 52 80 53 45 54 46 55 60 57 81 58 48 59
REMARK SMILES IDX 32 60 33 61 41 62 34 63 36 64 42 65 35 66 37 67 38 68 39 69
REMARK SMILES IDX 40 70 64 71 65 72 73 73 66 74 68 75 74 76 67 77 69 78 70 79
REMARK SMILES IDX 71 80 72 81 49 82 50 83 58 84 51 85 53 86 59 87 52 88 54 89
REMARK SMILES IDX 55 90 56 91 57 92
REMARK H PARENT 16 5 3 11 3 12 6 21 20 26 79 45 47 56
REMARK Flexibility Score: inf
ROOT
ATOM      1  C   UNL A   1      36.425  19.939  25.001  1.00  0.00     0.117 C 
ENDROOT
BRANCH   1   2
ATOM      2  N   UNL A   1      36.259  21.269  25.557  1.00  0.00    -0.356 N 
ATOM      3  C   UNL A   1      35.311  22.223  25.376  1.00  0.00     0.228 C 
ATOM      4  O   UNL A   1      35.174  23.020  26.312  1.00  0.00    -0.275 OA
ATOM      5  H   UNL A   1      36.971  21.530  26.185  1.00  0.00     0.163 HD
BRANCH   3   6
ATOM      6  C   UNL A   1      34.390  22.314  24.159  1.00  0.00     0.133 C 
ATOM      7  C   UNL A   1      34.754  23.626  23.446  1.00  0.00     0.024 C 
BRANCH   6   8
ATOM      8  C   UNL A   1      32.871  22.053  24.418  1.00  0.00     0.192 C 
ATOM      9  C   UNL A   1      32.557  20.539  24.342  1.00  0.00     0.076 C 
BRANCH   8  10
ATOM     10  N   UNL A   1      32.353  22.477  25.758  1.00  0.00    -0.337 N 
ATOM     11  H   UNL A   1      33.166  22.660  26.344  1.00  0.00     0.347 HD
ATOM     12  H   UNL A   1      31.742  21.704  26.025  1.00  0.00     0.347 HD
BRANCH  10  13
ATOM     13  C   UNL A   1      31.456  23.675  25.877  1.00  0.00     0.120 C 
ATOM     14  C   UNL A   1      32.203  24.944  26.317  1.00  0.00     0.071 C 
ATOM     15  C   UNL A   1      30.898  23.969  24.449  1.00  0.00     0.071 C 
ATOM     16  C   UNL A   1      31.323  26.190  26.345  1.00  0.00     0.007 C 
ATOM     17  C   UNL A   1      29.987  25.203  24.401  1.00  0.00     0.007 C 
ATOM     18  C   UNL A   1      30.632  26.445  25.011  1.00  0.00     0.001 C 
BRANCH  13  19
ATOM     19  C   UNL A   1      30.250  23.344  26.799  1.00  0.00     0.224 C 
BRANCH  19  20
ATOM     20  O   UNL A   1      29.672  22.092  26.427  1.00  0.00    -0.390 OA
ATOM     21  H   UNL A   1      30.350  21.533  26.017  1.00  0.00     0.210 HD
ENDBRANCH  19  20
ENDBRANCH  13  19
ENDBRANCH  10  13
ENDBRANCH   8  10
ENDBRANCH   6   8
ENDBRANCH   3   6
ENDBRANCH   1   2
BRANCH   1  22
ATOM     22  C   UNL A   1      37.867  19.523  24.717  1.00  0.00     0.042 C 
BRANCH  22  23
ATOM     23  C   UNL A   1      38.934  20.095  25.648  1.00  0.00     0.118 C 
BRANCH  23  24
ATOM     24  N   UNL A   1      40.034  19.182  25.893  1.00  0.00    -0.352 N 
ATOM     25  C   UNL A   1      41.337  19.446  26.239  1.00  0.00     0.251 C 
ATOM     26  H   UNL A   1      39.814  18.228  25.797  1.00  0.00     0.163 HD
ATOM     27  O   UNL A   1      42.147  18.522  26.263  1.00  0.00    -0.269 OA
BRANCH  25  28
ATOM     28  C   UNL A   1      41.787  20.823  26.553  1.00  0.00     0.039 A 
ATOM     29  C   UNL A   1      42.005  21.705  25.490  1.00  0.00     0.014 A 
ATOM     30  C   UNL A   1      42.043  21.240  27.862  1.00  0.00     0.014 A 
ATOM     31  C   UNL A   1      42.432  23.012  25.742  1.00  0.00     0.010 A 
ATOM     32  C   UNL A   1      42.406  22.566  28.116  1.00  0.00     0.010 A 
ATOM     33  C   UNL A   1      42.614  23.465  27.058  1.00  0.00    -0.014 A 
BRANCH  33  34
ATOM     34  C   UNL A   1      43.006  24.874  27.330  1.00  0.00     0.031 A 
ATOM     35  C   UNL A   1      42.032  25.843  27.945  1.00  0.00     0.074 A 
ATOM     36  C   UNL A   1      44.229  25.307  26.962  1.00  0.00     0.049 A 
ATOM     37  N   UNL A   1      42.204  27.105  28.245  1.00  0.00    -0.248 NA
ATOM     38  C   UNL A   1      40.683  25.336  28.241  1.00  0.00     0.031 C 
ATOM     39  C   UNL A   1      45.240  24.496  26.280  1.00  0.00     0.029 A 
ATOM     40  N   UNL A   1      44.821  26.540  27.085  1.00  0.00    -0.354 N 
ATOM     41  C   UNL A   1      40.981  27.554  28.729  1.00  0.00     0.074 A 
ATOM     42  C   UNL A   1      40.066  26.435  28.659  1.00  0.00     0.031 C 
ATOM     43  C   UNL A   1      46.322  25.254  26.039  1.00  0.00     0.029 A 
ATOM     44  C   UNL A   1      46.078  26.608  26.529  1.00  0.00     0.049 A 
ATOM     45  H   UNL A   1      44.387  27.305  27.528  1.00  0.00     0.167 HD
ATOM     46  C   UNL A   1      40.653  28.777  29.212  1.00  0.00     0.034 A 
ATOM     47  C   UNL A   1      46.936  27.641  26.417  1.00  0.00     0.034 A 
ATOM     48  C   UNL A   1      41.572  29.877  29.326  1.00  0.00     0.049 A 
ATOM     49  C   UNL A   1      46.570  28.973  27.013  1.00  0.00     0.074 A 
ATOM     50  C   UNL A   1      41.363  31.117  29.906  1.00  0.00     0.029 A 
ATOM     51  N   UNL A   1      42.870  29.880  28.837  1.00  0.00    -0.354 N 
ATOM     52  N   UNL A   1      45.472  29.321  27.638  1.00  0.00    -0.248 NA
ATOM     53  C   UNL A   1      47.577  30.042  26.927  1.00  0.00     0.031 C 
ATOM     54  C   UNL A   1      42.526  31.879  29.744  1.00  0.00     0.029 A 
ATOM     55  C   UNL A   1      43.468  31.105  29.085  1.00  0.00     0.049 A 
ATOM     56  H   UNL A   1      43.302  29.123  28.380  1.00  0.00     0.167 HD
ATOM     57  C   UNL A   1      45.665  30.637  28.044  1.00  0.00     0.074 A 
ATOM     58  C   UNL A   1      46.996  31.015  27.616  1.00  0.00     0.031 C 
ATOM     59  C   UNL A   1      44.809  31.461  28.698  1.00  0.00     0.034 A 
BRANCH  46  60
ATOM     60  C   UNL A   1      39.243  28.980  29.706  1.00  0.00     0.023 A 
ATOM     61  C   UNL A   1      38.890  28.556  31.003  1.00  0.00     0.012 A 
ATOM     62  C   UNL A   1      38.286  29.646  28.913  1.00  0.00     0.148 A 
ATOM     63  C   UNL A   1      37.599  28.755  31.491  1.00  0.00     0.002 A 
ATOM     64  C   UNL A   1      37.014  29.880  29.423  1.00  0.00     0.091 A 
ATOM     65  F   UNL A   1      38.631  30.024  27.675  1.00  0.00    -0.205 F 
ATOM     66  C   UNL A   1      36.666  29.426  30.705  1.00  0.00     0.022 A 
BRANCH  64  67
ATOM     67  S   UNL A   1      35.767  30.806  28.519  1.00  0.00     0.127 S 
ATOM     68  O   UNL A   1      34.954  31.346  29.607  1.00  0.00    -0.237 OA
ATOM     69  O   UNL A   1      36.574  31.800  27.810  1.00  0.00    -0.237 OA
ATOM     70  O   UNL A   1      35.100  29.841  27.657  1.00  0.00    -0.744 OA
ENDBRANCH  64  67
ENDBRANCH  46  60
BRANCH  47  71
ATOM     71  C   UNL A   1      48.256  27.432  25.757  1.00  0.00     0.023 A 
ATOM     72  C   UNL A   1      49.364  27.030  26.526  1.00  0.00     0.012 A 
ATOM     73  C   UNL A   1      48.404  27.581  24.363  1.00  0.00     0.148 A 
ATOM     74  C   UNL A   1      50.602  26.806  25.926  1.00  0.00     0.002 A 
ATOM     75  C   UNL A   1      49.625  27.299  23.764  1.00  0.00     0.091 A 
ATOM     76  F   UNL A   1      47.340  27.977  23.650  1.00  0.00    -0.205 F 
ATOM     77  C   UNL A   1      50.731  26.927  24.545  1.00  0.00     0.022 A 
BRANCH  75  78
ATOM     78  S   UNL A   1      49.837  27.288  21.979  1.00  0.00     0.127 S 
ATOM     79  O   UNL A   1      51.217  26.819  21.845  1.00  0.00    -0.237 OA
ATOM     80  O   UNL A   1      48.817  26.324  21.561  1.00  0.00    -0.237 OA
ATOM     81  O   UNL A   1      49.586  28.651  21.544  1.00  0.00    -0.744 OA
ENDBRANCH  75  78
ENDBRANCH  47  71
BRANCH  59  82
ATOM     82  C   UNL A   1      45.284  32.855  29.017  1.00  0.00     0.023 A 
ATOM     83  C   UNL A   1      45.890  33.120  30.262  1.00  0.00     0.012 A 
ATOM     84  C   UNL A   1      45.198  33.884  28.059  1.00  0.00     0.148 A 
ATOM     85  C   UNL A   1      46.374  34.394  30.559  1.00  0.00     0.002 A 
ATOM     86  C   UNL A   1      45.725  35.138  28.343  1.00  0.00     0.091 A 
ATOM     87  F   UNL A   1      44.600  33.619  26.888  1.00  0.00    -0.205 F 
ATOM     88  C   UNL A   1      46.302  35.398  29.597  1.00  0.00     0.022 A 
BRANCH  86  89
ATOM     89  S   UNL A   1      45.763  36.464  27.131  1.00  0.00     0.127 S 
ATOM     90  O   UNL A   1      46.758  37.368  27.708  1.00  0.00    -0.237 OA
ATOM     91  O   UNL A   1      46.200  35.768  25.921  1.00  0.00    -0.237 OA
ATOM     92  O   UNL A   1      44.404  36.987  27.068  1.00  0.00    -0.744 OA
ENDBRANCH  86  89
ENDBRANCH  59  82
ENDBRANCH  33  34
ENDBRANCH  25  28
ENDBRANCH  23  24
ENDBRANCH  22  23
ENDBRANCH   1  22
TORSDOF 18
ENDMDL
MODEL 3
REMARK VINA RESULT:     -10.1      2.077      2.814
REMARK SMILES C[C@@H]([NH2+]C1(CO)CCCCC1)[C@@H](C)C(=O)NCCCNC(=O)c1ccc(-c2c3nc(c(-c4cccc(S(=O)(=O)[O-])c4F)c4ccc([nH]4)c(-c4cccc(S(=O)(=O)[O-])c4F)c4nc(c(-c5cccc(S(=O)(=O)[O-])c5F)c5ccc2[nH]5)C=C4)C=C3)cc1
REMARK SMILES IDX 17 1 16 2 14 3 15 4 12 6 13 7 2 8 1 9 3 10 4 13 7 14 11 15
REMARK SMILES IDX 8 16 10 17 9 18 5 19 6 20 18 22 19 23 20 24 21 25 22 27
REMARK SMILES IDX 23 28 24 29 85 30 25 31 84 32 26 33 27 34 28 35 78 36 29 37
REMARK SMILES IDX 83 38 77 39 79 40 30 41 82 42 76 43 75 44 31 46 63 47 43 48
REMARK SMILES IDX 62 49 44 50 47 51 61 52 80 53 45 54 46 55 60 57 81 58 48 59
REMARK SMILES IDX 32 60 33 61 41 62 34 63 36 64 42 65 35 66 37 67 38 68 39 69
REMARK SMILES IDX 40 70 64 71 65 72 73 73 66 74 68 75 74 76 67 77 69 78 70 79
REMARK SMILES IDX 71 80 72 81 49 82 50 83 58 84 51 85 53 86 59 87 52 88 54 89
REMARK SMILES IDX 55 90 56 91 57 92
REMARK H PARENT 16 5 3 11 3 12 6 21 20 26 79 45 47 56
REMARK Flexibility Score: inf
ROOT
ATOM      1  C   UNL A   1      31.965  27.589  26.907  1.00  0.00     0.117 C 
ENDROOT
BRANCH   1   2
ATOM      2  N   UNL A   1      31.058  26.456  26.879  1.00  0.00    -0.356 N 
ATOM      3  C   UNL A   1      30.965  25.381  26.057  1.00  0.00     0.228 C 
ATOM      4  O   UNL A   1      30.433  24.380  26.550  1.00  0.00    -0.275 OA
ATOM      5  H   UNL A   1      30.381  26.470  27.593  1.00  0.00     0.163 HD
BRANCH   3   6
ATOM      6  C   UNL A   1      31.527  25.321  24.637  1.00  0.00     0.133 C 
ATOM      7  C   UNL A   1      30.427  24.691  23.768  1.00  0.00     0.024 C 
BRANCH   6   8
ATOM      8  C   UNL A   1      32.966  24.732  24.484  1.00  0.00     0.192 C 
ATOM      9  C   UNL A   1      33.943  25.808  23.952  1.00  0.00     0.076 C 
BRANCH   8  10
ATOM     10  N   UNL A   1      33.607  24.234  25.744  1.00  0.00    -0.337 N 
ATOM     11  H   UNL A   1      33.036  24.572  26.518  1.00  0.00     0.347 HD
ATOM     12  H   UNL A   1      34.562  24.586  25.673  1.00  0.00     0.347 HD
BRANCH  10  13
ATOM     13  C   UNL A   1      33.802  22.762  25.962  1.00  0.00     0.120 C 
ATOM     14  C   UNL A   1      32.694  21.907  25.327  1.00  0.00     0.071 C 
ATOM     15  C   UNL A   1      35.129  22.367  25.239  1.00  0.00     0.071 C 
ATOM     16  C   UNL A   1      32.935  20.405  25.456  1.00  0.00     0.007 C 
ATOM     17  C   UNL A   1      35.446  20.869  25.340  1.00  0.00     0.007 C 
ATOM     18  C   UNL A   1      34.287  19.982  24.896  1.00  0.00     0.001 C 
BRANCH  13  19
ATOM     19  C   UNL A   1      33.984  22.471  27.478  1.00  0.00     0.224 C 
BRANCH  19  20
ATOM     20  O   UNL A   1      32.775  21.945  28.029  1.00  0.00    -0.390 OA
ATOM     21  H   UNL A   1      32.636  22.316  28.915  1.00  0.00     0.210 HD
ENDBRANCH  19  20
ENDBRANCH  13  19
ENDBRANCH  10  13
ENDBRANCH   8  10
ENDBRANCH   6   8
ENDBRANCH   3   6
ENDBRANCH   1   2
BRANCH   1  22
ATOM     22  C   UNL A   1      31.721  28.649  25.836  1.00  0.00     0.042 C 
BRANCH  22  23
ATOM     23  C   UNL A   1      32.836  29.672  25.627  1.00  0.00     0.118 C 
BRANCH  23  24
ATOM     24  N   UNL A   1      32.462  31.019  26.014  1.00  0.00    -0.352 N 
ATOM     25  C   UNL A   1      32.991  31.836  26.984  1.00  0.00     0.251 C 
ATOM     26  H   UNL A   1      31.716  31.407  25.504  1.00  0.00     0.163 HD
ATOM     27  O   UNL A   1      32.429  32.898  27.240  1.00  0.00    -0.269 OA
BRANCH  25  28
ATOM     28  C   UNL A   1      34.203  31.447  27.742  1.00  0.00     0.039 A 
ATOM     29  C   UNL A   1      34.290  30.137  28.222  1.00  0.00     0.014 A 
ATOM     30  C   UNL A   1      35.225  32.358  28.028  1.00  0.00     0.014 A 
ATOM     31  C   UNL A   1      35.416  29.728  28.943  1.00  0.00     0.010 A 
ATOM     32  C   UNL A   1      36.378  31.931  28.692  1.00  0.00     0.010 A 
ATOM     33  C   UNL A   1      36.483  30.614  29.166  1.00  0.00    -0.014 A 
BRANCH  33  34
ATOM     34  C   UNL A   1      37.709  30.162  29.879  1.00  0.00     0.031 A 
ATOM     35  C   UNL A   1      38.020  30.650  31.268  1.00  0.00     0.074 A 
ATOM     36  C   UNL A   1      38.586  29.355  29.247  1.00  0.00     0.049 A 
ATOM     37  N   UNL A   1      39.042  30.364  32.033  1.00  0.00    -0.248 NA
ATOM     38  C   UNL A   1      37.071  31.601  31.869  1.00  0.00     0.031 C 
ATOM     39  C   UNL A   1      38.451  28.877  27.870  1.00  0.00     0.029 A 
ATOM     40  N   UNL A   1      39.776  28.817  29.670  1.00  0.00    -0.354 N 
ATOM     41  C   UNL A   1      38.883  31.123  33.186  1.00  0.00     0.074 A 
ATOM     42  C   UNL A   1      37.677  31.903  33.011  1.00  0.00     0.031 C 
ATOM     43  C   UNL A   1      39.517  28.122  27.560  1.00  0.00     0.029 A 
ATOM     44  C   UNL A   1      40.423  28.079  28.705  1.00  0.00     0.049 A 
ATOM     45  H   UNL A   1      40.135  28.946  30.578  1.00  0.00     0.167 HD
ATOM     46  C   UNL A   1      39.653  31.150  34.300  1.00  0.00     0.034 A 
ATOM     47  C   UNL A   1      41.612  27.445  28.731  1.00  0.00     0.034 A 
ATOM     48  C   UNL A   1      40.827  30.342  34.495  1.00  0.00     0.049 A 
ATOM     49  C   UNL A   1      42.420  27.444  30.000  1.00  0.00     0.074 A 
ATOM     50  C   UNL A   1      41.607  30.217  35.632  1.00  0.00     0.029 A 
ATOM     51  N   UNL A   1      41.402  29.531  33.527  1.00  0.00    -0.354 N 
ATOM     52  N   UNL A   1      42.153  28.018  31.147  1.00  0.00    -0.248 NA
ATOM     53  C   UNL A   1      43.672  26.672  29.992  1.00  0.00     0.031 C 
ATOM     54  C   UNL A   1      42.669  29.353  35.343  1.00  0.00     0.029 A 
ATOM     55  C   UNL A   1      42.536  28.918  34.034  1.00  0.00     0.049 A 
ATOM     56  H   UNL A   1      41.055  29.411  32.614  1.00  0.00     0.167 HD
ATOM     57  C   UNL A   1      43.185  27.657  32.005  1.00  0.00     0.074 A 
ATOM     58  C   UNL A   1      44.070  26.793  31.251  1.00  0.00     0.031 C 
ATOM     59  C   UNL A   1      43.388  28.022  33.295  1.00  0.00     0.034 A 
BRANCH  46  60
ATOM     60  C   UNL A   1      39.224  32.055  35.427  1.00  0.00     0.023 A 
ATOM     61  C   UNL A   1      38.353  31.564  36.421  1.00  0.00     0.012 A 
ATOM     62  C   UNL A   1      39.728  33.366  35.538  1.00  0.00     0.148 A 
ATOM     63  C   UNL A   1      37.961  32.374  37.487  1.00  0.00     0.002 A 
ATOM     64  C   UNL A   1      39.368  34.152  36.626  1.00  0.00     0.091 A 
ATOM     65  F   UNL A   1      40.538  33.824  34.573  1.00  0.00    -0.205 F 
ATOM     66  C   UNL A   1      38.477  33.663  37.594  1.00  0.00     0.022 A 
BRANCH  64  67
ATOM     67  S   UNL A   1      40.041  35.797  36.894  1.00  0.00     0.127 S 
ATOM     68  O   UNL A   1      39.375  36.189  38.135  1.00  0.00    -0.237 OA
ATOM     69  O   UNL A   1      41.473  35.526  37.030  1.00  0.00    -0.237 OA
ATOM     70  O   UNL A   1      39.681  36.573  35.716  1.00  0.00    -0.744 OA
ENDBRANCH  64  67
ENDBRANCH  46  60
BRANCH  47  71
ATOM     71  C   UNL A   1      42.078  26.708  27.522  1.00  0.00     0.023 A 
ATOM     72  C   UNL A   1      42.790  27.393  26.519  1.00  0.00     0.012 A 
ATOM     73  C   UNL A   1      41.862  25.322  27.388  1.00  0.00     0.148 A 
ATOM     74  C   UNL A   1      43.255  26.718  25.391  1.00  0.00     0.002 A 
ATOM     75  C   UNL A   1      42.379  24.645  26.290  1.00  0.00     0.091 A 
ATOM     76  F   UNL A   1      41.171  24.691  28.348  1.00  0.00    -0.205 F 
ATOM     77  C   UNL A   1      43.061  25.344  25.282  1.00  0.00     0.022 A 
BRANCH  75  78
ATOM     78  S   UNL A   1      42.302  22.855  26.145  1.00  0.00     0.127 S 
ATOM     79  O   UNL A   1      43.059  22.428  27.323  1.00  0.00    -0.237 OA
ATOM     80  O   UNL A   1      40.860  22.609  26.219  1.00  0.00    -0.237 OA
ATOM     81  O   UNL A   1      42.898  22.537  24.859  1.00  0.00    -0.744 OA
ENDBRANCH  75  78
ENDBRANCH  47  71
BRANCH  59  82
ATOM     82  C   UNL A   1      44.605  27.475  33.995  1.00  0.00     0.023 A 
ATOM     83  C   UNL A   1      45.832  28.163  33.906  1.00  0.00     0.012 A 
ATOM     84  C   UNL A   1      44.517  26.323  34.801  1.00  0.00     0.148 A 
ATOM     85  C   UNL A   1      46.959  27.695  34.583  1.00  0.00     0.002 A 
ATOM     86  C   UNL A   1      45.631  25.889  35.511  1.00  0.00     0.091 A 
ATOM     87  F   UNL A   1      43.347  25.670  34.858  1.00  0.00    -0.205 F 
ATOM     88  C   UNL A   1      46.855  26.567  35.393  1.00  0.00     0.022 A 
BRANCH  86  89
ATOM     89  S   UNL A   1      45.566  24.504  36.652  1.00  0.00     0.127 S 
ATOM     90  O   UNL A   1      45.188  23.404  35.764  1.00  0.00    -0.237 OA
ATOM     91  O   UNL A   1      46.941  24.442  37.147  1.00  0.00    -0.237 OA
ATOM     92  O   UNL A   1      44.577  24.862  37.661  1.00  0.00    -0.744 OA
ENDBRANCH  86  89
ENDBRANCH  59  82
ENDBRANCH  33  34
ENDBRANCH  25  28
ENDBRANCH  23  24
ENDBRANCH  22  23
ENDBRANCH   1  22
TORSDOF 18
ENDMDL
