MODEL 1
REMARK VINA RESULT:     -12.4      0.000      0.000
REMARK SMILES CCN(C(=O)Cc1c(C(=O)NCCCNC(=O)c2ccc(-c3c4nc(c(-c5cccc(S(=O)(=O)[O-])c5F)c5ccc([nH]5)c(-c5cccc(S(=O)(=O)[O-])c5F)c5nc(c(-c6cccc(S(=O)(=O)[O-])c6F)c6ccc3[nH]6)C=C5)C=C4)cc2)[nH]c2ccccc12)c1cccc(C)c1
REMARK SMILES IDX 12 1 11 2 9 3 10 4 8 6 7 7 87 8 81 9 82 10 86 11 83 13 85 14
REMARK SMILES IDX 84 15 6 16 4 17 5 18 3 19 2 20 1 21 88 22 89 23 94 24 90 25
REMARK SMILES IDX 92 26 91 27 93 28 13 29 14 30 15 31 16 32 17 34 18 35 19 36
REMARK SMILES IDX 80 37 20 38 79 39 21 40 22 41 23 42 73 43 24 44 78 45 72 46
REMARK SMILES IDX 74 47 25 48 77 49 71 50 70 51 26 53 58 54 38 55 57 56 39 57
REMARK SMILES IDX 42 58 56 59 75 60 40 61 41 62 55 64 76 65 43 66 27 67 28 68
REMARK SMILES IDX 36 69 29 70 31 71 37 72 30 73 32 74 33 75 34 76 35 77 59 78
REMARK SMILES IDX 60 79 68 80 61 81 63 82 69 83 62 84 64 85 65 86 66 87 67 88
REMARK SMILES IDX 44 89 45 90 53 91 46 92 48 93 54 94 47 95 49 96 50 97 51 98
REMARK SMILES IDX 52 99
REMARK H PARENT 11 5 81 12 15 33 74 52 42 63
REMARK Flexibility Score: inf
ROOT
ATOM      1  C   UNL A   1      35.436  20.844  25.313  1.00  0.00     0.118 C 
ENDROOT
BRANCH   1   2
ATOM      2  N   UNL A   1      34.270  19.985  25.304  1.00  0.00    -0.351 N 
ATOM      3  C   UNL A   1      32.917  20.188  25.214  1.00  0.00     0.268 C 
ATOM      4  O   UNL A   1      32.245  19.158  25.208  1.00  0.00    -0.268 OA
ATOM      5  H   UNL A   1      34.504  19.031  25.382  1.00  0.00     0.163 HD
BRANCH   3   6
ATOM      6  C   UNL A   1      32.308  21.512  25.178  1.00  0.00     0.109 A 
ATOM      7  C   UNL A   1      32.196  22.368  24.070  1.00  0.00    -0.000 A 
ATOM      8  C   UNL A   1      31.248  23.389  24.425  1.00  0.00     0.004 A 
ATOM      9  N   UNL A   1      31.682  22.169  26.212  1.00  0.00    -0.350 N 
ATOM     10  C   UNL A   1      31.122  23.351  25.805  1.00  0.00     0.046 A 
ATOM     11  C   UNL A   1      30.552  24.399  23.727  1.00  0.00     0.010 A 
ATOM     12  H   UNL A   1      31.641  21.830  27.135  1.00  0.00     0.167 HD
ATOM     13  C   UNL A   1      30.489  24.354  26.545  1.00  0.00     0.027 A 
ATOM     14  C   UNL A   1      29.891  25.405  24.443  1.00  0.00     0.001 A 
ATOM     15  C   UNL A   1      29.901  25.404  25.836  1.00  0.00     0.002 A 
BRANCH   7  16
ATOM     16  C   UNL A   1      32.881  22.242  22.729  1.00  0.00     0.139 C 
BRANCH  16  17
ATOM     17  C   UNL A   1      33.629  23.521  22.291  1.00  0.00     0.231 C 
ATOM     18  O   UNL A   1      33.481  23.931  21.132  1.00  0.00    -0.274 OA
BRANCH  17  19
ATOM     19  N   UNL A   1      34.445  24.202  23.215  1.00  0.00    -0.312 N 
BRANCH  19  20
ATOM     20  C   UNL A   1      35.702  23.671  23.774  1.00  0.00     0.122 C 
ATOM     21  C   UNL A   1      36.640  23.007  22.773  1.00  0.00     0.028 C 
ENDBRANCH  19  20
BRANCH  19  22
ATOM     22  C   UNL A   1      33.957  25.369  23.891  1.00  0.00     0.044 A 
ATOM     23  C   UNL A   1      33.979  25.459  25.285  1.00  0.00     0.026 A 
ATOM     24  C   UNL A   1      33.608  26.506  23.151  1.00  0.00     0.029 A 
ATOM     25  C   UNL A   1      33.733  26.686  25.911  1.00  0.00     0.002 A 
ATOM     26  C   UNL A   1      33.402  27.747  23.761  1.00  0.00    -0.049 A 
ATOM     27  C   UNL A   1      33.466  27.829  25.152  1.00  0.00     0.003 A 
ATOM     28  C   UNL A   1      33.121  28.958  22.922  1.00  0.00     0.044 C 
ENDBRANCH  19  22
ENDBRANCH  17  19
ENDBRANCH  16  17
ENDBRANCH   7  16
ENDBRANCH   3   6
ENDBRANCH   1   2
BRANCH   1  29
ATOM     29  C   UNL A   1      36.727  20.074  25.034  1.00  0.00     0.042 C 
BRANCH  29  30
ATOM     30  C   UNL A   1      37.995  20.863  25.377  1.00  0.00     0.118 C 
BRANCH  30  31
ATOM     31  N   UNL A   1      39.035  20.009  25.944  1.00  0.00    -0.352 N 
ATOM     32  C   UNL A   1      40.283  20.314  26.425  1.00  0.00     0.251 C 
ATOM     33  H   UNL A   1      38.801  19.054  25.989  1.00  0.00     0.163 HD
ATOM     34  O   UNL A   1      41.090  19.406  26.610  1.00  0.00    -0.269 OA
BRANCH  32  35
ATOM     35  C   UNL A   1      40.661  21.710  26.728  1.00  0.00     0.039 A 
ATOM     36  C   UNL A   1      41.281  21.995  27.948  1.00  0.00     0.014 A 
ATOM     37  C   UNL A   1      40.357  22.746  25.842  1.00  0.00     0.014 A 
ATOM     38  C   UNL A   1      41.643  23.309  28.254  1.00  0.00     0.010 A 
ATOM     39  C   UNL A   1      40.791  24.041  26.111  1.00  0.00     0.010 A 
ATOM     40  C   UNL A   1      41.430  24.339  27.323  1.00  0.00    -0.014 A 
BRANCH  40  41
ATOM     41  C   UNL A   1      41.883  25.727  27.592  1.00  0.00     0.031 A 
ATOM     42  C   UNL A   1      43.280  26.159  27.233  1.00  0.00     0.074 A 
ATOM     43  C   UNL A   1      41.065  26.572  28.250  1.00  0.00     0.049 A 
ATOM     44  N   UNL A   1      43.869  27.306  27.450  1.00  0.00    -0.248 NA
ATOM     45  C   UNL A   1      44.136  25.162  26.569  1.00  0.00     0.031 C 
ATOM     46  C   UNL A   1      39.720  26.243  28.729  1.00  0.00     0.029 A 
ATOM     47  N   UNL A   1      41.256  27.869  28.660  1.00  0.00    -0.354 N 
ATOM     48  C   UNL A   1      45.172  27.156  26.991  1.00  0.00     0.074 A 
ATOM     49  C   UNL A   1      45.297  25.797  26.513  1.00  0.00     0.031 C 
ATOM     50  C   UNL A   1      39.209  27.307  29.368  1.00  0.00     0.029 A 
ATOM     51  C   UNL A   1      40.199  28.379  29.379  1.00  0.00     0.049 A 
ATOM     52  H   UNL A   1      42.070  28.383  28.459  1.00  0.00     0.167 HD
ATOM     53  C   UNL A   1      46.169  28.075  26.949  1.00  0.00     0.034 A 
ATOM     54  C   UNL A   1      40.049  29.568  29.993  1.00  0.00     0.034 A 
ATOM     55  C   UNL A   1      46.027  29.433  27.397  1.00  0.00     0.049 A 
ATOM     56  C   UNL A   1      41.153  30.584  29.896  1.00  0.00     0.074 A 
ATOM     57  C   UNL A   1      46.941  30.468  27.304  1.00  0.00     0.029 A 
ATOM     58  N   UNL A   1      44.909  29.944  28.037  1.00  0.00    -0.354 N 
ATOM     59  N   UNL A   1      42.320  30.480  29.306  1.00  0.00    -0.248 NA
ATOM     60  C   UNL A   1      40.908  31.894  30.514  1.00  0.00     0.031 C 
ATOM     61  C   UNL A   1      46.390  31.594  27.926  1.00  0.00     0.029 A 
ATOM     62  C   UNL A   1      45.115  31.273  28.365  1.00  0.00     0.049 A 
ATOM     63  H   UNL A   1      44.088  29.436  28.231  1.00  0.00     0.167 HD
ATOM     64  C   UNL A   1      42.933  31.719  29.453  1.00  0.00     0.074 A 
ATOM     65  C   UNL A   1      42.000  32.563  30.169  1.00  0.00     0.031 C 
ATOM     66  C   UNL A   1      44.162  32.116  29.042  1.00  0.00     0.034 A 
BRANCH  53  67
ATOM     67  C   UNL A   1      47.492  27.644  26.369  1.00  0.00     0.023 A 
ATOM     68  C   UNL A   1      48.504  27.148  27.218  1.00  0.00     0.012 A 
ATOM     69  C   UNL A   1      47.720  27.684  24.979  1.00  0.00     0.148 A 
ATOM     70  C   UNL A   1      49.734  26.744  26.701  1.00  0.00     0.002 A 
ATOM     71  C   UNL A   1      48.930  27.232  24.466  1.00  0.00     0.091 A 
ATOM     72  F   UNL A   1      46.757  28.175  24.186  1.00  0.00    -0.205 F 
ATOM     73  C   UNL A   1      49.943  26.777  25.325  1.00  0.00     0.022 A 
BRANCH  71  74
ATOM     74  S   UNL A   1      49.265  27.152  22.703  1.00  0.00     0.127 S 
ATOM     75  O   UNL A   1      48.401  26.047  22.289  1.00  0.00    -0.237 OA
ATOM     76  O   UNL A   1      48.827  28.471  22.246  1.00  0.00    -0.237 OA
ATOM     77  O   UNL A   1      50.695  26.909  22.576  1.00  0.00    -0.744 OA
ENDBRANCH  71  74
ENDBRANCH  53  67
BRANCH  54  78
ATOM     78  C   UNL A   1      38.783  29.872  30.716  1.00  0.00     0.023 A 
ATOM     79  C   UNL A   1      38.574  29.349  32.007  1.00  0.00     0.012 A 
ATOM     80  C   UNL A   1      37.805  30.711  30.148  1.00  0.00     0.148 A 
ATOM     81  C   UNL A   1      37.399  29.630  32.705  1.00  0.00     0.002 A 
ATOM     82  C   UNL A   1      36.664  31.036  30.873  1.00  0.00     0.091 A 
ATOM     83  F   UNL A   1      38.022  31.195  28.917  1.00  0.00    -0.205 F 
ATOM     84  C   UNL A   1      36.450  30.479  32.144  1.00  0.00     0.022 A 
BRANCH  82  85
ATOM     85  S   UNL A   1      35.458  32.231  30.289  1.00  0.00     0.127 S 
ATOM     86  O   UNL A   1      34.928  31.566  29.102  1.00  0.00    -0.237 OA
ATOM     87  O   UNL A   1      34.535  32.303  31.422  1.00  0.00    -0.237 OA
ATOM     88  O   UNL A   1      36.204  33.459  30.045  1.00  0.00    -0.744 OA
ENDBRANCH  82  85
ENDBRANCH  54  78
BRANCH  66  89
ATOM     89  C   UNL A   1      44.564  33.543  29.317  1.00  0.00     0.023 A 
ATOM     90  C   UNL A   1      45.141  33.889  30.554  1.00  0.00     0.012 A 
ATOM     91  C   UNL A   1      44.432  34.526  28.315  1.00  0.00     0.148 A 
ATOM     92  C   UNL A   1      45.548  35.199  30.803  1.00  0.00     0.002 A 
ATOM     93  C   UNL A   1      44.890  35.816  28.551  1.00  0.00     0.091 A 
ATOM     94  F   UNL A   1      43.865  34.180  27.150  1.00  0.00    -0.205 F 
ATOM     95  C   UNL A   1      45.435  36.158  29.800  1.00  0.00     0.022 A 
BRANCH  93  96
ATOM     96  S   UNL A   1      44.877  37.091  27.285  1.00  0.00     0.127 S 
ATOM     97  O   UNL A   1      45.802  36.539  26.297  1.00  0.00    -0.237 OA
ATOM     98  O   UNL A   1      43.474  37.099  26.870  1.00  0.00    -0.237 OA
ATOM     99  O   UNL A   1      45.321  38.314  27.941  1.00  0.00    -0.744 OA
ENDBRANCH  93  96
ENDBRANCH  66  89
ENDBRANCH  40  41
ENDBRANCH  32  35
ENDBRANCH  30  31
ENDBRANCH  29  30
ENDBRANCH   1  29
TORSDOF 18
ENDMDL
MODEL 2
REMARK VINA RESULT:     -12.1      4.865      9.431
REMARK SMILES CCN(C(=O)Cc1c(C(=O)NCCCNC(=O)c2ccc(-c3c4nc(c(-c5cccc(S(=O)(=O)[O-])c5F)c5ccc([nH]5)c(-c5cccc(S(=O)(=O)[O-])c5F)c5nc(c(-c6cccc(S(=O)(=O)[O-])c6F)c6ccc3[nH]6)C=C5)C=C4)cc2)[nH]c2ccccc12)c1cccc(C)c1
REMARK SMILES IDX 12 1 11 2 9 3 10 4 8 6 7 7 87 8 81 9 82 10 86 11 83 13 85 14
REMARK SMILES IDX 84 15 6 16 4 17 5 18 3 19 2 20 1 21 88 22 89 23 94 24 90 25
REMARK SMILES IDX 92 26 91 27 93 28 13 29 14 30 15 31 16 32 17 34 18 35 19 36
REMARK SMILES IDX 80 37 20 38 79 39 21 40 22 41 23 42 73 43 24 44 78 45 72 46
REMARK SMILES IDX 74 47 25 48 77 49 71 50 70 51 26 53 58 54 38 55 57 56 39 57
REMARK SMILES IDX 42 58 56 59 75 60 40 61 41 62 55 64 76 65 43 66 27 67 28 68
REMARK SMILES IDX 36 69 29 70 31 71 37 72 30 73 32 74 33 75 34 76 35 77 59 78
REMARK SMILES IDX 60 79 68 80 61 81 63 82 69 83 62 84 64 85 65 86 66 87 67 88
REMARK SMILES IDX 44 89 45 90 53 91 46 92 48 93 54 94 47 95 49 96 50 97 51 98
REMARK SMILES IDX 52 99
REMARK H PARENT 11 5 81 12 15 33 74 52 42 63
REMARK Flexibility Score: inf
ROOT
ATOM      1  C   UNL A   1      31.670  26.918  25.925  1.00  0.00     0.118 C 
ENDROOT
BRANCH   1   2
ATOM      2  N   UNL A   1      31.135  25.709  26.517  1.00  0.00    -0.351 N 
ATOM      3  C   UNL A   1      31.561  24.410  26.621  1.00  0.00     0.268 C 
ATOM      4  O   UNL A   1      30.805  23.673  27.251  1.00  0.00    -0.268 OA
ATOM      5  H   UNL A   1      30.258  25.854  26.943  1.00  0.00     0.163 HD
BRANCH   3   6
ATOM      6  C   UNL A   1      32.783  23.917  25.998  1.00  0.00     0.109 A 
ATOM      7  C   UNL A   1      32.943  23.466  24.676  1.00  0.00    -0.000 A 
ATOM      8  C   UNL A   1      34.357  23.402  24.426  1.00  0.00     0.004 A 
ATOM      9  N   UNL A   1      34.034  23.837  26.565  1.00  0.00    -0.350 N 
ATOM     10  C   UNL A   1      34.982  23.432  25.663  1.00  0.00     0.046 A 
ATOM     11  C   UNL A   1      35.168  23.232  23.282  1.00  0.00     0.010 A 
ATOM     12  H   UNL A   1      34.225  24.046  27.508  1.00  0.00     0.167 HD
ATOM     13  C   UNL A   1      36.336  23.133  25.846  1.00  0.00     0.027 A 
ATOM     14  C   UNL A   1      36.531  22.952  23.437  1.00  0.00     0.001 A 
ATOM     15  C   UNL A   1      37.094  22.859  24.706  1.00  0.00     0.002 A 
BRANCH   7  16
ATOM     16  C   UNL A   1      31.863  23.151  23.668  1.00  0.00     0.139 C 
BRANCH  16  17
ATOM     17  C   UNL A   1      31.145  24.404  23.116  1.00  0.00     0.231 C 
ATOM     18  O   UNL A   1      30.011  24.673  23.535  1.00  0.00    -0.274 OA
BRANCH  17  19
ATOM     19  N   UNL A   1      31.793  25.218  22.169  1.00  0.00    -0.312 N 
BRANCH  19  20
ATOM     20  C   UNL A   1      32.696  24.720  21.113  1.00  0.00     0.122 C 
ATOM     21  C   UNL A   1      32.531  25.369  19.745  1.00  0.00     0.028 C 
ENDBRANCH  19  20
BRANCH  19  22
ATOM     22  C   UNL A   1      31.830  26.642  22.340  1.00  0.00     0.044 A 
ATOM     23  C   UNL A   1      30.655  27.395  22.379  1.00  0.00     0.026 A 
ATOM     24  C   UNL A   1      33.043  27.273  22.643  1.00  0.00     0.029 A 
ATOM     25  C   UNL A   1      30.694  28.732  22.790  1.00  0.00     0.002 A 
ATOM     26  C   UNL A   1      33.092  28.595  23.096  1.00  0.00    -0.049 A 
ATOM     27  C   UNL A   1      31.904  29.324  23.166  1.00  0.00     0.003 A 
ATOM     28  C   UNL A   1      34.403  29.203  23.497  1.00  0.00     0.044 C 
ENDBRANCH  19  22
ENDBRANCH  17  19
ENDBRANCH  16  17
ENDBRANCH   7  16
ENDBRANCH   3   6
ENDBRANCH   1   2
BRANCH   1  29
ATOM     29  C   UNL A   1      31.902  28.017  26.962  1.00  0.00     0.042 C 
BRANCH  29  30
ATOM     30  C   UNL A   1      33.360  28.480  27.045  1.00  0.00     0.118 C 
BRANCH  30  31
ATOM     31  N   UNL A   1      33.469  29.932  27.149  1.00  0.00    -0.352 N 
ATOM     32  C   UNL A   1      34.393  30.719  27.789  1.00  0.00     0.251 C 
ATOM     33  H   UNL A   1      32.762  30.431  26.681  1.00  0.00     0.163 HD
ATOM     34  O   UNL A   1      34.143  31.909  27.967  1.00  0.00    -0.269 OA
BRANCH  32  35
ATOM     35  C   UNL A   1      35.677  30.158  28.257  1.00  0.00     0.039 A 
ATOM     36  C   UNL A   1      36.784  30.194  27.403  1.00  0.00     0.014 A 
ATOM     37  C   UNL A   1      35.782  29.545  29.507  1.00  0.00     0.014 A 
ATOM     38  C   UNL A   1      38.006  29.666  27.826  1.00  0.00     0.010 A 
ATOM     39  C   UNL A   1      37.018  29.093  29.959  1.00  0.00     0.010 A 
ATOM     40  C   UNL A   1      38.141  29.139  29.121  1.00  0.00    -0.014 A 
BRANCH  40  41
ATOM     41  C   UNL A   1      39.451  28.649  29.620  1.00  0.00     0.031 A 
ATOM     42  C   UNL A   1      40.171  29.380  30.723  1.00  0.00     0.074 A 
ATOM     43  C   UNL A   1      40.038  27.598  29.013  1.00  0.00     0.049 A 
ATOM     44  N   UNL A   1      41.346  29.136  31.241  1.00  0.00    -0.248 NA
ATOM     45  C   UNL A   1      39.493  30.554  31.298  1.00  0.00     0.031 C 
ATOM     46  C   UNL A   1      39.480  26.861  27.877  1.00  0.00     0.029 A 
ATOM     47  N   UNL A   1      41.246  26.989  29.244  1.00  0.00    -0.354 N 
ATOM     48  C   UNL A   1      41.569  30.147  32.168  1.00  0.00     0.074 A 
ATOM     49  C   UNL A   1      40.420  31.025  32.119  1.00  0.00     0.031 C 
ATOM     50  C   UNL A   1      40.344  25.903  27.508  1.00  0.00     0.029 A 
ATOM     51  C   UNL A   1      41.531  25.979  28.354  1.00  0.00     0.049 A 
ATOM     52  H   UNL A   1      41.851  27.250  29.975  1.00  0.00     0.167 HD
ATOM     53  C   UNL A   1      42.623  30.317  33.004  1.00  0.00     0.034 A 
ATOM     54  C   UNL A   1      42.630  25.211  28.221  1.00  0.00     0.034 A 
ATOM     55  C   UNL A   1      43.746  29.423  33.070  1.00  0.00     0.049 A 
ATOM     56  C   UNL A   1      43.768  25.392  29.186  1.00  0.00     0.074 A 
ATOM     57  C   UNL A   1      44.814  29.448  33.950  1.00  0.00     0.029 A 
ATOM     58  N   UNL A   1      43.959  28.353  32.214  1.00  0.00    -0.354 N 
ATOM     59  N   UNL A   1      43.885  26.250  30.172  1.00  0.00    -0.248 NA
ATOM     60  C   UNL A   1      44.909  24.477  29.049  1.00  0.00     0.031 C 
ATOM     61  C   UNL A   1      45.694  28.417  33.599  1.00  0.00     0.029 A 
ATOM     62  C   UNL A   1      45.150  27.722  32.530  1.00  0.00     0.049 A 
ATOM     63  H   UNL A   1      43.352  28.081  31.489  1.00  0.00     0.167 HD
ATOM     64  C   UNL A   1      45.094  25.956  30.791  1.00  0.00     0.074 A 
ATOM     65  C   UNL A   1      45.662  24.828  30.083  1.00  0.00     0.031 C 
ATOM     66  C   UNL A   1      45.685  26.573  31.844  1.00  0.00     0.034 A 
BRANCH  53  67
ATOM     67  C   UNL A   1      42.593  31.502  33.936  1.00  0.00     0.023 A 
ATOM     68  C   UNL A   1      43.116  32.742  33.514  1.00  0.00     0.012 A 
ATOM     69  C   UNL A   1      42.003  31.403  35.212  1.00  0.00     0.148 A 
ATOM     70  C   UNL A   1      43.097  33.849  34.361  1.00  0.00     0.002 A 
ATOM     71  C   UNL A   1      41.942  32.524  36.031  1.00  0.00     0.091 A 
ATOM     72  F   UNL A   1      41.527  30.213  35.607  1.00  0.00    -0.205 F 
ATOM     73  C   UNL A   1      42.501  33.742  35.615  1.00  0.00     0.022 A 
BRANCH  71  74
ATOM     74  S   UNL A   1      41.119  32.512  37.628  1.00  0.00     0.127 S 
ATOM     75  O   UNL A   1      41.955  31.580  38.383  1.00  0.00    -0.237 OA
ATOM     76  O   UNL A   1      41.236  33.910  38.045  1.00  0.00    -0.237 OA
ATOM     77  O   UNL A   1      39.756  32.066  37.375  1.00  0.00    -0.744 OA
ENDBRANCH  71  74
ENDBRANCH  53  67
BRANCH  54  78
ATOM     78  C   UNL A   1      42.681  24.173  27.154  1.00  0.00     0.023 A 
ATOM     79  C   UNL A   1      43.405  24.422  25.972  1.00  0.00     0.012 A 
ATOM     80  C   UNL A   1      42.052  22.924  27.324  1.00  0.00     0.148 A 
ATOM     81  C   UNL A   1      43.473  23.459  24.965  1.00  0.00     0.002 A 
ATOM     82  C   UNL A   1      42.174  21.948  26.343  1.00  0.00     0.091 A 
ATOM     83  F   UNL A   1      41.364  22.709  28.455  1.00  0.00    -0.205 F 
ATOM     84  C   UNL A   1      42.868  22.220  25.154  1.00  0.00     0.022 A 
BRANCH  82  85
ATOM     85  S   UNL A   1      41.548  20.278  26.561  1.00  0.00     0.127 S 
ATOM     86  O   UNL A   1      42.186  19.881  27.813  1.00  0.00    -0.237 OA
ATOM     87  O   UNL A   1      40.106  20.509  26.648  1.00  0.00    -0.237 OA
ATOM     88  O   UNL A   1      41.967  19.541  25.376  1.00  0.00    -0.744 OA
ENDBRANCH  82  85
ENDBRANCH  54  78
BRANCH  66  89
ATOM     89  C   UNL A   1      47.001  26.020  32.329  1.00  0.00     0.023 A 
ATOM     90  C   UNL A   1      48.212  26.541  31.833  1.00  0.00     0.012 A 
ATOM     91  C   UNL A   1      47.032  25.031  33.332  1.00  0.00     0.148 A 
ATOM     92  C   UNL A   1      49.434  26.060  32.302  1.00  0.00     0.002 A 
ATOM     93  C   UNL A   1      48.252  24.597  33.834  1.00  0.00     0.091 A 
ATOM     94  F   UNL A   1      45.868  24.537  33.779  1.00  0.00    -0.205 F 
ATOM     95  C   UNL A   1      49.455  25.099  33.310  1.00  0.00     0.022 A 
BRANCH  93  96
ATOM     96  S   UNL A   1      48.375  23.436  35.200  1.00  0.00     0.127 S 
ATOM     97  O   UNL A   1      47.419  22.404  34.802  1.00  0.00    -0.237 OA
ATOM     98  O   UNL A   1      49.777  23.027  35.132  1.00  0.00    -0.237 OA
ATOM     99  O   UNL A   1      48.020  24.185  36.398  1.00  0.00    -0.744 OA
ENDBRANCH  93  96
ENDBRANCH  66  89
ENDBRANCH  40  41
ENDBRANCH  32  35
ENDBRANCH  30  31
ENDBRANCH  29  30
ENDBRANCH   1  29
TORSDOF 18
ENDMDL
MODEL 3
REMARK VINA RESULT:     -12.1      5.007      8.062
REMARK SMILES CCN(C(=O)Cc1c(C(=O)NCCCNC(=O)c2ccc(-c3c4nc(c(-c5cccc(S(=O)(=O)[O-])c5F)c5ccc([nH]5)c(-c5cccc(S(=O)(=O)[O-])c5F)c5nc(c(-c6cccc(S(=O)(=O)[O-])c6F)c6ccc3[nH]6)C=C5)C=C4)cc2)[nH]c2ccccc12)c1cccc(C)c1
REMARK SMILES IDX 12 1 11 2 9 3 10 4 8 6 7 7 87 8 81 9 82 10 86 11 83 13 85 14
REMARK SMILES IDX 84 15 6 16 4 17 5 18 3 19 2 20 1 21 88 22 89 23 94 24 90 25
REMARK SMILES IDX 92 26 91 27 93 28 13 29 14 30 15 31 16 32 17 34 18 35 19 36
REMARK SMILES IDX 80 37 20 38 79 39 21 40 22 41 23 42 73 43 24 44 78 45 72 46
REMARK SMILES IDX 74 47 25 48 77 49 71 50 70 51 26 53 58 54 38 55 57 56 39 57
REMARK SMILES IDX 42 58 56 59 75 60 40 61 41 62 55 64 76 65 43 66 27 67 28 68
REMARK SMILES IDX 36 69 29 70 31 71 37 72 30 73 32 74 33 75 34 76 35 77 59 78
REMARK SMILES IDX 60 79 68 80 61 81 63 82 69 83 62 84 64 85 65 86 66 87 67 88
REMARK SMILES IDX 44 89 45 90 53 91 46 92 48 93 54 94 47 95 49 96 50 97 51 98
REMARK SMILES IDX 52 99
REMARK H PARENT 11 5 81 12 15 33 74 52 42 63
REMARK Flexibility Score: inf
ROOT
ATOM      1  C   UNL A   1      32.098  27.355  23.835  1.00  0.00     0.118 C 
ENDROOT
BRANCH   1   2
ATOM      2  N   UNL A   1      31.594  26.733  25.043  1.00  0.00    -0.351 N 
ATOM      3  C   UNL A   1      32.018  25.714  25.857  1.00  0.00     0.268 C 
ATOM      4  O   UNL A   1      31.300  25.509  26.834  1.00  0.00    -0.268 OA
ATOM      5  H   UNL A   1      30.749  27.134  25.350  1.00  0.00     0.163 HD
BRANCH   3   6
ATOM      6  C   UNL A   1      33.193  24.900  25.573  1.00  0.00     0.109 A 
ATOM      7  C   UNL A   1      33.245  23.711  24.825  1.00  0.00    -0.000 A 
ATOM      8  C   UNL A   1      34.631  23.458  24.539  1.00  0.00     0.004 A 
ATOM      9  N   UNL A   1      34.494  25.156  25.942  1.00  0.00    -0.350 N 
ATOM     10  C   UNL A   1      35.367  24.243  25.413  1.00  0.00     0.046 A 
ATOM     11  C   UNL A   1      35.337  22.578  23.689  1.00  0.00     0.010 A 
ATOM     12  H   UNL A   1      34.764  25.907  26.517  1.00  0.00     0.167 HD
ATOM     13  C   UNL A   1      36.741  24.083  25.616  1.00  0.00     0.027 A 
ATOM     14  C   UNL A   1      36.717  22.416  23.856  1.00  0.00     0.001 A 
ATOM     15  C   UNL A   1      37.400  23.127  24.839  1.00  0.00     0.002 A 
BRANCH   7  16
ATOM     16  C   UNL A   1      32.088  22.865  24.350  1.00  0.00     0.139 C 
BRANCH  16  17
ATOM     17  C   UNL A   1      31.658  21.776  25.359  1.00  0.00     0.231 C 
ATOM     18  O   UNL A   1      30.550  21.870  25.902  1.00  0.00    -0.274 OA
BRANCH  17  19
ATOM     19  N   UNL A   1      32.521  20.695  25.627  1.00  0.00    -0.312 N 
BRANCH  19  20
ATOM     20  C   UNL A   1      33.663  20.746  26.559  1.00  0.00     0.122 C 
ATOM     21  C   UNL A   1      33.593  21.828  27.630  1.00  0.00     0.028 C 
ENDBRANCH  19  20
BRANCH  19  22
ATOM     22  C   UNL A   1      32.506  19.531  24.790  1.00  0.00     0.044 A 
ATOM     23  C   UNL A   1      32.296  19.634  23.413  1.00  0.00     0.026 A 
ATOM     24  C   UNL A   1      32.873  18.288  25.322  1.00  0.00     0.029 A 
ATOM     25  C   UNL A   1      32.529  18.530  22.585  1.00  0.00     0.002 A 
ATOM     26  C   UNL A   1      33.149  17.189  24.503  1.00  0.00    -0.049 A 
ATOM     27  C   UNL A   1      32.973  17.319  23.125  1.00  0.00     0.003 A 
ATOM     28  C   UNL A   1      33.628  15.904  25.109  1.00  0.00     0.044 C 
ENDBRANCH  19  22
ENDBRANCH  17  19
ENDBRANCH  16  17
ENDBRANCH   7  16
ENDBRANCH   3   6
ENDBRANCH   1   2
BRANCH   1  29
ATOM     29  C   UNL A   1      32.272  28.866  23.992  1.00  0.00     0.042 C 
BRANCH  29  30
ATOM     30  C   UNL A   1      33.010  29.264  25.275  1.00  0.00     0.118 C 
BRANCH  30  31
ATOM     31  N   UNL A   1      32.564  30.558  25.784  1.00  0.00    -0.352 N 
ATOM     32  C   UNL A   1      32.992  31.295  26.859  1.00  0.00     0.251 C 
ATOM     33  H   UNL A   1      31.834  30.972  25.269  1.00  0.00     0.163 HD
ATOM     34  O   UNL A   1      32.298  32.229  27.257  1.00  0.00    -0.269 OA
BRANCH  32  35
ATOM     35  C   UNL A   1      34.269  30.986  27.534  1.00  0.00     0.039 A 
ATOM     36  C   UNL A   1      35.229  31.994  27.664  1.00  0.00     0.014 A 
ATOM     37  C   UNL A   1      34.549  29.694  27.987  1.00  0.00     0.014 A 
ATOM     38  C   UNL A   1      36.444  31.720  28.297  1.00  0.00     0.010 A 
ATOM     39  C   UNL A   1      35.725  29.443  28.688  1.00  0.00     0.010 A 
ATOM     40  C   UNL A   1      36.689  30.450  28.843  1.00  0.00    -0.014 A 
BRANCH  40  41
ATOM     41  C   UNL A   1      37.938  30.160  29.592  1.00  0.00     0.031 A 
ATOM     42  C   UNL A   1      38.952  29.194  29.041  1.00  0.00     0.074 A 
ATOM     43  C   UNL A   1      38.114  30.697  30.816  1.00  0.00     0.049 A 
ATOM     44  N   UNL A   1      40.066  28.771  29.582  1.00  0.00    -0.248 NA
ATOM     45  C   UNL A   1      38.664  28.602  27.724  1.00  0.00     0.031 C 
ATOM     46  C   UNL A   1      37.162  31.578  31.495  1.00  0.00     0.029 A 
ATOM     47  N   UNL A   1      39.136  30.552  31.721  1.00  0.00    -0.354 N 
ATOM     48  C   UNL A   1      40.587  27.836  28.696  1.00  0.00     0.074 A 
ATOM     49  C   UNL A   1      39.653  27.730  27.597  1.00  0.00     0.031 C 
ATOM     50  C   UNL A   1      37.642  31.894  32.707  1.00  0.00     0.029 A 
ATOM     51  C   UNL A   1      38.915  31.210  32.909  1.00  0.00     0.049 A 
ATOM     52  H   UNL A   1      39.948  30.028  31.537  1.00  0.00     0.167 HD
ATOM     53  C   UNL A   1      41.752  27.146  28.776  1.00  0.00     0.034 A 
ATOM     54  C   UNL A   1      39.646  31.246  34.040  1.00  0.00     0.034 A 
ATOM     55  C   UNL A   1      42.691  27.281  29.856  1.00  0.00     0.049 A 
ATOM     56  C   UNL A   1      40.953  30.505  34.089  1.00  0.00     0.074 A 
ATOM     57  C   UNL A   1      43.943  26.706  29.983  1.00  0.00     0.029 A 
ATOM     58  N   UNL A   1      42.477  28.030  31.003  1.00  0.00    -0.354 N 
ATOM     59  N   UNL A   1      41.512  29.758  33.167  1.00  0.00    -0.248 NA
ATOM     60  C   UNL A   1      41.750  30.641  35.316  1.00  0.00     0.031 C 
ATOM     61  C   UNL A   1      44.470  27.074  31.226  1.00  0.00     0.029 A 
ATOM     62  C   UNL A   1      43.564  27.916  31.853  1.00  0.00     0.049 A 
ATOM     63  H   UNL A   1      41.672  28.564  31.186  1.00  0.00     0.167 HD
ATOM     64  C   UNL A   1      42.738  29.363  33.689  1.00  0.00     0.074 A 
ATOM     65  C   UNL A   1      42.849  29.971  34.998  1.00  0.00     0.031 C 
ATOM     66  C   UNL A   1      43.681  28.560  33.137  1.00  0.00     0.034 A 
BRANCH  53  67
ATOM     67  C   UNL A   1      42.086  26.204  27.647  1.00  0.00     0.023 A 
ATOM     68  C   UNL A   1      42.844  26.665  26.550  1.00  0.00     0.012 A 
ATOM     69  C   UNL A   1      41.694  24.853  27.693  1.00  0.00     0.148 A 
ATOM     70  C   UNL A   1      43.164  25.809  25.496  1.00  0.00     0.002 A 
ATOM     71  C   UNL A   1      42.060  23.993  26.664  1.00  0.00     0.091 A 
ATOM     72  F   UNL A   1      40.958  24.434  28.733  1.00  0.00    -0.205 F 
ATOM     73  C   UNL A   1      42.781  24.472  25.559  1.00  0.00     0.022 A 
BRANCH  71  74
ATOM     74  S   UNL A   1      41.690  22.235  26.692  1.00  0.00     0.127 S 
ATOM     75  O   UNL A   1      42.186  21.810  25.384  1.00  0.00    -0.237 OA
ATOM     76  O   UNL A   1      42.488  21.771  27.826  1.00  0.00    -0.237 OA
ATOM     77  O   UNL A   1      40.250  22.130  26.878  1.00  0.00    -0.744 OA
ENDBRANCH  71  74
ENDBRANCH  53  67
BRANCH  54  78
ATOM     78  C   UNL A   1      39.171  32.049  35.201  1.00  0.00     0.023 A 
ATOM     79  C   UNL A   1      38.249  31.489  36.106  1.00  0.00     0.012 A 
ATOM     80  C   UNL A   1      39.661  33.348  35.435  1.00  0.00     0.148 A 
ATOM     81  C   UNL A   1      37.799  32.221  37.206  1.00  0.00     0.002 A 
ATOM     82  C   UNL A   1      39.255  34.049  36.564  1.00  0.00     0.091 A 
ATOM     83  F   UNL A   1      40.535  33.864  34.559  1.00  0.00    -0.205 F 
ATOM     84  C   UNL A   1      38.309  33.495  37.440  1.00  0.00     0.022 A 
BRANCH  82  85
ATOM     85  S   UNL A   1      39.963  35.635  37.022  1.00  0.00     0.127 S 
ATOM     86  O   UNL A   1      41.376  35.299  37.175  1.00  0.00    -0.237 OA
ATOM     87  O   UNL A   1      39.646  36.453  35.851  1.00  0.00    -0.237 OA
ATOM     88  O   UNL A   1      39.274  36.039  38.241  1.00  0.00    -0.744 OA
ENDBRANCH  82  85
ENDBRANCH  54  78
BRANCH  66  89
ATOM     89  C   UNL A   1      44.943  28.319  33.927  1.00  0.00     0.023 A 
ATOM     90  C   UNL A   1      46.030  29.206  33.810  1.00  0.00     0.012 A 
ATOM     91  C   UNL A   1      45.019  27.248  34.841  1.00  0.00     0.148 A 
ATOM     92  C   UNL A   1      47.187  29.012  34.564  1.00  0.00     0.002 A 
ATOM     93  C   UNL A   1      46.152  27.092  35.627  1.00  0.00     0.091 A 
ATOM     94  F   UNL A   1      43.979  26.405  34.924  1.00  0.00    -0.205 F 
ATOM     95  C   UNL A   1      47.244  27.964  35.480  1.00  0.00     0.022 A 
BRANCH  93  96
ATOM     96  S   UNL A   1      46.275  25.834  36.904  1.00  0.00     0.127 S 
ATOM     97  O   UNL A   1      45.105  26.131  37.729  1.00  0.00    -0.237 OA
ATOM     98  O   UNL A   1      46.176  24.598  36.128  1.00  0.00    -0.237 OA
ATOM     99  O   UNL A   1      47.564  26.041  37.551  1.00  0.00    -0.744 OA
ENDBRANCH  93  96
ENDBRANCH  66  89
ENDBRANCH  40  41
ENDBRANCH  32  35
ENDBRANCH  30  31
ENDBRANCH  29  30
ENDBRANCH   1  29
TORSDOF 18
ENDMDL
