MODEL 1
REMARK VINA RESULT:     -12.4      0.000      0.000
REMARK SMILES COc1ccc2c(c1)c(CC(=O)NCCCNC(=O)c1ccc(-c3c4nc(c(-c5cccc(S(=O)(=O)[O-])c5F)c5ccc([nH]5)c(-c5cccc(S(=O)(=O)[O-])c5F)c5nc(c(-c6cccc(S(=O)(=O)[O-])c6F)c6ccc3[nH]6)C=C5)C=C4)cc1)c(C)n2Cc1ccc(Br)cc1
REMARK SMILES IDX 15 1 14 2 13 3 11 4 12 5 10 7 9 8 3 9 4 10 8 11 5 12 7 13
REMARK SMILES IDX 6 14 85 15 83 16 84 17 2 18 1 19 86 20 87 21 88 22 93 23
REMARK SMILES IDX 89 24 92 25 90 26 91 27 16 28 17 29 18 30 19 32 20 33 21 34
REMARK SMILES IDX 82 35 22 36 81 37 23 38 24 39 25 40 75 41 26 42 80 43 74 44
REMARK SMILES IDX 76 45 27 46 79 47 73 48 72 49 28 51 60 52 40 53 59 54 41 55
REMARK SMILES IDX 44 56 58 57 77 58 42 59 43 60 57 62 78 63 45 64 29 65 30 66
REMARK SMILES IDX 38 67 31 68 33 69 39 70 32 71 34 72 35 73 36 74 37 75 61 76
REMARK SMILES IDX 62 77 70 78 63 79 65 80 71 81 64 82 66 83 67 84 68 85 69 86
REMARK SMILES IDX 46 87 47 88 55 89 48 90 50 91 56 92 49 93 51 94 52 95 53 96
REMARK SMILES IDX 54 97
REMARK H PARENT 13 6 17 31 76 50 44 61
REMARK Flexibility Score: inf
ROOT
ATOM      1  C   UNL A   1      32.724  31.403  26.974  1.00  0.00     0.042 C 
ENDROOT
BRANCH   1   2
ATOM      2  C   UNL A   1      32.386  30.249  26.023  1.00  0.00     0.117 C 
BRANCH   2   3
ATOM      3  N   UNL A   1      31.745  29.121  26.688  1.00  0.00    -0.356 N 
ATOM      4  C   UNL A   1      32.186  27.841  26.877  1.00  0.00     0.224 C 
ATOM      5  O   UNL A   1      31.472  27.072  27.528  1.00  0.00    -0.275 OA
ATOM      6  H   UNL A   1      30.854  29.311  27.062  1.00  0.00     0.163 HD
BRANCH   4   7
ATOM      7  C   UNL A   1      33.549  27.394  26.372  1.00  0.00     0.138 C 
BRANCH   7   8
ATOM      8  C   UNL A   1      33.473  26.419  25.240  1.00  0.00    -0.010 A 
ATOM      9  C   UNL A   1      31.184  27.333  22.343  1.00  0.00     0.119 A 
ATOM     10  C   UNL A   1      31.547  26.272  21.520  1.00  0.00     0.048 A 
ATOM     11  C   UNL A   1      31.808  27.511  23.576  1.00  0.00     0.057 A 
ATOM     12  C   UNL A   1      32.503  25.331  21.933  1.00  0.00     0.031 A 
ATOM     13  C   UNL A   1      32.738  26.555  24.032  1.00  0.00     0.007 A 
ATOM     14  C   UNL A   1      33.069  25.470  23.213  1.00  0.00     0.049 A 
ATOM     15  N   UNL A   1      33.989  24.697  23.915  1.00  0.00    -0.340 N 
ATOM     16  C   UNL A   1      34.004  25.140  25.233  1.00  0.00     0.020 A 
ATOM     17  C   UNL A   1      34.532  24.403  26.413  1.00  0.00     0.065 C 
BRANCH   9  18
ATOM     18  O   UNL A   1      30.265  28.284  21.988  1.00  0.00    -0.497 OA
ATOM     19  C   UNL A   1      29.568  28.832  23.105  1.00  0.00     0.278 C 
ENDBRANCH   9  18
BRANCH  15  20
ATOM     20  C   UNL A   1      34.726  23.550  23.355  1.00  0.00     0.157 C 
BRANCH  20  21
ATOM     21  C   UNL A   1      34.152  22.212  23.778  1.00  0.00    -0.028 A 
ATOM     22  C   UNL A   1      34.929  21.344  24.552  1.00  0.00     0.007 A 
ATOM     23  C   UNL A   1      32.847  21.807  23.460  1.00  0.00     0.007 A 
ATOM     24  C   UNL A   1      34.520  20.064  24.861  1.00  0.00     0.016 A 
ATOM     25  C   UNL A   1      32.379  20.547  23.865  1.00  0.00     0.016 A 
ATOM     26  C   UNL A   1      33.239  19.676  24.531  1.00  0.00     0.017 A 
ATOM     27  Br  UNL A   1      32.741  17.975  25.119  1.00  0.00    -0.051 Br
ENDBRANCH  20  21
ENDBRANCH  15  20
ENDBRANCH   7   8
ENDBRANCH   4   7
ENDBRANCH   2   3
ENDBRANCH   1   2
BRANCH   1  28
ATOM     28  C   UNL A   1      34.084  31.292  27.665  1.00  0.00     0.118 C 
BRANCH  28  29
ATOM     29  N   UNL A   1      34.144  31.895  28.985  1.00  0.00    -0.352 N 
ATOM     30  C   UNL A   1      35.088  32.071  29.958  1.00  0.00     0.251 C 
ATOM     31  H   UNL A   1      33.277  32.280  29.247  1.00  0.00     0.163 HD
ATOM     32  O   UNL A   1      34.744  32.814  30.883  1.00  0.00    -0.269 OA
BRANCH  30  33
ATOM     33  C   UNL A   1      36.423  31.412  30.038  1.00  0.00     0.039 A 
ATOM     34  C   UNL A   1      37.655  32.053  30.012  1.00  0.00     0.014 A 
ATOM     35  C   UNL A   1      36.406  30.000  30.092  1.00  0.00     0.014 A 
ATOM     36  C   UNL A   1      38.825  31.295  29.943  1.00  0.00     0.010 A 
ATOM     37  C   UNL A   1      37.572  29.240  30.003  1.00  0.00     0.010 A 
ATOM     38  C   UNL A   1      38.787  29.888  29.864  1.00  0.00    -0.014 A 
BRANCH  38  39
ATOM     39  C   UNL A   1      40.064  29.163  29.749  1.00  0.00     0.031 A 
ATOM     40  C   UNL A   1      40.733  29.024  31.067  1.00  0.00     0.074 A 
ATOM     41  C   UNL A   1      40.592  28.628  28.622  1.00  0.00     0.049 A 
ATOM     42  N   UNL A   1      41.792  29.632  31.492  1.00  0.00    -0.248 NA
ATOM     43  C   UNL A   1      40.010  28.273  32.104  1.00  0.00     0.031 C 
ATOM     44  C   UNL A   1      39.921  28.437  27.333  1.00  0.00     0.029 A 
ATOM     45  N   UNL A   1      41.830  28.074  28.395  1.00  0.00    -0.354 N 
ATOM     46  C   UNL A   1      42.004  29.128  32.773  1.00  0.00     0.074 A 
ATOM     47  C   UNL A   1      40.788  28.471  33.168  1.00  0.00     0.031 C 
ATOM     48  C   UNL A   1      40.686  27.679  26.521  1.00  0.00     0.029 A 
ATOM     49  C   UNL A   1      41.925  27.356  27.197  1.00  0.00     0.049 A 
ATOM     50  H   UNL A   1      42.583  28.172  29.021  1.00  0.00     0.167 HD
ATOM     51  C   UNL A   1      43.257  29.022  33.287  1.00  0.00     0.034 A 
ATOM     52  C   UNL A   1      42.906  26.491  26.822  1.00  0.00     0.034 A 
ATOM     53  C   UNL A   1      44.199  29.824  32.556  1.00  0.00     0.049 A 
ATOM     54  C   UNL A   1      44.097  26.825  27.625  1.00  0.00     0.074 A 
ATOM     55  C   UNL A   1      44.418  31.169  32.356  1.00  0.00     0.029 A 
ATOM     56  N   UNL A   1      44.857  29.146  31.566  1.00  0.00    -0.354 N 
ATOM     57  N   UNL A   1      44.785  27.921  27.484  1.00  0.00    -0.248 NA
ATOM     58  C   UNL A   1      44.354  26.069  28.842  1.00  0.00     0.031 C 
ATOM     59  C   UNL A   1      44.978  31.273  31.050  1.00  0.00     0.029 A 
ATOM     60  C   UNL A   1      45.125  29.989  30.525  1.00  0.00     0.049 A 
ATOM     61  H   UNL A   1      45.101  28.193  31.599  1.00  0.00     0.167 HD
ATOM     62  C   UNL A   1      45.197  28.220  28.769  1.00  0.00     0.074 A 
ATOM     63  C   UNL A   1      45.056  26.978  29.520  1.00  0.00     0.031 C 
ATOM     64  C   UNL A   1      45.309  29.515  29.171  1.00  0.00     0.034 A 
BRANCH  51  65
ATOM     65  C   UNL A   1      43.720  27.848  34.122  1.00  0.00     0.023 A 
ATOM     66  C   UNL A   1      44.316  28.120  35.372  1.00  0.00     0.012 A 
ATOM     67  C   UNL A   1      43.863  26.534  33.617  1.00  0.00     0.148 A 
ATOM     68  C   UNL A   1      45.018  27.136  36.078  1.00  0.00     0.002 A 
ATOM     69  C   UNL A   1      44.491  25.539  34.356  1.00  0.00     0.091 A 
ATOM     70  F   UNL A   1      43.523  26.266  32.353  1.00  0.00    -0.205 F 
ATOM     71  C   UNL A   1      45.091  25.840  35.579  1.00  0.00     0.022 A 
BRANCH  69  72
ATOM     72  S   UNL A   1      44.590  23.846  33.762  1.00  0.00     0.127 S 
ATOM     73  O   UNL A   1      45.073  24.045  32.396  1.00  0.00    -0.237 OA
ATOM     74  O   UNL A   1      45.568  23.267  34.685  1.00  0.00    -0.237 OA
ATOM     75  O   UNL A   1      43.249  23.303  33.895  1.00  0.00    -0.744 OA
ENDBRANCH  69  72
ENDBRANCH  51  65
BRANCH  52  76
ATOM     76  C   UNL A   1      42.841  25.220  26.039  1.00  0.00     0.023 A 
ATOM     77  C   UNL A   1      43.822  24.972  25.047  1.00  0.00     0.012 A 
ATOM     78  C   UNL A   1      42.052  24.126  26.452  1.00  0.00     0.148 A 
ATOM     79  C   UNL A   1      44.070  23.676  24.569  1.00  0.00     0.002 A 
ATOM     80  C   UNL A   1      42.293  22.843  25.965  1.00  0.00     0.091 A 
ATOM     81  F   UNL A   1      41.124  24.306  27.397  1.00  0.00    -0.205 F 
ATOM     82  C   UNL A   1      43.318  22.608  25.044  1.00  0.00     0.022 A 
BRANCH  80  83
ATOM     83  S   UNL A   1      41.357  21.426  26.555  1.00  0.00     0.127 S 
ATOM     84  O   UNL A   1      39.987  21.783  26.186  1.00  0.00    -0.237 OA
ATOM     85  O   UNL A   1      41.939  20.336  25.783  1.00  0.00    -0.237 OA
ATOM     86  O   UNL A   1      41.587  21.380  27.998  1.00  0.00    -0.744 OA
ENDBRANCH  80  83
ENDBRANCH  52  76
BRANCH  64  87
ATOM     87  C   UNL A   1      45.447  30.568  28.112  1.00  0.00     0.023 A 
ATOM     88  C   UNL A   1      44.346  31.235  27.539  1.00  0.00     0.012 A 
ATOM     89  C   UNL A   1      46.749  31.013  27.833  1.00  0.00     0.148 A 
ATOM     90  C   UNL A   1      44.549  32.342  26.709  1.00  0.00     0.002 A 
ATOM     91  C   UNL A   1      46.944  32.138  27.049  1.00  0.00     0.091 A 
ATOM     92  F   UNL A   1      47.773  30.349  28.390  1.00  0.00    -0.205 F 
ATOM     93  C   UNL A   1      45.847  32.804  26.480  1.00  0.00     0.022 A 
BRANCH  91  94
ATOM     94  S   UNL A   1      48.572  32.855  26.828  1.00  0.00     0.127 S 
ATOM     95  O   UNL A   1      49.359  31.702  26.398  1.00  0.00    -0.237 OA
ATOM     96  O   UNL A   1      48.328  33.856  25.788  1.00  0.00    -0.237 OA
ATOM     97  O   UNL A   1      48.949  33.417  28.120  1.00  0.00    -0.744 OA
ENDBRANCH  91  94
ENDBRANCH  64  87
ENDBRANCH  38  39
ENDBRANCH  30  33
ENDBRANCH  28  29
ENDBRANCH   1  28
TORSDOF 17
ENDMDL
MODEL 2
REMARK VINA RESULT:     -12.4      2.023      3.494
REMARK SMILES COc1ccc2c(c1)c(CC(=O)NCCCNC(=O)c1ccc(-c3c4nc(c(-c5cccc(S(=O)(=O)[O-])c5F)c5ccc([nH]5)c(-c5cccc(S(=O)(=O)[O-])c5F)c5nc(c(-c6cccc(S(=O)(=O)[O-])c6F)c6ccc3[nH]6)C=C5)C=C4)cc1)c(C)n2Cc1ccc(Br)cc1
REMARK SMILES IDX 15 1 14 2 13 3 11 4 12 5 10 7 9 8 3 9 4 10 8 11 5 12 7 13
REMARK SMILES IDX 6 14 85 15 83 16 84 17 2 18 1 19 86 20 87 21 88 22 93 23
REMARK SMILES IDX 89 24 92 25 90 26 91 27 16 28 17 29 18 30 19 32 20 33 21 34
REMARK SMILES IDX 82 35 22 36 81 37 23 38 24 39 25 40 75 41 26 42 80 43 74 44
REMARK SMILES IDX 76 45 27 46 79 47 73 48 72 49 28 51 60 52 40 53 59 54 41 55
REMARK SMILES IDX 44 56 58 57 77 58 42 59 43 60 57 62 78 63 45 64 29 65 30 66
REMARK SMILES IDX 38 67 31 68 33 69 39 70 32 71 34 72 35 73 36 74 37 75 61 76
REMARK SMILES IDX 62 77 70 78 63 79 65 80 71 81 64 82 66 83 67 84 68 85 69 86
REMARK SMILES IDX 46 87 47 88 55 89 48 90 50 91 56 92 49 93 51 94 52 95 53 96
REMARK SMILES IDX 54 97
REMARK H PARENT 13 6 17 31 76 50 44 61
REMARK Flexibility Score: inf
ROOT
ATOM      1  C   UNL A   1      34.738  31.046  27.901  1.00  0.00     0.042 C 
ENDROOT
BRANCH   1   2
ATOM      2  C   UNL A   1      33.645  30.596  26.924  1.00  0.00     0.117 C 
BRANCH   2   3
ATOM      3  N   UNL A   1      32.666  29.700  27.525  1.00  0.00    -0.356 N 
ATOM      4  C   UNL A   1      32.568  28.337  27.474  1.00  0.00     0.224 C 
ATOM      5  O   UNL A   1      31.665  27.796  28.120  1.00  0.00    -0.275 OA
ATOM      6  H   UNL A   1      31.963  30.145  28.053  1.00  0.00     0.163 HD
BRANCH   4   7
ATOM      7  C   UNL A   1      33.584  27.502  26.712  1.00  0.00     0.138 C 
BRANCH   7   8
ATOM      8  C   UNL A   1      33.011  26.821  25.509  1.00  0.00    -0.010 A 
ATOM      9  C   UNL A   1      32.473  23.064  25.763  1.00  0.00     0.119 A 
ATOM     10  C   UNL A   1      31.819  22.920  24.545  1.00  0.00     0.048 A 
ATOM     11  C   UNL A   1      32.858  24.327  26.210  1.00  0.00     0.057 A 
ATOM     12  C   UNL A   1      31.582  24.027  23.716  1.00  0.00     0.031 A 
ATOM     13  C   UNL A   1      32.672  25.448  25.375  1.00  0.00     0.007 A 
ATOM     14  C   UNL A   1      32.047  25.287  24.134  1.00  0.00     0.049 A 
ATOM     15  N   UNL A   1      32.009  26.542  23.533  1.00  0.00    -0.340 N 
ATOM     16  C   UNL A   1      32.838  27.390  24.258  1.00  0.00     0.020 A 
ATOM     17  C   UNL A   1      33.401  28.690  23.800  1.00  0.00     0.065 C 
BRANCH   9  18
ATOM     18  O   UNL A   1      32.722  22.021  26.616  1.00  0.00    -0.497 OA
ATOM     19  C   UNL A   1      33.437  22.414  27.785  1.00  0.00     0.278 C 
ENDBRANCH   9  18
BRANCH  15  20
ATOM     20  C   UNL A   1      31.287  26.857  22.287  1.00  0.00     0.157 C 
BRANCH  20  21
ATOM     21  C   UNL A   1      30.297  27.993  22.446  1.00  0.00    -0.028 A 
ATOM     22  C   UNL A   1      30.602  29.251  21.916  1.00  0.00     0.007 A 
ATOM     23  C   UNL A   1      29.052  27.838  23.075  1.00  0.00     0.007 A 
ATOM     24  C   UNL A   1      29.808  30.358  22.137  1.00  0.00     0.016 A 
ATOM     25  C   UNL A   1      28.185  28.934  23.207  1.00  0.00     0.016 A 
ATOM     26  C   UNL A   1      28.594  30.192  22.767  1.00  0.00     0.017 A 
ATOM     27  Br  UNL A   1      27.539  31.727  22.888  1.00  0.00    -0.051 Br
ENDBRANCH  20  21
ENDBRANCH  15  20
ENDBRANCH   7   8
ENDBRANCH   4   7
ENDBRANCH   2   3
ENDBRANCH   1   2
BRANCH   1  28
ATOM     28  C   UNL A   1      34.505  32.416  28.541  1.00  0.00     0.118 C 
BRANCH  28  29
ATOM     29  N   UNL A   1      34.383  32.395  29.988  1.00  0.00    -0.352 N 
ATOM     30  C   UNL A   1      35.185  32.084  31.051  1.00  0.00     0.251 C 
ATOM     31  H   UNL A   1      33.488  32.680  30.281  1.00  0.00     0.163 HD
ATOM     32  O   UNL A   1      34.717  32.381  32.156  1.00  0.00    -0.269 OA
BRANCH  30  33
ATOM     33  C   UNL A   1      36.497  31.379  31.004  1.00  0.00     0.039 A 
ATOM     34  C   UNL A   1      37.748  31.982  30.952  1.00  0.00     0.014 A 
ATOM     35  C   UNL A   1      36.433  29.968  30.958  1.00  0.00     0.014 A 
ATOM     36  C   UNL A   1      38.885  31.193  30.759  1.00  0.00     0.010 A 
ATOM     37  C   UNL A   1      37.564  29.180  30.746  1.00  0.00     0.010 A 
ATOM     38  C   UNL A   1      38.791  29.798  30.582  1.00  0.00    -0.014 A 
BRANCH  38  39
ATOM     39  C   UNL A   1      40.033  29.043  30.341  1.00  0.00     0.031 A 
ATOM     40  C   UNL A   1      40.819  28.870  31.588  1.00  0.00     0.074 A 
ATOM     41  C   UNL A   1      40.440  28.510  29.163  1.00  0.00     0.049 A 
ATOM     42  N   UNL A   1      41.928  29.447  31.918  1.00  0.00    -0.248 NA
ATOM     43  C   UNL A   1      40.177  28.124  32.681  1.00  0.00     0.031 C 
ATOM     44  C   UNL A   1      39.646  28.352  27.941  1.00  0.00     0.029 A 
ATOM     45  N   UNL A   1      41.636  27.929  28.816  1.00  0.00    -0.354 N 
ATOM     46  C   UNL A   1      42.246  28.922  33.168  1.00  0.00     0.074 A 
ATOM     47  C   UNL A   1      41.056  28.290  33.669  1.00  0.00     0.031 C 
ATOM     48  C   UNL A   1      40.312  27.586  27.052  1.00  0.00     0.029 A 
ATOM     49  C   UNL A   1      41.600  27.224  27.606  1.00  0.00     0.049 A 
ATOM     50  H   UNL A   1      42.446  28.000  29.369  1.00  0.00     0.167 HD
ATOM     51  C   UNL A   1      43.539  28.778  33.561  1.00  0.00     0.034 A 
ATOM     52  C   UNL A   1      42.519  26.340  27.132  1.00  0.00     0.034 A 
ATOM     53  C   UNL A   1      44.428  29.566  32.753  1.00  0.00     0.049 A 
ATOM     54  C   UNL A   1      43.788  26.634  27.822  1.00  0.00     0.074 A 
ATOM     55  C   UNL A   1      44.663  30.907  32.548  1.00  0.00     0.029 A 
ATOM     56  N   UNL A   1      44.973  28.885  31.699  1.00  0.00    -0.354 N 
ATOM     57  N   UNL A   1      44.488  27.714  27.629  1.00  0.00    -0.248 NA
ATOM     58  C   UNL A   1      44.138  25.856  29.002  1.00  0.00     0.031 C 
ATOM     59  C   UNL A   1      45.100  31.015  31.197  1.00  0.00     0.029 A 
ATOM     60  C   UNL A   1      45.164  29.734  30.646  1.00  0.00     0.049 A 
ATOM     61  H   UNL A   1      45.194  27.925  31.699  1.00  0.00     0.167 HD
ATOM     62  C   UNL A   1      45.026  27.986  28.873  1.00  0.00     0.074 A 
ATOM     63  C   UNL A   1      44.923  26.739  29.621  1.00  0.00     0.031 C 
ATOM     64  C   UNL A   1      45.208  29.273  29.276  1.00  0.00     0.034 A 
BRANCH  51  65
ATOM     65  C   UNL A   1      44.047  27.582  34.336  1.00  0.00     0.023 A 
ATOM     66  C   UNL A   1      44.883  27.822  35.448  1.00  0.00     0.012 A 
ATOM     67  C   UNL A   1      43.985  26.252  33.857  1.00  0.00     0.148 A 
ATOM     68  C   UNL A   1      45.618  26.793  36.048  1.00  0.00     0.002 A 
ATOM     69  C   UNL A   1      44.653  25.219  34.503  1.00  0.00     0.091 A 
ATOM     70  F   UNL A   1      43.399  25.994  32.685  1.00  0.00    -0.205 F 
ATOM     71  C   UNL A   1      45.490  25.487  35.587  1.00  0.00     0.022 A 
BRANCH  69  72
ATOM     72  S   UNL A   1      44.501  23.514  33.956  1.00  0.00     0.127 S 
ATOM     73  O   UNL A   1      43.090  23.245  34.230  1.00  0.00    -0.237 OA
ATOM     74  O   UNL A   1      44.845  23.628  32.538  1.00  0.00    -0.237 OA
ATOM     75  O   UNL A   1      45.461  22.760  34.745  1.00  0.00    -0.744 OA
ENDBRANCH  69  72
ENDBRANCH  51  65
BRANCH  52  76
ATOM     76  C   UNL A   1      42.348  25.081  26.345  1.00  0.00     0.023 A 
ATOM     77  C   UNL A   1      43.311  24.749  25.359  1.00  0.00     0.012 A 
ATOM     78  C   UNL A   1      41.463  24.059  26.750  1.00  0.00     0.148 A 
ATOM     79  C   UNL A   1      43.447  23.438  24.880  1.00  0.00     0.002 A 
ATOM     80  C   UNL A   1      41.594  22.762  26.261  1.00  0.00     0.091 A 
ATOM     81  F   UNL A   1      40.548  24.318  27.689  1.00  0.00    -0.205 F 
ATOM     82  C   UNL A   1      42.601  22.439  25.346  1.00  0.00     0.022 A 
BRANCH  80  83
ATOM     83  S   UNL A   1      40.533  21.431  26.841  1.00  0.00     0.127 S 
ATOM     84  O   UNL A   1      40.786  21.437  28.282  1.00  0.00    -0.237 OA
ATOM     85  O   UNL A   1      39.213  21.902  26.445  1.00  0.00    -0.237 OA
ATOM     86  O   UNL A   1      41.010  20.227  26.162  1.00  0.00    -0.744 OA
ENDBRANCH  80  83
ENDBRANCH  52  76
BRANCH  64  87
ATOM     87  C   UNL A   1      45.274  30.336  28.220  1.00  0.00     0.023 A 
ATOM     88  C   UNL A   1      44.131  30.950  27.672  1.00  0.00     0.012 A 
ATOM     89  C   UNL A   1      46.546  30.845  27.918  1.00  0.00     0.148 A 
ATOM     90  C   UNL A   1      44.263  32.069  26.844  1.00  0.00     0.002 A 
ATOM     91  C   UNL A   1      46.671  31.981  27.136  1.00  0.00     0.091 A 
ATOM     92  F   UNL A   1      47.613  30.231  28.452  1.00  0.00    -0.205 F 
ATOM     93  C   UNL A   1      45.532  32.595  26.592  1.00  0.00     0.022 A 
BRANCH  91  94
ATOM     94  S   UNL A   1      48.258  32.779  26.888  1.00  0.00     0.127 S 
ATOM     95  O   UNL A   1      49.087  31.671  26.418  1.00  0.00    -0.237 OA
ATOM     96  O   UNL A   1      47.940  33.783  25.871  1.00  0.00    -0.237 OA
ATOM     97  O   UNL A   1      48.641  33.337  28.179  1.00  0.00    -0.744 OA
ENDBRANCH  91  94
ENDBRANCH  64  87
ENDBRANCH  38  39
ENDBRANCH  30  33
ENDBRANCH  28  29
ENDBRANCH   1  28
TORSDOF 17
ENDMDL
MODEL 3
REMARK VINA RESULT:     -12.4      2.019      3.260
REMARK SMILES COc1ccc2c(c1)c(CC(=O)NCCCNC(=O)c1ccc(-c3c4nc(c(-c5cccc(S(=O)(=O)[O-])c5F)c5ccc([nH]5)c(-c5cccc(S(=O)(=O)[O-])c5F)c5nc(c(-c6cccc(S(=O)(=O)[O-])c6F)c6ccc3[nH]6)C=C5)C=C4)cc1)c(C)n2Cc1ccc(Br)cc1
REMARK SMILES IDX 15 1 14 2 13 3 11 4 12 5 10 7 9 8 3 9 4 10 8 11 5 12 7 13
REMARK SMILES IDX 6 14 85 15 83 16 84 17 2 18 1 19 86 20 87 21 88 22 93 23
REMARK SMILES IDX 89 24 92 25 90 26 91 27 16 28 17 29 18 30 19 32 20 33 21 34
REMARK SMILES IDX 82 35 22 36 81 37 23 38 24 39 25 40 75 41 26 42 80 43 74 44
REMARK SMILES IDX 76 45 27 46 79 47 73 48 72 49 28 51 60 52 40 53 59 54 41 55
REMARK SMILES IDX 44 56 58 57 77 58 42 59 43 60 57 62 78 63 45 64 29 65 30 66
REMARK SMILES IDX 38 67 31 68 33 69 39 70 32 71 34 72 35 73 36 74 37 75 61 76
REMARK SMILES IDX 62 77 70 78 63 79 65 80 71 81 64 82 66 83 67 84 68 85 69 86
REMARK SMILES IDX 46 87 47 88 55 89 48 90 50 91 56 92 49 93 51 94 52 95 53 96
REMARK SMILES IDX 54 97
REMARK H PARENT 13 6 17 31 76 50 44 61
REMARK Flexibility Score: inf
ROOT
ATOM      1  C   UNL A   1      31.713  29.029  26.786  1.00  0.00     0.042 C 
ENDROOT
BRANCH   1   2
ATOM      2  C   UNL A   1      31.357  27.903  25.807  1.00  0.00     0.117 C 
BRANCH   2   3
ATOM      3  N   UNL A   1      31.111  26.625  26.463  1.00  0.00    -0.356 N 
ATOM      4  C   UNL A   1      31.887  25.501  26.525  1.00  0.00     0.224 C 
ATOM      5  O   UNL A   1      31.476  24.549  27.197  1.00  0.00    -0.275 OA
ATOM      6  H   UNL A   1      30.250  26.560  26.937  1.00  0.00     0.163 HD
BRANCH   4   7
ATOM      7  C   UNL A   1      33.251  25.447  25.856  1.00  0.00     0.138 C 
BRANCH   7   8
ATOM      8  C   UNL A   1      33.492  24.180  25.100  1.00  0.00    -0.010 A 
ATOM      9  C   UNL A   1      36.921  22.579  25.492  1.00  0.00     0.119 A 
ATOM     10  C   UNL A   1      36.632  21.420  24.778  1.00  0.00     0.048 A 
ATOM     11  C   UNL A   1      35.930  23.534  25.712  1.00  0.00     0.057 A 
ATOM     12  C   UNL A   1      35.362  21.214  24.218  1.00  0.00     0.031 A 
ATOM     13  C   UNL A   1      34.661  23.371  25.122  1.00  0.00     0.007 A 
ATOM     14  C   UNL A   1      34.391  22.220  24.374  1.00  0.00     0.049 A 
ATOM     15  N   UNL A   1      33.083  22.334  23.911  1.00  0.00    -0.340 N 
ATOM     16  C   UNL A   1      32.662  23.640  24.131  1.00  0.00     0.020 A 
ATOM     17  C   UNL A   1      31.509  24.324  23.485  1.00  0.00     0.065 C 
BRANCH   9  18
ATOM     18  O   UNL A   1      38.139  22.829  26.067  1.00  0.00    -0.497 OA
ATOM     19  C   UNL A   1      38.214  24.114  26.679  1.00  0.00     0.278 C 
ENDBRANCH   9  18
BRANCH  15  20
ATOM     20  C   UNL A   1      32.339  21.264  23.221  1.00  0.00     0.157 C 
BRANCH  20  21
ATOM     21  C   UNL A   1      32.549  19.899  23.843  1.00  0.00    -0.028 A 
ATOM     22  C   UNL A   1      32.795  18.797  23.017  1.00  0.00     0.007 A 
ATOM     23  C   UNL A   1      32.548  19.683  25.230  1.00  0.00     0.007 A 
ATOM     24  C   UNL A   1      32.865  17.509  23.506  1.00  0.00     0.016 A 
ATOM     25  C   UNL A   1      32.730  18.390  25.745  1.00  0.00     0.016 A 
ATOM     26  C   UNL A   1      32.850  17.312  24.870  1.00  0.00     0.017 A 
ATOM     27  Br  UNL A   1      33.093  15.546  25.426  1.00  0.00    -0.051 Br
ENDBRANCH  20  21
ENDBRANCH  15  20
ENDBRANCH   7   8
ENDBRANCH   4   7
ENDBRANCH   2   3
ENDBRANCH   1   2
BRANCH   1  28
ATOM     28  C   UNL A   1      32.839  29.954  26.321  1.00  0.00     0.118 C 
BRANCH  28  29
ATOM     29  N   UNL A   1      33.111  31.071  27.209  1.00  0.00    -0.352 N 
ATOM     30  C   UNL A   1      34.195  31.575  27.873  1.00  0.00     0.251 C 
ATOM     31  H   UNL A   1      32.302  31.605  27.377  1.00  0.00     0.163 HD
ATOM     32  O   UNL A   1      34.010  32.678  28.400  1.00  0.00    -0.269 OA
BRANCH  30  33
ATOM     33  C   UNL A   1      35.511  30.906  28.072  1.00  0.00     0.039 A 
ATOM     34  C   UNL A   1      35.750  29.538  28.021  1.00  0.00     0.014 A 
ATOM     35  C   UNL A   1      36.590  31.761  28.391  1.00  0.00     0.014 A 
ATOM     36  C   UNL A   1      37.007  29.044  28.377  1.00  0.00     0.010 A 
ATOM     37  C   UNL A   1      37.841  31.269  28.767  1.00  0.00     0.010 A 
ATOM     38  C   UNL A   1      38.035  29.900  28.822  1.00  0.00    -0.014 A 
BRANCH  38  39
ATOM     39  C   UNL A   1      39.318  29.297  29.221  1.00  0.00     0.031 A 
ATOM     40  C   UNL A   1      39.672  29.640  30.621  1.00  0.00     0.074 A 
ATOM     41  C   UNL A   1      40.099  28.486  28.467  1.00  0.00     0.049 A 
ATOM     42  N   UNL A   1      40.595  30.446  31.035  1.00  0.00    -0.248 NA
ATOM     43  C   UNL A   1      38.746  29.190  31.671  1.00  0.00     0.031 C 
ATOM     44  C   UNL A   1      39.742  27.838  27.201  1.00  0.00     0.029 A 
ATOM     45  N   UNL A   1      41.365  28.004  28.698  1.00  0.00    -0.354 N 
ATOM     46  C   UNL A   1      40.519  30.391  32.425  1.00  0.00     0.074 A 
ATOM     47  C   UNL A   1      39.258  29.784  32.749  1.00  0.00     0.031 C 
ATOM     48  C   UNL A   1      40.687  26.937  26.860  1.00  0.00     0.029 A 
ATOM     49  C   UNL A   1      41.744  26.958  27.848  1.00  0.00     0.049 A 
ATOM     50  H   UNL A   1      41.954  28.363  29.400  1.00  0.00     0.167 HD
ATOM     51  C   UNL A   1      41.624  30.568  33.195  1.00  0.00     0.034 A 
ATOM     52  C   UNL A   1      42.801  26.113  27.990  1.00  0.00     0.034 A 
ATOM     53  C   UNL A   1      42.692  31.182  32.456  1.00  0.00     0.049 A 
ATOM     54  C   UNL A   1      43.772  26.790  28.870  1.00  0.00     0.074 A 
ATOM     55  C   UNL A   1      42.926  32.410  31.879  1.00  0.00     0.029 A 
ATOM     56  N   UNL A   1      43.571  30.291  31.903  1.00  0.00    -0.354 N 
ATOM     57  N   UNL A   1      44.453  27.844  28.526  1.00  0.00    -0.248 NA
ATOM     58  C   UNL A   1      43.759  26.481  30.292  1.00  0.00     0.031 C 
ATOM     59  C   UNL A   1      43.766  32.150  30.758  1.00  0.00     0.029 A 
ATOM     60  C   UNL A   1      44.053  30.784  30.724  1.00  0.00     0.049 A 
ATOM     61  H   UNL A   1      43.819  29.423  32.296  1.00  0.00     0.167 HD
ATOM     62  C   UNL A   1      44.556  28.568  29.699  1.00  0.00     0.074 A 
ATOM     63  C   UNL A   1      44.271  27.618  30.767  1.00  0.00     0.031 C 
ATOM     64  C   UNL A   1      44.549  29.928  29.670  1.00  0.00     0.034 A 
BRANCH  51  65
ATOM     65  C   UNL A   1      41.907  29.763  34.445  1.00  0.00     0.023 A 
ATOM     66  C   UNL A   1      42.487  30.432  35.544  1.00  0.00     0.012 A 
ATOM     67  C   UNL A   1      41.903  28.348  34.485  1.00  0.00     0.148 A 
ATOM     68  C   UNL A   1      43.035  29.728  36.623  1.00  0.00     0.002 A 
ATOM     69  C   UNL A   1      42.375  27.655  35.593  1.00  0.00     0.091 A 
ATOM     70  F   UNL A   1      41.579  27.652  33.392  1.00  0.00    -0.205 F 
ATOM     71  C   UNL A   1      42.964  28.339  36.657  1.00  0.00     0.022 A 
BRANCH  69  72
ATOM     72  S   UNL A   1      42.285  25.863  35.689  1.00  0.00     0.127 S 
ATOM     73  O   UNL A   1      42.846  25.614  37.017  1.00  0.00    -0.237 OA
ATOM     74  O   UNL A   1      40.844  25.634  35.574  1.00  0.00    -0.237 OA
ATOM     75  O   UNL A   1      43.061  25.369  34.564  1.00  0.00    -0.744 OA
ENDBRANCH  69  72
ENDBRANCH  51  65
BRANCH  52  76
ATOM     76  C   UNL A   1      42.940  24.660  27.670  1.00  0.00     0.023 A 
ATOM     77  C   UNL A   1      41.890  23.774  28.017  1.00  0.00     0.012 A 
ATOM     78  C   UNL A   1      43.911  24.183  26.764  1.00  0.00     0.148 A 
ATOM     79  C   UNL A   1      41.761  22.516  27.411  1.00  0.00     0.002 A 
ATOM     80  C   UNL A   1      43.785  22.928  26.173  1.00  0.00     0.091 A 
ATOM     81  F   UNL A   1      44.912  24.986  26.392  1.00  0.00    -0.205 F 
ATOM     82  C   UNL A   1      42.698  22.101  26.473  1.00  0.00     0.022 A 
BRANCH  80  83
ATOM     83  S   UNL A   1      44.965  22.348  24.946  1.00  0.00     0.127 S 
ATOM     84  O   UNL A   1      44.946  23.430  23.962  1.00  0.00    -0.237 OA
ATOM     85  O   UNL A   1      46.190  22.246  25.727  1.00  0.00    -0.237 OA
ATOM     86  O   UNL A   1      44.420  21.086  24.447  1.00  0.00    -0.744 OA
ENDBRANCH  80  83
ENDBRANCH  52  76
BRANCH  64  87
ATOM     87  C   UNL A   1      44.905  30.604  28.378  1.00  0.00     0.023 A 
ATOM     88  C   UNL A   1      43.944  31.033  27.442  1.00  0.00     0.012 A 
ATOM     89  C   UNL A   1      46.249  30.970  28.210  1.00  0.00     0.148 A 
ATOM     90  C   UNL A   1      44.325  31.832  26.360  1.00  0.00     0.002 A 
ATOM     91  C   UNL A   1      46.615  31.801  27.163  1.00  0.00     0.091 A 
ATOM     92  F   UNL A   1      47.138  30.538  29.117  1.00  0.00    -0.205 F 
ATOM     93  C   UNL A   1      45.657  32.231  26.232  1.00  0.00     0.022 A 
BRANCH  91  94
ATOM     94  S   UNL A   1      48.280  32.453  27.023  1.00  0.00     0.127 S 
ATOM     95  O   UNL A   1      49.014  31.305  26.495  1.00  0.00    -0.237 OA
ATOM     96  O   UNL A   1      48.098  33.554  26.076  1.00  0.00    -0.237 OA
ATOM     97  O   UNL A   1      48.667  32.875  28.363  1.00  0.00    -0.744 OA
ENDBRANCH  91  94
ENDBRANCH  64  87
ENDBRANCH  38  39
ENDBRANCH  30  33
ENDBRANCH  28  29
ENDBRANCH   1  28
TORSDOF 17
ENDMDL
