MODEL 1
REMARK VINA RESULT:     -10.5      0.000      0.000
REMARK SMILES O=C(CNc1nc(-c2ccccc2)c(-c2ccccc2)s1)NCCCNC(=O)c1ccc(-c2c3nc(c(-c4cccc(S(=O)(=O)[O-])c4F)c4ccc([nH]4)c(-c4cccc(S(=O)(=O)[O-])c4F)c4nc(c(-c5cccc(S(=O)(=O)[O-])c5F)c5ccc2[nH]5)C=C4)C=C3)cc1
REMARK SMILES IDX 24 1 23 2 22 3 1 4 2 5 3 7 4 8 5 10 6 11 21 12 7 13 14 14
REMARK SMILES IDX 8 15 9 16 13 17 10 18 12 19 11 20 15 21 16 22 20 23 17 24
REMARK SMILES IDX 19 25 18 26 25 27 26 28 27 29 28 31 29 32 30 33 91 34 31 35
REMARK SMILES IDX 90 36 32 37 33 38 34 39 84 40 35 41 89 42 83 43 85 44 36 45
REMARK SMILES IDX 88 46 82 47 81 48 37 50 69 51 49 52 68 53 50 54 53 55 67 56
REMARK SMILES IDX 86 57 51 58 52 59 66 61 87 62 54 63 38 64 39 65 47 66 40 67
REMARK SMILES IDX 42 68 48 69 41 70 43 71 44 72 45 73 46 74 70 75 71 76 79 77
REMARK SMILES IDX 72 78 74 79 80 80 73 81 75 82 76 83 77 84 78 85 55 86 56 87
REMARK SMILES IDX 64 88 57 89 59 90 65 91 58 92 60 93 61 94 62 95 63 96
REMARK H PARENT 22 6 4 9 26 30 85 49 53 60
REMARK Flexibility Score: inf
ROOT
ATOM      1  C   UNL A   1      34.404  34.495  28.602  1.00  0.00     0.042 C 
ENDROOT
BRANCH   1   2
ATOM      2  C   UNL A   1      33.320  35.329  29.273  1.00  0.00     0.117 C 
BRANCH   2   3
ATOM      3  N   UNL A   1      33.803  36.055  30.428  1.00  0.00    -0.355 N 
ATOM      4  O   UNL A   1      31.756  36.463  31.411  1.00  0.00    -0.273 OA
ATOM      5  C   UNL A   1      32.980  36.548  31.426  1.00  0.00     0.239 C 
ATOM      6  H   UNL A   1      34.773  36.207  30.509  1.00  0.00     0.163 HD
BRANCH   5   7
ATOM      7  C   UNL A   1      33.760  37.214  32.572  1.00  0.00     0.215 C 
BRANCH   7   8
ATOM      8  N   UNL A   1      34.097  36.196  33.559  1.00  0.00    -0.352 N 
ATOM      9  H   UNL A   1      33.579  36.151  34.395  1.00  0.00     0.163 HD
BRANCH   8  10
ATOM     10  C   UNL A   1      35.093  35.316  33.360  1.00  0.00     0.184 A 
ATOM     11  N   UNL A   1      36.083  35.453  32.512  1.00  0.00    -0.220 NA
ATOM     12  S   UNL A   1      35.089  33.849  34.256  1.00  0.00    -0.096 S 
ATOM     13  C   UNL A   1      36.886  34.321  32.536  1.00  0.00     0.091 A 
ATOM     14  C   UNL A   1      36.469  33.312  33.393  1.00  0.00     0.064 A 
BRANCH  13  15
ATOM     15  C   UNL A   1      38.105  34.238  31.746  1.00  0.00     0.002 A 
ATOM     16  C   UNL A   1      39.357  34.509  32.316  1.00  0.00     0.010 A 
ATOM     17  C   UNL A   1      38.018  33.973  30.374  1.00  0.00     0.010 A 
ATOM     18  C   UNL A   1      40.498  34.558  31.515  1.00  0.00     0.001 A 
ATOM     19  C   UNL A   1      39.162  34.028  29.573  1.00  0.00     0.001 A 
ATOM     20  C   UNL A   1      40.398  34.329  30.143  1.00  0.00     0.000 A 
ENDBRANCH  13  15
BRANCH  14  21
ATOM     21  C   UNL A   1      37.029  31.990  33.667  1.00  0.00    -0.006 A 
ATOM     22  C   UNL A   1      36.702  30.898  32.851  1.00  0.00     0.009 A 
ATOM     23  C   UNL A   1      37.946  31.810  34.711  1.00  0.00     0.009 A 
ATOM     24  C   UNL A   1      37.287  29.650  33.072  1.00  0.00     0.001 A 
ATOM     25  C   UNL A   1      38.531  30.561  34.930  1.00  0.00     0.001 A 
ATOM     26  C   UNL A   1      38.202  29.483  34.110  1.00  0.00     0.000 A 
ENDBRANCH  14  21
ENDBRANCH   8  10
ENDBRANCH   7   8
ENDBRANCH   5   7
ENDBRANCH   2   3
ENDBRANCH   1   2
BRANCH   1  27
ATOM     27  C   UNL A   1      34.541  33.070  29.133  1.00  0.00     0.118 C 
BRANCH  27  28
ATOM     28  N   UNL A   1      34.070  32.054  28.200  1.00  0.00    -0.352 N 
ATOM     29  C   UNL A   1      34.686  30.913  27.747  1.00  0.00     0.251 C 
ATOM     30  H   UNL A   1      33.169  32.211  27.837  1.00  0.00     0.163 HD
ATOM     31  O   UNL A   1      34.146  30.254  26.857  1.00  0.00    -0.269 OA
BRANCH  29  32
ATOM     32  C   UNL A   1      35.992  30.476  28.293  1.00  0.00     0.039 A 
ATOM     33  C   UNL A   1      36.008  29.499  29.294  1.00  0.00     0.014 A 
ATOM     34  C   UNL A   1      37.194  31.032  27.848  1.00  0.00     0.014 A 
ATOM     35  C   UNL A   1      37.228  29.034  29.797  1.00  0.00     0.010 A 
ATOM     36  C   UNL A   1      38.409  30.510  28.293  1.00  0.00     0.010 A 
ATOM     37  C   UNL A   1      38.442  29.509  29.275  1.00  0.00    -0.014 A 
BRANCH  37  38
ATOM     38  C   UNL A   1      39.747  28.958  29.731  1.00  0.00     0.031 A 
ATOM     39  C   UNL A   1      40.522  29.635  30.831  1.00  0.00     0.074 A 
ATOM     40  C   UNL A   1      40.280  27.892  29.098  1.00  0.00     0.049 A 
ATOM     41  N   UNL A   1      41.698  29.331  31.320  1.00  0.00    -0.248 NA
ATOM     42  C   UNL A   1      39.908  30.821  31.448  1.00  0.00     0.031 C 
ATOM     43  C   UNL A   1      39.669  27.187  27.969  1.00  0.00     0.029 A 
ATOM     44  N   UNL A   1      41.468  27.232  29.295  1.00  0.00    -0.354 N 
ATOM     45  C   UNL A   1      41.980  30.304  32.270  1.00  0.00     0.074 A 
ATOM     46  C   UNL A   1      40.866  31.228  32.268  1.00  0.00     0.031 C 
ATOM     47  C   UNL A   1      40.482  26.193  27.578  1.00  0.00     0.029 A 
ATOM     48  C   UNL A   1      41.688  26.210  28.400  1.00  0.00     0.049 A 
ATOM     49  H   UNL A   1      42.103  27.467  30.010  1.00  0.00     0.167 HD
ATOM     50  C   UNL A   1      43.054  30.408  33.091  1.00  0.00     0.034 A 
ATOM     51  C   UNL A   1      42.745  25.388  28.246  1.00  0.00     0.034 A 
ATOM     52  C   UNL A   1      44.145  29.472  33.116  1.00  0.00     0.049 A 
ATOM     53  C   UNL A   1      43.915  25.512  29.184  1.00  0.00     0.074 A 
ATOM     54  C   UNL A   1      45.233  29.444  33.971  1.00  0.00     0.029 A 
ATOM     55  N   UNL A   1      44.296  28.406  32.243  1.00  0.00    -0.354 N 
ATOM     56  N   UNL A   1      44.089  26.343  30.182  1.00  0.00    -0.248 NA
ATOM     57  C   UNL A   1      45.021  24.561  28.997  1.00  0.00     0.031 C 
ATOM     58  C   UNL A   1      46.062  28.383  33.591  1.00  0.00     0.029 A 
ATOM     59  C   UNL A   1      45.468  27.724  32.526  1.00  0.00     0.049 A 
ATOM     60  H   UNL A   1      43.664  28.169  31.527  1.00  0.00     0.167 HD
ATOM     61  C   UNL A   1      45.303  25.993  30.764  1.00  0.00     0.074 A 
ATOM     62  C   UNL A   1      45.810  24.859  30.021  1.00  0.00     0.031 C 
ATOM     63  C   UNL A   1      45.943  26.567  31.813  1.00  0.00     0.034 A 
BRANCH  50  64
ATOM     64  C   UNL A   1      43.084  31.560  34.064  1.00  0.00     0.023 A 
ATOM     65  C   UNL A   1      43.649  32.791  33.672  1.00  0.00     0.012 A 
ATOM     66  C   UNL A   1      42.499  31.446  35.341  1.00  0.00     0.148 A 
ATOM     67  C   UNL A   1      43.668  33.877  34.547  1.00  0.00     0.002 A 
ATOM     68  C   UNL A   1      42.478  32.546  36.190  1.00  0.00     0.091 A 
ATOM     69  F   UNL A   1      41.980  30.263  35.703  1.00  0.00    -0.205 F 
ATOM     70  C   UNL A   1      43.074  33.757  35.801  1.00  0.00     0.022 A 
BRANCH  68  71
ATOM     71  S   UNL A   1      41.667  32.522  37.792  1.00  0.00     0.127 S 
ATOM     72  O   UNL A   1      40.303  32.142  37.425  1.00  0.00    -0.237 OA
ATOM     73  O   UNL A   1      42.419  31.486  38.501  1.00  0.00    -0.237 OA
ATOM     74  O   UNL A   1      41.815  33.863  38.339  1.00  0.00    -0.744 OA
ENDBRANCH  68  71
ENDBRANCH  50  64
BRANCH  51  75
ATOM     75  C   UNL A   1      42.725  24.336  27.190  1.00  0.00     0.023 A 
ATOM     76  C   UNL A   1      43.339  24.588  25.947  1.00  0.00     0.012 A 
ATOM     77  C   UNL A   1      42.117  23.086  27.413  1.00  0.00     0.148 A 
ATOM     78  C   UNL A   1      43.316  23.630  24.934  1.00  0.00     0.002 A 
ATOM     79  C   UNL A   1      42.146  22.114  26.420  1.00  0.00     0.091 A 
ATOM     80  F   UNL A   1      41.529  22.869  28.598  1.00  0.00    -0.205 F 
ATOM     81  C   UNL A   1      42.728  22.390  25.173  1.00  0.00     0.022 A 
BRANCH  79  82
ATOM     82  S   UNL A   1      41.530  20.448  26.682  1.00  0.00     0.127 S 
ATOM     83  O   UNL A   1      42.293  20.029  27.856  1.00  0.00    -0.237 OA
ATOM     84  O   UNL A   1      40.108  20.688  26.925  1.00  0.00    -0.237 OA
ATOM     85  O   UNL A   1      41.817  19.723  25.452  1.00  0.00    -0.744 OA
ENDBRANCH  79  82
ENDBRANCH  51  75
BRANCH  63  86
ATOM     86  C   UNL A   1      47.249  25.957  32.257  1.00  0.00     0.023 A 
ATOM     87  C   UNL A   1      48.460  26.381  31.676  1.00  0.00     0.012 A 
ATOM     88  C   UNL A   1      47.277  25.015  33.306  1.00  0.00     0.148 A 
ATOM     89  C   UNL A   1      49.676  25.851  32.107  1.00  0.00     0.002 A 
ATOM     90  C   UNL A   1      48.496  24.533  33.766  1.00  0.00     0.091 A 
ATOM     91  F   UNL A   1      46.113  24.612  33.835  1.00  0.00    -0.205 F 
ATOM     92  C   UNL A   1      49.695  24.938  33.159  1.00  0.00     0.022 A 
BRANCH  90  93
ATOM     93  S   UNL A   1      48.626  23.432  35.179  1.00  0.00     0.127 S 
ATOM     94  O   UNL A   1      50.073  23.245  35.280  1.00  0.00    -0.237 OA
ATOM     95  O   UNL A   1      48.038  24.235  36.252  1.00  0.00    -0.237 OA
ATOM     96  O   UNL A   1      47.868  22.237  34.832  1.00  0.00    -0.744 OA
ENDBRANCH  90  93
ENDBRANCH  63  86
ENDBRANCH  37  38
ENDBRANCH  29  32
ENDBRANCH  27  28
ENDBRANCH   1  27
TORSDOF 17
ENDMDL
MODEL 2
REMARK VINA RESULT:     -10.1      4.159      7.209
REMARK SMILES O=C(CNc1nc(-c2ccccc2)c(-c2ccccc2)s1)NCCCNC(=O)c1ccc(-c2c3nc(c(-c4cccc(S(=O)(=O)[O-])c4F)c4ccc([nH]4)c(-c4cccc(S(=O)(=O)[O-])c4F)c4nc(c(-c5cccc(S(=O)(=O)[O-])c5F)c5ccc2[nH]5)C=C4)C=C3)cc1
REMARK SMILES IDX 24 1 23 2 22 3 1 4 2 5 3 7 4 8 5 10 6 11 21 12 7 13 14 14
REMARK SMILES IDX 8 15 9 16 13 17 10 18 12 19 11 20 15 21 16 22 20 23 17 24
REMARK SMILES IDX 19 25 18 26 25 27 26 28 27 29 28 31 29 32 30 33 91 34 31 35
REMARK SMILES IDX 90 36 32 37 33 38 34 39 84 40 35 41 89 42 83 43 85 44 36 45
REMARK SMILES IDX 88 46 82 47 81 48 37 50 69 51 49 52 68 53 50 54 53 55 67 56
REMARK SMILES IDX 86 57 51 58 52 59 66 61 87 62 54 63 38 64 39 65 47 66 40 67
REMARK SMILES IDX 42 68 48 69 41 70 43 71 44 72 45 73 46 74 70 75 71 76 79 77
REMARK SMILES IDX 72 78 74 79 80 80 73 81 75 82 76 83 77 84 78 85 55 86 56 87
REMARK SMILES IDX 64 88 57 89 59 90 65 91 58 92 60 93 61 94 62 95 63 96
REMARK H PARENT 22 6 4 9 26 30 85 49 53 60
REMARK Flexibility Score: inf
ROOT
ATOM      1  C   UNL A   1      33.505  28.195  26.840  1.00  0.00     0.042 C 
ENDROOT
BRANCH   1   2
ATOM      2  C   UNL A   1      32.085  28.311  27.380  1.00  0.00     0.117 C 
BRANCH   2   3
ATOM      3  N   UNL A   1      31.277  27.146  27.090  1.00  0.00    -0.355 N 
ATOM      4  O   UNL A   1      30.863  27.607  24.868  1.00  0.00    -0.273 OA
ATOM      5  C   UNL A   1      30.745  26.871  25.841  1.00  0.00     0.239 C 
ATOM      6  H   UNL A   1      31.094  26.512  27.822  1.00  0.00     0.163 HD
BRANCH   5   7
ATOM      7  C   UNL A   1      29.989  25.532  25.794  1.00  0.00     0.215 C 
BRANCH   7   8
ATOM      8  N   UNL A   1      30.678  24.578  26.653  1.00  0.00    -0.352 N 
ATOM      9  H   UNL A   1      30.537  24.622  27.626  1.00  0.00     0.163 HD
BRANCH   8  10
ATOM     10  C   UNL A   1      31.499  23.638  26.155  1.00  0.00     0.184 A 
ATOM     11  N   UNL A   1      32.771  23.795  25.881  1.00  0.00    -0.220 NA
ATOM     12  S   UNL A   1      30.857  22.083  25.803  1.00  0.00    -0.096 S 
ATOM     13  C   UNL A   1      33.283  22.629  25.326  1.00  0.00     0.091 A 
ATOM     14  C   UNL A   1      32.368  21.599  25.157  1.00  0.00     0.064 A 
BRANCH  13  15
ATOM     15  C   UNL A   1      34.694  22.500  24.998  1.00  0.00     0.002 A 
ATOM     16  C   UNL A   1      35.199  22.969  23.777  1.00  0.00     0.010 A 
ATOM     17  C   UNL A   1      35.543  21.814  25.875  1.00  0.00     0.010 A 
ATOM     18  C   UNL A   1      36.525  22.715  23.421  1.00  0.00     0.001 A 
ATOM     19  C   UNL A   1      36.869  21.558  25.514  1.00  0.00     0.001 A 
ATOM     20  C   UNL A   1      37.355  22.000  24.284  1.00  0.00     0.000 A 
ENDBRANCH  13  15
BRANCH  14  21
ATOM     21  C   UNL A   1      32.523  20.259  24.595  1.00  0.00    -0.006 A 
ATOM     22  C   UNL A   1      32.885  19.182  25.417  1.00  0.00     0.009 A 
ATOM     23  C   UNL A   1      32.251  20.020  23.241  1.00  0.00     0.009 A 
ATOM     24  C   UNL A   1      32.969  17.890  24.895  1.00  0.00     0.001 A 
ATOM     25  C   UNL A   1      32.335  18.727  22.721  1.00  0.00     0.001 A 
ATOM     26  C   UNL A   1      32.691  17.664  23.548  1.00  0.00     0.000 A 
ENDBRANCH  14  21
ENDBRANCH   8  10
ENDBRANCH   7   8
ENDBRANCH   5   7
ENDBRANCH   2   3
ENDBRANCH   1   2
BRANCH   1  27
ATOM     27  C   UNL A   1      34.027  29.441  26.129  1.00  0.00     0.118 C 
BRANCH  27  28
ATOM     28  N   UNL A   1      33.864  30.664  26.906  1.00  0.00    -0.352 N 
ATOM     29  C   UNL A   1      34.616  31.161  27.943  1.00  0.00     0.251 C 
ATOM     30  H   UNL A   1      33.095  31.220  26.647  1.00  0.00     0.163 HD
ATOM     31  O   UNL A   1      34.222  32.164  28.540  1.00  0.00    -0.269 OA
BRANCH  29  32
ATOM     32  C   UNL A   1      35.873  30.502  28.365  1.00  0.00     0.039 A 
ATOM     33  C   UNL A   1      37.023  30.688  27.588  1.00  0.00     0.014 A 
ATOM     34  C   UNL A   1      35.929  29.690  29.500  1.00  0.00     0.014 A 
ATOM     35  C   UNL A   1      38.235  30.115  27.986  1.00  0.00     0.010 A 
ATOM     36  C   UNL A   1      37.155  29.187  29.938  1.00  0.00     0.010 A 
ATOM     37  C   UNL A   1      38.321  29.390  29.185  1.00  0.00    -0.014 A 
BRANCH  37  38
ATOM     38  C   UNL A   1      39.622  28.854  29.673  1.00  0.00     0.031 A 
ATOM     39  C   UNL A   1      40.364  29.545  30.788  1.00  0.00     0.074 A 
ATOM     40  C   UNL A   1      40.179  27.791  29.058  1.00  0.00     0.049 A 
ATOM     41  N   UNL A   1      41.531  29.256  31.305  1.00  0.00    -0.248 NA
ATOM     42  C   UNL A   1      39.723  30.728  31.384  1.00  0.00     0.031 C 
ATOM     43  C   UNL A   1      39.602  27.074  27.919  1.00  0.00     0.029 A 
ATOM     44  N   UNL A   1      41.369  27.144  29.286  1.00  0.00    -0.354 N 
ATOM     45  C   UNL A   1      41.781  30.237  32.256  1.00  0.00     0.074 A 
ATOM     46  C   UNL A   1      40.659  31.149  32.223  1.00  0.00     0.031 C 
ATOM     47  C   UNL A   1      40.434  26.087  27.552  1.00  0.00     0.029 A 
ATOM     48  C   UNL A   1      41.620  26.120  28.402  1.00  0.00     0.049 A 
ATOM     49  H   UNL A   1      41.985  27.389  30.014  1.00  0.00     0.167 HD
ATOM     50  C   UNL A   1      42.835  30.356  33.100  1.00  0.00     0.034 A 
ATOM     51  C   UNL A   1      42.689  25.308  28.276  1.00  0.00     0.034 A 
ATOM     52  C   UNL A   1      43.935  29.430  33.156  1.00  0.00     0.049 A 
ATOM     53  C   UNL A   1      43.836  25.449  29.240  1.00  0.00     0.074 A 
ATOM     54  C   UNL A   1      45.003  29.419  34.036  1.00  0.00     0.029 A 
ATOM     55  N   UNL A   1      44.117  28.362  32.292  1.00  0.00    -0.354 N 
ATOM     56  N   UNL A   1      43.979  26.287  30.238  1.00  0.00    -0.248 NA
ATOM     57  C   UNL A   1      44.955  24.508  29.084  1.00  0.00     0.031 C 
ATOM     58  C   UNL A   1      45.851  28.364  33.680  1.00  0.00     0.029 A 
ATOM     59  C   UNL A   1      45.289  27.694  32.605  1.00  0.00     0.049 A 
ATOM     60  H   UNL A   1      43.504  28.115  31.563  1.00  0.00     0.167 HD
ATOM     61  C   UNL A   1      45.182  25.952  30.849  1.00  0.00     0.074 A 
ATOM     62  C   UNL A   1      45.718  24.819  30.124  1.00  0.00     0.031 C 
ATOM     63  C   UNL A   1      45.791  26.538  31.910  1.00  0.00     0.034 A 
BRANCH  50  64
ATOM     64  C   UNL A   1      42.831  31.513  34.068  1.00  0.00     0.023 A 
ATOM     65  C   UNL A   1      43.427  32.736  33.697  1.00  0.00     0.012 A 
ATOM     66  C   UNL A   1      42.185  31.412  35.316  1.00  0.00     0.148 A 
ATOM     67  C   UNL A   1      43.416  33.826  34.566  1.00  0.00     0.002 A 
ATOM     68  C   UNL A   1      42.136  32.517  36.157  1.00  0.00     0.091 A 
ATOM     69  F   UNL A   1      41.637  30.237  35.659  1.00  0.00    -0.205 F 
ATOM     70  C   UNL A   1      42.762  33.720  35.791  1.00  0.00     0.022 A 
BRANCH  68  71
ATOM     71  S   UNL A   1      41.249  32.510  37.719  1.00  0.00     0.127 S 
ATOM     72  O   UNL A   1      42.069  31.601  38.519  1.00  0.00    -0.237 OA
ATOM     73  O   UNL A   1      41.326  33.915  38.122  1.00  0.00    -0.237 OA
ATOM     74  O   UNL A   1      39.906  32.037  37.418  1.00  0.00    -0.744 OA
ENDBRANCH  68  71
ENDBRANCH  50  64
BRANCH  51  75
ATOM     75  C   UNL A   1      42.704  24.251  27.225  1.00  0.00     0.023 A 
ATOM     76  C   UNL A   1      43.374  24.490  26.010  1.00  0.00     0.012 A 
ATOM     77  C   UNL A   1      42.073  23.008  27.429  1.00  0.00     0.148 A 
ATOM     78  C   UNL A   1      43.385  23.526  25.001  1.00  0.00     0.002 A 
ATOM     79  C   UNL A   1      42.136  22.031  26.442  1.00  0.00     0.091 A 
ATOM     80  F   UNL A   1      41.433  22.803  28.588  1.00  0.00    -0.205 F 
ATOM     81  C   UNL A   1      42.774  22.294  25.220  1.00  0.00     0.022 A 
BRANCH  79  82
ATOM     82  S   UNL A   1      41.492  20.373  26.686  1.00  0.00     0.127 S 
ATOM     83  O   UNL A   1      42.244  19.929  27.858  1.00  0.00    -0.237 OA
ATOM     84  O   UNL A   1      40.072  20.634  26.927  1.00  0.00    -0.237 OA
ATOM     85  O   UNL A   1      41.770  19.656  25.449  1.00  0.00    -0.744 OA
ENDBRANCH  79  82
ENDBRANCH  51  75
BRANCH  63  86
ATOM     86  C   UNL A   1      47.093  25.944  32.387  1.00  0.00     0.023 A 
ATOM     87  C   UNL A   1      48.317  26.426  31.883  1.00  0.00     0.012 A 
ATOM     88  C   UNL A   1      47.101  24.955  33.392  1.00  0.00     0.148 A 
ATOM     89  C   UNL A   1      49.526  25.910  32.346  1.00  0.00     0.002 A 
ATOM     90  C   UNL A   1      48.311  24.485  33.887  1.00  0.00     0.091 A 
ATOM     91  F   UNL A   1      45.926  24.497  33.848  1.00  0.00    -0.205 F 
ATOM     92  C   UNL A   1      49.524  24.950  33.356  1.00  0.00     0.022 A 
BRANCH  90  93
ATOM     93  S   UNL A   1      48.408  23.324  35.254  1.00  0.00     0.127 S 
ATOM     94  O   UNL A   1      49.853  23.196  35.435  1.00  0.00    -0.237 OA
ATOM     95  O   UNL A   1      47.721  24.048  36.324  1.00  0.00    -0.237 OA
ATOM     96  O   UNL A   1      47.728  22.116  34.807  1.00  0.00    -0.744 OA
ENDBRANCH  90  93
ENDBRANCH  63  86
ENDBRANCH  37  38
ENDBRANCH  29  32
ENDBRANCH  27  28
ENDBRANCH   1  27
TORSDOF 17
ENDMDL
MODEL 3
REMARK VINA RESULT:      -9.8      4.471      7.449
REMARK SMILES O=C(CNc1nc(-c2ccccc2)c(-c2ccccc2)s1)NCCCNC(=O)c1ccc(-c2c3nc(c(-c4cccc(S(=O)(=O)[O-])c4F)c4ccc([nH]4)c(-c4cccc(S(=O)(=O)[O-])c4F)c4nc(c(-c5cccc(S(=O)(=O)[O-])c5F)c5ccc2[nH]5)C=C4)C=C3)cc1
REMARK SMILES IDX 24 1 23 2 22 3 1 4 2 5 3 7 4 8 5 10 6 11 21 12 7 13 14 14
REMARK SMILES IDX 8 15 9 16 13 17 10 18 12 19 11 20 15 21 16 22 20 23 17 24
REMARK SMILES IDX 19 25 18 26 25 27 26 28 27 29 28 31 29 32 30 33 91 34 31 35
REMARK SMILES IDX 90 36 32 37 33 38 34 39 84 40 35 41 89 42 83 43 85 44 36 45
REMARK SMILES IDX 88 46 82 47 81 48 37 50 69 51 49 52 68 53 50 54 53 55 67 56
REMARK SMILES IDX 86 57 51 58 52 59 66 61 87 62 54 63 38 64 39 65 47 66 40 67
REMARK SMILES IDX 42 68 48 69 41 70 43 71 44 72 45 73 46 74 70 75 71 76 79 77
REMARK SMILES IDX 72 78 74 79 80 80 73 81 75 82 76 83 77 84 78 85 55 86 56 87
REMARK SMILES IDX 64 88 57 89 59 90 65 91 58 92 60 93 61 94 62 95 63 96
REMARK H PARENT 22 6 4 9 26 30 85 49 53 60
REMARK Flexibility Score: inf
ROOT
ATOM      1  C   UNL A   1      31.793  29.733  27.202  1.00  0.00     0.042 C 
ENDROOT
BRANCH   1   2
ATOM      2  C   UNL A   1      32.194  28.302  27.539  1.00  0.00     0.117 C 
BRANCH   2   3
ATOM      3  N   UNL A   1      31.199  27.331  27.136  1.00  0.00    -0.355 N 
ATOM      4  O   UNL A   1      31.599  27.409  24.865  1.00  0.00    -0.273 OA
ATOM      5  C   UNL A   1      30.994  26.940  25.823  1.00  0.00     0.239 C 
ATOM      6  H   UNL A   1      30.636  26.925  27.835  1.00  0.00     0.163 HD
BRANCH   5   7
ATOM      7  C   UNL A   1      29.926  25.841  25.685  1.00  0.00     0.215 C 
BRANCH   7   8
ATOM      8  N   UNL A   1      30.330  24.696  26.491  1.00  0.00    -0.352 N 
ATOM      9  H   UNL A   1      29.929  24.572  27.382  1.00  0.00     0.163 HD
BRANCH   8  10
ATOM     10  C   UNL A   1      31.233  23.802  26.053  1.00  0.00     0.184 A 
ATOM     11  N   UNL A   1      32.505  24.035  25.840  1.00  0.00    -0.220 NA
ATOM     12  S   UNL A   1      30.708  22.204  25.700  1.00  0.00    -0.096 S 
ATOM     13  C   UNL A   1      33.116  22.896  25.334  1.00  0.00     0.091 A 
ATOM     14  C   UNL A   1      32.278  21.807  25.140  1.00  0.00     0.064 A 
BRANCH  13  15
ATOM     15  C   UNL A   1      34.548  22.851  25.079  1.00  0.00     0.002 A 
ATOM     16  C   UNL A   1      35.472  23.144  26.091  1.00  0.00     0.010 A 
ATOM     17  C   UNL A   1      35.007  22.603  23.780  1.00  0.00     0.010 A 
ATOM     18  C   UNL A   1      36.834  23.230  25.796  1.00  0.00     0.001 A 
ATOM     19  C   UNL A   1      36.370  22.694  23.487  1.00  0.00     0.001 A 
ATOM     20  C   UNL A   1      37.280  23.017  24.493  1.00  0.00     0.000 A 
ENDBRANCH  13  15
BRANCH  14  21
ATOM     21  C   UNL A   1      32.545  20.470  24.613  1.00  0.00    -0.006 A 
ATOM     22  C   UNL A   1      33.078  19.473  25.443  1.00  0.00     0.009 A 
ATOM     23  C   UNL A   1      32.215  20.149  23.289  1.00  0.00     0.009 A 
ATOM     24  C   UNL A   1      33.272  18.178  24.959  1.00  0.00     0.001 A 
ATOM     25  C   UNL A   1      32.409  18.853  22.808  1.00  0.00     0.001 A 
ATOM     26  C   UNL A   1      32.935  17.869  23.642  1.00  0.00     0.000 A 
ENDBRANCH  14  21
ENDBRANCH   8  10
ENDBRANCH   7   8
ENDBRANCH   5   7
ENDBRANCH   2   3
ENDBRANCH   1   2
BRANCH   1  27
ATOM     27  C   UNL A   1      32.842  30.531  26.432  1.00  0.00     0.118 C 
BRANCH  27  28
ATOM     28  N   UNL A   1      32.893  31.939  26.808  1.00  0.00    -0.352 N 
ATOM     29  C   UNL A   1      33.776  32.607  27.622  1.00  0.00     0.251 C 
ATOM     30  H   UNL A   1      32.183  32.498  26.418  1.00  0.00     0.163 HD
ATOM     31  O   UNL A   1      33.557  33.787  27.901  1.00  0.00    -0.269 OA
BRANCH  29  32
ATOM     32  C   UNL A   1      34.967  31.929  28.183  1.00  0.00     0.039 A 
ATOM     33  C   UNL A   1      36.187  32.614  28.192  1.00  0.00     0.014 A 
ATOM     34  C   UNL A   1      34.902  30.625  28.679  1.00  0.00     0.014 A 
ATOM     35  C   UNL A   1      37.319  32.018  28.756  1.00  0.00     0.010 A 
ATOM     36  C   UNL A   1      36.011  30.064  29.313  1.00  0.00     0.010 A 
ATOM     37  C   UNL A   1      37.234  30.751  29.356  1.00  0.00    -0.014 A 
BRANCH  37  38
ATOM     38  C   UNL A   1      38.404  30.141  30.045  1.00  0.00     0.031 A 
ATOM     39  C   UNL A   1      38.795  30.588  31.430  1.00  0.00     0.074 A 
ATOM     40  C   UNL A   1      39.167  29.239  29.394  1.00  0.00     0.049 A 
ATOM     41  N   UNL A   1      39.813  30.211  32.162  1.00  0.00    -0.248 NA
ATOM     42  C   UNL A   1      37.948  31.609  32.066  1.00  0.00     0.031 C 
ATOM     43  C   UNL A   1      38.942  28.773  28.024  1.00  0.00     0.029 A 
ATOM     44  N   UNL A   1      40.303  28.574  29.787  1.00  0.00    -0.354 N 
ATOM     45  C   UNL A   1      39.750  30.971  33.323  1.00  0.00     0.074 A 
ATOM     46  C   UNL A   1      38.613  31.854  33.186  1.00  0.00     0.031 C 
ATOM     47  C   UNL A   1      39.904  27.897  27.694  1.00  0.00     0.029 A 
ATOM     48  C   UNL A   1      40.835  27.765  28.810  1.00  0.00     0.049 A 
ATOM     49  H   UNL A   1      40.699  28.667  30.683  1.00  0.00     0.167 HD
ATOM     50  C   UNL A   1      40.548  30.921  34.417  1.00  0.00     0.034 A 
ATOM     51  C   UNL A   1      41.953  27.011  28.804  1.00  0.00     0.034 A 
ATOM     52  C   UNL A   1      41.659  30.019  34.568  1.00  0.00     0.049 A 
ATOM     53  C   UNL A   1      42.810  26.959  30.039  1.00  0.00     0.074 A 
ATOM     54  C   UNL A   1      42.471  29.835  35.672  1.00  0.00     0.029 A 
ATOM     55  N   UNL A   1      42.123  29.161  33.583  1.00  0.00    -0.354 N 
ATOM     56  N   UNL A   1      42.642  27.568  31.188  1.00  0.00    -0.248 NA
ATOM     57  C   UNL A   1      43.994  26.088  29.992  1.00  0.00     0.031 C 
ATOM     58  C   UNL A   1      43.450  28.891  35.343  1.00  0.00     0.029 A 
ATOM     59  C   UNL A   1      43.221  28.457  34.047  1.00  0.00     0.049 A 
ATOM     60  H   UNL A   1      41.730  29.067  32.686  1.00  0.00     0.167 HD
ATOM     61  C   UNL A   1      43.674  27.126  32.009  1.00  0.00     0.074 A 
ATOM     62  C   UNL A   1      44.449  26.181  31.234  1.00  0.00     0.031 C 
ATOM     63  C   UNL A   1      43.958  27.481  33.287  1.00  0.00     0.034 A 
BRANCH  50  64
ATOM     64  C   UNL A   1      40.225  31.846  35.564  1.00  0.00     0.023 A 
ATOM     65  C   UNL A   1      40.990  33.015  35.755  1.00  0.00     0.012 A 
ATOM     66  C   UNL A   1      39.129  31.593  36.412  1.00  0.00     0.148 A 
ATOM     67  C   UNL A   1      40.696  33.896  36.795  1.00  0.00     0.002 A 
ATOM     68  C   UNL A   1      38.811  32.501  37.416  1.00  0.00     0.091 A 
ATOM     69  F   UNL A   1      38.422  30.469  36.226  1.00  0.00    -0.205 F 
ATOM     70  C   UNL A   1      39.601  33.645  37.618  1.00  0.00     0.022 A 
BRANCH  68  71
ATOM     71  S   UNL A   1      37.375  32.312  38.477  1.00  0.00     0.127 S 
ATOM     72  O   UNL A   1      37.848  32.914  39.723  1.00  0.00    -0.237 OA
ATOM     73  O   UNL A   1      36.364  33.096  37.767  1.00  0.00    -0.237 OA
ATOM     74  O   UNL A   1      37.104  30.883  38.539  1.00  0.00    -0.744 OA
ENDBRANCH  68  71
ENDBRANCH  50  64
BRANCH  51  75
ATOM     75  C   UNL A   1      42.302  26.202  27.601  1.00  0.00     0.023 A 
ATOM     76  C   UNL A   1      43.033  26.794  26.553  1.00  0.00     0.012 A 
ATOM     77  C   UNL A   1      41.927  24.848  27.497  1.00  0.00     0.148 A 
ATOM     78  C   UNL A   1      43.352  26.065  25.407  1.00  0.00     0.002 A 
ATOM     79  C   UNL A   1      42.298  24.112  26.379  1.00  0.00     0.091 A 
ATOM     80  F   UNL A   1      41.224  24.305  28.501  1.00  0.00    -0.205 F 
ATOM     81  C   UNL A   1      42.994  24.723  25.324  1.00  0.00     0.022 A 
BRANCH  79  82
ATOM     82  S   UNL A   1      41.994  22.347  26.241  1.00  0.00     0.127 S 
ATOM     83  O   UNL A   1      42.697  22.019  25.002  1.00  0.00    -0.237 OA
ATOM     84  O   UNL A   1      42.624  21.838  27.460  1.00  0.00    -0.237 OA
ATOM     85  O   UNL A   1      40.547  22.198  26.204  1.00  0.00    -0.744 OA
ENDBRANCH  79  82
ENDBRANCH  51  75
BRANCH  63  86
ATOM     86  C   UNL A   1      45.136  26.816  33.954  1.00  0.00     0.023 A 
ATOM     87  C   UNL A   1      46.416  27.398  33.871  1.00  0.00     0.012 A 
ATOM     88  C   UNL A   1      44.954  25.651  34.727  1.00  0.00     0.148 A 
ATOM     89  C   UNL A   1      47.504  26.811  34.517  1.00  0.00     0.002 A 
ATOM     90  C   UNL A   1      46.032  25.103  35.412  1.00  0.00     0.091 A 
ATOM     91  F   UNL A   1      43.731  25.104  34.781  1.00  0.00    -0.205 F 
ATOM     92  C   UNL A   1      47.310  25.673  35.297  1.00  0.00     0.022 A 
BRANCH  90  93
ATOM     93  S   UNL A   1      45.859  23.699  36.519  1.00  0.00     0.127 S 
ATOM     94  O   UNL A   1      44.943  24.226  37.529  1.00  0.00    -0.237 OA
ATOM     95  O   UNL A   1      45.279  22.683  35.640  1.00  0.00    -0.237 OA
ATOM     96  O   UNL A   1      47.201  23.392  36.995  1.00  0.00    -0.744 OA
ENDBRANCH  90  93
ENDBRANCH  63  86
ENDBRANCH  37  38
ENDBRANCH  29  32
ENDBRANCH  27  28
ENDBRANCH   1  27
TORSDOF 17
ENDMDL
