MODEL 1
REMARK VINA RESULT:     -11.8      0.000      0.000
REMARK SMILES O=C(CCN/C(=[NH+]\S(=O)(=O)c1ccccc1)c1ccccc1)NCCCNC(=O)c1ccc(-c2c3nc(c(-c4cccc(S(=O)(=O)[O-])c4F)c4ccc([nH]4)c(-c4cccc(S(=O)(=O)[O-])c4F)c4nc(c(-c5cccc(S(=O)(=O)[O-])c5F)c5ccc2[nH]5)C=C4)C=C3)cc1
REMARK SMILES IDX 24 1 23 2 1 3 2 4 3 6 4 7 5 8 6 9 7 11 17 13 18 14 22 15
REMARK SMILES IDX 19 16 21 17 20 18 8 19 9 20 10 21 11 22 12 23 16 24 13 25
REMARK SMILES IDX 15 26 14 27 25 28 26 29 27 30 28 31 29 33 30 34 31 35 92 36
REMARK SMILES IDX 32 37 91 38 33 39 34 40 35 41 85 42 36 43 90 44 84 45 86 46
REMARK SMILES IDX 37 47 89 48 83 49 82 50 38 52 70 53 50 54 69 55 51 56 54 57
REMARK SMILES IDX 68 58 87 59 52 60 53 61 67 63 88 64 55 65 39 66 40 67 48 68
REMARK SMILES IDX 41 69 43 70 49 71 42 72 44 73 45 74 46 75 47 76 71 77 72 78
REMARK SMILES IDX 80 79 73 80 75 81 81 82 74 83 76 84 77 85 78 86 79 87 56 88
REMARK SMILES IDX 57 89 65 90 58 91 60 92 66 93 59 94 61 95 62 96 63 97 64 98
REMARK H PARENT 23 5 5 10 7 12 27 32 86 51 54 62
REMARK Flexibility Score: inf
ROOT
ATOM      1  C   UNL A   1      36.193  18.965  25.057  1.00  0.00     0.117 C 
ENDROOT
BRANCH   1   2
ATOM      2  N   UNL A   1      35.035  19.709  24.605  1.00  0.00    -0.356 N 
ATOM      3  O   UNL A   1      33.485  18.093  25.136  1.00  0.00    -0.275 OA
ATOM      4  C   UNL A   1      33.760  19.204  24.694  1.00  0.00     0.223 C 
ATOM      5  H   UNL A   1      35.167  20.606  24.221  1.00  0.00     0.163 HD
BRANCH   4   6
ATOM      6  C   UNL A   1      32.684  20.166  24.261  1.00  0.00     0.145 C 
BRANCH   6   7
ATOM      7  C   UNL A   1      32.598  21.323  25.245  1.00  0.00     0.243 C 
BRANCH   7   8
ATOM      8  N   UNL A   1      32.257  22.572  24.577  1.00  0.00    -0.273 N 
ATOM      9  C   UNL A   1      33.012  23.728  24.493  1.00  0.00     0.290 C 
ATOM     10  H   UNL A   1      31.381  22.596  24.129  1.00  0.00     0.305 HD
ATOM     11  N   UNL A   1      32.542  24.935  24.401  1.00  0.00    -0.162 N 
ATOM     12  H   UNL A   1      33.153  25.691  24.243  1.00  0.00     0.327 HD
BRANCH   9  13
ATOM     13  C   UNL A   1      34.506  23.615  24.483  1.00  0.00     0.064 A 
ATOM     14  C   UNL A   1      35.238  23.976  25.618  1.00  0.00     0.016 A 
ATOM     15  C   UNL A   1      35.167  23.132  23.347  1.00  0.00     0.016 A 
ATOM     16  C   UNL A   1      36.624  23.814  25.629  1.00  0.00     0.001 A 
ATOM     17  C   UNL A   1      36.551  22.961  23.366  1.00  0.00     0.001 A 
ATOM     18  C   UNL A   1      37.278  23.298  24.509  1.00  0.00     0.000 A 
ENDBRANCH   9  13
BRANCH  11  19
ATOM     19  S   UNL A   1      30.952  25.196  24.544  1.00  0.00     0.328 S 
ATOM     20  O   UNL A   1      30.246  24.411  23.545  1.00  0.00    -0.179 OA
ATOM     21  O   UNL A   1      30.607  25.001  25.944  1.00  0.00    -0.179 OA
BRANCH  19  22
ATOM     22  C   UNL A   1      30.700  26.912  24.150  1.00  0.00     0.109 A 
ATOM     23  C   UNL A   1      31.422  27.897  24.832  1.00  0.00     0.024 A 
ATOM     24  C   UNL A   1      29.690  27.271  23.249  1.00  0.00     0.024 A 
ATOM     25  C   UNL A   1      31.129  29.244  24.616  1.00  0.00     0.001 A 
ATOM     26  C   UNL A   1      29.406  28.622  23.034  1.00  0.00     0.001 A 
ATOM     27  C   UNL A   1      30.120  29.606  23.720  1.00  0.00     0.000 A 
ENDBRANCH  19  22
ENDBRANCH  11  19
ENDBRANCH   7   8
ENDBRANCH   6   7
ENDBRANCH   4   6
ENDBRANCH   1   2
BRANCH   1  28
ATOM     28  C   UNL A   1      37.512  19.551  24.567  1.00  0.00     0.042 C 
BRANCH  28  29
ATOM     29  C   UNL A   1      38.444  20.068  25.658  1.00  0.00     0.118 C 
BRANCH  29  30
ATOM     30  N   UNL A   1      39.628  19.244  25.858  1.00  0.00    -0.352 N 
ATOM     31  C   UNL A   1      40.889  19.616  26.251  1.00  0.00     0.251 C 
ATOM     32  H   UNL A   1      39.506  18.281  25.687  1.00  0.00     0.163 HD
ATOM     33  O   UNL A   1      41.782  18.776  26.309  1.00  0.00    -0.269 OA
BRANCH  31  34
ATOM     34  C   UNL A   1      41.186  21.030  26.569  1.00  0.00     0.039 A 
ATOM     35  C   UNL A   1      41.979  21.304  27.688  1.00  0.00     0.014 A 
ATOM     36  C   UNL A   1      40.695  22.078  25.786  1.00  0.00     0.014 A 
ATOM     37  C   UNL A   1      42.332  22.623  27.981  1.00  0.00     0.010 A 
ATOM     38  C   UNL A   1      41.095  23.389  26.048  1.00  0.00     0.010 A 
ATOM     39  C   UNL A   1      41.922  23.674  27.145  1.00  0.00    -0.014 A 
BRANCH  39  40
ATOM     40  C   UNL A   1      42.405  25.059  27.380  1.00  0.00     0.031 A 
ATOM     41  C   UNL A   1      41.566  26.058  28.127  1.00  0.00     0.074 A 
ATOM     42  C   UNL A   1      43.589  25.437  26.854  1.00  0.00     0.049 A 
ATOM     43  N   UNL A   1      41.846  27.297  28.439  1.00  0.00    -0.248 NA
ATOM     44  C   UNL A   1      40.230  25.619  28.561  1.00  0.00     0.031 C 
ATOM     45  C   UNL A   1      44.453  24.591  26.027  1.00  0.00     0.029 A 
ATOM     46  N   UNL A   1      44.258  26.633  26.920  1.00  0.00    -0.354 N 
ATOM     47  C   UNL A   1      40.720  27.795  29.082  1.00  0.00     0.074 A 
ATOM     48  C   UNL A   1      39.738  26.732  29.087  1.00  0.00     0.031 C 
ATOM     49  C   UNL A   1      45.541  25.291  25.671  1.00  0.00     0.029 A 
ATOM     50  C   UNL A   1      45.447  26.636  26.228  1.00  0.00     0.049 A 
ATOM     51  H   UNL A   1      43.921  27.413  27.416  1.00  0.00     0.167 HD
ATOM     52  C   UNL A   1      40.532  29.014  29.644  1.00  0.00     0.034 A 
ATOM     53  C   UNL A   1      46.364  27.610  26.066  1.00  0.00     0.034 A 
ATOM     54  C   UNL A   1      41.523  30.057  29.667  1.00  0.00     0.049 A 
ATOM     55  C   UNL A   1      46.159  28.931  26.756  1.00  0.00     0.074 A 
ATOM     56  C   UNL A   1      41.458  31.294  30.286  1.00  0.00     0.029 A 
ATOM     57  N   UNL A   1      42.758  29.991  29.039  1.00  0.00    -0.354 N 
ATOM     58  N   UNL A   1      45.162  29.319  27.513  1.00  0.00    -0.248 NA
ATOM     59  C   UNL A   1      47.226  29.930  26.608  1.00  0.00     0.031 C 
ATOM     60  C   UNL A   1      42.647  31.982  30.019  1.00  0.00     0.029 A 
ATOM     61  C   UNL A   1      43.462  31.165  29.252  1.00  0.00     0.049 A 
ATOM     62  H   UNL A   1      43.086  29.223  28.519  1.00  0.00     0.167 HD
ATOM     63  C   UNL A   1      45.496  30.592  27.960  1.00  0.00     0.074 A 
ATOM     64  C   UNL A   1      46.801  30.897  27.410  1.00  0.00     0.031 C 
ATOM     65  C   UNL A   1      44.781  31.439  28.742  1.00  0.00     0.034 A 
BRANCH  52  66
ATOM     66  C   UNL A   1      39.218  29.268  30.339  1.00  0.00     0.023 A 
ATOM     67  C   UNL A   1      38.964  28.649  31.582  1.00  0.00     0.012 A 
ATOM     68  C   UNL A   1      38.268  30.160  29.807  1.00  0.00     0.148 A 
ATOM     69  C   UNL A   1      37.774  28.889  32.266  1.00  0.00     0.002 A 
ATOM     70  C   UNL A   1      37.101  30.426  30.514  1.00  0.00     0.091 A 
ATOM     71  F   UNL A   1      38.516  30.722  28.614  1.00  0.00    -0.205 F 
ATOM     72  C   UNL A   1      36.848  29.785  31.738  1.00  0.00     0.022 A 
BRANCH  70  73
ATOM     73  S   UNL A   1      35.881  31.622  29.957  1.00  0.00     0.127 S 
ATOM     74  O   UNL A   1      35.043  31.764  31.146  1.00  0.00    -0.237 OA
ATOM     75  O   UNL A   1      36.709  32.790  29.652  1.00  0.00    -0.237 OA
ATOM     76  O   UNL A   1      35.232  31.022  28.800  1.00  0.00    -0.744 OA
ENDBRANCH  70  73
ENDBRANCH  52  66
BRANCH  53  77
ATOM     77  C   UNL A   1      47.605  27.339  25.287  1.00  0.00     0.023 A 
ATOM     78  C   UNL A   1      48.698  26.719  25.925  1.00  0.00     0.012 A 
ATOM     79  C   UNL A   1      47.698  27.656  23.919  1.00  0.00     0.148 A 
ATOM     80  C   UNL A   1      49.873  26.451  25.221  1.00  0.00     0.002 A 
ATOM     81  C   UNL A   1      48.850  27.335  23.211  1.00  0.00     0.091 A 
ATOM     82  F   UNL A   1      46.652  28.256  23.333  1.00  0.00    -0.205 F 
ATOM     83  C   UNL A   1      49.945  26.748  23.863  1.00  0.00     0.022 A 
BRANCH  81  84
ATOM     84  S   UNL A   1      48.978  27.560  21.433  1.00  0.00     0.127 S 
ATOM     85  O   UNL A   1      49.633  28.863  21.344  1.00  0.00    -0.237 OA
ATOM     86  O   UNL A   1      49.811  26.423  21.042  1.00  0.00    -0.237 OA
ATOM     87  O   UNL A   1      47.611  27.500  20.933  1.00  0.00    -0.744 OA
ENDBRANCH  81  84
ENDBRANCH  53  77
BRANCH  65  88
ATOM     88  C   UNL A   1      45.405  32.770  29.075  1.00  0.00     0.023 A 
ATOM     89  C   UNL A   1      46.229  32.892  30.213  1.00  0.00     0.012 A 
ATOM     90  C   UNL A   1      45.214  33.887  28.240  1.00  0.00     0.148 A 
ATOM     91  C   UNL A   1      46.817  34.114  30.535  1.00  0.00     0.002 A 
ATOM     92  C   UNL A   1      45.844  35.090  28.540  1.00  0.00     0.091 A 
ATOM     93  F   UNL A   1      44.410  33.762  27.173  1.00  0.00    -0.205 F 
ATOM     94  C   UNL A   1      46.634  35.209  29.695  1.00  0.00     0.022 A 
BRANCH  92  95
ATOM     95  S   UNL A   1      45.734  36.520  27.459  1.00  0.00     0.127 S 
ATOM     96  O   UNL A   1      44.305  36.821  27.504  1.00  0.00    -0.237 OA
ATOM     97  O   UNL A   1      46.585  37.497  28.141  1.00  0.00    -0.237 OA
ATOM     98  O   UNL A   1      46.247  36.079  26.168  1.00  0.00    -0.744 OA
ENDBRANCH  92  95
ENDBRANCH  65  88
ENDBRANCH  39  40
ENDBRANCH  31  34
ENDBRANCH  29  30
ENDBRANCH  28  29
ENDBRANCH   1  28
TORSDOF 18
ENDMDL
MODEL 2
REMARK VINA RESULT:     -11.8      5.231      8.794
REMARK SMILES O=C(CCN/C(=[NH+]\S(=O)(=O)c1ccccc1)c1ccccc1)NCCCNC(=O)c1ccc(-c2c3nc(c(-c4cccc(S(=O)(=O)[O-])c4F)c4ccc([nH]4)c(-c4cccc(S(=O)(=O)[O-])c4F)c4nc(c(-c5cccc(S(=O)(=O)[O-])c5F)c5ccc2[nH]5)C=C4)C=C3)cc1
REMARK SMILES IDX 24 1 23 2 1 3 2 4 3 6 4 7 5 8 6 9 7 11 17 13 18 14 22 15
REMARK SMILES IDX 19 16 21 17 20 18 8 19 9 20 10 21 11 22 12 23 16 24 13 25
REMARK SMILES IDX 15 26 14 27 25 28 26 29 27 30 28 31 29 33 30 34 31 35 92 36
REMARK SMILES IDX 32 37 91 38 33 39 34 40 35 41 85 42 36 43 90 44 84 45 86 46
REMARK SMILES IDX 37 47 89 48 83 49 82 50 38 52 70 53 50 54 69 55 51 56 54 57
REMARK SMILES IDX 68 58 87 59 52 60 53 61 67 63 88 64 55 65 39 66 40 67 48 68
REMARK SMILES IDX 41 69 43 70 49 71 42 72 44 73 45 74 46 75 47 76 71 77 72 78
REMARK SMILES IDX 80 79 73 80 75 81 81 82 74 83 76 84 77 85 78 86 79 87 56 88
REMARK SMILES IDX 57 89 65 90 58 91 60 92 66 93 59 94 61 95 62 96 63 97 64 98
REMARK H PARENT 23 5 5 10 7 12 27 32 86 51 54 62
REMARK Flexibility Score: inf
ROOT
ATOM      1  C   UNL A   1      31.611  29.074  27.060  1.00  0.00     0.117 C 
ENDROOT
BRANCH   1   2
ATOM      2  N   UNL A   1      32.627  28.203  26.505  1.00  0.00    -0.356 N 
ATOM      3  O   UNL A   1      31.550  26.229  26.999  1.00  0.00    -0.275 OA
ATOM      4  C   UNL A   1      32.502  26.834  26.515  1.00  0.00     0.223 C 
ATOM      5  H   UNL A   1      33.434  28.605  26.109  1.00  0.00     0.163 HD
BRANCH   4   6
ATOM      6  C   UNL A   1      33.616  26.108  25.806  1.00  0.00     0.145 C 
BRANCH   6   7
ATOM      7  C   UNL A   1      33.746  26.626  24.381  1.00  0.00     0.243 C 
BRANCH   7   8
ATOM      8  N   UNL A   1      33.363  25.614  23.405  1.00  0.00    -0.273 N 
ATOM      9  C   UNL A   1      32.088  25.198  23.065  1.00  0.00     0.290 C 
ATOM     10  H   UNL A   1      34.102  25.173  22.928  1.00  0.00     0.305 HD
ATOM     11  N   UNL A   1      31.764  24.010  22.651  1.00  0.00    -0.162 N 
ATOM     12  H   UNL A   1      30.850  23.831  22.334  1.00  0.00     0.327 HD
BRANCH   9  13
ATOM     13  C   UNL A   1      30.961  26.181  23.148  1.00  0.00     0.064 A 
ATOM     14  C   UNL A   1      31.044  27.394  22.457  1.00  0.00     0.016 A 
ATOM     15  C   UNL A   1      29.819  25.879  23.901  1.00  0.00     0.016 A 
ATOM     16  C   UNL A   1      29.968  28.282  22.487  1.00  0.00     0.001 A 
ATOM     17  C   UNL A   1      28.743  26.766  23.919  1.00  0.00     0.001 A 
ATOM     18  C   UNL A   1      28.816  27.964  23.207  1.00  0.00     0.000 A 
ENDBRANCH   9  13
BRANCH  11  19
ATOM     19  S   UNL A   1      32.866  22.824  22.655  1.00  0.00     0.328 S 
ATOM     20  O   UNL A   1      32.247  21.595  22.187  1.00  0.00    -0.179 OA
ATOM     21  O   UNL A   1      34.036  23.320  21.947  1.00  0.00    -0.179 OA
BRANCH  19  22
ATOM     22  C   UNL A   1      33.316  22.581  24.358  1.00  0.00     0.109 A 
ATOM     23  C   UNL A   1      32.326  22.574  25.347  1.00  0.00     0.024 A 
ATOM     24  C   UNL A   1      34.669  22.523  24.711  1.00  0.00     0.024 A 
ATOM     25  C   UNL A   1      32.693  22.515  26.692  1.00  0.00     0.001 A 
ATOM     26  C   UNL A   1      35.029  22.459  26.060  1.00  0.00     0.001 A 
ATOM     27  C   UNL A   1      34.042  22.461  27.048  1.00  0.00     0.000 A 
ENDBRANCH  19  22
ENDBRANCH  11  19
ENDBRANCH   7   8
ENDBRANCH   6   7
ENDBRANCH   4   6
ENDBRANCH   1   2
BRANCH   1  28
ATOM     28  C   UNL A   1      31.718  30.512  26.565  1.00  0.00     0.042 C 
BRANCH  28  29
ATOM     29  C   UNL A   1      33.107  31.135  26.661  1.00  0.00     0.118 C 
BRANCH  29  30
ATOM     30  N   UNL A   1      33.104  32.498  27.174  1.00  0.00    -0.352 N 
ATOM     31  C   UNL A   1      34.002  33.113  28.011  1.00  0.00     0.251 C 
ATOM     32  H   UNL A   1      32.350  33.059  26.879  1.00  0.00     0.163 HD
ATOM     33  O   UNL A   1      33.798  34.266  28.382  1.00  0.00    -0.269 OA
BRANCH  31  34
ATOM     34  C   UNL A   1      35.195  32.384  28.493  1.00  0.00     0.039 A 
ATOM     35  C   UNL A   1      36.441  33.008  28.386  1.00  0.00     0.014 A 
ATOM     36  C   UNL A   1      35.099  31.103  29.045  1.00  0.00     0.014 A 
ATOM     37  C   UNL A   1      37.580  32.375  28.890  1.00  0.00     0.010 A 
ATOM     38  C   UNL A   1      36.227  30.497  29.598  1.00  0.00     0.010 A 
ATOM     39  C   UNL A   1      37.479  31.130  29.531  1.00  0.00    -0.014 A 
BRANCH  39  40
ATOM     40  C   UNL A   1      38.664  30.517  30.183  1.00  0.00     0.031 A 
ATOM     41  C   UNL A   1      39.095  30.934  31.562  1.00  0.00     0.074 A 
ATOM     42  C   UNL A   1      39.399  29.621  29.493  1.00  0.00     0.049 A 
ATOM     43  N   UNL A   1      40.090  30.484  32.284  1.00  0.00    -0.248 NA
ATOM     44  C   UNL A   1      38.326  32.009  32.207  1.00  0.00     0.031 C 
ATOM     45  C   UNL A   1      39.144  29.204  28.112  1.00  0.00     0.029 A 
ATOM     46  N   UNL A   1      40.521  28.915  29.851  1.00  0.00    -0.354 N 
ATOM     47  C   UNL A   1      40.084  31.233  33.453  1.00  0.00     0.074 A 
ATOM     48  C   UNL A   1      39.005  32.190  33.332  1.00  0.00     0.031 C 
ATOM     49  C   UNL A   1      40.074  28.310  27.743  1.00  0.00     0.029 A 
ATOM     50  C   UNL A   1      41.000  28.100  28.851  1.00  0.00     0.049 A 
ATOM     51  H   UNL A   1      40.941  28.983  30.738  1.00  0.00     0.167 HD
ATOM     52  C   UNL A   1      40.883  31.115  34.542  1.00  0.00     0.034 A 
ATOM     53  C   UNL A   1      42.062  27.271  28.830  1.00  0.00     0.034 A 
ATOM     54  C   UNL A   1      41.933  30.140  34.674  1.00  0.00     0.049 A 
ATOM     55  C   UNL A   1      42.891  27.112  30.075  1.00  0.00     0.074 A 
ATOM     56  C   UNL A   1      42.740  29.885  35.769  1.00  0.00     0.029 A 
ATOM     57  N   UNL A   1      42.329  29.262  33.676  1.00  0.00    -0.354 N 
ATOM     58  N   UNL A   1      42.755  27.703  31.237  1.00  0.00    -0.248 NA
ATOM     59  C   UNL A   1      43.990  26.137  30.020  1.00  0.00     0.031 C 
ATOM     60  C   UNL A   1      43.634  28.864  35.429  1.00  0.00     0.029 A 
ATOM     61  C   UNL A   1      43.370  28.467  34.128  1.00  0.00     0.049 A 
ATOM     62  H   UNL A   1      41.929  29.210  32.778  1.00  0.00     0.167 HD
ATOM     63  C   UNL A   1      43.727  27.148  32.062  1.00  0.00     0.074 A 
ATOM     64  C   UNL A   1      44.426  26.155  31.272  1.00  0.00     0.031 C 
ATOM     65  C   UNL A   1      44.025  27.446  33.351  1.00  0.00     0.034 A 
BRANCH  52  66
ATOM     66  C   UNL A   1      40.612  32.028  35.710  1.00  0.00     0.023 A 
ATOM     67  C   UNL A   1      41.494  33.098  35.970  1.00  0.00     0.012 A 
ATOM     68  C   UNL A   1      39.461  31.875  36.508  1.00  0.00     0.148 A 
ATOM     69  C   UNL A   1      41.253  33.980  37.022  1.00  0.00     0.002 A 
ATOM     70  C   UNL A   1      39.205  32.783  37.529  1.00  0.00     0.091 A 
ATOM     71  F   UNL A   1      38.644  30.840  36.260  1.00  0.00    -0.205 F 
ATOM     72  C   UNL A   1      40.104  33.829  37.795  1.00  0.00     0.022 A 
BRANCH  70  73
ATOM     73  S   UNL A   1      37.715  32.720  38.531  1.00  0.00     0.127 S 
ATOM     74  O   UNL A   1      36.681  33.018  37.542  1.00  0.00    -0.237 OA
ATOM     75  O   UNL A   1      37.721  31.336  39.009  1.00  0.00    -0.237 OA
ATOM     76  O   UNL A   1      37.892  33.722  39.574  1.00  0.00    -0.744 OA
ENDBRANCH  70  73
ENDBRANCH  52  66
BRANCH  53  77
ATOM     77  C   UNL A   1      42.344  26.458  27.613  1.00  0.00     0.023 A 
ATOM     78  C   UNL A   1      43.040  27.045  26.539  1.00  0.00     0.012 A 
ATOM     79  C   UNL A   1      41.961  25.106  27.528  1.00  0.00     0.148 A 
ATOM     80  C   UNL A   1      43.321  26.309  25.387  1.00  0.00     0.002 A 
ATOM     81  C   UNL A   1      42.292  24.364  26.401  1.00  0.00     0.091 A 
ATOM     82  F   UNL A   1      41.288  24.570  28.556  1.00  0.00    -0.205 F 
ATOM     83  C   UNL A   1      42.957  24.967  25.322  1.00  0.00     0.022 A 
BRANCH  81  84
ATOM     84  S   UNL A   1      41.981  22.597  26.290  1.00  0.00     0.127 S 
ATOM     85  O   UNL A   1      40.521  22.551  26.291  1.00  0.00    -0.237 OA
ATOM     86  O   UNL A   1      42.609  22.259  25.013  1.00  0.00    -0.237 OA
ATOM     87  O   UNL A   1      42.637  22.012  27.453  1.00  0.00    -0.744 OA
ENDBRANCH  81  84
ENDBRANCH  53  77
BRANCH  65  88
ATOM     88  C   UNL A   1      45.139  26.668  34.003  1.00  0.00     0.023 A 
ATOM     89  C   UNL A   1      46.477  27.078  33.827  1.00  0.00     0.012 A 
ATOM     90  C   UNL A   1      44.861  25.561  34.827  1.00  0.00     0.148 A 
ATOM     91  C   UNL A   1      47.519  26.373  34.426  1.00  0.00     0.002 A 
ATOM     92  C   UNL A   1      45.903  24.892  35.461  1.00  0.00     0.091 A 
ATOM     93  F   UNL A   1      43.585  25.169  34.968  1.00  0.00    -0.205 F 
ATOM     94  C   UNL A   1      47.233  25.288  35.251  1.00  0.00     0.022 A 
BRANCH  92  95
ATOM     95  S   UNL A   1      45.610  23.544  36.612  1.00  0.00     0.127 S 
ATOM     96  O   UNL A   1      44.731  24.175  37.595  1.00  0.00    -0.237 OA
ATOM     97  O   UNL A   1      44.959  22.542  35.766  1.00  0.00    -0.237 OA
ATOM     98  O   UNL A   1      46.925  23.151  37.101  1.00  0.00    -0.744 OA
ENDBRANCH  92  95
ENDBRANCH  65  88
ENDBRANCH  39  40
ENDBRANCH  31  34
ENDBRANCH  29  30
ENDBRANCH  28  29
ENDBRANCH   1  28
TORSDOF 18
ENDMDL
MODEL 3
REMARK VINA RESULT:     -11.8      1.243      2.053
REMARK SMILES O=C(CCN/C(=[NH+]\S(=O)(=O)c1ccccc1)c1ccccc1)NCCCNC(=O)c1ccc(-c2c3nc(c(-c4cccc(S(=O)(=O)[O-])c4F)c4ccc([nH]4)c(-c4cccc(S(=O)(=O)[O-])c4F)c4nc(c(-c5cccc(S(=O)(=O)[O-])c5F)c5ccc2[nH]5)C=C4)C=C3)cc1
REMARK SMILES IDX 24 1 23 2 1 3 2 4 3 6 4 7 5 8 6 9 7 11 17 13 18 14 22 15
REMARK SMILES IDX 19 16 21 17 20 18 8 19 9 20 10 21 11 22 12 23 16 24 13 25
REMARK SMILES IDX 15 26 14 27 25 28 26 29 27 30 28 31 29 33 30 34 31 35 92 36
REMARK SMILES IDX 32 37 91 38 33 39 34 40 35 41 85 42 36 43 90 44 84 45 86 46
REMARK SMILES IDX 37 47 89 48 83 49 82 50 38 52 70 53 50 54 69 55 51 56 54 57
REMARK SMILES IDX 68 58 87 59 52 60 53 61 67 63 88 64 55 65 39 66 40 67 48 68
REMARK SMILES IDX 41 69 43 70 49 71 42 72 44 73 45 74 46 75 47 76 71 77 72 78
REMARK SMILES IDX 80 79 73 80 75 81 81 82 74 83 76 84 77 85 78 86 79 87 56 88
REMARK SMILES IDX 57 89 65 90 58 91 60 92 66 93 59 94 61 95 62 96 63 97 64 98
REMARK H PARENT 23 5 5 10 7 12 27 32 86 51 54 62
REMARK Flexibility Score: inf
ROOT
ATOM      1  C   UNL A   1      36.471  20.132  25.056  1.00  0.00     0.117 C 
ENDROOT
BRANCH   1   2
ATOM      2  N   UNL A   1      36.138  21.397  25.680  1.00  0.00    -0.356 N 
ATOM      3  O   UNL A   1      36.229  22.650  23.751  1.00  0.00    -0.275 OA
ATOM      4  C   UNL A   1      36.035  22.563  24.960  1.00  0.00     0.223 C 
ATOM      5  H   UNL A   1      35.980  21.421  26.651  1.00  0.00     0.163 HD
BRANCH   4   6
ATOM      6  C   UNL A   1      35.586  23.751  25.771  1.00  0.00     0.145 C 
BRANCH   6   7
ATOM      7  C   UNL A   1      34.505  23.326  26.755  1.00  0.00     0.243 C 
BRANCH   7   8
ATOM      8  N   UNL A   1      33.248  24.018  26.503  1.00  0.00    -0.273 N 
ATOM      9  C   UNL A   1      32.412  23.895  25.408  1.00  0.00     0.290 C 
ATOM     10  H   UNL A   1      32.957  24.650  27.199  1.00  0.00     0.305 HD
ATOM     11  N   UNL A   1      31.645  24.829  24.931  1.00  0.00    -0.162 N 
ATOM     12  H   UNL A   1      31.007  24.622  24.210  1.00  0.00     0.327 HD
BRANCH   9  13
ATOM     13  C   UNL A   1      32.342  22.578  24.697  1.00  0.00     0.064 A 
ATOM     14  C   UNL A   1      32.263  22.544  23.302  1.00  0.00     0.016 A 
ATOM     15  C   UNL A   1      32.373  21.383  25.427  1.00  0.00     0.016 A 
ATOM     16  C   UNL A   1      32.259  21.316  22.638  1.00  0.00     0.001 A 
ATOM     17  C   UNL A   1      32.380  20.158  24.759  1.00  0.00     0.001 A 
ATOM     18  C   UNL A   1      32.328  20.126  23.364  1.00  0.00     0.000 A 
ENDBRANCH   9  13
BRANCH  11  19
ATOM     19  S   UNL A   1      31.739  26.332  25.523  1.00  0.00     0.328 S 
ATOM     20  O   UNL A   1      31.161  26.357  26.856  1.00  0.00    -0.179 OA
ATOM     21  O   UNL A   1      33.114  26.775  25.359  1.00  0.00    -0.179 OA
BRANCH  19  22
ATOM     22  C   UNL A   1      30.709  27.335  24.476  1.00  0.00     0.109 A 
ATOM     23  C   UNL A   1      31.030  28.680  24.266  1.00  0.00     0.024 A 
ATOM     24  C   UNL A   1      29.516  26.805  23.972  1.00  0.00     0.024 A 
ATOM     25  C   UNL A   1      30.151  29.498  23.554  1.00  0.00     0.001 A 
ATOM     26  C   UNL A   1      28.643  27.628  23.255  1.00  0.00     0.001 A 
ATOM     27  C   UNL A   1      28.959  28.973  23.052  1.00  0.00     0.000 A 
ENDBRANCH  19  22
ENDBRANCH  11  19
ENDBRANCH   7   8
ENDBRANCH   6   7
ENDBRANCH   4   6
ENDBRANCH   1   2
BRANCH   1  28
ATOM     28  C   UNL A   1      37.945  20.017  24.684  1.00  0.00     0.042 C 
BRANCH  28  29
ATOM     29  C   UNL A   1      38.928  20.245  25.828  1.00  0.00     0.118 C 
BRANCH  29  30
ATOM     30  N   UNL A   1      39.970  19.232  25.917  1.00  0.00    -0.352 N 
ATOM     31  C   UNL A   1      41.308  19.383  26.187  1.00  0.00     0.251 C 
ATOM     32  H   UNL A   1      39.673  18.306  25.763  1.00  0.00     0.163 HD
ATOM     33  O   UNL A   1      42.049  18.405  26.163  1.00  0.00    -0.269 OA
BRANCH  31  34
ATOM     34  C   UNL A   1      41.867  20.723  26.471  1.00  0.00     0.039 A 
ATOM     35  C   UNL A   1      42.176  21.554  25.390  1.00  0.00     0.014 A 
ATOM     36  C   UNL A   1      42.087  21.164  27.778  1.00  0.00     0.014 A 
ATOM     37  C   UNL A   1      42.646  22.849  25.623  1.00  0.00     0.010 A 
ATOM     38  C   UNL A   1      42.502  22.476  28.010  1.00  0.00     0.010 A 
ATOM     39  C   UNL A   1      42.780  23.334  26.934  1.00  0.00    -0.014 A 
BRANCH  39  40
ATOM     40  C   UNL A   1      43.152  24.751  27.181  1.00  0.00     0.031 A 
ATOM     41  C   UNL A   1      42.167  25.721  27.773  1.00  0.00     0.074 A 
ATOM     42  C   UNL A   1      44.373  25.181  26.804  1.00  0.00     0.049 A 
ATOM     43  N   UNL A   1      42.336  26.983  28.074  1.00  0.00    -0.248 NA
ATOM     44  C   UNL A   1      40.811  25.218  28.040  1.00  0.00     0.031 C 
ATOM     45  C   UNL A   1      45.385  24.364  26.131  1.00  0.00     0.029 A 
ATOM     46  N   UNL A   1      44.963  26.415  26.915  1.00  0.00    -0.354 N 
ATOM     47  C   UNL A   1      41.109  27.433  28.542  1.00  0.00     0.074 A 
ATOM     48  C   UNL A   1      40.193  26.315  28.456  1.00  0.00     0.031 C 
ATOM     49  C   UNL A   1      46.473  25.114  25.897  1.00  0.00     0.029 A 
ATOM     50  C   UNL A   1      46.233  26.468  26.388  1.00  0.00     0.049 A 
ATOM     51  H   UNL A   1      44.521  27.189  27.333  1.00  0.00     0.167 HD
ATOM     52  C   UNL A   1      40.781  28.655  29.029  1.00  0.00     0.034 A 
ATOM     53  C   UNL A   1      47.110  27.488  26.313  1.00  0.00     0.034 A 
ATOM     54  C   UNL A   1      41.703  29.754  29.146  1.00  0.00     0.049 A 
ATOM     55  C   UNL A   1      46.743  28.814  26.921  1.00  0.00     0.074 A 
ATOM     56  C   UNL A   1      41.489  31.002  29.705  1.00  0.00     0.029 A 
ATOM     57  N   UNL A   1      43.013  29.741  28.691  1.00  0.00    -0.354 N 
ATOM     58  N   UNL A   1      45.633  29.166  27.524  1.00  0.00    -0.248 NA
ATOM     59  C   UNL A   1      47.765  29.868  26.880  1.00  0.00     0.031 C 
ATOM     60  C   UNL A   1      42.665  31.749  29.574  1.00  0.00     0.029 A 
ATOM     61  C   UNL A   1      43.618  30.960  28.953  1.00  0.00     0.049 A 
ATOM     62  H   UNL A   1      43.449  28.978  28.248  1.00  0.00     0.167 HD
ATOM     63  C   UNL A   1      45.836  30.468  27.965  1.00  0.00     0.074 A 
ATOM     64  C   UNL A   1      47.185  30.832  27.582  1.00  0.00     0.031 C 
ATOM     65  C   UNL A   1      44.978  31.294  28.613  1.00  0.00     0.034 A 
BRANCH  52  66
ATOM     66  C   UNL A   1      39.374  28.852  29.534  1.00  0.00     0.023 A 
ATOM     67  C   UNL A   1      39.056  28.476  30.856  1.00  0.00     0.012 A 
ATOM     68  C   UNL A   1      38.389  29.463  28.735  1.00  0.00     0.148 A 
ATOM     69  C   UNL A   1      37.773  28.676  31.363  1.00  0.00     0.002 A 
ATOM     70  C   UNL A   1      37.123  29.697  29.261  1.00  0.00     0.091 A 
ATOM     71  F   UNL A   1      38.702  29.795  27.474  1.00  0.00    -0.205 F 
ATOM     72  C   UNL A   1      36.810  29.295  30.570  1.00  0.00     0.022 A 
BRANCH  70  73
ATOM     73  S   UNL A   1      35.837  30.558  28.348  1.00  0.00     0.127 S 
ATOM     74  O   UNL A   1      35.390  29.521  27.420  1.00  0.00    -0.237 OA
ATOM     75  O   UNL A   1      34.876  30.887  29.403  1.00  0.00    -0.237 OA
ATOM     76  O   UNL A   1      36.483  31.711  27.737  1.00  0.00    -0.744 OA
ENDBRANCH  70  73
ENDBRANCH  52  66
BRANCH  53  77
ATOM     77  C   UNL A   1      48.457  27.266  25.717  1.00  0.00     0.023 A 
ATOM     78  C   UNL A   1      49.507  26.807  26.537  1.00  0.00     0.012 A 
ATOM     79  C   UNL A   1      48.696  27.472  24.345  1.00  0.00     0.148 A 
ATOM     80  C   UNL A   1      50.780  26.589  26.007  1.00  0.00     0.002 A 
ATOM     81  C   UNL A   1      49.951  27.200  23.813  1.00  0.00     0.091 A 
ATOM     82  F   UNL A   1      47.688  27.921  23.585  1.00  0.00    -0.205 F 
ATOM     83  C   UNL A   1      50.999  26.774  24.645  1.00  0.00     0.022 A 
BRANCH  81  84
ATOM     84  S   UNL A   1      50.285  27.282  22.050  1.00  0.00     0.127 S 
ATOM     85  O   UNL A   1      50.131  28.710  21.784  1.00  0.00    -0.237 OA
ATOM     86  O   UNL A   1      51.659  26.785  21.977  1.00  0.00    -0.237 OA
ATOM     87  O   UNL A   1      49.299  26.409  21.425  1.00  0.00    -0.744 OA
ENDBRANCH  81  84
ENDBRANCH  53  77
BRANCH  65  88
ATOM     88  C   UNL A   1      45.478  32.668  28.978  1.00  0.00     0.023 A 
ATOM     89  C   UNL A   1      46.116  32.875  30.218  1.00  0.00     0.012 A 
ATOM     90  C   UNL A   1      45.359  33.744  28.077  1.00  0.00     0.148 A 
ATOM     91  C   UNL A   1      46.590  34.138  30.571  1.00  0.00     0.002 A 
ATOM     92  C   UNL A   1      45.877  34.989  28.415  1.00  0.00     0.091 A 
ATOM     93  F   UNL A   1      44.731  33.538  26.909  1.00  0.00    -0.205 F 
ATOM     94  C   UNL A   1      46.480  35.191  29.667  1.00  0.00     0.022 A 
BRANCH  92  95
ATOM     95  S   UNL A   1      45.860  36.373  27.269  1.00  0.00     0.127 S 
ATOM     96  O   UNL A   1      46.339  35.748  26.038  1.00  0.00    -0.237 OA
ATOM     97  O   UNL A   1      44.445  36.749  27.251  1.00  0.00    -0.237 OA
ATOM     98  O   UNL A   1      46.739  37.378  27.852  1.00  0.00    -0.744 OA
ENDBRANCH  92  95
ENDBRANCH  65  88
ENDBRANCH  39  40
ENDBRANCH  31  34
ENDBRANCH  29  30
ENDBRANCH  28  29
ENDBRANCH   1  28
TORSDOF 18
ENDMDL
