MODEL 1
REMARK VINA RESULT:     -12.5      0.000      0.000
REMARK SMILES Cc1ccc(S(=O)(=O)Nc2cc3c(cc2C(=O)NCCCNC(=O)c2ccc(-c4c5nc(c(-c6cccc(S(=O)(=O)[O-])c6F)c6ccc([nH]6)c(-c6cccc(S(=O)(=O)[O-])c6F)c6nc(c(-c7cccc(S(=O)(=O)[O-])c7F)c7ccc4[nH]7)C=C6)C=C5)cc2)OCCO3)s1
REMARK SMILES IDX 20 1 19 2 18 3 16 4 17 5 15 7 10 8 11 9 12 10 14 11 13 12
REMARK SMILES IDX 91 13 88 14 90 15 89 16 9 17 6 19 7 20 8 21 5 22 1 23 2 24
REMARK SMILES IDX 3 25 92 26 4 27 21 28 22 29 23 30 24 32 25 33 26 34 87 35
REMARK SMILES IDX 27 36 86 37 28 38 29 39 30 40 80 41 31 42 85 43 79 44 81 45
REMARK SMILES IDX 32 46 84 47 78 48 77 49 33 51 65 52 45 53 64 54 46 55 49 56
REMARK SMILES IDX 63 57 82 58 47 59 48 60 62 62 83 63 50 64 34 65 35 66 43 67
REMARK SMILES IDX 36 68 38 69 44 70 37 71 39 72 40 73 41 74 42 75 66 76 67 77
REMARK SMILES IDX 75 78 68 79 70 80 76 81 69 82 71 83 72 84 73 85 74 86 51 87
REMARK SMILES IDX 52 88 60 89 53 90 55 91 61 92 54 93 56 94 57 95 58 96 59 97
REMARK H PARENT 18 6 9 18 22 31 81 50 49 61
REMARK Flexibility Score: inf
ROOT
ATOM      1  C   UNL A   1      32.994  27.975  26.921  1.00  0.00     0.042 C 
ENDROOT
BRANCH   1   2
ATOM      2  C   UNL A   1      31.618  27.726  26.320  1.00  0.00     0.118 C 
BRANCH   2   3
ATOM      3  N   UNL A   1      31.034  26.434  26.654  1.00  0.00    -0.352 N 
ATOM      4  C   UNL A   1      31.366  25.123  26.406  1.00  0.00     0.253 C 
ATOM      5  O   UNL A   1      30.677  24.270  26.964  1.00  0.00    -0.269 OA
ATOM      6  H   UNL A   1      30.207  26.520  27.181  1.00  0.00     0.163 HD
BRANCH   4   7
ATOM      7  C   UNL A   1      32.485  24.703  25.513  1.00  0.00     0.067 A 
ATOM      8  C   UNL A   1      32.379  24.835  24.107  1.00  0.00     0.066 A 
ATOM      9  C   UNL A   1      33.441  24.448  23.276  1.00  0.00     0.078 A 
ATOM     10  C   UNL A   1      34.613  23.942  23.834  1.00  0.00     0.163 A 
ATOM     11  C   UNL A   1      33.631  24.098  26.038  1.00  0.00     0.066 A 
ATOM     12  C   UNL A   1      34.712  23.791  25.216  1.00  0.00     0.162 A 
ATOM     13  O   UNL A   1      35.626  23.612  22.971  1.00  0.00    -0.486 OA
ATOM     14  O   UNL A   1      35.846  23.343  25.843  1.00  0.00    -0.486 OA
ATOM     15  C   UNL A   1      36.677  22.887  23.627  1.00  0.00     0.271 C 
ATOM     16  C   UNL A   1      36.986  23.490  24.986  1.00  0.00     0.271 C 
BRANCH   8  17
ATOM     17  N   UNL A   1      31.187  25.349  23.497  1.00  0.00    -0.278 N 
ATOM     18  H   UNL A   1      30.325  24.887  23.612  1.00  0.00     0.180 HD
BRANCH  17  19
ATOM     19  S   UNL A   1      31.293  26.763  22.581  1.00  0.00     0.271 S 
ATOM     20  O   UNL A   1      31.353  26.372  21.194  1.00  0.00    -0.200 OA
ATOM     21  O   UNL A   1      32.365  27.552  23.166  1.00  0.00    -0.200 OA
BRANCH  19  22
ATOM     22  C   UNL A   1      29.830  27.741  22.840  1.00  0.00     0.140 A 
ATOM     23  C   UNL A   1      27.737  31.051  23.092  1.00  0.00     0.056 C 
ATOM     24  C   UNL A   1      28.309  29.674  23.045  1.00  0.00     0.003 A 
ATOM     25  C   UNL A   1      27.705  28.496  23.429  1.00  0.00     0.016 A 
ATOM     26  S   UNL A   1      29.908  29.410  22.492  1.00  0.00    -0.127 S 
ATOM     27  C   UNL A   1      28.580  27.384  23.310  1.00  0.00     0.034 A 
ENDBRANCH  19  22
ENDBRANCH  17  19
ENDBRANCH   8  17
ENDBRANCH   4   7
ENDBRANCH   2   3
ENDBRANCH   1   2
BRANCH   1  28
ATOM     28  C   UNL A   1      33.881  28.930  26.134  1.00  0.00     0.118 C 
BRANCH  28  29
ATOM     29  N   UNL A   1      33.829  30.295  26.642  1.00  0.00    -0.352 N 
ATOM     30  C   UNL A   1      34.582  30.942  27.592  1.00  0.00     0.251 C 
ATOM     31  H   UNL A   1      33.131  30.853  26.231  1.00  0.00     0.163 HD
ATOM     32  O   UNL A   1      34.189  32.028  28.016  1.00  0.00    -0.269 OA
BRANCH  30  33
ATOM     33  C   UNL A   1      35.839  30.363  28.118  1.00  0.00     0.039 A 
ATOM     34  C   UNL A   1      36.994  30.424  27.328  1.00  0.00     0.014 A 
ATOM     35  C   UNL A   1      35.880  29.693  29.342  1.00  0.00     0.014 A 
ATOM     36  C   UNL A   1      38.191  29.865  27.788  1.00  0.00     0.010 A 
ATOM     37  C   UNL A   1      37.090  29.214  29.837  1.00  0.00     0.010 A 
ATOM     38  C   UNL A   1      38.255  29.278  29.061  1.00  0.00    -0.014 A 
BRANCH  38  39
ATOM     39  C   UNL A   1      39.520  28.714  29.602  1.00  0.00     0.031 A 
ATOM     40  C   UNL A   1      40.238  29.406  30.729  1.00  0.00     0.074 A 
ATOM     41  C   UNL A   1      40.089  27.652  28.997  1.00  0.00     0.049 A 
ATOM     42  N   UNL A   1      41.405  29.135  31.255  1.00  0.00    -0.248 NA
ATOM     43  C   UNL A   1      39.577  30.584  31.316  1.00  0.00     0.031 C 
ATOM     44  C   UNL A   1      39.544  26.953  27.832  1.00  0.00     0.029 A 
ATOM     45  N   UNL A   1      41.272  27.004  29.251  1.00  0.00    -0.354 N 
ATOM     46  C   UNL A   1      41.641  30.134  32.192  1.00  0.00     0.074 A 
ATOM     47  C   UNL A   1      40.510  31.035  32.141  1.00  0.00     0.031 C 
ATOM     48  C   UNL A   1      40.397  25.986  27.463  1.00  0.00     0.029 A 
ATOM     49  C   UNL A   1      41.558  26.008  28.348  1.00  0.00     0.049 A 
ATOM     50  H   UNL A   1      41.859  27.231  30.008  1.00  0.00     0.167 HD
ATOM     51  C   UNL A   1      42.688  30.275  33.042  1.00  0.00     0.034 A 
ATOM     52  C   UNL A   1      42.636  25.207  28.237  1.00  0.00     0.034 A 
ATOM     53  C   UNL A   1      43.772  29.338  33.142  1.00  0.00     0.049 A 
ATOM     54  C   UNL A   1      43.738  25.316  29.253  1.00  0.00     0.074 A 
ATOM     55  C   UNL A   1      44.812  29.317  34.055  1.00  0.00     0.029 A 
ATOM     56  N   UNL A   1      43.959  28.252  32.300  1.00  0.00    -0.354 N 
ATOM     57  N   UNL A   1      43.854  26.156  30.253  1.00  0.00    -0.248 NA
ATOM     58  C   UNL A   1      44.835  24.342  29.156  1.00  0.00     0.031 C 
ATOM     59  C   UNL A   1      45.631  28.221  33.759  1.00  0.00     0.029 A 
ATOM     60  C   UNL A   1      45.098  27.556  32.667  1.00  0.00     0.049 A 
ATOM     61  H   UNL A   1      43.368  28.012  31.550  1.00  0.00     0.167 HD
ATOM     62  C   UNL A   1      45.021  25.800  30.918  1.00  0.00     0.074 A 
ATOM     63  C   UNL A   1      45.564  24.651  30.221  1.00  0.00     0.031 C 
ATOM     64  C   UNL A   1      45.600  26.385  31.996  1.00  0.00     0.034 A 
BRANCH  51  65
ATOM     65  C   UNL A   1      42.665  31.454  33.980  1.00  0.00     0.023 A 
ATOM     66  C   UNL A   1      43.270  32.665  33.585  1.00  0.00     0.012 A 
ATOM     67  C   UNL A   1      42.028  31.379  35.233  1.00  0.00     0.148 A 
ATOM     68  C   UNL A   1      43.282  33.768  34.439  1.00  0.00     0.002 A 
ATOM     69  C   UNL A   1      42.007  32.497  36.062  1.00  0.00     0.091 A 
ATOM     70  F   UNL A   1      41.479  30.214  35.608  1.00  0.00    -0.205 F 
ATOM     71  C   UNL A   1      42.643  33.686  35.673  1.00  0.00     0.022 A 
BRANCH  69  72
ATOM     72  S   UNL A   1      41.139  32.498  37.636  1.00  0.00     0.127 S 
ATOM     73  O   UNL A   1      41.967  31.594  38.431  1.00  0.00    -0.237 OA
ATOM     74  O   UNL A   1      41.215  33.903  38.037  1.00  0.00    -0.237 OA
ATOM     75  O   UNL A   1      39.792  32.031  37.337  1.00  0.00    -0.744 OA
ENDBRANCH  69  72
ENDBRANCH  51  65
BRANCH  52  76
ATOM     76  C   UNL A   1      42.668  24.180  27.158  1.00  0.00     0.023 A 
ATOM     77  C   UNL A   1      43.429  24.422  25.999  1.00  0.00     0.012 A 
ATOM     78  C   UNL A   1      42.024  22.935  27.312  1.00  0.00     0.148 A 
ATOM     79  C   UNL A   1      43.540  23.449  25.005  1.00  0.00     0.002 A 
ATOM     80  C   UNL A   1      42.183  21.950  26.344  1.00  0.00     0.091 A 
ATOM     81  F   UNL A   1      41.297  22.731  28.419  1.00  0.00    -0.205 F 
ATOM     82  C   UNL A   1      42.929  22.210  25.183  1.00  0.00     0.022 A 
BRANCH  80  83
ATOM     83  S   UNL A   1      41.560  20.279  26.560  1.00  0.00     0.127 S 
ATOM     84  O   UNL A   1      40.115  20.490  26.519  1.00  0.00    -0.237 OA
ATOM     85  O   UNL A   1      42.116  19.594  25.393  1.00  0.00    -0.237 OA
ATOM     86  O   UNL A   1      42.098  19.820  27.833  1.00  0.00    -0.744 OA
ENDBRANCH  80  83
ENDBRANCH  52  76
BRANCH  64  87
ATOM     87  C   UNL A   1      46.887  25.791  32.505  1.00  0.00     0.023 A 
ATOM     88  C   UNL A   1      46.855  24.914  33.607  1.00  0.00     0.012 A 
ATOM     89  C   UNL A   1      48.108  26.033  31.846  1.00  0.00     0.148 A 
ATOM     90  C   UNL A   1      48.025  24.302  34.059  1.00  0.00     0.002 A 
ATOM     91  C   UNL A   1      49.262  25.388  32.278  1.00  0.00     0.091 A 
ATOM     92  F   UNL A   1      48.121  26.889  30.814  1.00  0.00    -0.205 F 
ATOM     93  C   UNL A   1      49.224  24.529  33.389  1.00  0.00     0.022 A 
BRANCH  91  94
ATOM     94  S   UNL A   1      50.829  25.556  31.415  1.00  0.00     0.127 S 
ATOM     95  O   UNL A   1      51.312  26.839  31.923  1.00  0.00    -0.237 OA
ATOM     96  O   UNL A   1      51.578  24.392  31.890  1.00  0.00    -0.237 OA
ATOM     97  O   UNL A   1      50.504  25.522  29.995  1.00  0.00    -0.744 OA
ENDBRANCH  91  94
ENDBRANCH  64  87
ENDBRANCH  38  39
ENDBRANCH  30  33
ENDBRANCH  28  29
ENDBRANCH   1  28
TORSDOF 16
ENDMDL
MODEL 2
REMARK VINA RESULT:     -12.5      1.255      1.506
REMARK SMILES Cc1ccc(S(=O)(=O)Nc2cc3c(cc2C(=O)NCCCNC(=O)c2ccc(-c4c5nc(c(-c6cccc(S(=O)(=O)[O-])c6F)c6ccc([nH]6)c(-c6cccc(S(=O)(=O)[O-])c6F)c6nc(c(-c7cccc(S(=O)(=O)[O-])c7F)c7ccc4[nH]7)C=C6)C=C5)cc2)OCCO3)s1
REMARK SMILES IDX 20 1 19 2 18 3 16 4 17 5 15 7 10 8 11 9 12 10 14 11 13 12
REMARK SMILES IDX 91 13 88 14 90 15 89 16 9 17 6 19 7 20 8 21 5 22 1 23 2 24
REMARK SMILES IDX 3 25 92 26 4 27 21 28 22 29 23 30 24 32 25 33 26 34 87 35
REMARK SMILES IDX 27 36 86 37 28 38 29 39 30 40 80 41 31 42 85 43 79 44 81 45
REMARK SMILES IDX 32 46 84 47 78 48 77 49 33 51 65 52 45 53 64 54 46 55 49 56
REMARK SMILES IDX 63 57 82 58 47 59 48 60 62 62 83 63 50 64 34 65 35 66 43 67
REMARK SMILES IDX 36 68 38 69 44 70 37 71 39 72 40 73 41 74 42 75 66 76 67 77
REMARK SMILES IDX 75 78 68 79 70 80 76 81 69 82 71 83 72 84 73 85 74 86 51 87
REMARK SMILES IDX 52 88 60 89 53 90 55 91 61 92 54 93 56 94 57 95 58 96 59 97
REMARK H PARENT 18 6 9 18 22 31 81 50 49 61
REMARK Flexibility Score: inf
ROOT
ATOM      1  C   UNL A   1      32.826  28.236  27.133  1.00  0.00     0.042 C 
ENDROOT
BRANCH   1   2
ATOM      2  C   UNL A   1      31.596  27.846  26.325  1.00  0.00     0.118 C 
BRANCH   2   3
ATOM      3  N   UNL A   1      31.019  26.557  26.684  1.00  0.00    -0.352 N 
ATOM      4  C   UNL A   1      31.356  25.244  26.460  1.00  0.00     0.253 C 
ATOM      5  O   UNL A   1      30.671  24.398  27.034  1.00  0.00    -0.269 OA
ATOM      6  H   UNL A   1      30.191  26.649  27.209  1.00  0.00     0.163 HD
BRANCH   4   7
ATOM      7  C   UNL A   1      32.478  24.812  25.576  1.00  0.00     0.067 A 
ATOM      8  C   UNL A   1      32.375  24.924  24.169  1.00  0.00     0.066 A 
ATOM      9  C   UNL A   1      33.440  24.527  23.345  1.00  0.00     0.078 A 
ATOM     10  C   UNL A   1      34.611  24.030  23.913  1.00  0.00     0.163 A 
ATOM     11  C   UNL A   1      33.623  24.215  26.112  1.00  0.00     0.066 A 
ATOM     12  C   UNL A   1      34.706  23.897  25.297  1.00  0.00     0.162 A 
ATOM     13  O   UNL A   1      35.626  23.688  23.056  1.00  0.00    -0.486 OA
ATOM     14  O   UNL A   1      35.839  23.458  25.933  1.00  0.00    -0.486 OA
ATOM     15  C   UNL A   1      36.675  22.972  23.725  1.00  0.00     0.271 C 
ATOM     16  C   UNL A   1      36.980  23.595  25.077  1.00  0.00     0.271 C 
BRANCH   8  17
ATOM     17  N   UNL A   1      31.185  25.430  23.549  1.00  0.00    -0.278 N 
ATOM     18  H   UNL A   1      30.317  24.989  23.695  1.00  0.00     0.180 HD
BRANCH  17  19
ATOM     19  S   UNL A   1      31.303  26.796  22.565  1.00  0.00     0.271 S 
ATOM     20  O   UNL A   1      31.340  26.339  21.198  1.00  0.00    -0.200 OA
ATOM     21  O   UNL A   1      32.394  27.595  23.100  1.00  0.00    -0.200 OA
BRANCH  19  22
ATOM     22  C   UNL A   1      29.859  27.810  22.792  1.00  0.00     0.140 A 
ATOM     23  C   UNL A   1      27.818  31.160  22.890  1.00  0.00     0.056 C 
ATOM     24  C   UNL A   1      28.369  29.775  22.912  1.00  0.00     0.003 A 
ATOM     25  C   UNL A   1      27.756  28.630  23.375  1.00  0.00     0.016 A 
ATOM     26  S   UNL A   1      29.954  29.455  22.347  1.00  0.00    -0.127 S 
ATOM     27  C   UNL A   1      28.613  27.499  23.304  1.00  0.00     0.034 A 
ENDBRANCH  19  22
ENDBRANCH  17  19
ENDBRANCH   8  17
ENDBRANCH   4   7
ENDBRANCH   2   3
ENDBRANCH   1   2
BRANCH   1  28
ATOM     28  C   UNL A   1      33.839  29.098  26.393  1.00  0.00     0.118 C 
BRANCH  28  29
ATOM     29  N   UNL A   1      33.847  30.480  26.857  1.00  0.00    -0.352 N 
ATOM     30  C   UNL A   1      34.651  31.133  27.759  1.00  0.00     0.251 C 
ATOM     31  H   UNL A   1      33.153  31.046  26.450  1.00  0.00     0.163 HD
ATOM     32  O   UNL A   1      34.308  32.244  28.159  1.00  0.00    -0.269 OA
BRANCH  30  33
ATOM     33  C   UNL A   1      35.907  30.532  28.263  1.00  0.00     0.039 A 
ATOM     34  C   UNL A   1      37.108  30.822  27.602  1.00  0.00     0.014 A 
ATOM     35  C   UNL A   1      35.910  29.627  29.325  1.00  0.00     0.014 A 
ATOM     36  C   UNL A   1      38.308  30.250  28.041  1.00  0.00     0.010 A 
ATOM     37  C   UNL A   1      37.113  29.126  29.815  1.00  0.00     0.010 A 
ATOM     38  C   UNL A   1      38.323  29.416  29.170  1.00  0.00    -0.014 A 
BRANCH  38  39
ATOM     39  C   UNL A   1      39.585  28.827  29.692  1.00  0.00     0.031 A 
ATOM     40  C   UNL A   1      40.326  29.497  30.818  1.00  0.00     0.074 A 
ATOM     41  C   UNL A   1      40.129  27.762  29.072  1.00  0.00     0.049 A 
ATOM     42  N   UNL A   1      41.494  29.202  31.328  1.00  0.00    -0.248 NA
ATOM     43  C   UNL A   1      39.690  30.680  31.422  1.00  0.00     0.031 C 
ATOM     44  C   UNL A   1      39.560  27.082  27.906  1.00  0.00     0.029 A 
ATOM     45  N   UNL A   1      41.304  27.092  29.307  1.00  0.00    -0.354 N 
ATOM     46  C   UNL A   1      41.757  30.189  32.272  1.00  0.00     0.074 A 
ATOM     47  C   UNL A   1      40.639  31.108  32.242  1.00  0.00     0.031 C 
ATOM     48  C   UNL A   1      40.394  26.105  27.519  1.00  0.00     0.029 A 
ATOM     49  C   UNL A   1      41.564  26.100  28.392  1.00  0.00     0.049 A 
ATOM     50  H   UNL A   1      41.903  27.302  30.060  1.00  0.00     0.167 HD
ATOM     51  C   UNL A   1      42.814  30.304  33.112  1.00  0.00     0.034 A 
ATOM     52  C   UNL A   1      42.627  25.283  28.261  1.00  0.00     0.034 A 
ATOM     53  C   UNL A   1      43.884  29.349  33.192  1.00  0.00     0.049 A 
ATOM     54  C   UNL A   1      43.742  25.364  29.267  1.00  0.00     0.074 A 
ATOM     55  C   UNL A   1      44.933  29.303  34.093  1.00  0.00     0.029 A 
ATOM     56  N   UNL A   1      44.044  28.267  32.338  1.00  0.00    -0.354 N 
ATOM     57  N   UNL A   1      43.882  26.192  30.273  1.00  0.00    -0.248 NA
ATOM     58  C   UNL A   1      44.822  24.373  29.149  1.00  0.00     0.031 C 
ATOM     59  C   UNL A   1      45.731  28.197  33.778  1.00  0.00     0.029 A 
ATOM     60  C   UNL A   1      45.175  27.550  32.686  1.00  0.00     0.049 A 
ATOM     61  H   UNL A   1      43.441  28.044  31.592  1.00  0.00     0.167 HD
ATOM     62  C   UNL A   1      45.051  25.812  30.922  1.00  0.00     0.074 A 
ATOM     63  C   UNL A   1      45.567  24.661  30.209  1.00  0.00     0.031 C 
ATOM     64  C   UNL A   1      45.651  26.377  31.999  1.00  0.00     0.034 A 
BRANCH  51  65
ATOM     65  C   UNL A   1      42.821  31.475  34.061  1.00  0.00     0.023 A 
ATOM     66  C   UNL A   1      43.455  32.674  33.676  1.00  0.00     0.012 A 
ATOM     67  C   UNL A   1      42.183  31.404  35.314  1.00  0.00     0.148 A 
ATOM     68  C   UNL A   1      43.494  33.768  34.540  1.00  0.00     0.002 A 
ATOM     69  C   UNL A   1      42.189  32.514  36.153  1.00  0.00     0.091 A 
ATOM     70  F   UNL A   1      41.606  30.249  35.679  1.00  0.00    -0.205 F 
ATOM     71  C   UNL A   1      42.854  33.691  35.774  1.00  0.00     0.022 A 
BRANCH  69  72
ATOM     72  S   UNL A   1      41.324  32.522  37.727  1.00  0.00     0.127 S 
ATOM     73  O   UNL A   1      40.014  31.996  37.348  1.00  0.00    -0.237 OA
ATOM     74  O   UNL A   1      42.133  31.610  38.537  1.00  0.00    -0.237 OA
ATOM     75  O   UNL A   1      41.348  33.907  38.178  1.00  0.00    -0.744 OA
ENDBRANCH  69  72
ENDBRANCH  51  65
BRANCH  52  76
ATOM     76  C   UNL A   1      42.631  24.265  27.173  1.00  0.00     0.023 A 
ATOM     77  C   UNL A   1      43.381  24.506  26.007  1.00  0.00     0.012 A 
ATOM     78  C   UNL A   1      41.971  23.029  27.324  1.00  0.00     0.148 A 
ATOM     79  C   UNL A   1      43.465  23.541  25.003  1.00  0.00     0.002 A 
ATOM     80  C   UNL A   1      42.104  22.050  26.345  1.00  0.00     0.091 A 
ATOM     81  F   UNL A   1      41.255  22.825  28.438  1.00  0.00    -0.205 F 
ATOM     82  C   UNL A   1      42.839  22.310  25.178  1.00  0.00     0.022 A 
BRANCH  80  83
ATOM     83  S   UNL A   1      41.458  20.386  26.554  1.00  0.00     0.127 S 
ATOM     84  O   UNL A   1      40.017  20.615  26.500  1.00  0.00    -0.237 OA
ATOM     85  O   UNL A   1      42.017  19.696  25.391  1.00  0.00    -0.237 OA
ATOM     86  O   UNL A   1      41.980  19.920  27.831  1.00  0.00    -0.744 OA
ENDBRANCH  80  83
ENDBRANCH  52  76
BRANCH  64  87
ATOM     87  C   UNL A   1      46.933  25.758  32.488  1.00  0.00     0.023 A 
ATOM     88  C   UNL A   1      48.160  26.191  31.949  1.00  0.00     0.012 A 
ATOM     89  C   UNL A   1      46.931  24.814  33.534  1.00  0.00     0.148 A 
ATOM     90  C   UNL A   1      49.365  25.679  32.428  1.00  0.00     0.002 A 
ATOM     91  C   UNL A   1      48.139  24.338  34.034  1.00  0.00     0.091 A 
ATOM     92  F   UNL A   1      45.752  24.397  34.019  1.00  0.00    -0.205 F 
ATOM     93  C   UNL A   1      49.355  24.763  33.477  1.00  0.00     0.022 A 
BRANCH  91  94
ATOM     94  S   UNL A   1      48.216  23.226  35.443  1.00  0.00     0.127 S 
ATOM     95  O   UNL A   1      49.588  23.425  35.905  1.00  0.00    -0.237 OA
ATOM     96  O   UNL A   1      47.188  23.770  36.332  1.00  0.00    -0.237 OA
ATOM     97  O   UNL A   1      47.913  21.901  34.918  1.00  0.00    -0.744 OA
ENDBRANCH  91  94
ENDBRANCH  64  87
ENDBRANCH  38  39
ENDBRANCH  30  33
ENDBRANCH  28  29
ENDBRANCH   1  28
TORSDOF 16
ENDMDL
MODEL 3
REMARK VINA RESULT:     -12.4      1.721      3.758
REMARK SMILES Cc1ccc(S(=O)(=O)Nc2cc3c(cc2C(=O)NCCCNC(=O)c2ccc(-c4c5nc(c(-c6cccc(S(=O)(=O)[O-])c6F)c6ccc([nH]6)c(-c6cccc(S(=O)(=O)[O-])c6F)c6nc(c(-c7cccc(S(=O)(=O)[O-])c7F)c7ccc4[nH]7)C=C6)C=C5)cc2)OCCO3)s1
REMARK SMILES IDX 20 1 19 2 18 3 16 4 17 5 15 7 10 8 11 9 12 10 14 11 13 12
REMARK SMILES IDX 91 13 88 14 90 15 89 16 9 17 6 19 7 20 8 21 5 22 1 23 2 24
REMARK SMILES IDX 3 25 92 26 4 27 21 28 22 29 23 30 24 32 25 33 26 34 87 35
REMARK SMILES IDX 27 36 86 37 28 38 29 39 30 40 80 41 31 42 85 43 79 44 81 45
REMARK SMILES IDX 32 46 84 47 78 48 77 49 33 51 65 52 45 53 64 54 46 55 49 56
REMARK SMILES IDX 63 57 82 58 47 59 48 60 62 62 83 63 50 64 34 65 35 66 43 67
REMARK SMILES IDX 36 68 38 69 44 70 37 71 39 72 40 73 41 74 42 75 66 76 67 77
REMARK SMILES IDX 75 78 68 79 70 80 76 81 69 82 71 83 72 84 73 85 74 86 51 87
REMARK SMILES IDX 52 88 60 89 53 90 55 91 61 92 54 93 56 94 57 95 58 96 59 97
REMARK H PARENT 18 6 9 18 22 31 81 50 49 61
REMARK Flexibility Score: inf
ROOT
ATOM      1  C   UNL A   1      33.632  27.794  26.711  1.00  0.00     0.042 C 
ENDROOT
BRANCH   1   2
ATOM      2  C   UNL A   1      33.822  26.429  26.066  1.00  0.00     0.118 C 
BRANCH   2   3
ATOM      3  N   UNL A   1      32.643  25.574  26.095  1.00  0.00    -0.352 N 
ATOM      4  C   UNL A   1      31.472  25.507  25.379  1.00  0.00     0.253 C 
ATOM      5  O   UNL A   1      30.739  24.548  25.619  1.00  0.00    -0.269 OA
ATOM      6  H   UNL A   1      32.698  24.883  26.794  1.00  0.00     0.163 HD
BRANCH   4   7
ATOM      7  C   UNL A   1      31.061  26.516  24.359  1.00  0.00     0.067 A 
ATOM      8  C   UNL A   1      31.058  26.192  22.981  1.00  0.00     0.066 A 
ATOM      9  C   UNL A   1      30.659  27.143  22.030  1.00  0.00     0.078 A 
ATOM     10  C   UNL A   1      30.250  28.410  22.441  1.00  0.00     0.163 A 
ATOM     11  C   UNL A   1      30.744  27.825  24.734  1.00  0.00     0.066 A 
ATOM     12  C   UNL A   1      30.273  28.738  23.796  1.00  0.00     0.162 A 
ATOM     13  O   UNL A   1      29.841  29.283  21.466  1.00  0.00    -0.486 OA
ATOM     14  O   UNL A   1      29.845  29.946  24.282  1.00  0.00    -0.486 OA
ATOM     15  C   UNL A   1      29.675  30.616  21.973  1.00  0.00     0.271 C 
ATOM     16  C   UNL A   1      28.995  30.599  23.331  1.00  0.00     0.271 C 
BRANCH   8  17
ATOM     17  N   UNL A   1      31.474  24.899  22.520  1.00  0.00    -0.278 N 
ATOM     18  H   UNL A   1      30.817  24.179  22.385  1.00  0.00     0.180 HD
BRANCH  17  19
ATOM     19  S   UNL A   1      33.114  24.639  22.216  1.00  0.00     0.271 S 
ATOM     20  O   UNL A   1      33.815  25.846  22.579  1.00  0.00    -0.200 OA
ATOM     21  O   UNL A   1      33.203  24.120  20.861  1.00  0.00    -0.200 OA
BRANCH  19  22
ATOM     22  C   UNL A   1      33.697  23.307  23.240  1.00  0.00     0.140 A 
ATOM     23  C   UNL A   1      36.386  21.135  25.100  1.00  0.00     0.056 C 
ATOM     24  C   UNL A   1      35.193  21.800  24.499  1.00  0.00     0.003 A 
ATOM     25  C   UNL A   1      33.894  21.337  24.472  1.00  0.00     0.016 A 
ATOM     26  S   UNL A   1      35.342  23.305  23.697  1.00  0.00    -0.127 S 
ATOM     27  C   UNL A   1      33.033  22.205  23.748  1.00  0.00     0.034 A 
ENDBRANCH  19  22
ENDBRANCH  17  19
ENDBRANCH   8  17
ENDBRANCH   4   7
ENDBRANCH   2   3
ENDBRANCH   1   2
BRANCH   1  28
ATOM     28  C   UNL A   1      34.076  28.978  25.864  1.00  0.00     0.118 C 
BRANCH  28  29
ATOM     29  N   UNL A   1      33.879  30.257  26.537  1.00  0.00    -0.352 N 
ATOM     30  C   UNL A   1      34.525  30.835  27.601  1.00  0.00     0.251 C 
ATOM     31  H   UNL A   1      33.152  30.804  26.159  1.00  0.00     0.163 HD
ATOM     32  O   UNL A   1      34.018  31.820  28.136  1.00  0.00    -0.269 OA
BRANCH  30  33
ATOM     33  C   UNL A   1      35.804  30.299  28.122  1.00  0.00     0.039 A 
ATOM     34  C   UNL A   1      35.814  29.677  29.378  1.00  0.00     0.014 A 
ATOM     35  C   UNL A   1      37.004  30.470  27.431  1.00  0.00     0.014 A 
ATOM     36  C   UNL A   1      37.011  29.182  29.907  1.00  0.00     0.010 A 
ATOM     37  C   UNL A   1      38.178  29.902  27.918  1.00  0.00     0.010 A 
ATOM     38  C   UNL A   1      38.201  29.267  29.168  1.00  0.00    -0.014 A 
BRANCH  38  39
ATOM     39  C   UNL A   1      39.482  28.713  29.678  1.00  0.00     0.031 A 
ATOM     40  C   UNL A   1      40.218  29.405  30.794  1.00  0.00     0.074 A 
ATOM     41  C   UNL A   1      40.048  27.659  29.055  1.00  0.00     0.049 A 
ATOM     42  N   UNL A   1      41.398  29.142  31.293  1.00  0.00    -0.248 NA
ATOM     43  C   UNL A   1      39.558  30.573  31.401  1.00  0.00     0.031 C 
ATOM     44  C   UNL A   1      39.485  26.962  27.898  1.00  0.00     0.029 A 
ATOM     45  N   UNL A   1      41.242  27.021  29.281  1.00  0.00    -0.354 N 
ATOM     46  C   UNL A   1      41.645  30.139  32.231  1.00  0.00     0.074 A 
ATOM     47  C   UNL A   1      40.504  31.029  32.209  1.00  0.00     0.031 C 
ATOM     48  C   UNL A   1      40.339  26.005  27.505  1.00  0.00     0.029 A 
ATOM     49  C   UNL A   1      41.518  26.033  28.366  1.00  0.00     0.049 A 
ATOM     50  H   UNL A   1      41.843  27.249  30.027  1.00  0.00     0.167 HD
ATOM     51  C   UNL A   1      42.708  30.285  33.059  1.00  0.00     0.034 A 
ATOM     52  C   UNL A   1      42.601  25.243  28.227  1.00  0.00     0.034 A 
ATOM     53  C   UNL A   1      43.803  29.357  33.131  1.00  0.00     0.049 A 
ATOM     54  C   UNL A   1      43.724  25.356  29.221  1.00  0.00     0.074 A 
ATOM     55  C   UNL A   1      44.862  29.342  34.022  1.00  0.00     0.029 A 
ATOM     56  N   UNL A   1      43.982  28.278  32.279  1.00  0.00    -0.354 N 
ATOM     57  N   UNL A   1      43.853  26.192  30.223  1.00  0.00    -0.248 NA
ATOM     58  C   UNL A   1      44.828  24.394  29.095  1.00  0.00     0.031 C 
ATOM     59  C   UNL A   1      45.685  28.255  33.703  1.00  0.00     0.029 A 
ATOM     60  C   UNL A   1      45.134  27.591  32.618  1.00  0.00     0.049 A 
ATOM     61  H   UNL A   1      43.377  28.036  31.541  1.00  0.00     0.167 HD
ATOM     62  C   UNL A   1      45.037  25.844  30.861  1.00  0.00     0.074 A 
ATOM     63  C   UNL A   1      45.576  24.704  30.147  1.00  0.00     0.031 C 
ATOM     64  C   UNL A   1      45.633  26.428  31.930  1.00  0.00     0.034 A 
BRANCH  51  65
ATOM     65  C   UNL A   1      42.694  31.458  34.004  1.00  0.00     0.023 A 
ATOM     66  C   UNL A   1      43.292  32.672  33.609  1.00  0.00     0.012 A 
ATOM     67  C   UNL A   1      42.071  31.375  35.264  1.00  0.00     0.148 A 
ATOM     68  C   UNL A   1      43.312  33.770  34.469  1.00  0.00     0.002 A 
ATOM     69  C   UNL A   1      42.057  32.488  36.100  1.00  0.00     0.091 A 
ATOM     70  F   UNL A   1      41.528  30.207  35.639  1.00  0.00    -0.205 F 
ATOM     71  C   UNL A   1      42.687  33.680  35.710  1.00  0.00     0.022 A 
BRANCH  69  72
ATOM     72  S   UNL A   1      41.208  32.478  37.683  1.00  0.00     0.127 S 
ATOM     73  O   UNL A   1      42.056  31.585  38.469  1.00  0.00    -0.237 OA
ATOM     74  O   UNL A   1      41.270  33.885  38.083  1.00  0.00    -0.237 OA
ATOM     75  O   UNL A   1      39.863  31.995  37.400  1.00  0.00    -0.744 OA
ENDBRANCH  69  72
ENDBRANCH  51  65
BRANCH  52  76
ATOM     76  C   UNL A   1      42.620  24.222  27.142  1.00  0.00     0.023 A 
ATOM     77  C   UNL A   1      43.342  24.484  25.963  1.00  0.00     0.012 A 
ATOM     78  C   UNL A   1      42.004  22.965  27.309  1.00  0.00     0.148 A 
ATOM     79  C   UNL A   1      43.440  23.518  24.960  1.00  0.00     0.002 A 
ATOM     80  C   UNL A   1      42.153  21.988  26.330  1.00  0.00     0.091 A 
ATOM     81  F   UNL A   1      41.314  22.741  28.435  1.00  0.00    -0.205 F 
ATOM     82  C   UNL A   1      42.859  22.267  25.150  1.00  0.00     0.022 A 
BRANCH  80  83
ATOM     83  S   UNL A   1      41.566  20.304  26.555  1.00  0.00     0.127 S 
ATOM     84  O   UNL A   1      40.117  20.486  26.537  1.00  0.00    -0.237 OA
ATOM     85  O   UNL A   1      42.119  19.631  25.380  1.00  0.00    -0.237 OA
ATOM     86  O   UNL A   1      42.134  19.856  27.820  1.00  0.00    -0.744 OA
ENDBRANCH  80  83
ENDBRANCH  52  76
BRANCH  64  87
ATOM     87  C   UNL A   1      46.936  25.844  32.408  1.00  0.00     0.023 A 
ATOM     88  C   UNL A   1      48.146  26.312  31.859  1.00  0.00     0.012 A 
ATOM     89  C   UNL A   1      46.969  24.899  33.452  1.00  0.00     0.148 A 
ATOM     90  C   UNL A   1      49.369  25.833  32.328  1.00  0.00     0.002 A 
ATOM     91  C   UNL A   1      48.193  24.456  33.942  1.00  0.00     0.091 A 
ATOM     92  F   UNL A   1      45.806  24.449  33.945  1.00  0.00    -0.205 F 
ATOM     93  C   UNL A   1      49.393  24.915  33.375  1.00  0.00     0.022 A 
BRANCH  91  94
ATOM     94  S   UNL A   1      48.312  23.344  35.348  1.00  0.00     0.127 S 
ATOM     95  O   UNL A   1      47.681  24.131  36.405  1.00  0.00    -0.237 OA
ATOM     96  O   UNL A   1      47.534  22.187  34.902  1.00  0.00    -0.237 OA
ATOM     97  O   UNL A   1      49.734  23.078  35.523  1.00  0.00    -0.744 OA
ENDBRANCH  91  94
ENDBRANCH  64  87
ENDBRANCH  38  39
ENDBRANCH  30  33
ENDBRANCH  28  29
ENDBRANCH   1  28
TORSDOF 16
ENDMDL
