MODEL 1
REMARK VINA RESULT:     -11.1      0.000      0.000
REMARK SMILES Cc1c(I)c(C(=O)NCCCNC(=O)c2ccc(-c3c4nc(c(-c5cccc(S(=O)(=O)[O-])c5F)c5ccc([nH]5)c(-c5cccc(S(=O)(=O)[O-])c5F)c5nc(c(-c6cccc(S(=O)(=O)[O-])c6F)c6ccc3[nH]6)C=C5)C=C4)cc2)nn1C(F)F
REMARK SMILES IDX 11 1 10 2 9 3 8 4 6 5 7 6 5 8 1 9 2 10 3 11 79 12 4 13 78 14
REMARK SMILES IDX 80 15 81 16 82 17 12 18 13 19 14 21 15 22 16 23 77 24 17 25
REMARK SMILES IDX 76 26 18 27 19 28 20 29 70 30 21 31 75 32 69 33 71 34 22 35
REMARK SMILES IDX 74 36 68 37 67 38 23 40 55 41 35 42 54 43 36 44 39 45 53 46
REMARK SMILES IDX 72 47 37 48 38 49 52 51 73 52 40 53 24 54 25 55 33 56 26 57
REMARK SMILES IDX 28 58 34 59 27 60 29 61 30 62 31 63 32 64 56 65 57 66 65 67
REMARK SMILES IDX 58 68 60 69 66 70 59 71 61 72 62 73 63 74 64 75 41 76 42 77
REMARK SMILES IDX 50 78 43 79 45 80 51 81 44 82 46 83 47 84 48 85 49 86
REMARK H PARENT 8 7 12 20 71 39 39 50
REMARK Flexibility Score: inf
ROOT
ATOM      1  C   UNL A   1      39.238  20.126  25.901  1.00  0.00     0.118 C 
ENDROOT
BRANCH   1   2
ATOM      2  C   UNL A   1      38.123  19.845  24.901  1.00  0.00     0.042 C 
BRANCH   2   3
ATOM      3  C   UNL A   1      36.852  20.634  25.228  1.00  0.00     0.118 C 
BRANCH   3   4
ATOM      4  N   UNL A   1      35.638  19.850  25.064  1.00  0.00    -0.351 N 
ATOM      5  C   UNL A   1      34.353  20.233  24.737  1.00  0.00     0.272 C 
ATOM      6  O   UNL A   1      33.548  19.322  24.537  1.00  0.00    -0.267 OA
ATOM      7  H   UNL A   1      35.752  18.884  25.210  1.00  0.00     0.163 HD
BRANCH   5   8
ATOM      8  C   UNL A   1      33.987  21.660  24.597  1.00  0.00     0.163 A 
ATOM      9  C   UNL A   1      32.883  25.081  25.573  1.00  0.00     0.068 C 
ATOM     10  C   UNL A   1      33.333  23.786  24.996  1.00  0.00     0.056 A 
ATOM     11  C   UNL A   1      33.695  22.605  25.618  1.00  0.00     0.067 A 
ATOM     12  N   UNL A   1      33.461  23.522  23.649  1.00  0.00    -0.207 N 
ATOM     13  I   UNL A   1      33.717  22.342  27.639  1.00  0.00    -0.040 I 
ATOM     14  N   UNL A   1      33.882  22.265  23.399  1.00  0.00    -0.161 NA
BRANCH  12  15
ATOM     15  C   UNL A   1      33.136  24.386  22.513  1.00  0.00     0.465 C 
ATOM     16  F   UNL A   1      33.995  25.435  22.401  1.00  0.00    -0.184 F 
ATOM     17  F   UNL A   1      33.197  23.699  21.338  1.00  0.00    -0.184 F 
ENDBRANCH  12  15
ENDBRANCH   5   8
ENDBRANCH   3   4
ENDBRANCH   2   3
ENDBRANCH   1   2
BRANCH   1  18
ATOM     18  N   UNL A   1      40.420  19.288  25.674  1.00  0.00    -0.352 N 
ATOM     19  C   UNL A   1      41.759  19.629  25.750  1.00  0.00     0.251 C 
ATOM     20  H   UNL A   1      40.235  18.352  25.431  1.00  0.00     0.163 HD
ATOM     21  O   UNL A   1      42.607  18.916  25.242  1.00  0.00    -0.269 OA
BRANCH  19  22
ATOM     22  C   UNL A   1      42.139  20.881  26.435  1.00  0.00     0.039 A 
ATOM     23  C   UNL A   1      42.297  22.064  25.711  1.00  0.00     0.014 A 
ATOM     24  C   UNL A   1      42.286  20.876  27.818  1.00  0.00     0.014 A 
ATOM     25  C   UNL A   1      42.493  23.253  26.406  1.00  0.00     0.010 A 
ATOM     26  C   UNL A   1      42.316  22.066  28.508  1.00  0.00     0.010 A 
ATOM     27  C   UNL A   1      42.455  23.261  27.813  1.00  0.00    -0.014 A 
BRANCH  27  28
ATOM     28  C   UNL A   1      42.436  24.533  28.537  1.00  0.00     0.031 A 
ATOM     29  C   UNL A   1      41.211  25.347  28.314  1.00  0.00     0.074 A 
ATOM     30  C   UNL A   1      43.350  24.928  29.451  1.00  0.00     0.049 A 
ATOM     31  N   UNL A   1      41.112  26.401  27.573  1.00  0.00    -0.248 NA
ATOM     32  C   UNL A   1      39.925  24.855  28.829  1.00  0.00     0.031 C 
ATOM     33  C   UNL A   1      44.463  24.157  30.019  1.00  0.00     0.029 A 
ATOM     34  N   UNL A   1      43.402  26.092  30.162  1.00  0.00    -0.354 N 
ATOM     35  C   UNL A   1      39.809  26.858  27.747  1.00  0.00     0.074 A 
ATOM     36  C   UNL A   1      39.080  25.768  28.342  1.00  0.00     0.031 C 
ATOM     37  C   UNL A   1      44.906  24.760  31.143  1.00  0.00     0.029 A 
ATOM     38  C   UNL A   1      44.252  26.048  31.263  1.00  0.00     0.049 A 
ATOM     39  H   UNL A   1      42.884  26.893  29.918  1.00  0.00     0.167 HD
ATOM     40  C   UNL A   1      39.521  28.184  27.645  1.00  0.00     0.034 A 
ATOM     41  C   UNL A   1      44.409  26.999  32.212  1.00  0.00     0.034 A 
ATOM     42  C   UNL A   1      40.609  28.913  27.036  1.00  0.00     0.049 A 
ATOM     43  C   UNL A   1      43.984  28.281  31.612  1.00  0.00     0.074 A 
ATOM     44  C   UNL A   1      41.300  28.852  25.842  1.00  0.00     0.029 A 
ATOM     45  N   UNL A   1      41.392  29.647  27.893  1.00  0.00    -0.354 N 
ATOM     46  N   UNL A   1      44.631  28.873  30.650  1.00  0.00    -0.248 NA
ATOM     47  C   UNL A   1      42.625  28.743  31.832  1.00  0.00     0.031 C 
ATOM     48  C   UNL A   1      42.650  29.174  26.177  1.00  0.00     0.029 A 
ATOM     49  C   UNL A   1      42.702  29.474  27.540  1.00  0.00     0.049 A 
ATOM     50  H   UNL A   1      41.066  30.204  28.635  1.00  0.00     0.167 HD
ATOM     51  C   UNL A   1      43.632  29.408  29.850  1.00  0.00     0.074 A 
ATOM     52  C   UNL A   1      42.450  29.440  30.707  1.00  0.00     0.031 C 
ATOM     53  C   UNL A   1      43.791  29.488  28.495  1.00  0.00     0.034 A 
BRANCH  40  54
ATOM     54  C   UNL A   1      38.471  28.910  28.464  1.00  0.00     0.023 A 
ATOM     55  C   UNL A   1      37.651  29.838  27.780  1.00  0.00     0.012 A 
ATOM     56  C   UNL A   1      38.449  28.962  29.877  1.00  0.00     0.148 A 
ATOM     57  C   UNL A   1      36.906  30.808  28.462  1.00  0.00     0.002 A 
ATOM     58  C   UNL A   1      37.645  29.874  30.552  1.00  0.00     0.091 A 
ATOM     59  F   UNL A   1      39.307  28.230  30.590  1.00  0.00    -0.205 F 
ATOM     60  C   UNL A   1      36.900  30.822  29.850  1.00  0.00     0.022 A 
BRANCH  58  61
ATOM     61  S   UNL A   1      37.559  29.904  32.347  1.00  0.00     0.127 S 
ATOM     62  O   UNL A   1      37.242  28.511  32.644  1.00  0.00    -0.237 OA
ATOM     63  O   UNL A   1      38.914  30.324  32.703  1.00  0.00    -0.237 OA
ATOM     64  O   UNL A   1      36.528  30.882  32.671  1.00  0.00    -0.744 OA
ENDBRANCH  58  61
ENDBRANCH  40  54
BRANCH  41  65
ATOM     65  C   UNL A   1      44.743  26.885  33.647  1.00  0.00     0.023 A 
ATOM     66  C   UNL A   1      45.923  27.484  34.134  1.00  0.00     0.012 A 
ATOM     67  C   UNL A   1      43.767  26.470  34.578  1.00  0.00     0.148 A 
ATOM     68  C   UNL A   1      46.100  27.715  35.502  1.00  0.00     0.002 A 
ATOM     69  C   UNL A   1      43.948  26.704  35.939  1.00  0.00     0.091 A 
ATOM     70  F   UNL A   1      42.628  25.935  34.121  1.00  0.00    -0.205 F 
ATOM     71  C   UNL A   1      45.107  27.340  36.402  1.00  0.00     0.022 A 
BRANCH  69  72
ATOM     72  S   UNL A   1      42.698  26.285  37.161  1.00  0.00     0.127 S 
ATOM     73  O   UNL A   1      43.428  26.472  38.415  1.00  0.00    -0.237 OA
ATOM     74  O   UNL A   1      41.670  27.289  36.897  1.00  0.00    -0.237 OA
ATOM     75  O   UNL A   1      42.319  24.905  36.886  1.00  0.00    -0.744 OA
ENDBRANCH  69  72
ENDBRANCH  41  65
BRANCH  53  76
ATOM     76  C   UNL A   1      45.189  29.338  27.942  1.00  0.00     0.023 A 
ATOM     77  C   UNL A   1      46.111  30.405  27.889  1.00  0.00     0.012 A 
ATOM     78  C   UNL A   1      45.620  28.056  27.559  1.00  0.00     0.148 A 
ATOM     79  C   UNL A   1      47.414  30.206  27.421  1.00  0.00     0.002 A 
ATOM     80  C   UNL A   1      46.929  27.852  27.140  1.00  0.00     0.091 A 
ATOM     81  F   UNL A   1      44.738  27.045  27.617  1.00  0.00    -0.205 F 
ATOM     82  C   UNL A   1      47.826  28.928  27.055  1.00  0.00     0.022 A 
BRANCH  80  83
ATOM     83  S   UNL A   1      47.542  26.208  26.767  1.00  0.00     0.127 S 
ATOM     84  O   UNL A   1      47.240  25.481  27.998  1.00  0.00    -0.237 OA
ATOM     85  O   UNL A   1      46.728  25.819  25.613  1.00  0.00    -0.237 OA
ATOM     86  O   UNL A   1      48.957  26.372  26.461  1.00  0.00    -0.744 OA
ENDBRANCH  80  83
ENDBRANCH  53  76
ENDBRANCH  27  28
ENDBRANCH  19  22
ENDBRANCH   1  18
TORSDOF 14
ENDMDL
MODEL 2
REMARK VINA RESULT:     -11.0      4.498      9.661
REMARK SMILES Cc1c(I)c(C(=O)NCCCNC(=O)c2ccc(-c3c4nc(c(-c5cccc(S(=O)(=O)[O-])c5F)c5ccc([nH]5)c(-c5cccc(S(=O)(=O)[O-])c5F)c5nc(c(-c6cccc(S(=O)(=O)[O-])c6F)c6ccc3[nH]6)C=C5)C=C4)cc2)nn1C(F)F
REMARK SMILES IDX 11 1 10 2 9 3 8 4 6 5 7 6 5 8 1 9 2 10 3 11 79 12 4 13 78 14
REMARK SMILES IDX 80 15 81 16 82 17 12 18 13 19 14 21 15 22 16 23 77 24 17 25
REMARK SMILES IDX 76 26 18 27 19 28 20 29 70 30 21 31 75 32 69 33 71 34 22 35
REMARK SMILES IDX 74 36 68 37 67 38 23 40 55 41 35 42 54 43 36 44 39 45 53 46
REMARK SMILES IDX 72 47 37 48 38 49 52 51 73 52 40 53 24 54 25 55 33 56 26 57
REMARK SMILES IDX 28 58 34 59 27 60 29 61 30 62 31 63 32 64 56 65 57 66 65 67
REMARK SMILES IDX 58 68 60 69 66 70 59 71 61 72 62 73 63 74 64 75 41 76 42 77
REMARK SMILES IDX 50 78 43 79 45 80 51 81 44 82 46 83 47 84 48 85 49 86
REMARK H PARENT 8 7 12 20 71 39 39 50
REMARK Flexibility Score: inf
ROOT
ATOM      1  C   UNL A   1      32.767  32.736  27.051  1.00  0.00     0.118 C 
ENDROOT
BRANCH   1   2
ATOM      2  C   UNL A   1      31.559  31.892  26.663  1.00  0.00     0.042 C 
BRANCH   2   3
ATOM      3  C   UNL A   1      31.923  30.412  26.513  1.00  0.00     0.118 C 
BRANCH   3   4
ATOM      4  N   UNL A   1      32.817  30.157  25.392  1.00  0.00    -0.351 N 
ATOM      5  C   UNL A   1      32.766  29.203  24.396  1.00  0.00     0.272 C 
ATOM      6  O   UNL A   1      33.598  29.314  23.495  1.00  0.00    -0.267 OA
ATOM      7  H   UNL A   1      33.586  30.768  25.336  1.00  0.00     0.163 HD
BRANCH   5   8
ATOM      8  C   UNL A   1      31.738  28.139  24.402  1.00  0.00     0.163 A 
ATOM      9  C   UNL A   1      28.455  26.469  23.845  1.00  0.00     0.068 C 
ATOM     10  C   UNL A   1      29.825  26.962  24.149  1.00  0.00     0.056 A 
ATOM     11  C   UNL A   1      30.445  28.151  23.810  1.00  0.00     0.067 A 
ATOM     12  N   UNL A   1      30.768  26.275  24.882  1.00  0.00    -0.207 N 
ATOM     13  I   UNL A   1      29.564  29.623  22.710  1.00  0.00    -0.040 I 
ATOM     14  N   UNL A   1      31.928  26.954  25.013  1.00  0.00    -0.161 NA
BRANCH  12  15
ATOM     15  C   UNL A   1      30.636  24.987  25.564  1.00  0.00     0.465 C 
ATOM     16  F   UNL A   1      29.576  24.961  26.417  1.00  0.00    -0.184 F 
ATOM     17  F   UNL A   1      30.451  23.974  24.673  1.00  0.00    -0.184 F 
ENDBRANCH  12  15
ENDBRANCH   5   8
ENDBRANCH   3   4
ENDBRANCH   2   3
ENDBRANCH   1   2
BRANCH   1  18
ATOM     18  N   UNL A   1      32.395  33.923  27.828  1.00  0.00    -0.352 N 
ATOM     19  C   UNL A   1      32.991  34.445  28.963  1.00  0.00     0.251 C 
ATOM     20  H   UNL A   1      31.611  34.417  27.497  1.00  0.00     0.163 HD
ATOM     21  O   UNL A   1      32.394  35.247  29.661  1.00  0.00    -0.269 OA
BRANCH  19  22
ATOM     22  C   UNL A   1      34.350  33.996  29.327  1.00  0.00     0.039 A 
ATOM     23  C   UNL A   1      34.531  32.936  30.215  1.00  0.00     0.014 A 
ATOM     24  C   UNL A   1      35.446  34.611  28.729  1.00  0.00     0.014 A 
ATOM     25  C   UNL A   1      35.816  32.434  30.406  1.00  0.00     0.010 A 
ATOM     26  C   UNL A   1      36.685  34.015  28.793  1.00  0.00     0.010 A 
ATOM     27  C   UNL A   1      36.891  32.947  29.656  1.00  0.00    -0.014 A 
BRANCH  27  28
ATOM     28  C   UNL A   1      38.191  32.275  29.690  1.00  0.00     0.031 A 
ATOM     29  C   UNL A   1      38.190  30.907  29.106  1.00  0.00     0.074 A 
ATOM     30  C   UNL A   1      39.357  32.844  30.072  1.00  0.00     0.049 A 
ATOM     31  N   UNL A   1      38.218  29.792  29.760  1.00  0.00    -0.248 NA
ATOM     32  C   UNL A   1      37.970  30.748  27.662  1.00  0.00     0.031 C 
ATOM     33  C   UNL A   1      39.618  34.251  30.403  1.00  0.00     0.029 A 
ATOM     34  N   UNL A   1      40.601  32.288  30.133  1.00  0.00    -0.354 N 
ATOM     35  C   UNL A   1      38.292  28.795  28.793  1.00  0.00     0.074 A 
ATOM     36  C   UNL A   1      37.921  29.418  27.548  1.00  0.00     0.031 C 
ATOM     37  C   UNL A   1      40.949  34.483  30.374  1.00  0.00     0.029 A 
ATOM     38  C   UNL A   1      41.634  33.215  30.223  1.00  0.00     0.049 A 
ATOM     39  H   UNL A   1      40.755  31.315  30.115  1.00  0.00     0.167 HD
ATOM     40  C   UNL A   1      38.923  27.618  29.057  1.00  0.00     0.034 A 
ATOM     41  C   UNL A   1      42.963  32.965  30.173  1.00  0.00     0.034 A 
ATOM     42  C   UNL A   1      39.160  27.457  30.473  1.00  0.00     0.049 A 
ATOM     43  C   UNL A   1      43.151  31.555  30.571  1.00  0.00     0.074 A 
ATOM     44  C   UNL A   1      38.383  27.431  31.613  1.00  0.00     0.029 A 
ATOM     45  N   UNL A   1      40.448  27.680  30.894  1.00  0.00    -0.354 N 
ATOM     46  N   UNL A   1      42.926  31.112  31.775  1.00  0.00    -0.248 NA
ATOM     47  C   UNL A   1      43.248  30.539  29.538  1.00  0.00     0.031 C 
ATOM     48  C   UNL A   1      39.171  28.076  32.615  1.00  0.00     0.029 A 
ATOM     49  C   UNL A   1      40.407  28.404  32.053  1.00  0.00     0.049 A 
ATOM     50  H   UNL A   1      41.263  27.371  30.438  1.00  0.00     0.167 HD
ATOM     51  C   UNL A   1      42.375  29.855  31.576  1.00  0.00     0.074 A 
ATOM     52  C   UNL A   1      42.752  29.499  30.210  1.00  0.00     0.031 C 
ATOM     53  C   UNL A   1      41.423  29.367  32.426  1.00  0.00     0.034 A 
BRANCH  40  54
ATOM     54  C   UNL A   1      39.714  26.811  28.047  1.00  0.00     0.023 A 
ATOM     55  C   UNL A   1      39.552  25.405  28.078  1.00  0.00     0.012 A 
ATOM     56  C   UNL A   1      40.805  27.309  27.298  1.00  0.00     0.148 A 
ATOM     57  C   UNL A   1      40.464  24.543  27.460  1.00  0.00     0.002 A 
ATOM     58  C   UNL A   1      41.662  26.450  26.617  1.00  0.00     0.091 A 
ATOM     59  F   UNL A   1      41.117  28.605  27.345  1.00  0.00    -0.205 F 
ATOM     60  C   UNL A   1      41.518  25.067  26.724  1.00  0.00     0.022 A 
BRANCH  58  61
ATOM     61  S   UNL A   1      43.013  27.076  25.608  1.00  0.00     0.127 S 
ATOM     62  O   UNL A   1      43.888  27.654  26.623  1.00  0.00    -0.237 OA
ATOM     63  O   UNL A   1      43.509  25.850  24.983  1.00  0.00    -0.237 OA
ATOM     64  O   UNL A   1      42.400  28.014  24.676  1.00  0.00    -0.744 OA
ENDBRANCH  58  61
ENDBRANCH  40  54
BRANCH  41  65
ATOM     65  C   UNL A   1      44.081  33.784  29.660  1.00  0.00     0.023 A 
ATOM     66  C   UNL A   1      44.953  34.415  30.571  1.00  0.00     0.012 A 
ATOM     67  C   UNL A   1      44.475  33.690  28.308  1.00  0.00     0.148 A 
ATOM     68  C   UNL A   1      46.204  34.887  30.159  1.00  0.00     0.002 A 
ATOM     69  C   UNL A   1      45.722  34.160  27.905  1.00  0.00     0.091 A 
ATOM     70  F   UNL A   1      43.669  33.058  27.446  1.00  0.00    -0.205 F 
ATOM     71  C   UNL A   1      46.595  34.745  28.831  1.00  0.00     0.022 A 
BRANCH  69  72
ATOM     72  S   UNL A   1      46.317  33.981  26.217  1.00  0.00     0.127 S 
ATOM     73  O   UNL A   1      47.634  34.613  26.293  1.00  0.00    -0.237 OA
ATOM     74  O   UNL A   1      46.344  32.529  26.060  1.00  0.00    -0.237 OA
ATOM     75  O   UNL A   1      45.358  34.689  25.380  1.00  0.00    -0.744 OA
ENDBRANCH  69  72
ENDBRANCH  41  65
BRANCH  53  76
ATOM     76  C   UNL A   1      41.263  30.046  33.766  1.00  0.00     0.023 A 
ATOM     77  C   UNL A   1      42.088  29.760  34.875  1.00  0.00     0.012 A 
ATOM     78  C   UNL A   1      40.318  31.081  33.880  1.00  0.00     0.148 A 
ATOM     79  C   UNL A   1      41.941  30.455  36.079  1.00  0.00     0.002 A 
ATOM     80  C   UNL A   1      40.207  31.802  35.063  1.00  0.00     0.091 A 
ATOM     81  F   UNL A   1      39.540  31.351  32.820  1.00  0.00    -0.205 F 
ATOM     82  C   UNL A   1      41.006  31.482  36.170  1.00  0.00     0.022 A 
BRANCH  80  83
ATOM     83  S   UNL A   1      39.100  33.208  35.195  1.00  0.00     0.127 S 
ATOM     84  O   UNL A   1      39.389  33.701  36.539  1.00  0.00    -0.237 OA
ATOM     85  O   UNL A   1      39.560  34.079  34.112  1.00  0.00    -0.237 OA
ATOM     86  O   UNL A   1      37.758  32.675  34.993  1.00  0.00    -0.744 OA
ENDBRANCH  80  83
ENDBRANCH  53  76
ENDBRANCH  27  28
ENDBRANCH  19  22
ENDBRANCH   1  18
TORSDOF 14
ENDMDL
MODEL 3
REMARK VINA RESULT:     -10.9      4.841     10.481
REMARK SMILES Cc1c(I)c(C(=O)NCCCNC(=O)c2ccc(-c3c4nc(c(-c5cccc(S(=O)(=O)[O-])c5F)c5ccc([nH]5)c(-c5cccc(S(=O)(=O)[O-])c5F)c5nc(c(-c6cccc(S(=O)(=O)[O-])c6F)c6ccc3[nH]6)C=C5)C=C4)cc2)nn1C(F)F
REMARK SMILES IDX 11 1 10 2 9 3 8 4 6 5 7 6 5 8 1 9 2 10 3 11 79 12 4 13 78 14
REMARK SMILES IDX 80 15 81 16 82 17 12 18 13 19 14 21 15 22 16 23 77 24 17 25
REMARK SMILES IDX 76 26 18 27 19 28 20 29 70 30 21 31 75 32 69 33 71 34 22 35
REMARK SMILES IDX 74 36 68 37 67 38 23 40 55 41 35 42 54 43 36 44 39 45 53 46
REMARK SMILES IDX 72 47 37 48 38 49 52 51 73 52 40 53 24 54 25 55 33 56 26 57
REMARK SMILES IDX 28 58 34 59 27 60 29 61 30 62 31 63 32 64 56 65 57 66 65 67
REMARK SMILES IDX 58 68 60 69 66 70 59 71 61 72 62 73 63 74 64 75 41 76 42 77
REMARK SMILES IDX 50 78 43 79 45 80 51 81 44 82 46 83 47 84 48 85 49 86
REMARK H PARENT 8 7 12 20 71 39 39 50
REMARK Flexibility Score: inf
ROOT
ATOM      1  C   UNL A   1      34.657  32.759  31.737  1.00  0.00     0.118 C 
ENDROOT
BRANCH   1   2
ATOM      2  C   UNL A   1      34.388  34.191  32.182  1.00  0.00     0.042 C 
BRANCH   2   3
ATOM      3  C   UNL A   1      35.585  34.790  32.928  1.00  0.00     0.118 C 
BRANCH   3   4
ATOM      4  N   UNL A   1      36.780  34.884  32.103  1.00  0.00    -0.351 N 
ATOM      5  C   UNL A   1      38.105  34.639  32.402  1.00  0.00     0.272 C 
ATOM      6  O   UNL A   1      38.891  34.675  31.454  1.00  0.00    -0.267 OA
ATOM      7  H   UNL A   1      36.615  35.171  31.176  1.00  0.00     0.163 HD
BRANCH   5   8
ATOM      8  C   UNL A   1      38.535  34.312  33.779  1.00  0.00     0.163 A 
ATOM      9  C   UNL A   1      39.087  32.302  36.867  1.00  0.00     0.068 C 
ATOM     10  C   UNL A   1      38.951  33.257  35.734  1.00  0.00     0.056 A 
ATOM     11  C   UNL A   1      38.533  33.049  34.432  1.00  0.00     0.067 A 
ATOM     12  N   UNL A   1      39.224  34.606  35.799  1.00  0.00    -0.207 N 
ATOM     13  I   UNL A   1      37.975  31.234  33.690  1.00  0.00    -0.040 I 
ATOM     14  N   UNL A   1      39.011  35.242  34.628  1.00  0.00    -0.161 NA
BRANCH  12  15
ATOM     15  C   UNL A   1      39.630  35.402  36.959  1.00  0.00     0.465 C 
ATOM     16  F   UNL A   1      38.775  35.259  38.008  1.00  0.00    -0.184 F 
ATOM     17  F   UNL A   1      40.864  35.033  37.403  1.00  0.00    -0.184 F 
ENDBRANCH  12  15
ENDBRANCH   5   8
ENDBRANCH   3   4
ENDBRANCH   2   3
ENDBRANCH   1   2
BRANCH   1  18
ATOM     18  N   UNL A   1      34.311  32.535  30.330  1.00  0.00    -0.352 N 
ATOM     19  C   UNL A   1      35.099  32.039  29.306  1.00  0.00     0.251 C 
ATOM     20  H   UNL A   1      33.390  32.772  30.077  1.00  0.00     0.163 HD
ATOM     21  O   UNL A   1      34.771  32.196  28.143  1.00  0.00    -0.269 OA
BRANCH  19  22
ATOM     22  C   UNL A   1      36.354  31.339  29.646  1.00  0.00     0.039 A 
ATOM     23  C   UNL A   1      36.360  29.960  29.864  1.00  0.00     0.014 A 
ATOM     24  C   UNL A   1      37.540  32.065  29.693  1.00  0.00     0.014 A 
ATOM     25  C   UNL A   1      37.582  29.312  30.018  1.00  0.00     0.010 A 
ATOM     26  C   UNL A   1      38.748  31.406  29.683  1.00  0.00     0.010 A 
ATOM     27  C   UNL A   1      38.783  30.031  29.880  1.00  0.00    -0.014 A 
BRANCH  27  28
ATOM     28  C   UNL A   1      40.060  29.317  29.818  1.00  0.00     0.031 A 
ATOM     29  C   UNL A   1      40.682  29.059  31.144  1.00  0.00     0.074 A 
ATOM     30  C   UNL A   1      40.608  28.787  28.702  1.00  0.00     0.049 A 
ATOM     31  N   UNL A   1      41.690  29.685  31.656  1.00  0.00    -0.248 NA
ATOM     32  C   UNL A   1      40.026  28.125  32.070  1.00  0.00     0.031 C 
ATOM     33  C   UNL A   1      40.020  28.683  27.360  1.00  0.00     0.029 A 
ATOM     34  N   UNL A   1      41.786  28.113  28.563  1.00  0.00    -0.354 N 
ATOM     35  C   UNL A   1      41.959  29.038  32.858  1.00  0.00     0.074 A 
ATOM     36  C   UNL A   1      40.793  28.247  33.156  1.00  0.00     0.031 C 
ATOM     37  C   UNL A   1      40.712  27.780  26.631  1.00  0.00     0.029 A 
ATOM     38  C   UNL A   1      41.895  27.398  27.374  1.00  0.00     0.049 A 
ATOM     39  H   UNL A   1      42.497  28.131  29.244  1.00  0.00     0.167 HD
ATOM     40  C   UNL A   1      43.228  28.993  33.351  1.00  0.00     0.034 A 
ATOM     41  C   UNL A   1      42.886  26.546  27.023  1.00  0.00     0.034 A 
ATOM     42  C   UNL A   1      44.087  29.937  32.675  1.00  0.00     0.049 A 
ATOM     43  C   UNL A   1      44.075  26.916  27.817  1.00  0.00     0.074 A 
ATOM     44  C   UNL A   1      44.093  31.301  32.464  1.00  0.00     0.029 A 
ATOM     45  N   UNL A   1      44.950  29.404  31.749  1.00  0.00    -0.354 N 
ATOM     46  N   UNL A   1      44.728  28.032  27.655  1.00  0.00    -0.248 NA
ATOM     47  C   UNL A   1      44.344  26.206  29.055  1.00  0.00     0.031 C 
ATOM     48  C   UNL A   1      44.615  31.471  31.146  1.00  0.00     0.029 A 
ATOM     49  C   UNL A   1      44.958  30.212  30.646  1.00  0.00     0.049 A 
ATOM     50  H   UNL A   1      45.475  28.579  31.861  1.00  0.00     0.167 HD
ATOM     51  C   UNL A   1      45.091  28.400  28.942  1.00  0.00     0.074 A 
ATOM     52  C   UNL A   1      44.976  27.172  29.724  1.00  0.00     0.031 C 
ATOM     53  C   UNL A   1      45.155  29.718  29.299  1.00  0.00     0.034 A 
BRANCH  40  54
ATOM     54  C   UNL A   1      43.818  27.830  34.124  1.00  0.00     0.023 A 
ATOM     55  C   UNL A   1      44.312  26.740  33.369  1.00  0.00     0.012 A 
ATOM     56  C   UNL A   1      43.641  27.616  35.510  1.00  0.00     0.148 A 
ATOM     57  C   UNL A   1      44.547  25.488  33.948  1.00  0.00     0.002 A 
ATOM     58  C   UNL A   1      43.954  26.393  36.096  1.00  0.00     0.091 A 
ATOM     59  F   UNL A   1      43.036  28.538  36.262  1.00  0.00    -0.205 F 
ATOM     60  C   UNL A   1      44.373  25.316  35.314  1.00  0.00     0.022 A 
BRANCH  58  61
ATOM     61  S   UNL A   1      43.796  26.131  37.867  1.00  0.00     0.127 S 
ATOM     62  O   UNL A   1      44.509  27.289  38.396  1.00  0.00    -0.237 OA
ATOM     63  O   UNL A   1      42.344  26.159  38.043  1.00  0.00    -0.237 OA
ATOM     64  O   UNL A   1      44.401  24.830  38.124  1.00  0.00    -0.744 OA
ENDBRANCH  58  61
ENDBRANCH  40  54
BRANCH  41  65
ATOM     65  C   UNL A   1      42.861  25.334  26.178  1.00  0.00     0.023 A 
ATOM     66  C   UNL A   1      43.853  25.155  25.192  1.00  0.00     0.012 A 
ATOM     67  C   UNL A   1      42.069  24.224  26.541  1.00  0.00     0.148 A 
ATOM     68  C   UNL A   1      44.088  23.897  24.628  1.00  0.00     0.002 A 
ATOM     69  C   UNL A   1      42.308  22.974  25.978  1.00  0.00     0.091 A 
ATOM     70  F   UNL A   1      41.150  24.377  27.504  1.00  0.00    -0.205 F 
ATOM     71  C   UNL A   1      43.328  22.804  25.032  1.00  0.00     0.022 A 
BRANCH  69  72
ATOM     72  S   UNL A   1      41.396  21.505  26.473  1.00  0.00     0.127 S 
ATOM     73  O   UNL A   1      40.044  21.819  26.011  1.00  0.00    -0.237 OA
ATOM     74  O   UNL A   1      42.074  20.459  25.712  1.00  0.00    -0.237 OA
ATOM     75  O   UNL A   1      41.531  21.422  27.921  1.00  0.00    -0.744 OA
ENDBRANCH  69  72
ENDBRANCH  41  65
BRANCH  53  76
ATOM     76  C   UNL A   1      45.192  30.745  28.192  1.00  0.00     0.023 A 
ATOM     77  C   UNL A   1      44.035  31.182  27.511  1.00  0.00     0.012 A 
ATOM     78  C   UNL A   1      46.420  31.365  27.899  1.00  0.00     0.148 A 
ATOM     79  C   UNL A   1      44.111  32.177  26.532  1.00  0.00     0.002 A 
ATOM     80  C   UNL A   1      46.482  32.387  26.959  1.00  0.00     0.091 A 
ATOM     81  F   UNL A   1      47.515  30.947  28.554  1.00  0.00    -0.205 F 
ATOM     82  C   UNL A   1      45.333  32.786  26.262  1.00  0.00     0.022 A 
BRANCH  80  83
ATOM     83  S   UNL A   1      48.009  33.281  26.658  1.00  0.00     0.127 S 
ATOM     84  O   UNL A   1      47.634  34.166  25.558  1.00  0.00    -0.237 OA
ATOM     85  O   UNL A   1      48.239  33.957  27.936  1.00  0.00    -0.237 OA
ATOM     86  O   UNL A   1      49.005  32.266  26.340  1.00  0.00    -0.744 OA
ENDBRANCH  80  83
ENDBRANCH  53  76
ENDBRANCH  27  28
ENDBRANCH  19  22
ENDBRANCH   1  18
TORSDOF 14
ENDMDL
