MODEL 1
REMARK VINA RESULT:     -12.2      0.000      0.000
REMARK SMILES Cc1cnc(C)c(N2CCC[C@@](CC3CC3)(C(=O)NCCCNC(=O)c3ccc(-c4c5nc(c(-c6cccc(S(=O)(=O)[O-])c6F)c6ccc([nH]6)c(-c6cccc(S(=O)(=O)[O-])c6F)c6nc(c(-c7cccc(S(=O)(=O)[O-])c7F)c7ccc4[nH]7)C=C6)C=C5)cc3)C2)n1
REMARK SMILES IDX 21 1 20 2 19 3 17 4 18 5 12 7 8 8 9 9 89 10 10 11 11 12 7 13
REMARK SMILES IDX 1 14 2 15 3 16 90 17 4 18 5 19 6 20 13 21 14 22 15 23 16 24
REMARK SMILES IDX 22 25 23 26 24 27 25 29 26 30 27 31 88 32 28 33 87 34 29 35
REMARK SMILES IDX 30 36 31 37 81 38 32 39 86 40 80 41 82 42 33 43 85 44 79 45
REMARK SMILES IDX 78 46 34 48 66 49 46 50 65 51 47 52 50 53 64 54 83 55 48 56
REMARK SMILES IDX 49 57 63 59 84 60 51 61 35 62 36 63 44 64 37 65 39 66 45 67
REMARK SMILES IDX 38 68 40 69 41 70 42 71 43 72 67 73 68 74 76 75 69 76 71 77
REMARK SMILES IDX 77 78 70 79 72 80 73 81 74 82 75 83 52 84 53 85 61 86 54 87
REMARK SMILES IDX 56 88 62 89 55 90 57 91 58 92 59 93 60 94
REMARK H PARENT 19 6 23 28 82 47 50 58
REMARK Flexibility Score: inf
ROOT
ATOM      1  C   UNL A   1      31.607  31.937  26.756  1.00  0.00     0.042 C 
ENDROOT
BRANCH   1   2
ATOM      2  C   UNL A   1      31.934  30.502  26.409  1.00  0.00     0.117 C 
BRANCH   2   3
ATOM      3  N   UNL A   1      33.048  29.931  27.098  1.00  0.00    -0.355 N 
ATOM      4  C   UNL A   1      33.721  28.804  26.727  1.00  0.00     0.228 C 
ATOM      5  O   UNL A   1      34.901  28.752  27.088  1.00  0.00    -0.274 OA
ATOM      6  H   UNL A   1      33.358  30.391  27.911  1.00  0.00     0.163 HD
BRANCH   4   7
ATOM      7  C   UNL A   1      33.050  27.663  25.898  1.00  0.00     0.067 C 
ATOM      8  N   UNL A   1      33.569  25.297  25.424  1.00  0.00    -0.354 N 
ATOM      9  C   UNL A   1      32.484  24.710  26.190  1.00  0.00     0.118 C 
ATOM     10  C   UNL A   1      34.128  26.523  25.990  1.00  0.00     0.135 C 
ATOM     11  C   UNL A   1      31.335  25.716  26.192  1.00  0.00     0.023 C 
ATOM     12  C   UNL A   1      31.781  27.123  26.615  1.00  0.00     0.020 C 
BRANCH   8  13
ATOM     13  C   UNL A   1      34.457  24.456  24.778  1.00  0.00     0.150 A 
ATOM     14  C   UNL A   1      37.752  22.963  25.449  1.00  0.00     0.068 C 
ATOM     15  C   UNL A   1      36.495  23.362  24.743  1.00  0.00     0.058 A 
ATOM     16  C   UNL A   1      36.297  23.028  23.412  1.00  0.00     0.135 A 
ATOM     17  N   UNL A   1      35.579  24.079  25.436  1.00  0.00    -0.233 NA
ATOM     18  N   UNL A   1      35.188  23.375  22.728  1.00  0.00    -0.256 NA
ATOM     19  C   UNL A   1      34.266  24.094  23.429  1.00  0.00     0.080 A 
ATOM     20  C   UNL A   1      33.117  24.624  22.623  1.00  0.00     0.071 C 
ENDBRANCH   8  13
BRANCH   7  21
ATOM     21  C   UNL A   1      32.955  28.045  24.381  1.00  0.00     0.022 C 
BRANCH  21  22
ATOM     22  C   UNL A   1      31.739  27.898  23.482  1.00  0.00    -0.010 C 
ATOM     23  C   UNL A   1      30.273  28.263  23.616  1.00  0.00     0.004 C 
ATOM     24  C   UNL A   1      31.199  29.195  22.901  1.00  0.00     0.004 C 
ENDBRANCH  21  22
ENDBRANCH   7  21
ENDBRANCH   4   7
ENDBRANCH   2   3
ENDBRANCH   1   2
BRANCH   1  25
ATOM     25  C   UNL A   1      32.741  32.637  27.481  1.00  0.00     0.118 C 
BRANCH  25  26
ATOM     26  N   UNL A   1      32.475  34.048  27.768  1.00  0.00    -0.352 N 
ATOM     27  C   UNL A   1      33.089  34.917  28.633  1.00  0.00     0.251 C 
ATOM     28  H   UNL A   1      31.730  34.438  27.254  1.00  0.00     0.163 HD
ATOM     29  O   UNL A   1      32.650  36.060  28.749  1.00  0.00    -0.269 OA
BRANCH  27  30
ATOM     30  C   UNL A   1      34.235  34.473  29.449  1.00  0.00     0.039 A 
ATOM     31  C   UNL A   1      33.987  33.872  30.686  1.00  0.00     0.014 A 
ATOM     32  C   UNL A   1      35.543  34.601  28.983  1.00  0.00     0.014 A 
ATOM     33  C   UNL A   1      35.046  33.325  31.408  1.00  0.00     0.010 A 
ATOM     34  C   UNL A   1      36.574  33.943  29.638  1.00  0.00     0.010 A 
ATOM     35  C   UNL A   1      36.341  33.309  30.865  1.00  0.00    -0.014 A 
BRANCH  35  36
ATOM     36  C   UNL A   1      37.464  32.631  31.558  1.00  0.00     0.031 A 
ATOM     37  C   UNL A   1      38.188  31.491  30.891  1.00  0.00     0.074 A 
ATOM     38  C   UNL A   1      37.761  32.978  32.827  1.00  0.00     0.049 A 
ATOM     39  N   UNL A   1      39.156  30.749  31.356  1.00  0.00    -0.248 NA
ATOM     40  C   UNL A   1      37.739  31.104  29.541  1.00  0.00     0.031 C 
ATOM     41  C   UNL A   1      37.047  33.981  33.624  1.00  0.00     0.029 A 
ATOM     42  N   UNL A   1      38.726  32.509  33.681  1.00  0.00    -0.354 N 
ATOM     43  C   UNL A   1      39.395  29.783  30.387  1.00  0.00     0.074 A 
ATOM     44  C   UNL A   1      38.444  30.003  29.323  1.00  0.00     0.031 C 
ATOM     45  C   UNL A   1      37.610  34.064  34.839  1.00  0.00     0.029 A 
ATOM     46  C   UNL A   1      38.706  33.105  34.921  1.00  0.00     0.049 A 
ATOM     47  H   UNL A   1      39.374  31.810  33.430  1.00  0.00     0.167 HD
ATOM     48  C   UNL A   1      40.349  28.822  30.365  1.00  0.00     0.034 A 
ATOM     49  C   UNL A   1      39.485  32.900  36.001  1.00  0.00     0.034 A 
ATOM     50  C   UNL A   1      41.343  28.663  31.389  1.00  0.00     0.049 A 
ATOM     51  C   UNL A   1      40.605  31.902  35.903  1.00  0.00     0.074 A 
ATOM     52  C   UNL A   1      42.431  27.810  31.405  1.00  0.00     0.029 A 
ATOM     53  N   UNL A   1      41.371  29.373  32.578  1.00  0.00    -0.354 N 
ATOM     54  N   UNL A   1      40.936  31.130  34.896  1.00  0.00    -0.248 NA
ATOM     55  C   UNL A   1      41.488  31.777  37.072  1.00  0.00     0.031 C 
ATOM     56  C   UNL A   1      43.108  27.991  32.614  1.00  0.00     0.029 A 
ATOM     57  C   UNL A   1      42.453  28.974  33.340  1.00  0.00     0.049 A 
ATOM     58  H   UNL A   1      40.717  30.061  32.841  1.00  0.00     0.167 HD
ATOM     59  C   UNL A   1      42.080  30.450  35.297  1.00  0.00     0.074 A 
ATOM     60  C   UNL A   1      42.404  30.928  36.626  1.00  0.00     0.031 C 
ATOM     61  C   UNL A   1      42.788  29.500  34.638  1.00  0.00     0.034 A 
BRANCH  48  62
ATOM     62  C   UNL A   1      40.411  27.916  29.164  1.00  0.00     0.023 A 
ATOM     63  C   UNL A   1      39.476  26.869  29.031  1.00  0.00     0.012 A 
ATOM     64  C   UNL A   1      41.341  28.147  28.132  1.00  0.00     0.148 A 
ATOM     65  C   UNL A   1      39.483  26.047  27.905  1.00  0.00     0.002 A 
ATOM     66  C   UNL A   1      41.313  27.353  26.991  1.00  0.00     0.091 A 
ATOM     67  F   UNL A   1      42.236  29.133  28.286  1.00  0.00    -0.205 F 
ATOM     68  C   UNL A   1      40.392  26.298  26.881  1.00  0.00     0.022 A 
BRANCH  66  69
ATOM     69  S   UNL A   1      42.384  27.640  25.579  1.00  0.00     0.127 S 
ATOM     70  O   UNL A   1      41.859  28.904  25.063  1.00  0.00    -0.237 OA
ATOM     71  O   UNL A   1      43.700  27.740  26.209  1.00  0.00    -0.237 OA
ATOM     72  O   UNL A   1      42.213  26.492  24.701  1.00  0.00    -0.744 OA
ENDBRANCH  66  69
ENDBRANCH  48  62
BRANCH  49  73
ATOM     73  C   UNL A   1      39.281  33.709  37.236  1.00  0.00     0.023 A 
ATOM     74  C   UNL A   1      39.784  35.025  37.294  1.00  0.00     0.012 A 
ATOM     75  C   UNL A   1      38.581  33.195  38.343  1.00  0.00     0.148 A 
ATOM     76  C   UNL A   1      39.629  35.796  38.447  1.00  0.00     0.002 A 
ATOM     77  C   UNL A   1      38.379  33.990  39.467  1.00  0.00     0.091 A 
ATOM     78  F   UNL A   1      38.119  31.938  38.277  1.00  0.00    -0.205 F 
ATOM     79  C   UNL A   1      38.920  35.283  39.528  1.00  0.00     0.022 A 
BRANCH  77  80
ATOM     80  S   UNL A   1      37.357  33.455  40.844  1.00  0.00     0.127 S 
ATOM     81  O   UNL A   1      38.204  32.445  41.472  1.00  0.00    -0.237 OA
ATOM     82  O   UNL A   1      37.201  34.693  41.610  1.00  0.00    -0.237 OA
ATOM     83  O   UNL A   1      36.122  32.970  40.242  1.00  0.00    -0.744 OA
ENDBRANCH  77  80
ENDBRANCH  49  73
BRANCH  61  84
ATOM     84  C   UNL A   1      43.998  28.933  35.329  1.00  0.00     0.023 A 
ATOM     85  C   UNL A   1      45.266  29.499  35.093  1.00  0.00     0.012 A 
ATOM     86  C   UNL A   1      43.868  27.885  36.259  1.00  0.00     0.148 A 
ATOM     87  C   UNL A   1      46.395  29.002  35.742  1.00  0.00     0.002 A 
ATOM     88  C   UNL A   1      44.990  27.428  36.941  1.00  0.00     0.091 A 
ATOM     89  F   UNL A   1      42.656  27.347  36.457  1.00  0.00    -0.205 F 
ATOM     90  C   UNL A   1      46.255  27.975  36.674  1.00  0.00     0.022 A 
BRANCH  88  91
ATOM     91  S   UNL A   1      44.885  26.181  38.228  1.00  0.00     0.127 S 
ATOM     92  O   UNL A   1      44.187  25.098  37.537  1.00  0.00    -0.237 OA
ATOM     93  O   UNL A   1      46.293  25.911  38.518  1.00  0.00    -0.237 OA
ATOM     94  O   UNL A   1      44.153  26.801  39.325  1.00  0.00    -0.744 OA
ENDBRANCH  88  91
ENDBRANCH  61  84
ENDBRANCH  35  36
ENDBRANCH  27  30
ENDBRANCH  25  26
ENDBRANCH   1  25
TORSDOF 16
ENDMDL
MODEL 2
REMARK VINA RESULT:     -11.7      0.834      7.751
REMARK SMILES Cc1cnc(C)c(N2CCC[C@@](CC3CC3)(C(=O)NCCCNC(=O)c3ccc(-c4c5nc(c(-c6cccc(S(=O)(=O)[O-])c6F)c6ccc([nH]6)c(-c6cccc(S(=O)(=O)[O-])c6F)c6nc(c(-c7cccc(S(=O)(=O)[O-])c7F)c7ccc4[nH]7)C=C6)C=C5)cc3)C2)n1
REMARK SMILES IDX 21 1 20 2 19 3 17 4 18 5 12 7 8 8 9 9 89 10 10 11 11 12 7 13
REMARK SMILES IDX 1 14 2 15 3 16 90 17 4 18 5 19 6 20 13 21 14 22 15 23 16 24
REMARK SMILES IDX 22 25 23 26 24 27 25 29 26 30 27 31 88 32 28 33 87 34 29 35
REMARK SMILES IDX 30 36 31 37 81 38 32 39 86 40 80 41 82 42 33 43 85 44 79 45
REMARK SMILES IDX 78 46 34 48 66 49 46 50 65 51 47 52 50 53 64 54 83 55 48 56
REMARK SMILES IDX 49 57 63 59 84 60 51 61 35 62 36 63 44 64 37 65 39 66 45 67
REMARK SMILES IDX 38 68 40 69 41 70 42 71 43 72 67 73 68 74 76 75 69 76 71 77
REMARK SMILES IDX 77 78 70 79 72 80 73 81 74 82 75 83 52 84 53 85 61 86 54 87
REMARK SMILES IDX 56 88 62 89 55 90 57 91 58 92 59 93 60 94
REMARK H PARENT 19 6 23 28 82 47 50 58
REMARK Flexibility Score: inf
ROOT
ATOM      1  C   UNL A   1      31.531  32.136  26.759  1.00  0.00     0.042 C 
ENDROOT
BRANCH   1   2
ATOM      2  C   UNL A   1      31.830  30.724  26.308  1.00  0.00     0.117 C 
BRANCH   2   3
ATOM      3  N   UNL A   1      32.949  30.092  26.933  1.00  0.00    -0.355 N 
ATOM      4  C   UNL A   1      33.536  28.929  26.528  1.00  0.00     0.228 C 
ATOM      5  O   UNL A   1      34.730  28.813  26.821  1.00  0.00    -0.274 OA
ATOM      6  H   UNL A   1      33.330  30.534  27.725  1.00  0.00     0.163 HD
BRANCH   4   7
ATOM      7  C   UNL A   1      32.756  27.827  25.743  1.00  0.00     0.067 C 
ATOM      8  N   UNL A   1      33.107  25.433  25.262  1.00  0.00    -0.354 N 
ATOM      9  C   UNL A   1      32.029  24.915  26.086  1.00  0.00     0.118 C 
ATOM     10  C   UNL A   1      33.767  26.624  25.789  1.00  0.00     0.135 C 
ATOM     11  C   UNL A   1      30.945  25.990  26.138  1.00  0.00     0.023 C 
ATOM     12  C   UNL A   1      31.495  27.369  26.527  1.00  0.00     0.020 C 
BRANCH   8  13
ATOM     13  C   UNL A   1      33.909  24.536  24.578  1.00  0.00     0.150 A 
ATOM     14  C   UNL A   1      37.152  22.873  25.080  1.00  0.00     0.068 C 
ATOM     15  C   UNL A   1      35.879  23.331  24.442  1.00  0.00     0.058 A 
ATOM     16  C   UNL A   1      35.585  22.993  23.130  1.00  0.00     0.135 A 
ATOM     17  N   UNL A   1      35.045  24.106  25.175  1.00  0.00    -0.233 NA
ATOM     18  N   UNL A   1      34.458  23.392  22.506  1.00  0.00    -0.256 NA
ATOM     19  C   UNL A   1      33.620  24.168  23.248  1.00  0.00     0.080 A 
ATOM     20  C   UNL A   1      32.455  24.751  22.502  1.00  0.00     0.071 C 
ENDBRANCH   8  13
BRANCH   7  21
ATOM     21  C   UNL A   1      32.607  28.207  24.229  1.00  0.00     0.022 C 
BRANCH  21  22
ATOM     22  C   UNL A   1      31.348  28.101  23.386  1.00  0.00    -0.010 C 
ATOM     23  C   UNL A   1      29.978  28.748  23.443  1.00  0.00     0.004 C 
ATOM     24  C   UNL A   1      31.024  29.324  22.542  1.00  0.00     0.004 C 
ENDBRANCH  21  22
ENDBRANCH   7  21
ENDBRANCH   4   7
ENDBRANCH   2   3
ENDBRANCH   1   2
BRANCH   1  25
ATOM     25  C   UNL A   1      32.666  32.748  27.559  1.00  0.00     0.118 C 
BRANCH  25  26
ATOM     26  N   UNL A   1      32.458  34.158  27.893  1.00  0.00    -0.352 N 
ATOM     27  C   UNL A   1      33.152  34.991  28.732  1.00  0.00     0.251 C 
ATOM     28  H   UNL A   1      31.691  34.578  27.439  1.00  0.00     0.163 HD
ATOM     29  O   UNL A   1      32.752  36.143  28.901  1.00  0.00    -0.269 OA
BRANCH  27  30
ATOM     30  C   UNL A   1      34.337  34.499  29.460  1.00  0.00     0.039 A 
ATOM     31  C   UNL A   1      34.157  33.881  30.699  1.00  0.00     0.014 A 
ATOM     32  C   UNL A   1      35.614  34.601  28.907  1.00  0.00     0.014 A 
ATOM     33  C   UNL A   1      35.247  33.291  31.338  1.00  0.00     0.010 A 
ATOM     34  C   UNL A   1      36.667  33.902  29.477  1.00  0.00     0.010 A 
ATOM     35  C   UNL A   1      36.500  33.251  30.706  1.00  0.00    -0.014 A 
BRANCH  35  36
ATOM     36  C   UNL A   1      37.648  32.528  31.308  1.00  0.00     0.031 A 
ATOM     37  C   UNL A   1      38.251  33.009  32.602  1.00  0.00     0.074 A 
ATOM     38  C   UNL A   1      38.208  31.503  30.634  1.00  0.00     0.049 A 
ATOM     39  N   UNL A   1      39.283  32.540  33.251  1.00  0.00    -0.248 NA
ATOM     40  C   UNL A   1      37.646  34.199  33.228  1.00  0.00     0.031 C 
ATOM     41  C   UNL A   1      37.790  31.025  29.312  1.00  0.00     0.029 A 
ATOM     42  N   UNL A   1      39.264  30.690  30.957  1.00  0.00    -0.354 N 
ATOM     43  C   UNL A   1      39.480  33.399  34.324  1.00  0.00     0.074 A 
ATOM     44  C   UNL A   1      38.490  34.446  34.219  1.00  0.00     0.031 C 
ATOM     45  C   UNL A   1      38.569  29.995  28.947  1.00  0.00     0.029 A 
ATOM     46  C   UNL A   1      39.557  29.753  29.993  1.00  0.00     0.049 A 
ATOM     47  H   UNL A   1      39.767  30.769  31.800  1.00  0.00     0.167 HD
ATOM     48  C   UNL A   1      40.380  33.305  35.331  1.00  0.00     0.034 A 
ATOM     49  C   UNL A   1      40.513  28.805  29.958  1.00  0.00     0.034 A 
ATOM     50  C   UNL A   1      41.306  32.216  35.472  1.00  0.00     0.049 A 
ATOM     51  C   UNL A   1      41.426  28.658  31.144  1.00  0.00     0.074 A 
ATOM     52  C   UNL A   1      42.170  31.954  36.519  1.00  0.00     0.029 A 
ATOM     53  N   UNL A   1      41.488  31.210  34.538  1.00  0.00    -0.354 N 
ATOM     54  N   UNL A   1      41.468  29.368  32.246  1.00  0.00    -0.248 NA
ATOM     55  C   UNL A   1      42.394  27.552  31.105  1.00  0.00     0.031 C 
ATOM     56  C   UNL A   1      42.889  30.796  36.209  1.00  0.00     0.029 A 
ATOM     57  C   UNL A   1      42.456  30.326  34.979  1.00  0.00     0.049 A 
ATOM     58  H   UNL A   1      41.000  31.134  33.686  1.00  0.00     0.167 HD
ATOM     59  C   UNL A   1      42.443  28.780  33.042  1.00  0.00     0.074 A 
ATOM     60  C   UNL A   1      42.942  27.634  32.309  1.00  0.00     0.031 C 
ATOM     61  C   UNL A   1      42.901  29.162  34.259  1.00  0.00     0.034 A 
BRANCH  48  62
ATOM     62  C   UNL A   1      40.358  34.366  36.400  1.00  0.00     0.023 A 
ATOM     63  C   UNL A   1      40.835  35.660  36.107  1.00  0.00     0.012 A 
ATOM     64  C   UNL A   1      39.795  34.105  37.665  1.00  0.00     0.148 A 
ATOM     65  C   UNL A   1      40.782  36.671  37.065  1.00  0.00     0.002 A 
ATOM     66  C   UNL A   1      39.702  35.131  38.599  1.00  0.00     0.091 A 
ATOM     67  F   UNL A   1      39.367  32.864  37.931  1.00  0.00    -0.205 F 
ATOM     68  C   UNL A   1      40.204  36.410  38.305  1.00  0.00     0.022 A 
BRANCH  66  69
ATOM     69  S   UNL A   1      38.903  34.924  40.193  1.00  0.00     0.127 S 
ATOM     70  O   UNL A   1      39.928  34.201  40.945  1.00  0.00    -0.237 OA
ATOM     71  O   UNL A   1      38.700  36.309  40.616  1.00  0.00    -0.237 OA
ATOM     72  O   UNL A   1      37.679  34.178  39.938  1.00  0.00    -0.744 OA
ENDBRANCH  66  69
ENDBRANCH  48  62
BRANCH  49  73
ATOM     73  C   UNL A   1      40.605  27.875  28.797  1.00  0.00     0.023 A 
ATOM     74  C   UNL A   1      39.665  26.833  28.666  1.00  0.00     0.012 A 
ATOM     75  C   UNL A   1      41.602  28.023  27.814  1.00  0.00     0.148 A 
ATOM     76  C   UNL A   1      39.742  25.933  27.602  1.00  0.00     0.002 A 
ATOM     77  C   UNL A   1      41.638  27.158  26.725  1.00  0.00     0.091 A 
ATOM     78  F   UNL A   1      42.497  29.012  27.959  1.00  0.00    -0.205 F 
ATOM     79  C   UNL A   1      40.721  26.101  26.628  1.00  0.00     0.022 A 
BRANCH  77  80
ATOM     80  S   UNL A   1      42.778  27.392  25.358  1.00  0.00     0.127 S 
ATOM     81  O   UNL A   1      44.049  27.572  26.054  1.00  0.00    -0.237 OA
ATOM     82  O   UNL A   1      42.647  26.129  24.628  1.00  0.00    -0.237 OA
ATOM     83  O   UNL A   1      42.277  28.551  24.631  1.00  0.00    -0.744 OA
ENDBRANCH  77  80
ENDBRANCH  49  73
BRANCH  61  84
ATOM     84  C   UNL A   1      43.978  28.322  34.889  1.00  0.00     0.023 A 
ATOM     85  C   UNL A   1      45.326  28.542  34.545  1.00  0.00     0.012 A 
ATOM     86  C   UNL A   1      43.660  27.362  35.868  1.00  0.00     0.148 A 
ATOM     87  C   UNL A   1      46.339  27.790  35.135  1.00  0.00     0.002 A 
ATOM     88  C   UNL A   1      44.679  26.651  36.490  1.00  0.00     0.091 A 
ATOM     89  F   UNL A   1      42.370  27.154  36.169  1.00  0.00    -0.205 F 
ATOM     90  C   UNL A   1      46.017  26.853  36.116  1.00  0.00     0.022 A 
BRANCH  88  91
ATOM     91  S   UNL A   1      44.361  25.500  37.832  1.00  0.00     0.127 S 
ATOM     92  O   UNL A   1      43.596  26.330  38.761  1.00  0.00    -0.237 OA
ATOM     93  O   UNL A   1      43.584  24.453  37.167  1.00  0.00    -0.237 OA
ATOM     94  O   UNL A   1      45.670  25.070  38.305  1.00  0.00    -0.744 OA
ENDBRANCH  88  91
ENDBRANCH  61  84
ENDBRANCH  35  36
ENDBRANCH  27  30
ENDBRANCH  25  26
ENDBRANCH   1  25
TORSDOF 16
ENDMDL
MODEL 3
REMARK VINA RESULT:     -11.7      6.113     11.655
REMARK SMILES Cc1cnc(C)c(N2CCC[C@@](CC3CC3)(C(=O)NCCCNC(=O)c3ccc(-c4c5nc(c(-c6cccc(S(=O)(=O)[O-])c6F)c6ccc([nH]6)c(-c6cccc(S(=O)(=O)[O-])c6F)c6nc(c(-c7cccc(S(=O)(=O)[O-])c7F)c7ccc4[nH]7)C=C6)C=C5)cc3)C2)n1
REMARK SMILES IDX 21 1 20 2 19 3 17 4 18 5 12 7 8 8 9 9 89 10 10 11 11 12 7 13
REMARK SMILES IDX 1 14 2 15 3 16 90 17 4 18 5 19 6 20 13 21 14 22 15 23 16 24
REMARK SMILES IDX 22 25 23 26 24 27 25 29 26 30 27 31 88 32 28 33 87 34 29 35
REMARK SMILES IDX 30 36 31 37 81 38 32 39 86 40 80 41 82 42 33 43 85 44 79 45
REMARK SMILES IDX 78 46 34 48 66 49 46 50 65 51 47 52 50 53 64 54 83 55 48 56
REMARK SMILES IDX 49 57 63 59 84 60 51 61 35 62 36 63 44 64 37 65 39 66 45 67
REMARK SMILES IDX 38 68 40 69 41 70 42 71 43 72 67 73 68 74 76 75 69 76 71 77
REMARK SMILES IDX 77 78 70 79 72 80 73 81 74 82 75 83 52 84 53 85 61 86 54 87
REMARK SMILES IDX 56 88 62 89 55 90 57 91 58 92 59 93 60 94
REMARK H PARENT 19 6 23 28 82 47 50 58
REMARK Flexibility Score: inf
ROOT
ATOM      1  C   UNL A   1      38.178  19.464  24.915  1.00  0.00     0.042 C 
ENDROOT
BRANCH   1   2
ATOM      2  C   UNL A   1      37.182  20.555  24.591  1.00  0.00     0.117 C 
BRANCH   2   3
ATOM      3  N   UNL A   1      37.568  21.882  24.955  1.00  0.00    -0.355 N 
ATOM      4  C   UNL A   1      36.717  22.903  25.261  1.00  0.00     0.228 C 
ATOM      5  O   UNL A   1      37.177  23.762  26.020  1.00  0.00    -0.274 OA
ATOM      6  H   UNL A   1      38.531  22.077  24.986  1.00  0.00     0.163 HD
BRANCH   4   7
ATOM      7  C   UNL A   1      35.261  22.976  24.700  1.00  0.00     0.067 C 
ATOM      8  N   UNL A   1      33.548  24.740  24.486  1.00  0.00    -0.354 N 
ATOM      9  C   UNL A   1      33.588  24.866  23.040  1.00  0.00     0.118 C 
ATOM     10  C   UNL A   1      34.831  24.432  25.112  1.00  0.00     0.135 C 
ATOM     11  C   UNL A   1      33.996  23.506  22.478  1.00  0.00     0.023 C 
ATOM     12  C   UNL A   1      35.259  22.944  23.146  1.00  0.00     0.020 C 
BRANCH   8  13
ATOM     13  C   UNL A   1      32.696  25.563  25.201  1.00  0.00     0.150 A 
ATOM     14  C   UNL A   1      32.814  28.900  26.745  1.00  0.00     0.068 C 
ATOM     15  C   UNL A   1      32.334  27.541  26.343  1.00  0.00     0.058 A 
ATOM     16  C   UNL A   1      31.124  27.053  26.812  1.00  0.00     0.135 A 
ATOM     17  N   UNL A   1      33.130  26.801  25.537  1.00  0.00    -0.233 NA
ATOM     18  N   UNL A   1      30.654  25.831  26.490  1.00  0.00    -0.256 NA
ATOM     19  C   UNL A   1      31.456  25.090  25.675  1.00  0.00     0.080 A 
ATOM     20  C   UNL A   1      31.015  23.672  25.457  1.00  0.00     0.071 C 
ENDBRANCH   8  13
BRANCH   7  21
ATOM     21  C   UNL A   1      34.303  22.008  25.476  1.00  0.00     0.022 C 
BRANCH  21  22
ATOM     22  C   UNL A   1      33.909  20.600  25.067  1.00  0.00    -0.010 C 
ATOM     23  C   UNL A   1      32.891  19.597  25.574  1.00  0.00     0.004 C 
ATOM     24  C   UNL A   1      32.543  20.471  24.411  1.00  0.00     0.004 C 
ENDBRANCH  21  22
ENDBRANCH   7  21
ENDBRANCH   4   7
ENDBRANCH   2   3
ENDBRANCH   1   2
BRANCH   1  25
ATOM     25  C   UNL A   1      39.033  19.794  26.125  1.00  0.00     0.118 C 
BRANCH  25  26
ATOM     26  N   UNL A   1      40.329  19.113  26.133  1.00  0.00    -0.352 N 
ATOM     27  C   UNL A   1      41.592  19.594  26.365  1.00  0.00     0.251 C 
ATOM     28  H   UNL A   1      40.286  18.147  25.940  1.00  0.00     0.163 HD
ATOM     29  O   UNL A   1      42.553  18.833  26.261  1.00  0.00    -0.269 OA
BRANCH  27  30
ATOM     30  C   UNL A   1      41.801  21.018  26.689  1.00  0.00     0.039 A 
ATOM     31  C   UNL A   1      42.315  21.353  27.944  1.00  0.00     0.014 A 
ATOM     32  C   UNL A   1      41.537  22.015  25.751  1.00  0.00     0.014 A 
ATOM     33  C   UNL A   1      42.645  22.680  28.218  1.00  0.00     0.010 A 
ATOM     34  C   UNL A   1      41.987  23.308  25.977  1.00  0.00     0.010 A 
ATOM     35  C   UNL A   1      42.533  23.659  27.218  1.00  0.00    -0.014 A 
BRANCH  35  36
ATOM     36  C   UNL A   1      42.986  25.054  27.445  1.00  0.00     0.031 A 
ATOM     37  C   UNL A   1      42.067  26.051  28.102  1.00  0.00     0.074 A 
ATOM     38  C   UNL A   1      44.184  25.444  26.965  1.00  0.00     0.049 A 
ATOM     39  N   UNL A   1      42.268  27.319  28.338  1.00  0.00    -0.248 NA
ATOM     40  C   UNL A   1      40.733  25.574  28.509  1.00  0.00     0.031 C 
ATOM     41  C   UNL A   1      45.109  24.601  26.200  1.00  0.00     0.029 A 
ATOM     42  N   UNL A   1      44.823  26.656  27.028  1.00  0.00    -0.354 N 
ATOM     43  C   UNL A   1      41.077  27.800  28.869  1.00  0.00     0.074 A 
ATOM     44  C   UNL A   1      40.142  26.699  28.883  1.00  0.00     0.031 C 
ATOM     45  C   UNL A   1      46.200  25.315  25.883  1.00  0.00     0.029 A 
ATOM     46  C   UNL A   1      46.045  26.672  26.396  1.00  0.00     0.049 A 
ATOM     47  H   UNL A   1      44.443  27.442  27.484  1.00  0.00     0.167 HD
ATOM     48  C   UNL A   1      40.799  29.037  29.342  1.00  0.00     0.034 A 
ATOM     49  C   UNL A   1      46.939  27.669  26.249  1.00  0.00     0.034 A 
ATOM     50  C   UNL A   1      41.760  30.103  29.400  1.00  0.00     0.049 A 
ATOM     51  C   UNL A   1      46.644  29.000  26.882  1.00  0.00     0.074 A 
ATOM     52  C   UNL A   1      41.623  31.352  29.976  1.00  0.00     0.029 A 
ATOM     53  N   UNL A   1      43.036  30.043  28.864  1.00  0.00    -0.354 N 
ATOM     54  N   UNL A   1      45.583  29.377  27.554  1.00  0.00    -0.248 NA
ATOM     55  C   UNL A   1      47.687  30.031  26.777  1.00  0.00     0.031 C 
ATOM     56  C   UNL A   1      42.813  32.057  29.772  1.00  0.00     0.029 A 
ATOM     57  C   UNL A   1      43.698  31.237  29.090  1.00  0.00     0.049 A 
ATOM     58  H   UNL A   1      43.416  29.266  28.394  1.00  0.00     0.167 HD
ATOM     59  C   UNL A   1      45.841  30.676  27.977  1.00  0.00     0.074 A 
ATOM     60  C   UNL A   1      47.173  31.007  27.514  1.00  0.00     0.031 C 
ATOM     61  C   UNL A   1      45.043  31.527  28.666  1.00  0.00     0.034 A 
BRANCH  48  62
ATOM     62  C   UNL A   1      39.423  29.287  29.901  1.00  0.00     0.023 A 
ATOM     63  C   UNL A   1      39.082  28.775  31.170  1.00  0.00     0.012 A 
ATOM     64  C   UNL A   1      38.496  30.090  29.207  1.00  0.00     0.148 A 
ATOM     65  C   UNL A   1      37.832  29.033  31.728  1.00  0.00     0.002 A 
ATOM     66  C   UNL A   1      37.268  30.382  29.791  1.00  0.00     0.091 A 
ATOM     67  F   UNL A   1      38.830  30.549  27.994  1.00  0.00    -0.205 F 
ATOM     68  C   UNL A   1      36.931  29.847  31.045  1.00  0.00     0.022 A 
BRANCH  66  69
ATOM     69  S   UNL A   1      36.070  31.484  29.035  1.00  0.00     0.127 S 
ATOM     70  O   UNL A   1      35.103  31.656  30.118  1.00  0.00    -0.237 OA
ATOM     71  O   UNL A   1      36.880  32.667  28.748  1.00  0.00    -0.237 OA
ATOM     72  O   UNL A   1      35.568  30.789  27.858  1.00  0.00    -0.744 OA
ENDBRANCH  66  69
ENDBRANCH  48  62
BRANCH  49  73
ATOM     73  C   UNL A   1      48.226  27.422  25.539  1.00  0.00     0.023 A 
ATOM     74  C   UNL A   1      49.359  27.020  26.275  1.00  0.00     0.012 A 
ATOM     75  C   UNL A   1      48.334  27.567  24.143  1.00  0.00     0.148 A 
ATOM     76  C   UNL A   1      50.582  26.806  25.639  1.00  0.00     0.002 A 
ATOM     77  C   UNL A   1      49.542  27.295  23.508  1.00  0.00     0.091 A 
ATOM     78  F   UNL A   1      47.250  27.962  23.458  1.00  0.00    -0.205 F 
ATOM     79  C   UNL A   1      50.671  26.934  24.257  1.00  0.00     0.022 A 
BRANCH  77  80
ATOM     80  S   UNL A   1      49.702  27.301  21.719  1.00  0.00     0.127 S 
ATOM     81  O   UNL A   1      48.652  26.367  21.321  1.00  0.00    -0.237 OA
ATOM     82  O   UNL A   1      49.439  28.703  21.391  1.00  0.00    -0.237 OA
ATOM     83  O   UNL A   1      51.070  26.876  21.453  1.00  0.00    -0.744 OA
ENDBRANCH  77  80
ENDBRANCH  49  73
BRANCH  61  84
ATOM     84  C   UNL A   1      45.595  32.890  28.987  1.00  0.00     0.023 A 
ATOM     85  C   UNL A   1      46.359  33.076  30.155  1.00  0.00     0.012 A 
ATOM     86  C   UNL A   1      45.412  33.966  28.098  1.00  0.00     0.148 A 
ATOM     87  C   UNL A   1      46.899  34.325  30.456  1.00  0.00     0.002 A 
ATOM     88  C   UNL A   1      45.996  35.195  28.379  1.00  0.00     0.091 A 
ATOM     89  F   UNL A   1      44.666  33.773  27.001  1.00  0.00    -0.205 F 
ATOM     90  C   UNL A   1      46.727  35.381  29.564  1.00  0.00     0.022 A 
BRANCH  88  91
ATOM     91  S   UNL A   1      45.909  36.578  27.237  1.00  0.00     0.127 S 
ATOM     92  O   UNL A   1      44.486  36.909  27.278  1.00  0.00    -0.237 OA
ATOM     93  O   UNL A   1      46.784  37.564  27.873  1.00  0.00    -0.237 OA
ATOM     94  O   UNL A   1      46.400  36.072  25.962  1.00  0.00    -0.744 OA
ENDBRANCH  88  91
ENDBRANCH  61  84
ENDBRANCH  35  36
ENDBRANCH  27  30
ENDBRANCH  25  26
ENDBRANCH   1  25
TORSDOF 16
ENDMDL
