MODEL 1
REMARK VINA RESULT:     -11.6      0.000      0.000
REMARK SMILES COc1ccccc1CC(=O)NC[C@H]1CC[C@H](C(=O)NCCCNC(=O)c2ccc(-c3c4nc(c(-c5cccc(S(=O)(=O)[O-])c5F)c5ccc([nH]5)c(-c5cccc(S(=O)(=O)[O-])c5F)c5nc(c(-c6cccc(S(=O)(=O)[O-])c6F)c6ccc3[nH]6)C=C5)C=C4)cc2)O1
REMARK SMILES IDX 21 1 20 2 18 3 19 4 17 6 14 7 15 8 90 9 16 10 13 11 12 12
REMARK SMILES IDX 10 13 11 14 9 16 8 17 3 18 4 19 5 20 7 21 6 22 2 23 1 24
REMARK SMILES IDX 22 25 23 26 24 27 25 28 26 30 27 31 28 32 89 33 29 34 88 35
REMARK SMILES IDX 30 36 31 37 32 38 82 39 33 40 87 41 81 42 83 43 34 44 86 45
REMARK SMILES IDX 80 46 79 47 35 49 67 50 47 51 66 52 48 53 51 54 65 55 84 56
REMARK SMILES IDX 49 57 50 58 64 60 85 61 52 62 36 63 37 64 45 65 38 66 40 67
REMARK SMILES IDX 46 68 39 69 41 70 42 71 43 72 44 73 68 74 69 75 77 76 70 77
REMARK SMILES IDX 72 78 78 79 71 80 73 81 74 82 75 83 76 84 53 85 54 86 62 87
REMARK SMILES IDX 55 88 57 89 63 90 56 91 58 92 59 93 60 94 61 95
REMARK H PARENT 20 5 12 15 24 29 83 48 51 59
REMARK Flexibility Score: inf
ROOT
ATOM      1  C   UNL A   1      31.457  30.877  26.053  1.00  0.00     0.117 C 
ENDROOT
BRANCH   1   2
ATOM      2  N   UNL A   1      32.716  30.242  26.376  1.00  0.00    -0.354 N 
ATOM      3  C   UNL A   1      33.320  29.178  25.773  1.00  0.00     0.249 C 
ATOM      4  O   UNL A   1      34.431  28.837  26.189  1.00  0.00    -0.272 OA
ATOM      5  H   UNL A   1      33.205  30.633  27.137  1.00  0.00     0.163 HD
BRANCH   3   6
ATOM      6  C   UNL A   1      32.604  28.377  24.666  1.00  0.00     0.207 C 
ATOM      7  C   UNL A   1      33.023  26.495  23.344  1.00  0.00     0.138 C 
ATOM      8  C   UNL A   1      33.550  27.683  22.566  1.00  0.00     0.037 C 
ATOM      9  O   UNL A   1      32.766  26.953  24.685  1.00  0.00    -0.363 OA
ATOM     10  C   UNL A   1      32.995  28.880  23.288  1.00  0.00     0.045 C 
BRANCH   7  11
ATOM     11  C   UNL A   1      31.787  25.820  22.715  1.00  0.00     0.147 C 
BRANCH  11  12
ATOM     12  N   UNL A   1      32.051  24.502  22.164  1.00  0.00    -0.353 N 
ATOM     13  C   UNL A   1      32.616  23.404  22.735  1.00  0.00     0.224 C 
ATOM     14  O   UNL A   1      32.650  22.354  22.088  1.00  0.00    -0.275 OA
ATOM     15  H   UNL A   1      31.776  24.385  21.226  1.00  0.00     0.163 HD
BRANCH  13  16
ATOM     16  C   UNL A   1      33.200  23.487  24.131  1.00  0.00     0.139 C 
BRANCH  16  17
ATOM     17  C   UNL A   1      34.533  22.788  24.255  1.00  0.00     0.003 A 
ATOM     18  C   UNL A   1      34.725  21.705  25.122  1.00  0.00     0.122 A 
ATOM     19  C   UNL A   1      35.987  21.122  25.282  1.00  0.00     0.047 A 
ATOM     20  C   UNL A   1      37.072  21.598  24.546  1.00  0.00     0.004 A 
ATOM     21  C   UNL A   1      35.632  23.236  23.499  1.00  0.00     0.008 A 
ATOM     22  C   UNL A   1      36.894  22.652  23.651  1.00  0.00     0.001 A 
BRANCH  18  23
ATOM     23  O   UNL A   1      33.715  21.293  25.951  1.00  0.00    -0.496 OA
ATOM     24  C   UNL A   1      34.062  21.527  27.314  1.00  0.00     0.278 C 
ENDBRANCH  18  23
ENDBRANCH  16  17
ENDBRANCH  13  16
ENDBRANCH  11  12
ENDBRANCH   7  11
ENDBRANCH   3   6
ENDBRANCH   1   2
BRANCH   1  25
ATOM     25  C   UNL A   1      31.398  32.326  26.523  1.00  0.00     0.042 C 
BRANCH  25  26
ATOM     26  C   UNL A   1      32.650  32.768  27.263  1.00  0.00     0.118 C 
BRANCH  26  27
ATOM     27  N   UNL A   1      32.545  34.151  27.708  1.00  0.00    -0.352 N 
ATOM     28  C   UNL A   1      33.143  34.782  28.767  1.00  0.00     0.251 C 
ATOM     29  H   UNL A   1      31.953  34.720  27.164  1.00  0.00     0.163 HD
ATOM     30  O   UNL A   1      32.709  35.866  29.147  1.00  0.00    -0.269 OA
BRANCH  28  31
ATOM     31  C   UNL A   1      34.308  34.169  29.441  1.00  0.00     0.039 A 
ATOM     32  C   UNL A   1      35.595  34.491  29.002  1.00  0.00     0.014 A 
ATOM     33  C   UNL A   1      34.129  33.244  30.474  1.00  0.00     0.014 A 
ATOM     34  C   UNL A   1      36.702  33.917  29.629  1.00  0.00     0.010 A 
ATOM     35  C   UNL A   1      35.231  32.746  31.155  1.00  0.00     0.010 A 
ATOM     36  C   UNL A   1      36.528  33.058  30.726  1.00  0.00    -0.014 A 
BRANCH  36  37
ATOM     37  C   UNL A   1      37.685  32.459  31.436  1.00  0.00     0.031 A 
ATOM     38  C   UNL A   1      38.435  31.314  30.814  1.00  0.00     0.074 A 
ATOM     39  C   UNL A   1      37.989  32.882  32.679  1.00  0.00     0.049 A 
ATOM     40  N   UNL A   1      39.414  30.603  31.311  1.00  0.00    -0.248 NA
ATOM     41  C   UNL A   1      38.009  30.885  29.470  1.00  0.00     0.031 C 
ATOM     42  C   UNL A   1      37.275  33.927  33.415  1.00  0.00     0.029 A 
ATOM     43  N   UNL A   1      38.957  32.462  33.554  1.00  0.00    -0.354 N 
ATOM     44  C   UNL A   1      39.688  29.621  30.365  1.00  0.00     0.074 A 
ATOM     45  C   UNL A   1      38.750  29.804  29.281  1.00  0.00     0.031 C 
ATOM     46  C   UNL A   1      37.832  34.070  34.628  1.00  0.00     0.029 A 
ATOM     47  C   UNL A   1      38.920  33.107  34.768  1.00  0.00     0.049 A 
ATOM     48  H   UNL A   1      39.618  31.765  33.334  1.00  0.00     0.167 HD
ATOM     49  C   UNL A   1      40.654  28.673  30.385  1.00  0.00     0.034 A 
ATOM     50  C   UNL A   1      39.674  32.937  35.871  1.00  0.00     0.034 A 
ATOM     51  C   UNL A   1      41.617  28.537  31.443  1.00  0.00     0.049 A 
ATOM     52  C   UNL A   1      40.783  31.920  35.841  1.00  0.00     0.074 A 
ATOM     53  C   UNL A   1      42.697  27.675  31.518  1.00  0.00     0.029 A 
ATOM     54  N   UNL A   1      41.616  29.283  32.611  1.00  0.00    -0.354 N 
ATOM     55  N   UNL A   1      41.127  31.107  34.873  1.00  0.00    -0.248 NA
ATOM     56  C   UNL A   1      41.629  31.824  37.037  1.00  0.00     0.031 C 
ATOM     57  C   UNL A   1      43.338  27.888  32.743  1.00  0.00     0.029 A 
ATOM     58  C   UNL A   1      42.674  28.900  33.418  1.00  0.00     0.049 A 
ATOM     59  H   UNL A   1      40.960  29.981  32.835  1.00  0.00     0.167 HD
ATOM     60  C   UNL A   1      42.254  30.431  35.325  1.00  0.00     0.074 A 
ATOM     61  C   UNL A   1      42.543  30.943  36.650  1.00  0.00     0.031 C 
ATOM     62  C   UNL A   1      42.978  29.465  34.708  1.00  0.00     0.034 A 
BRANCH  49  63
ATOM     63  C   UNL A   1      40.756  27.749  29.199  1.00  0.00     0.023 A 
ATOM     64  C   UNL A   1      39.936  26.603  29.137  1.00  0.00     0.012 A 
ATOM     65  C   UNL A   1      41.617  28.039  28.123  1.00  0.00     0.148 A 
ATOM     66  C   UNL A   1      39.997  25.742  28.043  1.00  0.00     0.002 A 
ATOM     67  C   UNL A   1      41.639  27.200  27.014  1.00  0.00     0.091 A 
ATOM     68  F   UNL A   1      42.406  29.120  28.207  1.00  0.00    -0.205 F 
ATOM     69  C   UNL A   1      40.840  26.046  26.978  1.00  0.00     0.022 A 
BRANCH  67  70
ATOM     70  S   UNL A   1      42.630  27.547  25.555  1.00  0.00     0.127 S 
ATOM     71  O   UNL A   1      42.335  26.387  24.716  1.00  0.00    -0.237 OA
ATOM     72  O   UNL A   1      42.052  28.804  25.082  1.00  0.00    -0.237 OA
ATOM     73  O   UNL A   1      44.006  27.648  26.021  1.00  0.00    -0.744 OA
ENDBRANCH  67  70
ENDBRANCH  49  63
BRANCH  50  74
ATOM     74  C   UNL A   1      39.454  33.806  37.062  1.00  0.00     0.023 A 
ATOM     75  C   UNL A   1      39.843  35.159  37.008  1.00  0.00     0.012 A 
ATOM     76  C   UNL A   1      38.827  33.318  38.224  1.00  0.00     0.148 A 
ATOM     77  C   UNL A   1      39.642  36.000  38.102  1.00  0.00     0.002 A 
ATOM     78  C   UNL A   1      38.578  34.176  39.289  1.00  0.00     0.091 A 
ATOM     79  F   UNL A   1      38.471  32.025  38.260  1.00  0.00    -0.205 F 
ATOM     80  C   UNL A   1      39.000  35.514  39.237  1.00  0.00     0.022 A 
BRANCH  78  81
ATOM     81  S   UNL A   1      37.636  33.669  40.733  1.00  0.00     0.127 S 
ATOM     82  O   UNL A   1      38.536  32.701  41.353  1.00  0.00    -0.237 OA
ATOM     83  O   UNL A   1      37.490  34.931  41.460  1.00  0.00    -0.237 OA
ATOM     84  O   UNL A   1      36.384  33.132  40.215  1.00  0.00    -0.744 OA
ENDBRANCH  78  81
ENDBRANCH  50  74
BRANCH  62  85
ATOM     85  C   UNL A   1      44.181  28.923  35.431  1.00  0.00     0.023 A 
ATOM     86  C   UNL A   1      45.441  29.522  35.246  1.00  0.00     0.012 A 
ATOM     87  C   UNL A   1      44.041  27.873  36.361  1.00  0.00     0.148 A 
ATOM     88  C   UNL A   1      46.552  29.067  35.955  1.00  0.00     0.002 A 
ATOM     89  C   UNL A   1      45.141  27.458  37.100  1.00  0.00     0.091 A 
ATOM     90  F   UNL A   1      42.835  27.305  36.508  1.00  0.00    -0.205 F 
ATOM     91  C   UNL A   1      46.400  28.045  36.890  1.00  0.00     0.022 A 
BRANCH  89  92
ATOM     92  S   UNL A   1      45.017  26.218  38.394  1.00  0.00     0.127 S 
ATOM     93  O   UNL A   1      44.341  25.127  37.697  1.00  0.00    -0.237 OA
ATOM     94  O   UNL A   1      46.423  25.961  38.713  1.00  0.00    -0.237 OA
ATOM     95  O   UNL A   1      44.259  26.838  39.471  1.00  0.00    -0.744 OA
ENDBRANCH  89  92
ENDBRANCH  62  85
ENDBRANCH  36  37
ENDBRANCH  28  31
ENDBRANCH  26  27
ENDBRANCH  25  26
ENDBRANCH   1  25
TORSDOF 18
ENDMDL
MODEL 2
REMARK VINA RESULT:     -11.5      1.760      7.817
REMARK SMILES COc1ccccc1CC(=O)NC[C@H]1CC[C@H](C(=O)NCCCNC(=O)c2ccc(-c3c4nc(c(-c5cccc(S(=O)(=O)[O-])c5F)c5ccc([nH]5)c(-c5cccc(S(=O)(=O)[O-])c5F)c5nc(c(-c6cccc(S(=O)(=O)[O-])c6F)c6ccc3[nH]6)C=C5)C=C4)cc2)O1
REMARK SMILES IDX 21 1 20 2 18 3 19 4 17 6 14 7 15 8 90 9 16 10 13 11 12 12
REMARK SMILES IDX 10 13 11 14 9 16 8 17 3 18 4 19 5 20 7 21 6 22 2 23 1 24
REMARK SMILES IDX 22 25 23 26 24 27 25 28 26 30 27 31 28 32 89 33 29 34 88 35
REMARK SMILES IDX 30 36 31 37 32 38 82 39 33 40 87 41 81 42 83 43 34 44 86 45
REMARK SMILES IDX 80 46 79 47 35 49 67 50 47 51 66 52 48 53 51 54 65 55 84 56
REMARK SMILES IDX 49 57 50 58 64 60 85 61 52 62 36 63 37 64 45 65 38 66 40 67
REMARK SMILES IDX 46 68 39 69 41 70 42 71 43 72 44 73 68 74 69 75 77 76 70 77
REMARK SMILES IDX 72 78 78 79 71 80 73 81 74 82 75 83 76 84 53 85 54 86 62 87
REMARK SMILES IDX 55 88 57 89 63 90 56 91 58 92 59 93 60 94 61 95
REMARK H PARENT 20 5 12 15 24 29 83 48 51 59
REMARK Flexibility Score: inf
ROOT
ATOM      1  C   UNL A   1      31.336  30.478  25.504  1.00  0.00     0.117 C 
ENDROOT
BRANCH   1   2
ATOM      2  N   UNL A   1      30.418  30.453  24.387  1.00  0.00    -0.354 N 
ATOM      3  C   UNL A   1      30.168  29.443  23.504  1.00  0.00     0.249 C 
ATOM      4  O   UNL A   1      29.293  29.628  22.653  1.00  0.00    -0.272 OA
ATOM      5  H   UNL A   1      29.902  31.279  24.243  1.00  0.00     0.163 HD
BRANCH   3   6
ATOM      6  C   UNL A   1      31.004  28.147  23.518  1.00  0.00     0.207 C 
ATOM      7  C   UNL A   1      31.009  26.078  22.429  1.00  0.00     0.138 C 
ATOM      8  C   UNL A   1      30.157  25.901  23.668  1.00  0.00     0.037 C 
ATOM      9  O   UNL A   1      31.212  27.494  22.259  1.00  0.00    -0.363 OA
ATOM     10  C   UNL A   1      30.425  27.133  24.488  1.00  0.00     0.045 C 
BRANCH   7  11
ATOM     11  C   UNL A   1      32.341  25.301  22.457  1.00  0.00     0.147 C 
BRANCH  11  12
ATOM     12  N   UNL A   1      32.204  23.884  22.166  1.00  0.00    -0.353 N 
ATOM     13  C   UNL A   1      32.477  22.795  22.934  1.00  0.00     0.224 C 
ATOM     14  O   UNL A   1      32.188  21.678  22.498  1.00  0.00    -0.275 OA
ATOM     15  H   UNL A   1      31.857  23.679  21.268  1.00  0.00     0.163 HD
BRANCH  13  16
ATOM     16  C   UNL A   1      33.136  22.964  24.289  1.00  0.00     0.139 C 
BRANCH  16  17
ATOM     17  C   UNL A   1      34.537  22.401  24.337  1.00  0.00     0.003 A 
ATOM     18  C   UNL A   1      34.873  21.321  25.163  1.00  0.00     0.122 A 
ATOM     19  C   UNL A   1      36.193  20.865  25.255  1.00  0.00     0.047 A 
ATOM     20  C   UNL A   1      37.191  21.466  24.489  1.00  0.00     0.004 A 
ATOM     21  C   UNL A   1      35.552  22.976  23.550  1.00  0.00     0.008 A 
ATOM     22  C   UNL A   1      36.871  22.518  23.633  1.00  0.00     0.001 A 
BRANCH  18  23
ATOM     23  O   UNL A   1      33.947  20.789  26.022  1.00  0.00    -0.496 OA
ATOM     24  C   UNL A   1      33.976  21.472  27.273  1.00  0.00     0.278 C 
ENDBRANCH  18  23
ENDBRANCH  16  17
ENDBRANCH  13  16
ENDBRANCH  11  12
ENDBRANCH   7  11
ENDBRANCH   3   6
ENDBRANCH   1   2
BRANCH   1  25
ATOM     25  C   UNL A   1      31.310  31.807  26.250  1.00  0.00     0.042 C 
BRANCH  25  26
ATOM     26  C   UNL A   1      32.600  32.101  26.997  1.00  0.00     0.118 C 
BRANCH  26  27
ATOM     27  N   UNL A   1      32.680  33.500  27.394  1.00  0.00    -0.352 N 
ATOM     28  C   UNL A   1      33.439  34.096  28.367  1.00  0.00     0.251 C 
ATOM     29  H   UNL A   1      32.098  34.111  26.887  1.00  0.00     0.163 HD
ATOM     30  O   UNL A   1      33.155  35.231  28.743  1.00  0.00    -0.269 OA
BRANCH  28  31
ATOM     31  C   UNL A   1      34.595  33.385  28.953  1.00  0.00     0.039 A 
ATOM     32  C   UNL A   1      35.888  33.815  28.639  1.00  0.00     0.014 A 
ATOM     33  C   UNL A   1      34.406  32.271  29.775  1.00  0.00     0.014 A 
ATOM     34  C   UNL A   1      36.987  33.150  29.183  1.00  0.00     0.010 A 
ATOM     35  C   UNL A   1      35.497  31.670  30.388  1.00  0.00     0.010 A 
ATOM     36  C   UNL A   1      36.799  32.088  30.082  1.00  0.00    -0.014 A 
BRANCH  36  37
ATOM     37  C   UNL A   1      37.946  31.384  30.705  1.00  0.00     0.031 A 
ATOM     38  C   UNL A   1      38.349  31.710  32.117  1.00  0.00     0.074 A 
ATOM     39  C   UNL A   1      38.680  30.531  29.965  1.00  0.00     0.049 A 
ATOM     40  N   UNL A   1      39.369  31.269  32.806  1.00  0.00    -0.248 NA
ATOM     41  C   UNL A   1      37.518  32.688  32.842  1.00  0.00     0.031 C 
ATOM     42  C   UNL A   1      38.434  30.203  28.559  1.00  0.00     0.029 A 
ATOM     43  N   UNL A   1      39.801  29.807  30.282  1.00  0.00    -0.354 N 
ATOM     44  C   UNL A   1      39.328  31.944  34.021  1.00  0.00     0.074 A 
ATOM     45  C   UNL A   1      38.204  32.852  33.963  1.00  0.00     0.031 C 
ATOM     46  C   UNL A   1      39.373  29.342  28.136  1.00  0.00     0.029 A 
ATOM     47  C   UNL A   1      40.303  29.080  29.228  1.00  0.00     0.049 A 
ATOM     48  H   UNL A   1      40.207  29.808  31.179  1.00  0.00     0.167 HD
ATOM     49  C   UNL A   1      40.134  31.800  35.098  1.00  0.00     0.034 A 
ATOM     50  C   UNL A   1      41.396  28.295  29.151  1.00  0.00     0.034 A 
ATOM     51  C   UNL A   1      41.214  30.854  35.165  1.00  0.00     0.049 A 
ATOM     52  C   UNL A   1      42.237  28.102  30.384  1.00  0.00     0.074 A 
ATOM     53  C   UNL A   1      42.032  30.556  36.241  1.00  0.00     0.029 A 
ATOM     54  N   UNL A   1      41.627  30.053  34.112  1.00  0.00    -0.354 N 
ATOM     55  N   UNL A   1      42.088  28.630  31.574  1.00  0.00    -0.248 NA
ATOM     56  C   UNL A   1      43.372  27.176  30.275  1.00  0.00     0.031 C 
ATOM     57  C   UNL A   1      42.953  29.586  35.830  1.00  0.00     0.029 A 
ATOM     58  C   UNL A   1      42.692  29.262  34.508  1.00  0.00     0.049 A 
ATOM     59  H   UNL A   1      41.223  30.047  33.215  1.00  0.00     0.167 HD
ATOM     60  C   UNL A   1      43.083  28.072  32.367  1.00  0.00     0.074 A 
ATOM     61  C   UNL A   1      43.820  27.151  31.524  1.00  0.00     0.031 C 
ATOM     62  C   UNL A   1      43.372  28.308  33.670  1.00  0.00     0.034 A 
BRANCH  49  63
ATOM     63  C   UNL A   1      39.840  32.640  36.314  1.00  0.00     0.023 A 
ATOM     64  C   UNL A   1      40.505  33.872  36.486  1.00  0.00     0.012 A 
ATOM     65  C   UNL A   1      38.871  32.243  37.256  1.00  0.00     0.148 A 
ATOM     66  C   UNL A   1      40.238  34.677  37.592  1.00  0.00     0.002 A 
ATOM     67  C   UNL A   1      38.577  33.072  38.332  1.00  0.00     0.091 A 
ATOM     68  F   UNL A   1      38.265  31.058  37.090  1.00  0.00    -0.205 F 
ATOM     69  C   UNL A   1      39.268  34.282  38.509  1.00  0.00     0.022 A 
BRANCH  67  70
ATOM     70  S   UNL A   1      37.287  32.693  39.524  1.00  0.00     0.127 S 
ATOM     71  O   UNL A   1      37.731  31.399  40.040  1.00  0.00    -0.237 OA
ATOM     72  O   UNL A   1      37.408  33.801  40.472  1.00  0.00    -0.237 OA
ATOM     73  O   UNL A   1      36.040  32.672  38.771  1.00  0.00    -0.744 OA
ENDBRANCH  67  70
ENDBRANCH  49  63
BRANCH  50  74
ATOM     74  C   UNL A   1      41.703  27.574  27.884  1.00  0.00     0.023 A 
ATOM     75  C   UNL A   1      42.207  28.297  26.785  1.00  0.00     0.012 A 
ATOM     76  C   UNL A   1      41.544  26.180  27.773  1.00  0.00     0.148 A 
ATOM     77  C   UNL A   1      42.514  27.649  25.588  1.00  0.00     0.002 A 
ATOM     78  C   UNL A   1      41.905  25.532  26.597  1.00  0.00     0.091 A 
ATOM     79  F   UNL A   1      41.056  25.509  28.828  1.00  0.00    -0.205 F 
ATOM     80  C   UNL A   1      42.374  26.267  25.497  1.00  0.00     0.022 A 
BRANCH  78  81
ATOM     81  S   UNL A   1      41.888  23.742  26.439  1.00  0.00     0.127 S 
ATOM     82  O   UNL A   1      42.570  23.547  25.163  1.00  0.00    -0.237 OA
ATOM     83  O   UNL A   1      42.650  23.326  27.618  1.00  0.00    -0.237 OA
ATOM     84  O   UNL A   1      40.482  23.359  26.474  1.00  0.00    -0.744 OA
ENDBRANCH  78  81
ENDBRANCH  50  74
BRANCH  62  85
ATOM     85  C   UNL A   1      44.503  27.531  34.287  1.00  0.00     0.023 A 
ATOM     86  C   UNL A   1      45.819  28.027  34.213  1.00  0.00     0.012 A 
ATOM     87  C   UNL A   1      44.246  26.353  35.016  1.00  0.00     0.148 A 
ATOM     88  C   UNL A   1      46.867  27.347  34.830  1.00  0.00     0.002 A 
ATOM     89  C   UNL A   1      45.287  25.707  35.670  1.00  0.00     0.091 A 
ATOM     90  F   UNL A   1      42.989  25.888  35.058  1.00  0.00    -0.205 F 
ATOM     91  C   UNL A   1      46.600  26.196  35.569  1.00  0.00     0.022 A 
BRANCH  89  92
ATOM     92  S   UNL A   1      45.021  24.276  36.723  1.00  0.00     0.127 S 
ATOM     93  O   UNL A   1      44.391  23.338  35.797  1.00  0.00    -0.237 OA
ATOM     94  O   UNL A   1      46.386  23.922  37.116  1.00  0.00    -0.237 OA
ATOM     95  O   UNL A   1      44.178  24.736  37.818  1.00  0.00    -0.744 OA
ENDBRANCH  89  92
ENDBRANCH  62  85
ENDBRANCH  36  37
ENDBRANCH  28  31
ENDBRANCH  26  27
ENDBRANCH  25  26
ENDBRANCH   1  25
TORSDOF 18
ENDMDL
MODEL 3
REMARK VINA RESULT:     -11.5      6.449     11.736
REMARK SMILES COc1ccccc1CC(=O)NC[C@H]1CC[C@H](C(=O)NCCCNC(=O)c2ccc(-c3c4nc(c(-c5cccc(S(=O)(=O)[O-])c5F)c5ccc([nH]5)c(-c5cccc(S(=O)(=O)[O-])c5F)c5nc(c(-c6cccc(S(=O)(=O)[O-])c6F)c6ccc3[nH]6)C=C5)C=C4)cc2)O1
REMARK SMILES IDX 21 1 20 2 18 3 19 4 17 6 14 7 15 8 90 9 16 10 13 11 12 12
REMARK SMILES IDX 10 13 11 14 9 16 8 17 3 18 4 19 5 20 7 21 6 22 2 23 1 24
REMARK SMILES IDX 22 25 23 26 24 27 25 28 26 30 27 31 28 32 89 33 29 34 88 35
REMARK SMILES IDX 30 36 31 37 32 38 82 39 33 40 87 41 81 42 83 43 34 44 86 45
REMARK SMILES IDX 80 46 79 47 35 49 67 50 47 51 66 52 48 53 51 54 65 55 84 56
REMARK SMILES IDX 49 57 50 58 64 60 85 61 52 62 36 63 37 64 45 65 38 66 40 67
REMARK SMILES IDX 46 68 39 69 41 70 42 71 43 72 44 73 68 74 69 75 77 76 70 77
REMARK SMILES IDX 72 78 78 79 71 80 73 81 74 82 75 83 76 84 53 85 54 86 62 87
REMARK SMILES IDX 55 88 57 89 63 90 56 91 58 92 59 93 60 94 61 95
REMARK H PARENT 20 5 12 15 24 29 83 48 51 59
REMARK Flexibility Score: inf
ROOT
ATOM      1  C   UNL A   1      36.573  20.281  24.885  1.00  0.00     0.117 C 
ENDROOT
BRANCH   1   2
ATOM      2  N   UNL A   1      36.833  21.667  25.208  1.00  0.00    -0.354 N 
ATOM      3  C   UNL A   1      35.985  22.600  25.729  1.00  0.00     0.249 C 
ATOM      4  O   UNL A   1      36.445  23.719  25.976  1.00  0.00    -0.272 OA
ATOM      5  H   UNL A   1      37.749  21.979  25.028  1.00  0.00     0.163 HD
BRANCH   3   6
ATOM      6  C   UNL A   1      34.486  22.294  25.925  1.00  0.00     0.207 C 
ATOM      7  C   UNL A   1      32.621  23.321  26.892  1.00  0.00     0.138 C 
ATOM      8  C   UNL A   1      33.248  22.474  27.980  1.00  0.00     0.037 C 
ATOM      9  O   UNL A   1      33.577  23.397  25.817  1.00  0.00    -0.363 OA
ATOM     10  C   UNL A   1      34.238  21.605  27.255  1.00  0.00     0.045 C 
BRANCH   7  11
ATOM     11  C   UNL A   1      31.245  22.819  26.409  1.00  0.00     0.147 C 
BRANCH  11  12
ATOM     12  N   UNL A   1      30.143  23.702  26.748  1.00  0.00    -0.353 N 
ATOM     13  C   UNL A   1      29.801  24.921  26.248  1.00  0.00     0.224 C 
ATOM     14  O   UNL A   1      28.754  25.445  26.635  1.00  0.00    -0.275 OA
ATOM     15  H   UNL A   1      29.546  23.364  27.454  1.00  0.00     0.163 HD
BRANCH  13  16
ATOM     16  C   UNL A   1      30.706  25.614  25.249  1.00  0.00     0.139 C 
BRANCH  16  17
ATOM     17  C   UNL A   1      31.074  27.019  25.663  1.00  0.00     0.003 A 
ATOM     18  C   UNL A   1      31.052  28.089  24.758  1.00  0.00     0.122 A 
ATOM     19  C   UNL A   1      31.473  29.367  25.140  1.00  0.00     0.047 A 
ATOM     20  C   UNL A   1      31.890  29.601  26.449  1.00  0.00     0.004 A 
ATOM     21  C   UNL A   1      31.470  27.280  26.988  1.00  0.00     0.008 A 
ATOM     22  C   UNL A   1      31.884  28.559  27.375  1.00  0.00     0.001 A 
BRANCH  18  23
ATOM     23  O   UNL A   1      30.770  27.871  23.435  1.00  0.00    -0.496 OA
ATOM     24  C   UNL A   1      29.477  28.379  23.110  1.00  0.00     0.278 C 
ENDBRANCH  18  23
ENDBRANCH  16  17
ENDBRANCH  13  16
ENDBRANCH  11  12
ENDBRANCH   7  11
ENDBRANCH   3   6
ENDBRANCH   1   2
BRANCH   1  25
ATOM     25  C   UNL A   1      37.816  19.410  25.013  1.00  0.00     0.042 C 
BRANCH  25  26
ATOM     26  C   UNL A   1      38.969  20.109  25.715  1.00  0.00     0.118 C 
BRANCH  26  27
ATOM     27  N   UNL A   1      40.072  19.193  25.969  1.00  0.00    -0.352 N 
ATOM     28  C   UNL A   1      41.407  19.451  26.141  1.00  0.00     0.251 C 
ATOM     29  H   UNL A   1      39.821  18.242  26.024  1.00  0.00     0.163 HD
ATOM     30  O   UNL A   1      42.215  18.529  26.056  1.00  0.00    -0.269 OA
BRANCH  28  31
ATOM     31  C   UNL A   1      41.871  20.823  26.436  1.00  0.00     0.039 A 
ATOM     32  C   UNL A   1      42.239  21.658  25.377  1.00  0.00     0.014 A 
ATOM     33  C   UNL A   1      41.986  21.270  27.755  1.00  0.00     0.014 A 
ATOM     34  C   UNL A   1      42.682  22.955  25.643  1.00  0.00     0.010 A 
ATOM     35  C   UNL A   1      42.337  22.588  28.011  1.00  0.00     0.010 A 
ATOM     36  C   UNL A   1      42.710  23.438  26.961  1.00  0.00    -0.014 A 
BRANCH  36  37
ATOM     37  C   UNL A   1      43.141  24.822  27.274  1.00  0.00     0.031 A 
ATOM     38  C   UNL A   1      42.173  25.785  27.905  1.00  0.00     0.074 A 
ATOM     39  C   UNL A   1      44.367  25.234  26.896  1.00  0.00     0.049 A 
ATOM     40  N   UNL A   1      42.332  27.054  28.175  1.00  0.00    -0.248 NA
ATOM     41  C   UNL A   1      40.837  25.264  28.247  1.00  0.00     0.031 C 
ATOM     42  C   UNL A   1      45.358  24.412  26.199  1.00  0.00     0.029 A 
ATOM     43  N   UNL A   1      44.976  26.457  27.016  1.00  0.00    -0.354 N 
ATOM     44  C   UNL A   1      41.110  27.491  28.674  1.00  0.00     0.074 A 
ATOM     45  C   UNL A   1      40.208  26.362  28.636  1.00  0.00     0.031 C 
ATOM     46  C   UNL A   1      46.453  25.151  25.957  1.00  0.00     0.029 A 
ATOM     47  C   UNL A   1      46.229  26.505  26.452  1.00  0.00     0.049 A 
ATOM     48  H   UNL A   1      44.556  27.227  27.463  1.00  0.00     0.167 HD
ATOM     49  C   UNL A   1      40.777  28.714  29.150  1.00  0.00     0.034 A 
ATOM     50  C   UNL A   1      47.098  27.530  26.341  1.00  0.00     0.034 A 
ATOM     51  C   UNL A   1      41.699  29.814  29.235  1.00  0.00     0.049 A 
ATOM     52  C   UNL A   1      46.728  28.861  26.937  1.00  0.00     0.074 A 
ATOM     53  C   UNL A   1      41.496  31.066  29.788  1.00  0.00     0.029 A 
ATOM     54  N   UNL A   1      42.998  29.794  28.752  1.00  0.00    -0.354 N 
ATOM     55  N   UNL A   1      45.623  29.211  27.548  1.00  0.00    -0.248 NA
ATOM     56  C   UNL A   1      47.737  29.926  26.863  1.00  0.00     0.031 C 
ATOM     57  C   UNL A   1      42.669  31.810  29.623  1.00  0.00     0.029 A 
ATOM     58  C   UNL A   1      43.610  31.012  28.991  1.00  0.00     0.049 A 
ATOM     59  H   UNL A   1      43.423  29.027  28.306  1.00  0.00     0.167 HD
ATOM     60  C   UNL A   1      45.816  30.521  27.967  1.00  0.00     0.074 A 
ATOM     61  C   UNL A   1      47.154  30.897  27.553  1.00  0.00     0.031 C 
ATOM     62  C   UNL A   1      44.963  31.345  28.624  1.00  0.00     0.034 A 
BRANCH  49  63
ATOM     63  C   UNL A   1      39.377  28.909  29.672  1.00  0.00     0.023 A 
ATOM     64  C   UNL A   1      39.054  28.478  30.976  1.00  0.00     0.012 A 
ATOM     65  C   UNL A   1      38.399  29.566  28.901  1.00  0.00     0.148 A 
ATOM     66  C   UNL A   1      37.771  28.664  31.489  1.00  0.00     0.002 A 
ATOM     67  C   UNL A   1      37.135  29.788  29.436  1.00  0.00     0.091 A 
ATOM     68  F   UNL A   1      38.715  29.949  27.655  1.00  0.00    -0.205 F 
ATOM     69  C   UNL A   1      36.816  29.327  30.724  1.00  0.00     0.022 A 
BRANCH  67  70
ATOM     70  S   UNL A   1      35.859  30.704  28.564  1.00  0.00     0.127 S 
ATOM     71  O   UNL A   1      36.650  31.705  27.850  1.00  0.00    -0.237 OA
ATOM     72  O   UNL A   1      35.267  29.674  27.712  1.00  0.00    -0.237 OA
ATOM     73  O   UNL A   1      34.969  31.228  29.592  1.00  0.00    -0.744 OA
ENDBRANCH  67  70
ENDBRANCH  49  63
BRANCH  50  74
ATOM     74  C   UNL A   1      48.430  27.308  25.712  1.00  0.00     0.023 A 
ATOM     75  C   UNL A   1      49.500  26.852  26.506  1.00  0.00     0.012 A 
ATOM     76  C   UNL A   1      48.634  27.500  24.332  1.00  0.00     0.148 A 
ATOM     77  C   UNL A   1      50.757  26.625  25.945  1.00  0.00     0.002 A 
ATOM     78  C   UNL A   1      49.873  27.219  23.769  1.00  0.00     0.091 A 
ATOM     79  F   UNL A   1      47.605  27.942  23.593  1.00  0.00    -0.205 F 
ATOM     80  C   UNL A   1      50.941  26.797  24.576  1.00  0.00     0.022 A 
BRANCH  78  81
ATOM     81  S   UNL A   1      50.160  27.280  21.996  1.00  0.00     0.127 S 
ATOM     82  O   UNL A   1      49.946  28.695  21.707  1.00  0.00    -0.237 OA
ATOM     83  O   UNL A   1      51.550  26.833  21.897  1.00  0.00    -0.237 OA
ATOM     84  O   UNL A   1      49.194  26.359  21.410  1.00  0.00    -0.744 OA
ENDBRANCH  78  81
ENDBRANCH  50  74
BRANCH  62  85
ATOM     85  C   UNL A   1      45.455  32.722  28.979  1.00  0.00     0.023 A 
ATOM     86  C   UNL A   1      46.163  32.927  30.178  1.00  0.00     0.012 A 
ATOM     87  C   UNL A   1      45.288  33.794  28.079  1.00  0.00     0.148 A 
ATOM     88  C   UNL A   1      46.675  34.186  30.491  1.00  0.00     0.002 A 
ATOM     89  C   UNL A   1      45.842  35.032  28.374  1.00  0.00     0.091 A 
ATOM     90  F   UNL A   1      44.593  33.580  26.952  1.00  0.00    -0.205 F 
ATOM     91  C   UNL A   1      46.526  35.234  29.584  1.00  0.00     0.022 A 
BRANCH  89  92
ATOM     92  S   UNL A   1      45.785  36.410  27.222  1.00  0.00     0.127 S 
ATOM     93  O   UNL A   1      46.521  37.439  27.953  1.00  0.00    -0.237 OA
ATOM     94  O   UNL A   1      46.487  35.869  26.057  1.00  0.00    -0.237 OA
ATOM     95  O   UNL A   1      44.373  36.688  27.000  1.00  0.00    -0.744 OA
ENDBRANCH  89  92
ENDBRANCH  62  85
ENDBRANCH  36  37
ENDBRANCH  28  31
ENDBRANCH  26  27
ENDBRANCH  25  26
ENDBRANCH   1  25
TORSDOF 18
ENDMDL
