MODEL 1
REMARK VINA RESULT:     -12.1      0.000      0.000
REMARK SMILES O=C(NCCCNC(=O)c1cc(SCC(=O)N2CCOCC2)ccn1)c1ccc(-c2c3nc(c(-c4cccc(S(=O)(=O)[O-])c4F)c4ccc([nH]4)c(-c4cccc(S(=O)(=O)[O-])c4F)c4nc(c(-c5cccc(S(=O)(=O)[O-])c5F)c5ccc2[nH]5)C=C4)C=C3)cc1
REMARK SMILES IDX 5 1 4 2 3 3 1 4 2 5 26 7 27 8 88 9 28 10 87 11 29 12 30 13
REMARK SMILES IDX 31 14 81 15 32 16 86 17 80 18 82 19 33 20 85 21 79 22 78 23
REMARK SMILES IDX 34 25 66 26 46 27 65 28 47 29 50 30 64 31 83 32 48 33 49 34
REMARK SMILES IDX 63 36 84 37 51 38 35 39 36 40 44 41 37 42 39 43 45 44 38 45
REMARK SMILES IDX 40 46 41 47 42 48 43 49 67 50 68 51 76 52 69 53 71 54 77 55
REMARK SMILES IDX 70 56 72 57 73 58 74 59 75 60 52 61 53 62 61 63 54 64 56 65
REMARK SMILES IDX 62 66 55 67 57 68 58 69 59 70 60 71 6 72 7 73 8 74 9 76
REMARK SMILES IDX 10 77 11 78 25 79 12 80 24 81 23 82 13 83 14 84 15 85 16 86
REMARK SMILES IDX 17 87 18 88 22 89 19 90 21 91 20 92
REMARK H PARENT 3 6 82 24 50 35 7 75
REMARK Flexibility Score: inf
ROOT
ATOM      1  C   UNL A   1      35.112  21.354  24.902  1.00  0.00     0.042 C 
ENDROOT
BRANCH   1   2
ATOM      2  C   UNL A   1      36.480  21.863  25.321  1.00  0.00     0.118 C 
BRANCH   2   3
ATOM      3  N   UNL A   1      37.464  20.796  25.465  1.00  0.00    -0.352 N 
ATOM      4  O   UNL A   1      39.474  19.827  25.730  1.00  0.00    -0.269 OA
ATOM      5  C   UNL A   1      38.783  20.836  25.849  1.00  0.00     0.251 C 
ATOM      6  H   UNL A   1      37.127  19.896  25.251  1.00  0.00     0.163 HD
BRANCH   5   7
ATOM      7  C   UNL A   1      39.382  22.088  26.365  1.00  0.00     0.039 A 
ATOM      8  C   UNL A   1      38.915  23.334  25.951  1.00  0.00     0.014 A 
ATOM      9  C   UNL A   1      40.428  22.014  27.292  1.00  0.00     0.014 A 
ATOM     10  C   UNL A   1      39.611  24.486  26.298  1.00  0.00     0.010 A 
ATOM     11  C   UNL A   1      41.052  23.184  27.735  1.00  0.00     0.010 A 
ATOM     12  C   UNL A   1      40.682  24.428  27.203  1.00  0.00    -0.014 A 
BRANCH  12  13
ATOM     13  C   UNL A   1      41.347  25.692  27.615  1.00  0.00     0.031 A 
ATOM     14  C   UNL A   1      42.756  26.011  27.195  1.00  0.00     0.074 A 
ATOM     15  C   UNL A   1      40.647  26.575  28.356  1.00  0.00     0.049 A 
ATOM     16  N   UNL A   1      43.450  27.099  27.414  1.00  0.00    -0.248 NA
ATOM     17  C   UNL A   1      43.488  24.979  26.444  1.00  0.00     0.031 C 
ATOM     18  C   UNL A   1      39.289  26.356  28.863  1.00  0.00     0.029 A 
ATOM     19  N   UNL A   1      40.966  27.833  28.798  1.00  0.00    -0.354 N 
ATOM     20  C   UNL A   1      44.709  26.868  26.873  1.00  0.00     0.074 A 
ATOM     21  C   UNL A   1      44.688  25.531  26.318  1.00  0.00     0.031 C 
ATOM     22  C   UNL A   1      38.873  27.460  29.499  1.00  0.00     0.029 A 
ATOM     23  C   UNL A   1      39.950  28.443  29.495  1.00  0.00     0.049 A 
ATOM     24  H   UNL A   1      41.838  28.259  28.632  1.00  0.00     0.167 HD
ATOM     25  C   UNL A   1      45.778  27.699  26.825  1.00  0.00     0.034 A 
ATOM     26  C   UNL A   1      39.888  29.658  30.071  1.00  0.00     0.034 A 
ATOM     27  C   UNL A   1      45.776  29.047  27.330  1.00  0.00     0.049 A 
ATOM     28  C   UNL A   1      41.072  30.573  29.963  1.00  0.00     0.074 A 
ATOM     29  C   UNL A   1      46.785  29.993  27.263  1.00  0.00     0.029 A 
ATOM     30  N   UNL A   1      44.716  29.642  27.998  1.00  0.00    -0.354 N 
ATOM     31  N   UNL A   1      42.205  30.382  29.331  1.00  0.00    -0.248 NA
ATOM     32  C   UNL A   1      40.962  31.879  30.625  1.00  0.00     0.031 C 
ATOM     33  C   UNL A   1      46.339  31.155  27.903  1.00  0.00     0.029 A 
ATOM     34  C   UNL A   1      45.048  30.938  28.356  1.00  0.00     0.049 A 
ATOM     35  H   UNL A   1      43.854  29.207  28.188  1.00  0.00     0.167 HD
ATOM     36  C   UNL A   1      42.935  31.551  29.501  1.00  0.00     0.074 A 
ATOM     37  C   UNL A   1      42.103  32.455  30.269  1.00  0.00     0.031 C 
ATOM     38  C   UNL A   1      44.190  31.842  29.078  1.00  0.00     0.034 A 
BRANCH  25  39
ATOM     39  C   UNL A   1      47.033  27.193  26.161  1.00  0.00     0.023 A 
ATOM     40  C   UNL A   1      47.247  27.450  24.792  1.00  0.00     0.012 A 
ATOM     41  C   UNL A   1      48.028  26.523  26.902  1.00  0.00     0.148 A 
ATOM     42  C   UNL A   1      48.418  27.024  24.164  1.00  0.00     0.002 A 
ATOM     43  C   UNL A   1      49.208  26.134  26.276  1.00  0.00     0.091 A 
ATOM     44  F   UNL A   1      47.798  26.266  28.197  1.00  0.00    -0.205 F 
ATOM     45  C   UNL A   1      49.401  26.376  24.907  1.00  0.00     0.022 A 
BRANCH  43  46
ATOM     46  S   UNL A   1      50.561  25.361  27.173  1.00  0.00     0.127 S 
ATOM     47  O   UNL A   1      50.953  26.427  28.092  1.00  0.00    -0.237 OA
ATOM     48  O   UNL A   1      49.901  24.219  27.810  1.00  0.00    -0.237 OA
ATOM     49  O   UNL A   1      51.548  25.000  26.165  1.00  0.00    -0.744 OA
ENDBRANCH  43  46
ENDBRANCH  25  39
BRANCH  26  50
ATOM     50  C   UNL A   1      38.629  30.094  30.738  1.00  0.00     0.023 A 
ATOM     51  C   UNL A   1      38.453  29.845  32.113  1.00  0.00     0.012 A 
ATOM     52  C   UNL A   1      37.636  30.806  30.036  1.00  0.00     0.148 A 
ATOM     53  C   UNL A   1      37.304  30.281  32.772  1.00  0.00     0.002 A 
ATOM     54  C   UNL A   1      36.522  31.288  30.713  1.00  0.00     0.091 A 
ATOM     55  F   UNL A   1      37.811  31.016  28.725  1.00  0.00    -0.205 F 
ATOM     56  C   UNL A   1      36.346  31.014  32.077  1.00  0.00     0.022 A 
BRANCH  54  57
ATOM     57  S   UNL A   1      35.321  32.365  29.921  1.00  0.00     0.127 S 
ATOM     58  O   UNL A   1      34.368  32.596  31.003  1.00  0.00    -0.237 OA
ATOM     59  O   UNL A   1      36.139  33.525  29.563  1.00  0.00    -0.237 OA
ATOM     60  O   UNL A   1      34.823  31.613  28.778  1.00  0.00    -0.744 OA
ENDBRANCH  54  57
ENDBRANCH  26  50
BRANCH  38  61
ATOM     61  C   UNL A   1      44.735  33.202  29.424  1.00  0.00     0.023 A 
ATOM     62  C   UNL A   1      45.413  33.387  30.645  1.00  0.00     0.012 A 
ATOM     63  C   UNL A   1      44.624  34.277  28.522  1.00  0.00     0.148 A 
ATOM     64  C   UNL A   1      45.947  34.631  30.977  1.00  0.00     0.002 A 
ATOM     65  C   UNL A   1      45.196  35.503  28.842  1.00  0.00     0.091 A 
ATOM     66  F   UNL A   1      43.953  34.087  27.377  1.00  0.00    -0.205 F 
ATOM     67  C   UNL A   1      45.847  35.685  30.072  1.00  0.00     0.022 A 
BRANCH  65  68
ATOM     68  S   UNL A   1      45.191  36.884  27.692  1.00  0.00     0.127 S 
ATOM     69  O   UNL A   1      43.760  37.081  27.470  1.00  0.00    -0.237 OA
ATOM     70  O   UNL A   1      45.839  37.943  28.468  1.00  0.00    -0.237 OA
ATOM     71  O   UNL A   1      45.954  36.437  26.534  1.00  0.00    -0.744 OA
ENDBRANCH  65  68
ENDBRANCH  38  61
ENDBRANCH  12  13
ENDBRANCH   5   7
ENDBRANCH   2   3
ENDBRANCH   1   2
BRANCH   1  72
ATOM     72  C   UNL A   1      34.061  22.443  24.806  1.00  0.00     0.118 C 
BRANCH  72  73
ATOM     73  N   UNL A   1      33.169  22.490  25.955  1.00  0.00    -0.351 N 
ATOM     74  C   UNL A   1      32.454  23.553  26.462  1.00  0.00     0.269 C 
ATOM     75  H   UNL A   1      33.061  21.640  26.439  1.00  0.00     0.163 HD
ATOM     76  O   UNL A   1      31.775  23.402  27.475  1.00  0.00    -0.268 OA
BRANCH  74  77
ATOM     77  C   UNL A   1      32.510  24.874  25.776  1.00  0.00     0.129 A 
ATOM     78  C   UNL A   1      31.515  25.235  24.872  1.00  0.00     0.049 A 
ATOM     79  N   UNL A   1      33.595  25.637  26.061  1.00  0.00    -0.251 NA
ATOM     80  C   UNL A   1      31.695  26.400  24.141  1.00  0.00     0.012 A 
ATOM     81  C   UNL A   1      33.706  26.796  25.393  1.00  0.00     0.113 A 
ATOM     82  C   UNL A   1      32.802  27.206  24.429  1.00  0.00     0.035 A 
BRANCH  80  83
ATOM     83  S   UNL A   1      30.624  26.984  22.848  1.00  0.00    -0.116 SA
BRANCH  83  84
ATOM     84  C   UNL A   1      30.934  28.761  22.674  1.00  0.00     0.175 C 
BRANCH  84  85
ATOM     85  C   UNL A   1      30.214  29.756  23.570  1.00  0.00     0.233 C 
ATOM     86  O   UNL A   1      30.712  29.991  24.678  1.00  0.00    -0.274 OA
ATOM     87  N   UNL A   1      29.164  30.517  23.102  1.00  0.00    -0.337 N 
ATOM     88  C   UNL A   1      28.219  30.181  22.037  1.00  0.00     0.148 C 
ATOM     89  C   UNL A   1      28.864  31.810  23.738  1.00  0.00     0.148 C 
ATOM     90  C   UNL A   1      28.113  31.321  21.022  1.00  0.00     0.181 C 
ATOM     91  C   UNL A   1      28.771  32.901  22.661  1.00  0.00     0.181 C 
ATOM     92  O   UNL A   1      27.792  32.560  21.664  1.00  0.00    -0.378 OA
ENDBRANCH  84  85
ENDBRANCH  83  84
ENDBRANCH  80  83
ENDBRANCH  74  77
ENDBRANCH  72  73
ENDBRANCH   1  72
TORSDOF 16
ENDMDL
MODEL 2
REMARK VINA RESULT:     -11.8      2.002      2.426
REMARK SMILES O=C(NCCCNC(=O)c1cc(SCC(=O)N2CCOCC2)ccn1)c1ccc(-c2c3nc(c(-c4cccc(S(=O)(=O)[O-])c4F)c4ccc([nH]4)c(-c4cccc(S(=O)(=O)[O-])c4F)c4nc(c(-c5cccc(S(=O)(=O)[O-])c5F)c5ccc2[nH]5)C=C4)C=C3)cc1
REMARK SMILES IDX 5 1 4 2 3 3 1 4 2 5 26 7 27 8 88 9 28 10 87 11 29 12 30 13
REMARK SMILES IDX 31 14 81 15 32 16 86 17 80 18 82 19 33 20 85 21 79 22 78 23
REMARK SMILES IDX 34 25 66 26 46 27 65 28 47 29 50 30 64 31 83 32 48 33 49 34
REMARK SMILES IDX 63 36 84 37 51 38 35 39 36 40 44 41 37 42 39 43 45 44 38 45
REMARK SMILES IDX 40 46 41 47 42 48 43 49 67 50 68 51 76 52 69 53 71 54 77 55
REMARK SMILES IDX 70 56 72 57 73 58 74 59 75 60 52 61 53 62 61 63 54 64 56 65
REMARK SMILES IDX 62 66 55 67 57 68 58 69 59 70 60 71 6 72 7 73 8 74 9 76
REMARK SMILES IDX 10 77 11 78 25 79 12 80 24 81 23 82 13 83 14 84 15 85 16 86
REMARK SMILES IDX 17 87 18 88 22 89 19 90 21 91 20 92
REMARK H PARENT 3 6 82 24 50 35 7 75
REMARK Flexibility Score: inf
ROOT
ATOM      1  C   UNL A   1      35.644  22.003  25.957  1.00  0.00     0.042 C 
ENDROOT
BRANCH   1   2
ATOM      2  C   UNL A   1      36.876  21.942  25.073  1.00  0.00     0.118 C 
BRANCH   2   3
ATOM      3  N   UNL A   1      37.793  20.871  25.450  1.00  0.00    -0.352 N 
ATOM      4  O   UNL A   1      39.712  19.888  26.084  1.00  0.00    -0.269 OA
ATOM      5  C   UNL A   1      39.045  20.918  26.014  1.00  0.00     0.251 C 
ATOM      6  H   UNL A   1      37.459  19.963  25.269  1.00  0.00     0.163 HD
BRANCH   5   7
ATOM      7  C   UNL A   1      39.608  22.199  26.498  1.00  0.00     0.039 A 
ATOM      8  C   UNL A   1      39.087  23.421  26.075  1.00  0.00     0.014 A 
ATOM      9  C   UNL A   1      40.674  22.178  27.404  1.00  0.00     0.014 A 
ATOM     10  C   UNL A   1      39.747  24.602  26.390  1.00  0.00     0.010 A 
ATOM     11  C   UNL A   1      41.264  23.377  27.816  1.00  0.00     0.010 A 
ATOM     12  C   UNL A   1      40.838  24.598  27.274  1.00  0.00    -0.014 A 
BRANCH  12  13
ATOM     13  C   UNL A   1      41.463  25.892  27.653  1.00  0.00     0.031 A 
ATOM     14  C   UNL A   1      42.846  26.262  27.187  1.00  0.00     0.074 A 
ATOM     15  C   UNL A   1      40.752  26.755  28.405  1.00  0.00     0.049 A 
ATOM     16  N   UNL A   1      43.502  27.378  27.375  1.00  0.00    -0.248 NA
ATOM     17  C   UNL A   1      43.596  25.250  26.425  1.00  0.00     0.031 C 
ATOM     18  C   UNL A   1      39.419  26.489  28.955  1.00  0.00     0.029 A 
ATOM     19  N   UNL A   1      41.034  28.029  28.825  1.00  0.00    -0.354 N 
ATOM     20  C   UNL A   1      44.753  27.191  26.799  1.00  0.00     0.074 A 
ATOM     21  C   UNL A   1      44.769  25.848  26.258  1.00  0.00     0.031 C 
ATOM     22  C   UNL A   1      38.979  27.582  29.593  1.00  0.00     0.029 A 
ATOM     23  C   UNL A   1      40.015  28.607  29.546  1.00  0.00     0.049 A 
ATOM     24  H   UNL A   1      41.883  28.487  28.629  1.00  0.00     0.167 HD
ATOM     25  C   UNL A   1      45.787  28.063  26.710  1.00  0.00     0.034 A 
ATOM     26  C   UNL A   1      39.921  29.825  30.111  1.00  0.00     0.034 A 
ATOM     27  C   UNL A   1      45.746  29.415  27.201  1.00  0.00     0.049 A 
ATOM     28  C   UNL A   1      41.064  30.785  29.958  1.00  0.00     0.074 A 
ATOM     29  C   UNL A   1      46.714  30.399  27.094  1.00  0.00     0.029 A 
ATOM     30  N   UNL A   1      44.683  29.975  27.894  1.00  0.00    -0.354 N 
ATOM     31  N   UNL A   1      42.185  30.631  29.295  1.00  0.00    -0.248 NA
ATOM     32  C   UNL A   1      40.923  32.093  30.611  1.00  0.00     0.031 C 
ATOM     33  C   UNL A   1      46.242  31.550  27.735  1.00  0.00     0.029 A 
ATOM     34  C   UNL A   1      44.974  31.288  28.229  1.00  0.00     0.049 A 
ATOM     35  H   UNL A   1      43.845  29.509  28.115  1.00  0.00     0.167 HD
ATOM     36  C   UNL A   1      42.873  31.830  29.431  1.00  0.00     0.074 A 
ATOM     37  C   UNL A   1      42.028  32.709  30.215  1.00  0.00     0.031 C 
ATOM     38  C   UNL A   1      44.102  32.165  28.968  1.00  0.00     0.034 A 
BRANCH  25  39
ATOM     39  C   UNL A   1      47.040  27.599  26.014  1.00  0.00     0.023 A 
ATOM     40  C   UNL A   1      48.011  26.878  26.738  1.00  0.00     0.012 A 
ATOM     41  C   UNL A   1      47.230  27.819  24.635  1.00  0.00     0.148 A 
ATOM     42  C   UNL A   1      49.162  26.406  26.107  1.00  0.00     0.002 A 
ATOM     43  C   UNL A   1      48.363  27.314  24.006  1.00  0.00     0.091 A 
ATOM     44  F   UNL A   1      46.310  28.529  23.966  1.00  0.00    -0.205 F 
ATOM     45  C   UNL A   1      49.333  26.615  24.741  1.00  0.00     0.022 A 
BRANCH  43  46
ATOM     46  S   UNL A   1      48.630  27.471  22.235  1.00  0.00     0.127 S 
ATOM     47  O   UNL A   1      49.924  28.150  22.191  1.00  0.00    -0.237 OA
ATOM     48  O   UNL A   1      48.662  26.074  21.798  1.00  0.00    -0.237 OA
ATOM     49  O   UNL A   1      47.498  28.234  21.730  1.00  0.00    -0.744 OA
ENDBRANCH  43  46
ENDBRANCH  25  39
BRANCH  26  50
ATOM     50  C   UNL A   1      38.666  30.218  30.811  1.00  0.00     0.023 A 
ATOM     51  C   UNL A   1      38.520  29.928  32.181  1.00  0.00     0.012 A 
ATOM     52  C   UNL A   1      37.649  30.930  30.146  1.00  0.00     0.148 A 
ATOM     53  C   UNL A   1      37.374  30.324  32.872  1.00  0.00     0.002 A 
ATOM     54  C   UNL A   1      36.538  31.373  30.855  1.00  0.00     0.091 A 
ATOM     55  F   UNL A   1      37.797  31.180  28.838  1.00  0.00    -0.205 F 
ATOM     56  C   UNL A   1      36.391  31.058  32.214  1.00  0.00     0.022 A 
BRANCH  54  57
ATOM     57  S   UNL A   1      35.304  32.448  30.114  1.00  0.00     0.127 S 
ATOM     58  O   UNL A   1      34.780  31.607  29.042  1.00  0.00    -0.237 OA
ATOM     59  O   UNL A   1      34.382  32.671  31.230  1.00  0.00    -0.237 OA
ATOM     60  O   UNL A   1      36.031  33.639  29.697  1.00  0.00    -0.744 OA
ENDBRANCH  54  57
ENDBRANCH  26  50
BRANCH  38  61
ATOM     61  C   UNL A   1      44.603  33.549  29.283  1.00  0.00     0.023 A 
ATOM     62  C   UNL A   1      45.206  33.800  30.531  1.00  0.00     0.012 A 
ATOM     63  C   UNL A   1      44.526  34.582  28.330  1.00  0.00     0.148 A 
ATOM     64  C   UNL A   1      45.698  35.068  30.838  1.00  0.00     0.002 A 
ATOM     65  C   UNL A   1      45.058  35.831  28.627  1.00  0.00     0.091 A 
ATOM     66  F   UNL A   1      43.926  34.329  27.158  1.00  0.00    -0.205 F 
ATOM     67  C   UNL A   1      45.633  36.080  29.883  1.00  0.00     0.022 A 
BRANCH  65  68
ATOM     68  S   UNL A   1      45.095  37.161  27.418  1.00  0.00     0.127 S 
ATOM     69  O   UNL A   1      45.937  36.588  26.370  1.00  0.00    -0.237 OA
ATOM     70  O   UNL A   1      43.683  37.299  27.058  1.00  0.00    -0.237 OA
ATOM     71  O   UNL A   1      45.651  38.313  28.116  1.00  0.00    -0.744 OA
ENDBRANCH  65  68
ENDBRANCH  38  61
ENDBRANCH  12  13
ENDBRANCH   5   7
ENDBRANCH   2   3
ENDBRANCH   1   2
BRANCH   1  72
ATOM     72  C   UNL A   1      34.821  23.264  25.768  1.00  0.00     0.118 C 
BRANCH  72  73
ATOM     73  N   UNL A   1      34.903  23.812  24.422  1.00  0.00    -0.351 N 
ATOM     74  C   UNL A   1      34.030  24.653  23.768  1.00  0.00     0.269 C 
ATOM     75  H   UNL A   1      35.697  23.544  23.906  1.00  0.00     0.163 HD
ATOM     76  O   UNL A   1      34.257  24.981  22.605  1.00  0.00    -0.268 OA
BRANCH  74  77
ATOM     77  C   UNL A   1      32.820  25.156  24.476  1.00  0.00     0.129 A 
ATOM     78  C   UNL A   1      32.919  26.237  25.347  1.00  0.00     0.049 A 
ATOM     79  N   UNL A   1      31.675  24.466  24.243  1.00  0.00    -0.251 NA
ATOM     80  C   UNL A   1      31.802  26.565  26.103  1.00  0.00     0.012 A 
ATOM     81  C   UNL A   1      30.590  24.853  24.933  1.00  0.00     0.113 A 
ATOM     82  C   UNL A   1      30.610  25.872  25.869  1.00  0.00     0.035 A 
BRANCH  80  83
ATOM     83  S   UNL A   1      31.740  27.817  27.364  1.00  0.00    -0.116 SA
BRANCH  83  84
ATOM     84  C   UNL A   1      31.837  29.416  26.518  1.00  0.00     0.175 C 
BRANCH  84  85
ATOM     85  C   UNL A   1      32.440  29.512  25.126  1.00  0.00     0.233 C 
ATOM     86  O   UNL A   1      33.671  29.609  25.043  1.00  0.00    -0.274 OA
ATOM     87  N   UNL A   1      31.680  29.299  23.996  1.00  0.00    -0.337 N 
ATOM     88  C   UNL A   1      30.245  29.528  23.826  1.00  0.00     0.148 C 
ATOM     89  C   UNL A   1      32.331  28.842  22.758  1.00  0.00     0.148 C 
ATOM     90  C   UNL A   1      29.563  28.295  23.229  1.00  0.00     0.181 C 
ATOM     91  C   UNL A   1      31.594  27.607  22.218  1.00  0.00     0.181 C 
ATOM     92  O   UNL A   1      30.199  27.888  22.011  1.00  0.00    -0.378 OA
ENDBRANCH  84  85
ENDBRANCH  83  84
ENDBRANCH  80  83
ENDBRANCH  74  77
ENDBRANCH  72  73
ENDBRANCH   1  72
TORSDOF 16
ENDMDL
MODEL 3
REMARK VINA RESULT:     -11.8      4.819     10.421
REMARK SMILES O=C(NCCCNC(=O)c1cc(SCC(=O)N2CCOCC2)ccn1)c1ccc(-c2c3nc(c(-c4cccc(S(=O)(=O)[O-])c4F)c4ccc([nH]4)c(-c4cccc(S(=O)(=O)[O-])c4F)c4nc(c(-c5cccc(S(=O)(=O)[O-])c5F)c5ccc2[nH]5)C=C4)C=C3)cc1
REMARK SMILES IDX 5 1 4 2 3 3 1 4 2 5 26 7 27 8 88 9 28 10 87 11 29 12 30 13
REMARK SMILES IDX 31 14 81 15 32 16 86 17 80 18 82 19 33 20 85 21 79 22 78 23
REMARK SMILES IDX 34 25 66 26 46 27 65 28 47 29 50 30 64 31 83 32 48 33 49 34
REMARK SMILES IDX 63 36 84 37 51 38 35 39 36 40 44 41 37 42 39 43 45 44 38 45
REMARK SMILES IDX 40 46 41 47 42 48 43 49 67 50 68 51 76 52 69 53 71 54 77 55
REMARK SMILES IDX 70 56 72 57 73 58 74 59 75 60 52 61 53 62 61 63 54 64 56 65
REMARK SMILES IDX 62 66 55 67 57 68 58 69 59 70 60 71 6 72 7 73 8 74 9 76
REMARK SMILES IDX 10 77 11 78 25 79 12 80 24 81 23 82 13 83 14 84 15 85 16 86
REMARK SMILES IDX 17 87 18 88 22 89 19 90 21 91 20 92
REMARK H PARENT 3 6 82 24 50 35 7 75
REMARK Flexibility Score: inf
ROOT
ATOM      1  C   UNL A   1      31.800  28.595  25.755  1.00  0.00     0.042 C 
ENDROOT
BRANCH   1   2
ATOM      2  C   UNL A   1      32.070  29.363  27.037  1.00  0.00     0.118 C 
BRANCH   2   3
ATOM      3  N   UNL A   1      32.094  30.808  26.839  1.00  0.00    -0.352 N 
ATOM      4  O   UNL A   1      32.738  32.944  27.106  1.00  0.00    -0.269 OA
ATOM      5  C   UNL A   1      33.012  31.752  27.231  1.00  0.00     0.251 C 
ATOM      6  H   UNL A   1      31.324  31.167  26.342  1.00  0.00     0.163 HD
BRANCH   5   7
ATOM      7  C   UNL A   1      34.303  31.348  27.834  1.00  0.00     0.039 A 
ATOM      8  C   UNL A   1      34.538  30.027  28.211  1.00  0.00     0.014 A 
ATOM      9  C   UNL A   1      35.303  32.309  28.016  1.00  0.00     0.014 A 
ATOM     10  C   UNL A   1      35.675  29.708  28.945  1.00  0.00     0.010 A 
ATOM     11  C   UNL A   1      36.500  31.959  28.649  1.00  0.00     0.010 A 
ATOM     12  C   UNL A   1      36.677  30.667  29.164  1.00  0.00    -0.014 A 
BRANCH  12  13
ATOM     13  C   UNL A   1      37.915  30.264  29.880  1.00  0.00     0.031 A 
ATOM     14  C   UNL A   1      38.188  30.711  31.290  1.00  0.00     0.074 A 
ATOM     15  C   UNL A   1      38.789  29.455  29.248  1.00  0.00     0.049 A 
ATOM     16  N   UNL A   1      39.187  30.391  32.073  1.00  0.00    -0.248 NA
ATOM     17  C   UNL A   1      37.229  31.646  31.901  1.00  0.00     0.031 C 
ATOM     18  C   UNL A   1      38.656  28.994  27.862  1.00  0.00     0.029 A 
ATOM     19  N   UNL A   1      39.948  28.866  29.682  1.00  0.00    -0.354 N 
ATOM     20  C   UNL A   1      39.005  31.115  33.246  1.00  0.00     0.074 A 
ATOM     21  C   UNL A   1      37.801  31.899  33.072  1.00  0.00     0.031 C 
ATOM     22  C   UNL A   1      39.661  28.153  27.579  1.00  0.00     0.029 A 
ATOM     23  C   UNL A   1      40.539  28.058  28.739  1.00  0.00     0.049 A 
ATOM     24  H   UNL A   1      40.321  29.006  30.582  1.00  0.00     0.167 HD
ATOM     25  C   UNL A   1      39.759  31.111  34.371  1.00  0.00     0.034 A 
ATOM     26  C   UNL A   1      41.665  27.321  28.796  1.00  0.00     0.034 A 
ATOM     27  C   UNL A   1      40.925  30.288  34.559  1.00  0.00     0.049 A 
ATOM     28  C   UNL A   1      42.455  27.303  30.071  1.00  0.00     0.074 A 
ATOM     29  C   UNL A   1      41.715  30.160  35.690  1.00  0.00     0.029 A 
ATOM     30  N   UNL A   1      41.472  29.456  33.594  1.00  0.00    -0.354 N 
ATOM     31  N   UNL A   1      42.191  27.893  31.212  1.00  0.00    -0.248 NA
ATOM     32  C   UNL A   1      43.686  26.502  30.076  1.00  0.00     0.031 C 
ATOM     33  C   UNL A   1      42.747  29.259  35.402  1.00  0.00     0.029 A 
ATOM     34  C   UNL A   1      42.593  28.817  34.098  1.00  0.00     0.049 A 
ATOM     35  H   UNL A   1      41.116  29.337  32.685  1.00  0.00     0.167 HD
ATOM     36  C   UNL A   1      43.209  27.517  32.078  1.00  0.00     0.074 A 
ATOM     37  C   UNL A   1      44.078  26.624  31.337  1.00  0.00     0.031 C 
ATOM     38  C   UNL A   1      43.419  27.894  33.363  1.00  0.00     0.034 A 
BRANCH  25  39
ATOM     39  C   UNL A   1      39.323  31.993  35.513  1.00  0.00     0.023 A 
ATOM     40  C   UNL A   1      38.459  31.477  36.499  1.00  0.00     0.012 A 
ATOM     41  C   UNL A   1      39.817  33.307  35.646  1.00  0.00     0.148 A 
ATOM     42  C   UNL A   1      38.070  32.263  37.584  1.00  0.00     0.002 A 
ATOM     43  C   UNL A   1      39.454  34.070  36.751  1.00  0.00     0.091 A 
ATOM     44  F   UNL A   1      40.619  33.791  34.687  1.00  0.00    -0.205 F 
ATOM     45  C   UNL A   1      38.575  33.553  37.716  1.00  0.00     0.022 A 
BRANCH  43  46
ATOM     46  S   UNL A   1      40.115  35.717  37.040  1.00  0.00     0.127 S 
ATOM     47  O   UNL A   1      41.553  35.456  37.068  1.00  0.00    -0.237 OA
ATOM     48  O   UNL A   1      39.653  36.451  35.860  1.00  0.00    -0.237 OA
ATOM     49  O   UNL A   1      39.528  36.164  38.295  1.00  0.00    -0.744 OA
ENDBRANCH  43  46
ENDBRANCH  25  39
BRANCH  26  50
ATOM     50  C   UNL A   1      42.061  26.489  27.626  1.00  0.00     0.023 A 
ATOM     51  C   UNL A   1      42.857  27.057  26.613  1.00  0.00     0.012 A 
ATOM     52  C   UNL A   1      41.709  25.128  27.541  1.00  0.00     0.148 A 
ATOM     53  C   UNL A   1      43.280  26.290  25.528  1.00  0.00     0.002 A 
ATOM     54  C   UNL A   1      42.183  24.355  26.487  1.00  0.00     0.091 A 
ATOM     55  F   UNL A   1      40.934  24.610  28.504  1.00  0.00    -0.205 F 
ATOM     56  C   UNL A   1      42.956  24.937  25.472  1.00  0.00     0.022 A 
BRANCH  54  57
ATOM     57  S   UNL A   1      41.933  22.577  26.424  1.00  0.00     0.127 S 
ATOM     58  O   UNL A   1      40.476  22.481  26.416  1.00  0.00    -0.237 OA
ATOM     59  O   UNL A   1      42.581  22.221  25.161  1.00  0.00    -0.237 OA
ATOM     60  O   UNL A   1      42.603  22.051  27.606  1.00  0.00    -0.744 OA
ENDBRANCH  54  57
ENDBRANCH  26  50
BRANCH  38  61
ATOM     61  C   UNL A   1      44.629  27.328  34.057  1.00  0.00     0.023 A 
ATOM     62  C   UNL A   1      45.850  28.028  34.003  1.00  0.00     0.012 A 
ATOM     63  C   UNL A   1      44.544  26.139  34.806  1.00  0.00     0.148 A 
ATOM     64  C   UNL A   1      46.979  27.536  34.657  1.00  0.00     0.002 A 
ATOM     65  C   UNL A   1      45.662  25.678  35.492  1.00  0.00     0.091 A 
ATOM     66  F   UNL A   1      43.379  25.475  34.826  1.00  0.00    -0.205 F 
ATOM     67  C   UNL A   1      46.882  26.368  35.409  1.00  0.00     0.022 A 
BRANCH  65  68
ATOM     68  S   UNL A   1      45.596  24.231  36.555  1.00  0.00     0.127 S 
ATOM     69  O   UNL A   1      46.938  24.226  37.135  1.00  0.00    -0.237 OA
ATOM     70  O   UNL A   1      44.528  24.578  37.494  1.00  0.00    -0.237 OA
ATOM     71  O   UNL A   1      45.283  23.110  35.678  1.00  0.00    -0.744 OA
ENDBRANCH  65  68
ENDBRANCH  38  61
ENDBRANCH  12  13
ENDBRANCH   5   7
ENDBRANCH   2   3
ENDBRANCH   1   2
BRANCH   1  72
ATOM     72  C   UNL A   1      32.281  29.308  24.505  1.00  0.00     0.118 C 
BRANCH  72  73
ATOM     73  N   UNL A   1      31.268  29.401  23.465  1.00  0.00    -0.351 N 
ATOM     74  C   UNL A   1      30.914  28.476  22.507  1.00  0.00     0.269 C 
ATOM     75  H   UNL A   1      30.762  30.244  23.443  1.00  0.00     0.163 HD
ATOM     76  O   UNL A   1      30.047  28.755  21.682  1.00  0.00    -0.268 OA
BRANCH  74  77
ATOM     77  C   UNL A   1      31.586  27.146  22.481  1.00  0.00     0.129 A 
ATOM     78  C   UNL A   1      30.922  26.018  22.955  1.00  0.00     0.049 A 
ATOM     79  N   UNL A   1      32.862  27.143  22.022  1.00  0.00    -0.251 NA
ATOM     80  C   UNL A   1      31.643  24.838  23.060  1.00  0.00     0.012 A 
ATOM     81  C   UNL A   1      33.513  25.970  22.066  1.00  0.00     0.113 A 
ATOM     82  C   UNL A   1      32.957  24.812  22.581  1.00  0.00     0.035 A 
BRANCH  80  83
ATOM     83  S   UNL A   1      31.039  23.317  23.755  1.00  0.00    -0.116 SA
BRANCH  83  84
ATOM     84  C   UNL A   1      32.065  22.961  25.205  1.00  0.00     0.175 C 
BRANCH  84  85
ATOM     85  C   UNL A   1      32.941  21.719  25.238  1.00  0.00     0.233 C 
ATOM     86  O   UNL A   1      32.507  20.700  24.685  1.00  0.00    -0.274 OA
ATOM     87  N   UNL A   1      34.244  21.769  25.684  1.00  0.00    -0.337 N 
ATOM     88  C   UNL A   1      34.821  22.691  26.663  1.00  0.00     0.148 C 
ATOM     89  C   UNL A   1      35.215  20.773  25.204  1.00  0.00     0.148 C 
ATOM     90  C   UNL A   1      36.098  23.335  26.120  1.00  0.00     0.181 C 
ATOM     91  C   UNL A   1      36.467  21.490  24.678  1.00  0.00     0.181 C 
ATOM     92  O   UNL A   1      37.036  22.342  25.686  1.00  0.00    -0.378 OA
ENDBRANCH  84  85
ENDBRANCH  83  84
ENDBRANCH  80  83
ENDBRANCH  74  77
ENDBRANCH  72  73
ENDBRANCH   1  72
TORSDOF 16
ENDMDL
