MODEL 1
REMARK VINA RESULT:     -12.5      0.000      0.000
REMARK SMILES Cc1ccc(/C=C/C(=O)NC[C@H]2CC[C@@H](C(=O)NCCCNC(=O)c3ccc(-c4c5nc(c(-c6cccc(S(=O)(=O)[O-])c6F)c6ccc([nH]6)c(-c6cccc(S(=O)(=O)[O-])c6F)c6nc(c(-c7cccc(S(=O)(=O)[O-])c7F)c7ccc4[nH]7)C=C6)C=C5)cc3)CC2)s1
REMARK SMILES IDX 19 1 18 2 16 3 17 4 15 6 12 7 13 8 89 9 14 10 88 11 11 12
REMARK SMILES IDX 10 13 8 14 9 15 7 17 6 18 5 19 1 20 2 21 3 22 90 23 4 24
REMARK SMILES IDX 20 25 21 26 22 27 23 28 24 30 25 31 26 32 87 33 27 34 86 35
REMARK SMILES IDX 28 36 29 37 30 38 80 39 31 40 85 41 79 42 81 43 32 44 84 45
REMARK SMILES IDX 78 46 77 47 33 49 65 50 45 51 64 52 46 53 49 54 63 55 82 56
REMARK SMILES IDX 47 57 48 58 62 60 83 61 50 62 34 63 35 64 43 65 36 66 38 67
REMARK SMILES IDX 44 68 37 69 39 70 40 71 41 72 42 73 66 74 67 75 75 76 68 77
REMARK SMILES IDX 70 78 76 79 69 80 71 81 72 82 73 83 74 84 51 85 52 86 60 87
REMARK SMILES IDX 53 88 55 89 61 90 54 91 56 92 57 93 58 94 59 95
REMARK H PARENT 18 5 10 16 22 29 81 48 49 59
REMARK Flexibility Score: inf
ROOT
ATOM      1  C   UNL A   1      38.887  23.213  26.401  1.00  0.00     0.117 C 
ENDROOT
BRANCH   1   2
ATOM      2  N   UNL A   1      37.871  23.675  25.490  1.00  0.00    -0.356 N 
ATOM      3  C   UNL A   1      36.521  23.553  25.571  1.00  0.00     0.223 C 
ATOM      4  O   UNL A   1      35.857  24.443  25.023  1.00  0.00    -0.275 OA
ATOM      5  H   UNL A   1      38.204  24.148  24.693  1.00  0.00     0.163 HD
BRANCH   3   6
ATOM      6  C   UNL A   1      35.785  22.412  26.298  1.00  0.00     0.078 C 
ATOM      7  C   UNL A   1      33.380  21.003  25.144  1.00  0.00     0.008 C 
ATOM      8  C   UNL A   1      34.795  20.859  24.575  1.00  0.00     0.006 C 
ATOM      9  C   UNL A   1      33.175  22.223  26.071  1.00  0.00     0.006 C 
ATOM     10  C   UNL A   1      35.886  21.061  25.600  1.00  0.00     0.014 C 
ATOM     11  C   UNL A   1      34.397  22.683  26.881  1.00  0.00     0.014 C 
BRANCH   7  12
ATOM     12  C   UNL A   1      32.339  20.863  23.999  1.00  0.00     0.119 C 
BRANCH  12  13
ATOM     13  N   UNL A   1      32.609  21.614  22.790  1.00  0.00    -0.352 N 
ATOM     14  C   UNL A   1      32.709  22.922  22.477  1.00  0.00     0.244 C 
ATOM     15  O   UNL A   1      33.277  23.191  21.414  1.00  0.00    -0.270 OA
ATOM     16  H   UNL A   1      32.754  21.030  22.010  1.00  0.00     0.163 HD
BRANCH  14  17
ATOM     17  C   UNL A   1      32.123  24.061  23.228  1.00  0.00     0.072 C 
ATOM     18  C   UNL A   1      31.023  24.819  23.098  1.00  0.00     0.024 C 
BRANCH  18  19
ATOM     19  C   UNL A   1      31.018  26.089  23.761  1.00  0.00     0.027 A 
ATOM     20  C   UNL A   1      33.014  29.345  24.407  1.00  0.00     0.056 C 
ATOM     21  C   UNL A   1      31.974  28.275  24.379  1.00  0.00     0.002 A 
ATOM     22  C   UNL A   1      31.264  27.716  25.422  1.00  0.00     0.016 A 
ATOM     23  S   UNL A   1      31.530  27.511  22.918  1.00  0.00    -0.141 S 
ATOM     24  C   UNL A   1      30.704  26.444  25.061  1.00  0.00     0.020 A 
ENDBRANCH  18  19
ENDBRANCH  14  17
ENDBRANCH  12  13
ENDBRANCH   7  12
ENDBRANCH   3   6
ENDBRANCH   1   2
BRANCH   1  25
ATOM     25  C   UNL A   1      39.515  21.870  26.078  1.00  0.00     0.042 C 
BRANCH  25  26
ATOM     26  C   UNL A   1      40.973  21.695  26.507  1.00  0.00     0.118 C 
BRANCH  26  27
ATOM     27  N   UNL A   1      41.987  22.130  25.545  1.00  0.00    -0.352 N 
ATOM     28  C   UNL A   1      42.674  23.313  25.420  1.00  0.00     0.251 C 
ATOM     29  H   UNL A   1      42.216  21.455  24.866  1.00  0.00     0.163 HD
ATOM     30  O   UNL A   1      43.496  23.483  24.522  1.00  0.00    -0.269 OA
BRANCH  28  31
ATOM     31  C   UNL A   1      42.439  24.406  26.357  1.00  0.00     0.039 A 
ATOM     32  C   UNL A   1      42.635  25.726  25.932  1.00  0.00     0.014 A 
ATOM     33  C   UNL A   1      42.043  24.109  27.656  1.00  0.00     0.014 A 
ATOM     34  C   UNL A   1      42.354  26.767  26.806  1.00  0.00     0.010 A 
ATOM     35  C   UNL A   1      41.654  25.139  28.479  1.00  0.00     0.010 A 
ATOM     36  C   UNL A   1      41.827  26.468  28.067  1.00  0.00    -0.014 A 
BRANCH  36  37
ATOM     37  C   UNL A   1      41.472  27.503  29.048  1.00  0.00     0.031 A 
ATOM     38  C   UNL A   1      42.277  27.554  30.312  1.00  0.00     0.074 A 
ATOM     39  C   UNL A   1      40.326  28.183  28.878  1.00  0.00     0.049 A 
ATOM     40  N   UNL A   1      41.987  28.106  31.454  1.00  0.00    -0.248 NA
ATOM     41  C   UNL A   1      43.541  26.791  30.314  1.00  0.00     0.031 C 
ATOM     42  C   UNL A   1      39.450  28.092  27.705  1.00  0.00     0.029 A 
ATOM     43  N   UNL A   1      39.668  29.036  29.720  1.00  0.00    -0.354 N 
ATOM     44  C   UNL A   1      42.980  27.686  32.331  1.00  0.00     0.074 A 
ATOM     45  C   UNL A   1      43.860  26.805  31.599  1.00  0.00     0.031 C 
ATOM     46  C   UNL A   1      38.361  28.849  27.909  1.00  0.00     0.029 A 
ATOM     47  C   UNL A   1      38.448  29.448  29.234  1.00  0.00     0.049 A 
ATOM     48  H   UNL A   1      40.031  29.327  30.587  1.00  0.00     0.167 HD
ATOM     49  C   UNL A   1      43.145  28.035  33.628  1.00  0.00     0.034 A 
ATOM     50  C   UNL A   1      37.511  30.217  29.817  1.00  0.00     0.034 A 
ATOM     51  C   UNL A   1      42.290  28.991  34.274  1.00  0.00     0.049 A 
ATOM     52  C   UNL A   1      37.810  30.733  31.199  1.00  0.00     0.074 A 
ATOM     53  C   UNL A   1      42.403  29.545  35.533  1.00  0.00     0.029 A 
ATOM     54  N   UNL A   1      41.167  29.555  33.681  1.00  0.00    -0.354 N 
ATOM     55  N   UNL A   1      38.822  30.439  31.983  1.00  0.00    -0.248 NA
ATOM     56  C   UNL A   1      36.875  31.713  31.760  1.00  0.00     0.031 C 
ATOM     57  C   UNL A   1      41.349  30.453  35.697  1.00  0.00     0.029 A 
ATOM     58  C   UNL A   1      40.587  30.470  34.536  1.00  0.00     0.049 A 
ATOM     59  H   UNL A   1      40.833  29.335  32.781  1.00  0.00     0.167 HD
ATOM     60  C   UNL A   1      38.666  31.220  33.119  1.00  0.00     0.074 A 
ATOM     61  C   UNL A   1      37.470  32.016  32.908  1.00  0.00     0.031 C 
ATOM     62  C   UNL A   1      39.422  31.268  34.245  1.00  0.00     0.034 A 
BRANCH  49  63
ATOM     63  C   UNL A   1      44.314  27.441  34.373  1.00  0.00     0.023 A 
ATOM     64  C   UNL A   1      45.575  28.073  34.311  1.00  0.00     0.012 A 
ATOM     65  C   UNL A   1      44.178  26.261  35.131  1.00  0.00     0.148 A 
ATOM     66  C   UNL A   1      46.688  27.517  34.939  1.00  0.00     0.002 A 
ATOM     67  C   UNL A   1      45.283  25.738  35.797  1.00  0.00     0.091 A 
ATOM     68  F   UNL A   1      42.982  25.657  35.167  1.00  0.00    -0.205 F 
ATOM     69  C   UNL A   1      46.541  26.354  35.688  1.00  0.00     0.022 A 
BRANCH  67  70
ATOM     70  S   UNL A   1      45.190  24.286  36.853  1.00  0.00     0.127 S 
ATOM     71  O   UNL A   1      46.574  24.162  37.309  1.00  0.00    -0.237 OA
ATOM     72  O   UNL A   1      44.246  24.717  37.884  1.00  0.00    -0.237 OA
ATOM     73  O   UNL A   1      44.712  23.202  36.006  1.00  0.00    -0.744 OA
ENDBRANCH  67  70
ENDBRANCH  49  63
BRANCH  50  74
ATOM     74  C   UNL A   1      36.304  30.629  29.047  1.00  0.00     0.023 A 
ATOM     75  C   UNL A   1      35.474  29.629  28.505  1.00  0.00     0.012 A 
ATOM     76  C   UNL A   1      35.916  31.978  28.923  1.00  0.00     0.148 A 
ATOM     77  C   UNL A   1      34.297  29.961  27.832  1.00  0.00     0.002 A 
ATOM     78  C   UNL A   1      34.716  32.301  28.293  1.00  0.00     0.091 A 
ATOM     79  F   UNL A   1      36.716  32.921  29.441  1.00  0.00    -0.205 F 
ATOM     80  C   UNL A   1      33.913  31.295  27.736  1.00  0.00     0.022 A 
BRANCH  78  81
ATOM     81  S   UNL A   1      34.076  33.981  28.242  1.00  0.00     0.127 S 
ATOM     82  O   UNL A   1      32.708  33.766  27.774  1.00  0.00    -0.237 OA
ATOM     83  O   UNL A   1      34.187  34.397  29.641  1.00  0.00    -0.237 OA
ATOM     84  O   UNL A   1      34.954  34.705  27.333  1.00  0.00    -0.744 OA
ENDBRANCH  78  81
ENDBRANCH  50  74
BRANCH  62  85
ATOM     85  C   UNL A   1      38.986  32.229  35.313  1.00  0.00     0.023 A 
ATOM     86  C   UNL A   1      38.027  31.822  36.259  1.00  0.00     0.012 A 
ATOM     87  C   UNL A   1      39.599  33.490  35.433  1.00  0.00     0.148 A 
ATOM     88  C   UNL A   1      37.666  32.669  37.303  1.00  0.00     0.002 A 
ATOM     89  C   UNL A   1      39.269  34.309  36.503  1.00  0.00     0.091 A 
ATOM     90  F   UNL A   1      40.494  33.858  34.504  1.00  0.00    -0.205 F 
ATOM     91  C   UNL A   1      38.296  33.906  37.432  1.00  0.00     0.022 A 
BRANCH  89  92
ATOM     92  S   UNL A   1      40.105  35.870  36.802  1.00  0.00     0.127 S 
ATOM     93  O   UNL A   1      39.678  36.661  35.650  1.00  0.00    -0.237 OA
ATOM     94  O   UNL A   1      39.530  36.291  38.079  1.00  0.00    -0.237 OA
ATOM     95  O   UNL A   1      41.527  35.556  36.857  1.00  0.00    -0.744 OA
ENDBRANCH  89  92
ENDBRANCH  62  85
ENDBRANCH  36  37
ENDBRANCH  28  31
ENDBRANCH  26  27
ENDBRANCH  25  26
ENDBRANCH   1  25
TORSDOF 17
ENDMDL
MODEL 2
REMARK VINA RESULT:     -12.4      5.835      9.625
REMARK SMILES Cc1ccc(/C=C/C(=O)NC[C@H]2CC[C@@H](C(=O)NCCCNC(=O)c3ccc(-c4c5nc(c(-c6cccc(S(=O)(=O)[O-])c6F)c6ccc([nH]6)c(-c6cccc(S(=O)(=O)[O-])c6F)c6nc(c(-c7cccc(S(=O)(=O)[O-])c7F)c7ccc4[nH]7)C=C6)C=C5)cc3)CC2)s1
REMARK SMILES IDX 19 1 18 2 16 3 17 4 15 6 12 7 13 8 89 9 14 10 88 11 11 12
REMARK SMILES IDX 10 13 8 14 9 15 7 17 6 18 5 19 1 20 2 21 3 22 90 23 4 24
REMARK SMILES IDX 20 25 21 26 22 27 23 28 24 30 25 31 26 32 87 33 27 34 86 35
REMARK SMILES IDX 28 36 29 37 30 38 80 39 31 40 85 41 79 42 81 43 32 44 84 45
REMARK SMILES IDX 78 46 77 47 33 49 65 50 45 51 64 52 46 53 49 54 63 55 82 56
REMARK SMILES IDX 47 57 48 58 62 60 83 61 50 62 34 63 35 64 43 65 36 66 38 67
REMARK SMILES IDX 44 68 37 69 39 70 40 71 41 72 42 73 66 74 67 75 75 76 68 77
REMARK SMILES IDX 70 78 76 79 69 80 71 81 72 82 73 83 74 84 51 85 52 86 60 87
REMARK SMILES IDX 53 88 55 89 61 90 54 91 56 92 57 93 58 94 59 95
REMARK H PARENT 18 5 10 16 22 29 81 48 49 59
REMARK Flexibility Score: inf
ROOT
ATOM      1  C   UNL A   1      38.283  22.727  25.741  1.00  0.00     0.117 C 
ENDROOT
BRANCH   1   2
ATOM      2  N   UNL A   1      37.066  22.896  26.494  1.00  0.00    -0.356 N 
ATOM      3  C   UNL A   1      35.835  23.277  26.066  1.00  0.00     0.223 C 
ATOM      4  O   UNL A   1      34.873  22.844  26.714  1.00  0.00    -0.275 OA
ATOM      5  H   UNL A   1      37.138  22.709  27.458  1.00  0.00     0.163 HD
BRANCH   3   6
ATOM      6  C   UNL A   1      35.570  24.179  24.846  1.00  0.00     0.078 C 
ATOM      7  C   UNL A   1      32.891  24.343  23.470  1.00  0.00     0.008 C 
ATOM      8  C   UNL A   1      33.150  24.891  24.876  1.00  0.00     0.006 C 
ATOM      9  C   UNL A   1      33.947  23.337  22.960  1.00  0.00     0.006 C 
ATOM     10  C   UNL A   1      34.583  25.310  25.110  1.00  0.00     0.014 C 
ATOM     11  C   UNL A   1      35.382  23.528  23.474  1.00  0.00     0.014 C 
BRANCH   7  12
ATOM     12  C   UNL A   1      31.417  23.864  23.359  1.00  0.00     0.119 C 
BRANCH  12  13
ATOM     13  N   UNL A   1      30.813  23.358  24.575  1.00  0.00    -0.352 N 
ATOM     14  C   UNL A   1      31.045  22.315  25.397  1.00  0.00     0.244 C 
ATOM     15  O   UNL A   1      30.540  22.378  26.522  1.00  0.00    -0.270 OA
ATOM     16  H   UNL A   1      30.051  23.907  24.872  1.00  0.00     0.163 HD
BRANCH  14  17
ATOM     17  C   UNL A   1      31.762  21.059  25.057  1.00  0.00     0.072 C 
ATOM     18  C   UNL A   1      32.371  20.582  23.961  1.00  0.00     0.024 C 
BRANCH  18  19
ATOM     19  C   UNL A   1      32.574  19.165  23.886  1.00  0.00     0.027 A 
ATOM     20  C   UNL A   1      34.780  16.205  25.061  1.00  0.00     0.056 C 
ATOM     21  C   UNL A   1      33.728  17.057  24.430  1.00  0.00     0.002 A 
ATOM     22  C   UNL A   1      33.279  17.070  23.125  1.00  0.00     0.016 A 
ATOM     23  S   UNL A   1      32.911  18.261  25.323  1.00  0.00    -0.141 S 
ATOM     24  C   UNL A   1      32.604  18.297  22.810  1.00  0.00     0.020 A 
ENDBRANCH  18  19
ENDBRANCH  14  17
ENDBRANCH  12  13
ENDBRANCH   7  12
ENDBRANCH   3   6
ENDBRANCH   1   2
BRANCH   1  25
ATOM     25  C   UNL A   1      38.652  21.300  25.377  1.00  0.00     0.042 C 
BRANCH  25  26
ATOM     26  C   UNL A   1      39.263  20.461  26.501  1.00  0.00     0.118 C 
BRANCH  26  27
ATOM     27  N   UNL A   1      40.313  19.521  26.107  1.00  0.00    -0.352 N 
ATOM     28  C   UNL A   1      41.675  19.670  26.002  1.00  0.00     0.251 C 
ATOM     29  H   UNL A   1      39.985  18.622  25.876  1.00  0.00     0.163 HD
ATOM     30  O   UNL A   1      42.394  18.740  25.643  1.00  0.00    -0.269 OA
BRANCH  28  31
ATOM     31  C   UNL A   1      42.304  20.947  26.316  1.00  0.00     0.039 A 
ATOM     32  C   UNL A   1      42.537  21.867  25.285  1.00  0.00     0.014 A 
ATOM     33  C   UNL A   1      42.674  21.215  27.629  1.00  0.00     0.014 A 
ATOM     34  C   UNL A   1      43.081  23.106  25.594  1.00  0.00     0.010 A 
ATOM     35  C   UNL A   1      43.103  22.481  27.950  1.00  0.00     0.010 A 
ATOM     36  C   UNL A   1      43.327  23.422  26.935  1.00  0.00    -0.014 A 
BRANCH  36  37
ATOM     37  C   UNL A   1      43.875  24.718  27.361  1.00  0.00     0.031 A 
ATOM     38  C   UNL A   1      42.909  25.718  27.923  1.00  0.00     0.074 A 
ATOM     39  C   UNL A   1      45.137  25.025  27.019  1.00  0.00     0.049 A 
ATOM     40  N   UNL A   1      43.039  27.007  28.053  1.00  0.00    -0.248 NA
ATOM     41  C   UNL A   1      41.578  25.203  28.298  1.00  0.00     0.031 C 
ATOM     42  C   UNL A   1      46.088  24.113  26.374  1.00  0.00     0.029 A 
ATOM     43  N   UNL A   1      45.816  26.208  27.106  1.00  0.00    -0.354 N 
ATOM     44  C   UNL A   1      41.785  27.467  28.438  1.00  0.00     0.074 A 
ATOM     45  C   UNL A   1      40.901  26.326  28.485  1.00  0.00     0.031 C 
ATOM     46  C   UNL A   1      47.225  24.777  26.111  1.00  0.00     0.029 A 
ATOM     47  C   UNL A   1      47.068  26.161  26.537  1.00  0.00     0.049 A 
ATOM     48  H   UNL A   1      45.447  27.014  27.534  1.00  0.00     0.167 HD
ATOM     49  C   UNL A   1      41.424  28.734  28.747  1.00  0.00     0.034 A 
ATOM     50  C   UNL A   1      47.972  27.144  26.377  1.00  0.00     0.034 A 
ATOM     51  C   UNL A   1      42.373  29.811  28.773  1.00  0.00     0.049 A 
ATOM     52  C   UNL A   1      47.601  28.508  26.895  1.00  0.00     0.074 A 
ATOM     53  C   UNL A   1      42.195  31.115  29.189  1.00  0.00     0.029 A 
ATOM     54  N   UNL A   1      43.701  29.687  28.384  1.00  0.00    -0.354 N 
ATOM     55  N   UNL A   1      46.452  28.915  27.384  1.00  0.00    -0.248 NA
ATOM     56  C   UNL A   1      48.650  29.533  26.883  1.00  0.00     0.031 C 
ATOM     57  C   UNL A   1      43.421  31.777  29.058  1.00  0.00     0.029 A 
ATOM     58  C   UNL A   1      44.364  30.882  28.570  1.00  0.00     0.049 A 
ATOM     59  H   UNL A   1      44.110  28.865  28.027  1.00  0.00     0.167 HD
ATOM     60  C   UNL A   1      46.645  30.233  27.770  1.00  0.00     0.074 A 
ATOM     61  C   UNL A   1      48.031  30.548  27.475  1.00  0.00     0.031 C 
ATOM     62  C   UNL A   1      45.762  31.117  28.301  1.00  0.00     0.034 A 
BRANCH  49  63
ATOM     63  C   UNL A   1      39.989  28.979  29.142  1.00  0.00     0.023 A 
ATOM     64  C   UNL A   1      39.013  29.174  28.141  1.00  0.00     0.012 A 
ATOM     65  C   UNL A   1      39.599  29.023  30.496  1.00  0.00     0.148 A 
ATOM     66  C   UNL A   1      37.690  29.462  28.476  1.00  0.00     0.002 A 
ATOM     67  C   UNL A   1      38.266  29.261  30.821  1.00  0.00     0.091 A 
ATOM     68  F   UNL A   1      40.537  28.858  31.439  1.00  0.00    -0.205 F 
ATOM     69  C   UNL A   1      37.316  29.498  29.814  1.00  0.00     0.022 A 
BRANCH  67  70
ATOM     70  S   UNL A   1      37.658  29.255  32.512  1.00  0.00     0.127 S 
ATOM     71  O   UNL A   1      36.284  29.725  32.336  1.00  0.00    -0.237 OA
ATOM     72  O   UNL A   1      37.777  27.842  32.875  1.00  0.00    -0.237 OA
ATOM     73  O   UNL A   1      38.533  30.149  33.258  1.00  0.00    -0.744 OA
ENDBRANCH  67  70
ENDBRANCH  49  63
BRANCH  50  74
ATOM     74  C   UNL A   1      49.322  26.830  25.829  1.00  0.00     0.023 A 
ATOM     75  C   UNL A   1      50.202  26.050  26.606  1.00  0.00     0.012 A 
ATOM     76  C   UNL A   1      49.711  27.205  24.528  1.00  0.00     0.148 A 
ATOM     77  C   UNL A   1      51.451  25.673  26.111  1.00  0.00     0.002 A 
ATOM     78  C   UNL A   1      50.939  26.785  24.022  1.00  0.00     0.091 A 
ATOM     79  F   UNL A   1      48.865  27.949  23.800  1.00  0.00    -0.205 F 
ATOM     80  C   UNL A   1      51.814  26.030  24.816  1.00  0.00     0.022 A 
BRANCH  78  81
ATOM     81  S   UNL A   1      51.432  27.083  22.318  1.00  0.00     0.127 S 
ATOM     82  O   UNL A   1      50.278  26.578  21.578  1.00  0.00    -0.237 OA
ATOM     83  O   UNL A   1      51.588  28.538  22.292  1.00  0.00    -0.237 OA
ATOM     84  O   UNL A   1      52.676  26.347  22.138  1.00  0.00    -0.744 OA
ENDBRANCH  78  81
ENDBRANCH  50  74
BRANCH  62  85
ATOM     85  C   UNL A   1      46.282  32.489  28.614  1.00  0.00     0.023 A 
ATOM     86  C   UNL A   1      46.851  32.743  29.876  1.00  0.00     0.012 A 
ATOM     87  C   UNL A   1      46.293  33.491  27.625  1.00  0.00     0.148 A 
ATOM     88  C   UNL A   1      47.408  33.987  30.158  1.00  0.00     0.002 A 
ATOM     89  C   UNL A   1      46.893  34.712  27.897  1.00  0.00     0.091 A 
ATOM     90  F   UNL A   1      45.724  33.227  26.439  1.00  0.00    -0.205 F 
ATOM     91  C   UNL A   1      47.441  34.966  29.165  1.00  0.00     0.022 A 
BRANCH  89  92
ATOM     92  S   UNL A   1      47.070  35.987  26.647  1.00  0.00     0.127 S 
ATOM     93  O   UNL A   1      47.574  35.221  25.509  1.00  0.00    -0.237 OA
ATOM     94  O   UNL A   1      45.697  36.471  26.499  1.00  0.00    -0.237 OA
ATOM     95  O   UNL A   1      47.995  36.966  27.204  1.00  0.00    -0.744 OA
ENDBRANCH  89  92
ENDBRANCH  62  85
ENDBRANCH  36  37
ENDBRANCH  28  31
ENDBRANCH  26  27
ENDBRANCH  25  26
ENDBRANCH   1  25
TORSDOF 17
ENDMDL
MODEL 3
REMARK VINA RESULT:     -12.3      5.864      7.850
REMARK SMILES Cc1ccc(/C=C/C(=O)NC[C@H]2CC[C@@H](C(=O)NCCCNC(=O)c3ccc(-c4c5nc(c(-c6cccc(S(=O)(=O)[O-])c6F)c6ccc([nH]6)c(-c6cccc(S(=O)(=O)[O-])c6F)c6nc(c(-c7cccc(S(=O)(=O)[O-])c7F)c7ccc4[nH]7)C=C6)C=C5)cc3)CC2)s1
REMARK SMILES IDX 19 1 18 2 16 3 17 4 15 6 12 7 13 8 89 9 14 10 88 11 11 12
REMARK SMILES IDX 10 13 8 14 9 15 7 17 6 18 5 19 1 20 2 21 3 22 90 23 4 24
REMARK SMILES IDX 20 25 21 26 22 27 23 28 24 30 25 31 26 32 87 33 27 34 86 35
REMARK SMILES IDX 28 36 29 37 30 38 80 39 31 40 85 41 79 42 81 43 32 44 84 45
REMARK SMILES IDX 78 46 77 47 33 49 65 50 45 51 64 52 46 53 49 54 63 55 82 56
REMARK SMILES IDX 47 57 48 58 62 60 83 61 50 62 34 63 35 64 43 65 36 66 38 67
REMARK SMILES IDX 44 68 37 69 39 70 40 71 41 72 42 73 66 74 67 75 75 76 68 77
REMARK SMILES IDX 70 78 76 79 69 80 71 81 72 82 73 83 74 84 51 85 52 86 60 87
REMARK SMILES IDX 53 88 55 89 61 90 54 91 56 92 57 93 58 94 59 95
REMARK H PARENT 18 5 10 16 22 29 81 48 49 59
REMARK Flexibility Score: inf
ROOT
ATOM      1  C   UNL A   1      37.632  20.601  24.618  1.00  0.00     0.117 C 
ENDROOT
BRANCH   1   2
ATOM      2  N   UNL A   1      37.853  22.001  24.877  1.00  0.00    -0.356 N 
ATOM      3  C   UNL A   1      37.033  22.907  25.469  1.00  0.00     0.223 C 
ATOM      4  O   UNL A   1      37.589  23.842  26.061  1.00  0.00    -0.275 OA
ATOM      5  H   UNL A   1      38.724  22.351  24.580  1.00  0.00     0.163 HD
BRANCH   3   6
ATOM      6  C   UNL A   1      35.496  22.835  25.464  1.00  0.00     0.078 C 
ATOM      7  C   UNL A   1      33.778  24.423  23.560  1.00  0.00     0.008 C 
ATOM      8  C   UNL A   1      34.673  23.262  23.118  1.00  0.00     0.006 C 
ATOM      9  C   UNL A   1      34.114  25.009  24.950  1.00  0.00     0.006 C 
ATOM     10  C   UNL A   1      34.904  22.229  24.197  1.00  0.00     0.014 C 
ATOM     11  C   UNL A   1      34.699  24.033  25.983  1.00  0.00     0.014 C 
BRANCH   7  12
ATOM     12  C   UNL A   1      33.672  25.467  22.414  1.00  0.00     0.119 C 
BRANCH  12  13
ATOM     13  N   UNL A   1      32.375  26.082  22.222  1.00  0.00    -0.352 N 
ATOM     14  C   UNL A   1      31.747  27.168  22.716  1.00  0.00     0.244 C 
ATOM     15  O   UNL A   1      30.770  27.576  22.081  1.00  0.00    -0.270 OA
ATOM     16  H   UNL A   1      31.819  25.589  21.575  1.00  0.00     0.163 HD
BRANCH  14  17
ATOM     17  C   UNL A   1      32.050  27.863  23.993  1.00  0.00     0.072 C 
ATOM     18  C   UNL A   1      32.528  29.072  24.325  1.00  0.00     0.024 C 
BRANCH  18  19
ATOM     19  C   UNL A   1      33.081  29.222  25.638  1.00  0.00     0.027 A 
ATOM     20  C   UNL A   1      34.536  31.732  28.206  1.00  0.00     0.056 C 
ATOM     21  C   UNL A   1      34.035  30.509  27.512  1.00  0.00     0.002 A 
ATOM     22  C   UNL A   1      34.623  29.266  27.396  1.00  0.00     0.016 A 
ATOM     23  S   UNL A   1      32.557  30.519  26.659  1.00  0.00    -0.141 S 
ATOM     24  C   UNL A   1      34.065  28.515  26.307  1.00  0.00     0.020 A 
ENDBRANCH  18  19
ENDBRANCH  14  17
ENDBRANCH  12  13
ENDBRANCH   7  12
ENDBRANCH   3   6
ENDBRANCH   1   2
BRANCH   1  25
ATOM     25  C   UNL A   1      38.490  19.630  25.409  1.00  0.00     0.042 C 
BRANCH  25  26
ATOM     26  C   UNL A   1      39.748  20.220  26.049  1.00  0.00     0.118 C 
BRANCH  26  27
ATOM     27  N   UNL A   1      40.930  19.355  26.065  1.00  0.00    -0.352 N 
ATOM     28  C   UNL A   1      42.270  19.648  26.123  1.00  0.00     0.251 C 
ATOM     29  H   UNL A   1      40.726  18.392  26.027  1.00  0.00     0.163 HD
ATOM     30  O   UNL A   1      43.119  18.758  26.121  1.00  0.00    -0.269 OA
BRANCH  28  31
ATOM     31  C   UNL A   1      42.721  21.033  26.185  1.00  0.00     0.039 A 
ATOM     32  C   UNL A   1      42.890  21.753  24.996  1.00  0.00     0.014 A 
ATOM     33  C   UNL A   1      42.991  21.600  27.425  1.00  0.00     0.014 A 
ATOM     34  C   UNL A   1      43.261  23.089  25.060  1.00  0.00     0.010 A 
ATOM     35  C   UNL A   1      43.244  22.950  27.494  1.00  0.00     0.010 A 
ATOM     36  C   UNL A   1      43.400  23.693  26.314  1.00  0.00    -0.014 A 
BRANCH  36  37
ATOM     37  C   UNL A   1      43.763  25.108  26.482  1.00  0.00     0.031 A 
ATOM     38  C   UNL A   1      45.197  25.479  26.250  1.00  0.00     0.074 A 
ATOM     39  C   UNL A   1      42.870  25.936  27.049  1.00  0.00     0.049 A 
ATOM     40  N   UNL A   1      45.849  26.535  26.642  1.00  0.00    -0.248 NA
ATOM     41  C   UNL A   1      46.032  24.473  25.565  1.00  0.00     0.031 C 
ATOM     42  C   UNL A   1      41.486  25.589  27.389  1.00  0.00     0.029 A 
ATOM     43  N   UNL A   1      43.012  27.219  27.498  1.00  0.00    -0.354 N 
ATOM     44  C   UNL A   1      47.180  26.283  26.333  1.00  0.00     0.074 A 
ATOM     45  C   UNL A   1      47.247  24.961  25.754  1.00  0.00     0.031 C 
ATOM     46  C   UNL A   1      40.910  26.632  28.008  1.00  0.00     0.029 A 
ATOM     47  C   UNL A   1      41.892  27.701  28.134  1.00  0.00     0.049 A 
ATOM     48  H   UNL A   1      43.834  27.747  27.377  1.00  0.00     0.167 HD
ATOM     49  C   UNL A   1      48.242  27.105  26.499  1.00  0.00     0.034 A 
ATOM     50  C   UNL A   1      41.701  28.878  28.757  1.00  0.00     0.034 A 
ATOM     51  C   UNL A   1      48.097  28.446  26.993  1.00  0.00     0.049 A 
ATOM     52  C   UNL A   1      42.857  29.842  28.769  1.00  0.00     0.074 A 
ATOM     53  C   UNL A   1      49.048  29.441  27.095  1.00  0.00     0.029 A 
ATOM     54  N   UNL A   1      46.897  28.983  27.443  1.00  0.00    -0.354 N 
ATOM     55  N   UNL A   1      44.089  29.651  28.355  1.00  0.00    -0.248 NA
ATOM     56  C   UNL A   1      42.596  31.189  29.287  1.00  0.00     0.031 C 
ATOM     57  C   UNL A   1      48.418  30.584  27.602  1.00  0.00     0.029 A 
ATOM     58  C   UNL A   1      47.074  30.302  27.804  1.00  0.00     0.049 A 
ATOM     59  H   UNL A   1      46.045  28.493  27.496  1.00  0.00     0.167 HD
ATOM     60  C   UNL A   1      44.745  30.861  28.530  1.00  0.00     0.074 A 
ATOM     61  C   UNL A   1      43.763  31.784  29.071  1.00  0.00     0.031 C 
ATOM     62  C   UNL A   1      46.041  31.185  28.290  1.00  0.00     0.034 A 
BRANCH  49  63
ATOM     63  C   UNL A   1      49.598  26.596  26.079  1.00  0.00     0.023 A 
ATOM     64  C   UNL A   1      50.288  25.684  26.905  1.00  0.00     0.012 A 
ATOM     65  C   UNL A   1      50.197  27.016  24.874  1.00  0.00     0.148 A 
ATOM     66  C   UNL A   1      51.569  25.241  26.573  1.00  0.00     0.002 A 
ATOM     67  C   UNL A   1      51.455  26.531  24.524  1.00  0.00     0.091 A 
ATOM     68  F   UNL A   1      49.543  27.898  24.106  1.00  0.00    -0.205 F 
ATOM     69  C   UNL A   1      52.148  25.658  25.380  1.00  0.00     0.022 A 
BRANCH  67  70
ATOM     70  S   UNL A   1      52.264  26.943  22.973  1.00  0.00     0.127 S 
ATOM     71  O   UNL A   1      52.719  28.309  23.229  1.00  0.00    -0.237 OA
ATOM     72  O   UNL A   1      53.333  25.946  22.911  1.00  0.00    -0.237 OA
ATOM     73  O   UNL A   1      51.247  26.807  21.940  1.00  0.00    -0.744 OA
ENDBRANCH  67  70
ENDBRANCH  49  63
BRANCH  50  74
ATOM     74  C   UNL A   1      40.353  29.231  29.282  1.00  0.00     0.023 A 
ATOM     75  C   UNL A   1      39.388  29.731  28.385  1.00  0.00     0.012 A 
ATOM     76  C   UNL A   1      39.981  28.994  30.620  1.00  0.00     0.148 A 
ATOM     77  C   UNL A   1      38.090  30.014  28.813  1.00  0.00     0.002 A 
ATOM     78  C   UNL A   1      38.671  29.233  31.030  1.00  0.00     0.091 A 
ATOM     79  F   UNL A   1      40.909  28.520  31.464  1.00  0.00    -0.205 F 
ATOM     80  C   UNL A   1      37.728  29.755  30.132  1.00  0.00     0.022 A 
BRANCH  78  81
ATOM     81  S   UNL A   1      38.082  28.801  32.674  1.00  0.00     0.127 S 
ATOM     82  O   UNL A   1      36.696  29.263  32.626  1.00  0.00    -0.237 OA
ATOM     83  O   UNL A   1      38.243  27.347  32.688  1.00  0.00    -0.237 OA
ATOM     84  O   UNL A   1      38.957  29.507  33.600  1.00  0.00    -0.744 OA
ENDBRANCH  78  81
ENDBRANCH  50  74
BRANCH  62  85
ATOM     85  C   UNL A   1      46.453  32.596  28.589  1.00  0.00     0.023 A 
ATOM     86  C   UNL A   1      46.846  32.940  29.896  1.00  0.00     0.012 A 
ATOM     87  C   UNL A   1      46.543  33.548  27.556  1.00  0.00     0.148 A 
ATOM     88  C   UNL A   1      47.306  34.224  30.176  1.00  0.00     0.002 A 
ATOM     89  C   UNL A   1      47.046  34.811  27.834  1.00  0.00     0.091 A 
ATOM     90  F   UNL A   1      46.140  33.197  26.325  1.00  0.00    -0.205 F 
ATOM     91  C   UNL A   1      47.418  35.154  29.144  1.00  0.00     0.022 A 
BRANCH  89  92
ATOM     92  S   UNL A   1      47.320  36.032  26.547  1.00  0.00     0.127 S 
ATOM     93  O   UNL A   1      45.961  36.500  26.286  1.00  0.00    -0.237 OA
ATOM     94  O   UNL A   1      48.183  37.004  27.219  1.00  0.00    -0.237 OA
ATOM     95  O   UNL A   1      47.961  35.318  25.449  1.00  0.00    -0.744 OA
ENDBRANCH  89  92
ENDBRANCH  62  85
ENDBRANCH  36  37
ENDBRANCH  28  31
ENDBRANCH  26  27
ENDBRANCH  25  26
ENDBRANCH   1  25
TORSDOF 17
ENDMDL
