MODEL 1
REMARK VINA RESULT:     -12.8      0.000      0.000
REMARK SMILES O=C(NCCCNC(=O)c1ccc(-c2c3nc(c(-c4cccc(S(=O)(=O)[O-])c4F)c4ccc([nH]4)c(-c4cccc(S(=O)(=O)[O-])c4F)c4nc(c(-c5cccc(S(=O)(=O)[O-])c5F)c5ccc2[nH]5)C=C4)C=C3)cc1)C1=Cc2c(Cl)ccc(Cl)c2O[C@@H]1C(F)(F)F
REMARK SMILES IDX 6 1 5 2 4 3 3 4 1 5 2 6 73 8 74 9 84 10 75 11 83 12 76 13
REMARK SMILES IDX 82 14 77 15 78 16 80 17 79 18 81 19 85 20 86 21 87 22 88 23
REMARK SMILES IDX 7 24 8 25 9 27 10 28 11 29 72 30 12 31 71 32 13 33 14 34
REMARK SMILES IDX 15 35 65 36 16 37 70 38 64 39 66 40 17 41 69 42 63 43 62 44
REMARK SMILES IDX 18 46 50 47 30 48 49 49 31 50 34 51 48 52 67 53 32 54 33 55
REMARK SMILES IDX 47 57 68 58 35 59 19 60 20 61 28 62 21 63 23 64 29 65 22 66
REMARK SMILES IDX 24 67 25 68 26 69 27 70 51 71 52 72 60 73 53 74 55 75 61 76
REMARK SMILES IDX 54 77 56 78 57 79 58 80 59 81 36 82 37 83 45 84 38 85 40 86
REMARK SMILES IDX 46 87 39 88 41 89 42 90 43 91 44 92
REMARK H PARENT 3 7 7 26 66 45 34 56
REMARK Flexibility Score: inf
ROOT
ATOM      1  C   UNL A   1      32.801  29.732  25.598  1.00  0.00     0.118 C 
ENDROOT
BRANCH   1   2
ATOM      2  C   UNL A   1      31.638  28.753  25.714  1.00  0.00     0.042 C 
BRANCH   2   3
ATOM      3  C   UNL A   1      31.913  27.624  26.695  1.00  0.00     0.118 C 
BRANCH   3   4
ATOM      4  N   UNL A   1      30.898  26.570  26.685  1.00  0.00    -0.352 N 
ATOM      5  O   UNL A   1      30.126  24.445  26.567  1.00  0.00    -0.270 OA
ATOM      6  C   UNL A   1      30.969  25.271  26.239  1.00  0.00     0.251 C 
ATOM      7  H   UNL A   1      30.024  26.833  27.056  1.00  0.00     0.163 HD
BRANCH   6   8
ATOM      8  C   UNL A   1      32.176  24.864  25.491  1.00  0.00     0.067 C 
ATOM      9  C   UNL A   1      33.147  24.136  26.061  1.00  0.00     0.027 C 
ATOM     10  C   UNL A   1      32.123  25.022  24.009  1.00  0.00     0.314 C 
ATOM     11  C   UNL A   1      33.368  22.862  25.328  1.00  0.00     0.037 A 
ATOM     12  O   UNL A   1      32.242  23.754  23.332  1.00  0.00    -0.474 OA
ATOM     13  C   UNL A   1      33.772  21.700  26.023  1.00  0.00     0.052 A 
ATOM     14  C   UNL A   1      32.796  22.708  24.039  1.00  0.00     0.148 A 
ATOM     15  Cl  UNL A   1      34.401  21.752  27.634  1.00  0.00    -0.084 Cl
ATOM     16  C   UNL A   1      33.556  20.429  25.475  1.00  0.00     0.023 A 
ATOM     17  C   UNL A   1      32.600  21.425  23.497  1.00  0.00     0.083 A 
ATOM     18  C   UNL A   1      32.958  20.292  24.223  1.00  0.00     0.026 A 
ATOM     19  Cl  UNL A   1      31.782  21.206  21.991  1.00  0.00    -0.080 Cl
BRANCH  10  20
ATOM     20  C   UNL A   1      33.207  26.006  23.531  1.00  0.00     0.429 C 
ATOM     21  F   UNL A   1      34.025  25.426  22.618  1.00  0.00    -0.167 F 
ATOM     22  F   UNL A   1      32.675  27.100  22.937  1.00  0.00    -0.167 F 
ATOM     23  F   UNL A   1      33.993  26.442  24.545  1.00  0.00    -0.167 F 
ENDBRANCH  10  20
ENDBRANCH   6   8
ENDBRANCH   3   4
ENDBRANCH   2   3
ENDBRANCH   1   2
BRANCH   1  24
ATOM     24  N   UNL A   1      32.563  31.021  26.247  1.00  0.00    -0.352 N 
ATOM     25  C   UNL A   1      33.287  31.712  27.201  1.00  0.00     0.251 C 
ATOM     26  H   UNL A   1      31.742  31.477  25.952  1.00  0.00     0.163 HD
ATOM     27  O   UNL A   1      32.834  32.744  27.665  1.00  0.00    -0.269 OA
BRANCH  25  28
ATOM     28  C   UNL A   1      34.582  31.181  27.695  1.00  0.00     0.039 A 
ATOM     29  C   UNL A   1      35.621  32.073  27.986  1.00  0.00     0.014 A 
ATOM     30  C   UNL A   1      34.770  29.818  27.904  1.00  0.00     0.014 A 
ATOM     31  C   UNL A   1      36.788  31.606  28.600  1.00  0.00     0.010 A 
ATOM     32  C   UNL A   1      35.862  29.379  28.641  1.00  0.00     0.010 A 
ATOM     33  C   UNL A   1      36.889  30.264  28.998  1.00  0.00    -0.014 A 
BRANCH  33  34
ATOM     34  C   UNL A   1      38.040  29.742  29.787  1.00  0.00     0.031 A 
ATOM     35  C   UNL A   1      38.272  30.241  31.192  1.00  0.00     0.074 A 
ATOM     36  C   UNL A   1      38.952  28.940  29.200  1.00  0.00     0.049 A 
ATOM     37  N   UNL A   1      39.305  30.065  31.973  1.00  0.00    -0.248 NA
ATOM     38  C   UNL A   1      37.225  31.101  31.776  1.00  0.00     0.031 C 
ATOM     39  C   UNL A   1      38.902  28.460  27.816  1.00  0.00     0.029 A 
ATOM     40  N   UNL A   1      40.122  28.409  29.686  1.00  0.00    -0.354 N 
ATOM     41  C   UNL A   1      39.066  30.843  33.101  1.00  0.00     0.074 A 
ATOM     42  C   UNL A   1      37.812  31.529  32.883  1.00  0.00     0.031 C 
ATOM     43  C   UNL A   1      39.978  27.695  27.571  1.00  0.00     0.029 A 
ATOM     44  C   UNL A   1      40.817  27.660  28.763  1.00  0.00     0.049 A 
ATOM     45  H   UNL A   1      40.436  28.552  30.609  1.00  0.00     0.167 HD
ATOM     46  C   UNL A   1      39.798  30.947  34.235  1.00  0.00     0.034 A 
ATOM     47  C   UNL A   1      42.000  27.022  28.864  1.00  0.00     0.034 A 
ATOM     48  C   UNL A   1      40.990  30.187  34.488  1.00  0.00     0.049 A 
ATOM     49  C   UNL A   1      42.747  27.077  30.169  1.00  0.00     0.074 A 
ATOM     50  C   UNL A   1      41.745  30.128  35.645  1.00  0.00     0.029 A 
ATOM     51  N   UNL A   1      41.589  29.334  33.573  1.00  0.00    -0.354 N 
ATOM     52  N   UNL A   1      42.428  27.702  31.276  1.00  0.00    -0.248 NA
ATOM     53  C   UNL A   1      43.998  26.310  30.252  1.00  0.00     0.031 C 
ATOM     54  C   UNL A   1      42.803  29.240  35.430  1.00  0.00     0.029 A 
ATOM     55  C   UNL A   1      42.701  28.738  34.142  1.00  0.00     0.049 A 
ATOM     56  H   UNL A   1      41.271  29.176  32.655  1.00  0.00     0.167 HD
ATOM     57  C   UNL A   1      43.416  27.378  32.197  1.00  0.00     0.074 A 
ATOM     58  C   UNL A   1      44.335  26.481  31.525  1.00  0.00     0.031 C 
ATOM     59  C   UNL A   1      43.563  27.797  33.477  1.00  0.00     0.034 A 
BRANCH  46  60
ATOM     60  C   UNL A   1      39.281  31.856  35.320  1.00  0.00     0.023 A 
ATOM     61  C   UNL A   1      38.296  31.378  36.211  1.00  0.00     0.012 A 
ATOM     62  C   UNL A   1      39.791  33.158  35.491  1.00  0.00     0.148 A 
ATOM     63  C   UNL A   1      37.796  32.195  37.224  1.00  0.00     0.002 A 
ATOM     64  C   UNL A   1      39.321  33.950  36.533  1.00  0.00     0.091 A 
ATOM     65  F   UNL A   1      40.712  33.603  34.624  1.00  0.00    -0.205 F 
ATOM     66  C   UNL A   1      38.315  33.475  37.391  1.00  0.00     0.022 A 
BRANCH  64  67
ATOM     67  S   UNL A   1      39.981  35.584  36.882  1.00  0.00     0.127 S 
ATOM     68  O   UNL A   1      39.278  35.927  38.117  1.00  0.00    -0.237 OA
ATOM     69  O   UNL A   1      41.409  35.310  37.049  1.00  0.00    -0.237 OA
ATOM     70  O   UNL A   1      39.652  36.404  35.725  1.00  0.00    -0.744 OA
ENDBRANCH  64  67
ENDBRANCH  46  60
BRANCH  47  71
ATOM     71  C   UNL A   1      42.507  26.200  27.727  1.00  0.00     0.023 A 
ATOM     72  C   UNL A   1      43.467  26.756  26.858  1.00  0.00     0.012 A 
ATOM     73  C   UNL A   1      42.076  24.876  27.514  1.00  0.00     0.148 A 
ATOM     74  C   UNL A   1      43.965  26.024  25.780  1.00  0.00     0.002 A 
ATOM     75  C   UNL A   1      42.615  24.133  26.468  1.00  0.00     0.091 A 
ATOM     76  F   UNL A   1      41.154  24.366  28.342  1.00  0.00    -0.205 F 
ATOM     77  C   UNL A   1      43.546  24.710  25.590  1.00  0.00     0.022 A 
BRANCH  75  78
ATOM     78  S   UNL A   1      42.233  22.394  26.230  1.00  0.00     0.127 S 
ATOM     79  O   UNL A   1      42.964  22.093  25.001  1.00  0.00    -0.237 OA
ATOM     80  O   UNL A   1      42.790  21.791  27.441  1.00  0.00    -0.237 OA
ATOM     81  O   UNL A   1      40.781  22.324  26.141  1.00  0.00    -0.744 OA
ENDBRANCH  75  78
ENDBRANCH  47  71
BRANCH  59  82
ATOM     82  C   UNL A   1      44.734  27.264  34.258  1.00  0.00     0.023 A 
ATOM     83  C   UNL A   1      45.949  27.977  34.265  1.00  0.00     0.012 A 
ATOM     84  C   UNL A   1      44.600  26.110  35.054  1.00  0.00     0.148 A 
ATOM     85  C   UNL A   1      47.023  27.534  35.034  1.00  0.00     0.002 A 
ATOM     86  C   UNL A   1      45.660  25.701  35.853  1.00  0.00     0.091 A 
ATOM     87  F   UNL A   1      43.442  25.437  35.016  1.00  0.00    -0.205 F 
ATOM     88  C   UNL A   1      46.875  26.405  35.838  1.00  0.00     0.022 A 
BRANCH  86  89
ATOM     89  S   UNL A   1      45.525  24.316  36.991  1.00  0.00     0.127 S 
ATOM     90  O   UNL A   1      46.867  24.274  37.568  1.00  0.00    -0.237 OA
ATOM     91  O   UNL A   1      44.480  24.770  37.909  1.00  0.00    -0.237 OA
ATOM     92  O   UNL A   1      45.156  23.166  36.179  1.00  0.00    -0.744 OA
ENDBRANCH  86  89
ENDBRANCH  59  82
ENDBRANCH  33  34
ENDBRANCH  25  28
ENDBRANCH   1  24
TORSDOF 14
ENDMDL
MODEL 2
REMARK VINA RESULT:     -12.7      1.397      7.716
REMARK SMILES O=C(NCCCNC(=O)c1ccc(-c2c3nc(c(-c4cccc(S(=O)(=O)[O-])c4F)c4ccc([nH]4)c(-c4cccc(S(=O)(=O)[O-])c4F)c4nc(c(-c5cccc(S(=O)(=O)[O-])c5F)c5ccc2[nH]5)C=C4)C=C3)cc1)C1=Cc2c(Cl)ccc(Cl)c2O[C@@H]1C(F)(F)F
REMARK SMILES IDX 6 1 5 2 4 3 3 4 1 5 2 6 73 8 74 9 84 10 75 11 83 12 76 13
REMARK SMILES IDX 82 14 77 15 78 16 80 17 79 18 81 19 85 20 86 21 87 22 88 23
REMARK SMILES IDX 7 24 8 25 9 27 10 28 11 29 72 30 12 31 71 32 13 33 14 34
REMARK SMILES IDX 15 35 65 36 16 37 70 38 64 39 66 40 17 41 69 42 63 43 62 44
REMARK SMILES IDX 18 46 50 47 30 48 49 49 31 50 34 51 48 52 67 53 32 54 33 55
REMARK SMILES IDX 47 57 68 58 35 59 19 60 20 61 28 62 21 63 23 64 29 65 22 66
REMARK SMILES IDX 24 67 25 68 26 69 27 70 51 71 52 72 60 73 53 74 55 75 61 76
REMARK SMILES IDX 54 77 56 78 57 79 58 80 59 81 36 82 37 83 45 84 38 85 40 86
REMARK SMILES IDX 46 87 39 88 41 89 42 90 43 91 44 92
REMARK H PARENT 3 7 7 26 66 45 34 56
REMARK Flexibility Score: inf
ROOT
ATOM      1  C   UNL A   1      32.741  29.697  25.713  1.00  0.00     0.118 C 
ENDROOT
BRANCH   1   2
ATOM      2  C   UNL A   1      31.614  28.672  25.750  1.00  0.00     0.042 C 
BRANCH   2   3
ATOM      3  C   UNL A   1      31.898  27.517  26.698  1.00  0.00     0.118 C 
BRANCH   3   4
ATOM      4  N   UNL A   1      30.881  26.466  26.675  1.00  0.00    -0.352 N 
ATOM      5  O   UNL A   1      30.101  24.345  26.534  1.00  0.00    -0.270 OA
ATOM      6  C   UNL A   1      30.948  25.171  26.217  1.00  0.00     0.251 C 
ATOM      7  H   UNL A   1      30.006  26.729  27.045  1.00  0.00     0.163 HD
BRANCH   6   8
ATOM      8  C   UNL A   1      32.157  24.767  25.469  1.00  0.00     0.067 C 
ATOM      9  C   UNL A   1      33.133  24.048  26.042  1.00  0.00     0.027 C 
ATOM     10  C   UNL A   1      32.100  24.916  23.986  1.00  0.00     0.314 C 
ATOM     11  C   UNL A   1      33.360  22.771  25.316  1.00  0.00     0.037 A 
ATOM     12  O   UNL A   1      32.225  23.645  23.316  1.00  0.00    -0.474 OA
ATOM     13  C   UNL A   1      33.771  21.615  26.016  1.00  0.00     0.052 A 
ATOM     14  C   UNL A   1      32.786  22.606  24.028  1.00  0.00     0.148 A 
ATOM     15  Cl  UNL A   1      34.403  21.679  27.626  1.00  0.00    -0.084 Cl
ATOM     16  C   UNL A   1      33.562  20.340  25.476  1.00  0.00     0.023 A 
ATOM     17  C   UNL A   1      32.597  21.319  23.494  1.00  0.00     0.083 A 
ATOM     18  C   UNL A   1      32.963  20.192  24.226  1.00  0.00     0.026 A 
ATOM     19  Cl  UNL A   1      31.778  21.086  21.990  1.00  0.00    -0.080 Cl
BRANCH  10  20
ATOM     20  C   UNL A   1      33.178  25.903  23.501  1.00  0.00     0.429 C 
ATOM     21  F   UNL A   1      32.618  26.979  22.895  1.00  0.00    -0.167 F 
ATOM     22  F   UNL A   1      33.928  26.380  24.523  1.00  0.00    -0.167 F 
ATOM     23  F   UNL A   1      34.027  25.343  22.607  1.00  0.00    -0.167 F 
ENDBRANCH  10  20
ENDBRANCH   6   8
ENDBRANCH   3   4
ENDBRANCH   2   3
ENDBRANCH   1   2
BRANCH   1  24
ATOM     24  N   UNL A   1      32.393  30.988  26.305  1.00  0.00    -0.352 N 
ATOM     25  C   UNL A   1      33.069  31.797  27.200  1.00  0.00     0.251 C 
ATOM     26  H   UNL A   1      31.522  31.346  26.014  1.00  0.00     0.163 HD
ATOM     27  O   UNL A   1      32.528  32.802  27.626  1.00  0.00    -0.269 OA
BRANCH  25  28
ATOM     28  C   UNL A   1      34.424  31.423  27.677  1.00  0.00     0.039 A 
ATOM     29  C   UNL A   1      35.393  32.420  27.834  1.00  0.00     0.014 A 
ATOM     30  C   UNL A   1      34.736  30.106  28.001  1.00  0.00     0.014 A 
ATOM     31  C   UNL A   1      36.620  32.111  28.432  1.00  0.00     0.010 A 
ATOM     32  C   UNL A   1      35.890  29.830  28.722  1.00  0.00     0.010 A 
ATOM     33  C   UNL A   1      36.852  30.826  28.946  1.00  0.00    -0.014 A 
BRANCH  33  34
ATOM     34  C   UNL A   1      38.074  30.477  29.723  1.00  0.00     0.031 A 
ATOM     35  C   UNL A   1      39.086  29.522  29.138  1.00  0.00     0.074 A 
ATOM     36  C   UNL A   1      38.206  30.898  30.998  1.00  0.00     0.049 A 
ATOM     37  N   UNL A   1      40.108  28.945  29.714  1.00  0.00    -0.248 NA
ATOM     38  C   UNL A   1      38.888  29.118  27.734  1.00  0.00     0.031 C 
ATOM     39  C   UNL A   1      37.253  31.746  31.720  1.00  0.00     0.029 A 
ATOM     40  N   UNL A   1      39.184  30.642  31.928  1.00  0.00    -0.354 N 
ATOM     41  C   UNL A   1      40.627  28.064  28.771  1.00  0.00     0.074 A 
ATOM     42  C   UNL A   1      39.780  28.147  27.603  1.00  0.00     0.031 C 
ATOM     43  C   UNL A   1      37.700  31.954  32.969  1.00  0.00     0.029 A 
ATOM     44  C   UNL A   1      38.949  31.224  33.154  1.00  0.00     0.049 A 
ATOM     45  H   UNL A   1      39.978  30.093  31.737  1.00  0.00     0.167 HD
ATOM     46  C   UNL A   1      41.732  27.286  28.849  1.00  0.00     0.034 A 
ATOM     47  C   UNL A   1      39.656  31.170  34.300  1.00  0.00     0.034 A 
ATOM     48  C   UNL A   1      42.627  27.282  29.972  1.00  0.00     0.049 A 
ATOM     49  C   UNL A   1      40.932  30.373  34.330  1.00  0.00     0.074 A 
ATOM     50  C   UNL A   1      43.834  26.622  30.109  1.00  0.00     0.029 A 
ATOM     51  N   UNL A   1      42.421  27.992  31.146  1.00  0.00    -0.354 N 
ATOM     52  N   UNL A   1      41.483  29.662  33.376  1.00  0.00    -0.248 NA
ATOM     53  C   UNL A   1      41.704  30.399  35.580  1.00  0.00     0.031 C 
ATOM     54  C   UNL A   1      44.358  26.931  31.368  1.00  0.00     0.029 A 
ATOM     55  C   UNL A   1      43.483  27.791  32.010  1.00  0.00     0.049 A 
ATOM     56  H   UNL A   1      41.636  28.555  31.336  1.00  0.00     0.167 HD
ATOM     57  C   UNL A   1      42.680  29.186  33.896  1.00  0.00     0.074 A 
ATOM     58  C   UNL A   1      42.786  29.708  35.244  1.00  0.00     0.031 C 
ATOM     59  C   UNL A   1      43.601  28.375  33.321  1.00  0.00     0.034 A 
BRANCH  46  60
ATOM     60  C   UNL A   1      42.078  26.440  27.651  1.00  0.00     0.023 A 
ATOM     61  C   UNL A   1      42.733  27.032  26.551  1.00  0.00     0.012 A 
ATOM     62  C   UNL A   1      41.799  25.059  27.625  1.00  0.00     0.148 A 
ATOM     63  C   UNL A   1      43.064  26.277  25.428  1.00  0.00     0.002 A 
ATOM     64  C   UNL A   1      42.175  24.302  26.520  1.00  0.00     0.091 A 
ATOM     65  F   UNL A   1      41.158  24.515  28.669  1.00  0.00    -0.205 F 
ATOM     66  C   UNL A   1      42.795  24.912  25.417  1.00  0.00     0.022 A 
BRANCH  64  67
ATOM     67  S   UNL A   1      41.945  22.522  26.441  1.00  0.00     0.127 S 
ATOM     68  O   UNL A   1      40.488  22.414  26.424  1.00  0.00    -0.237 OA
ATOM     69  O   UNL A   1      42.596  22.184  25.174  1.00  0.00    -0.237 OA
ATOM     70  O   UNL A   1      42.601  21.981  27.623  1.00  0.00    -0.744 OA
ENDBRANCH  64  67
ENDBRANCH  46  60
BRANCH  47  71
ATOM     71  C   UNL A   1      39.224  31.965  35.486  1.00  0.00     0.023 A 
ATOM     72  C   UNL A   1      39.529  33.340  35.534  1.00  0.00     0.012 A 
ATOM     73  C   UNL A   1      38.495  31.388  36.544  1.00  0.00     0.148 A 
ATOM     74  C   UNL A   1      39.146  34.119  36.626  1.00  0.00     0.002 A 
ATOM     75  C   UNL A   1      38.071  32.181  37.605  1.00  0.00     0.091 A 
ATOM     76  F   UNL A   1      38.223  30.077  36.488  1.00  0.00    -0.205 F 
ATOM     77  C   UNL A   1      38.410  33.542  37.657  1.00  0.00     0.022 A 
BRANCH  75  78
ATOM     78  S   UNL A   1      37.007  31.552  38.909  1.00  0.00     0.127 S 
ATOM     79  O   UNL A   1      37.873  31.661  40.080  1.00  0.00    -0.237 OA
ATOM     80  O   UNL A   1      35.892  32.500  38.876  1.00  0.00    -0.237 OA
ATOM     81  O   UNL A   1      36.653  30.199  38.502  1.00  0.00    -0.744 OA
ENDBRANCH  75  78
ENDBRANCH  47  71
BRANCH  59  82
ATOM     82  C   UNL A   1      44.827  28.029  34.121  1.00  0.00     0.023 A 
ATOM     83  C   UNL A   1      45.948  28.880  34.081  1.00  0.00     0.012 A 
ATOM     84  C   UNL A   1      44.832  26.913  34.979  1.00  0.00     0.148 A 
ATOM     85  C   UNL A   1      47.068  28.611  34.865  1.00  0.00     0.002 A 
ATOM     86  C   UNL A   1      45.934  26.677  35.792  1.00  0.00     0.091 A 
ATOM     87  F   UNL A   1      43.762  26.105  34.987  1.00  0.00    -0.205 F 
ATOM     88  C   UNL A   1      47.056  27.518  35.730  1.00  0.00     0.022 A 
BRANCH  86  89
ATOM     89  S   UNL A   1      45.966  25.351  37.005  1.00  0.00     0.127 S 
ATOM     90  O   UNL A   1      44.777  25.647  37.800  1.00  0.00    -0.237 OA
ATOM     91  O   UNL A   1      45.856  24.158  36.163  1.00  0.00    -0.237 OA
ATOM     92  O   UNL A   1      47.236  25.479  37.704  1.00  0.00    -0.744 OA
ENDBRANCH  86  89
ENDBRANCH  59  82
ENDBRANCH  33  34
ENDBRANCH  25  28
ENDBRANCH   1  24
TORSDOF 14
ENDMDL
MODEL 3
REMARK VINA RESULT:     -12.7      1.760      2.828
REMARK SMILES O=C(NCCCNC(=O)c1ccc(-c2c3nc(c(-c4cccc(S(=O)(=O)[O-])c4F)c4ccc([nH]4)c(-c4cccc(S(=O)(=O)[O-])c4F)c4nc(c(-c5cccc(S(=O)(=O)[O-])c5F)c5ccc2[nH]5)C=C4)C=C3)cc1)C1=Cc2c(Cl)ccc(Cl)c2O[C@@H]1C(F)(F)F
REMARK SMILES IDX 6 1 5 2 4 3 3 4 1 5 2 6 73 8 74 9 84 10 75 11 83 12 76 13
REMARK SMILES IDX 82 14 77 15 78 16 80 17 79 18 81 19 85 20 86 21 87 22 88 23
REMARK SMILES IDX 7 24 8 25 9 27 10 28 11 29 72 30 12 31 71 32 13 33 14 34
REMARK SMILES IDX 15 35 65 36 16 37 70 38 64 39 66 40 17 41 69 42 63 43 62 44
REMARK SMILES IDX 18 46 50 47 30 48 49 49 31 50 34 51 48 52 67 53 32 54 33 55
REMARK SMILES IDX 47 57 68 58 35 59 19 60 20 61 28 62 21 63 23 64 29 65 22 66
REMARK SMILES IDX 24 67 25 68 26 69 27 70 51 71 52 72 60 73 53 74 55 75 61 76
REMARK SMILES IDX 54 77 56 78 57 79 58 80 59 81 36 82 37 83 45 84 38 85 40 86
REMARK SMILES IDX 46 87 39 88 41 89 42 90 43 91 44 92
REMARK H PARENT 3 7 7 26 66 45 34 56
REMARK Flexibility Score: inf
ROOT
ATOM      1  C   UNL A   1      32.516  30.038  25.804  1.00  0.00     0.118 C 
ENDROOT
BRANCH   1   2
ATOM      2  C   UNL A   1      31.451  29.050  26.266  1.00  0.00     0.042 C 
BRANCH   2   3
ATOM      3  C   UNL A   1      31.972  27.624  26.365  1.00  0.00     0.118 C 
BRANCH   3   4
ATOM      4  N   UNL A   1      30.995  26.672  26.892  1.00  0.00    -0.352 N 
ATOM      5  O   UNL A   1      29.698  24.815  26.872  1.00  0.00    -0.270 OA
ATOM      6  C   UNL A   1      30.248  25.714  26.246  1.00  0.00     0.251 C 
ATOM      7  H   UNL A   1      30.847  26.726  27.865  1.00  0.00     0.163 HD
BRANCH   6   8
ATOM      8  C   UNL A   1      30.265  25.706  24.769  1.00  0.00     0.067 C 
ATOM      9  C   UNL A   1      29.327  26.337  24.049  1.00  0.00     0.027 C 
ATOM     10  C   UNL A   1      31.527  25.243  24.123  1.00  0.00     0.314 C 
ATOM     11  C   UNL A   1      29.930  27.354  23.148  1.00  0.00     0.037 A 
ATOM     12  O   UNL A   1      32.138  26.285  23.335  1.00  0.00    -0.474 OA
ATOM     13  C   UNL A   1      29.226  28.538  22.835  1.00  0.00     0.052 A 
ATOM     14  C   UNL A   1      31.333  27.332  22.937  1.00  0.00     0.148 A 
ATOM     15  Cl  UNL A   1      27.530  28.717  23.130  1.00  0.00    -0.084 Cl
ATOM     16  C   UNL A   1      29.907  29.676  22.386  1.00  0.00     0.023 A 
ATOM     17  C   UNL A   1      31.999  28.480  22.472  1.00  0.00     0.083 A 
ATOM     18  C   UNL A   1      31.291  29.652  22.219  1.00  0.00     0.026 A 
ATOM     19  Cl  UNL A   1      33.722  28.521  22.336  1.00  0.00    -0.080 Cl
BRANCH  10  20
ATOM     20  C   UNL A   1      31.268  23.988  23.270  1.00  0.00     0.429 C 
ATOM     21  F   UNL A   1      32.131  23.919  22.227  1.00  0.00    -0.167 F 
ATOM     22  F   UNL A   1      31.427  22.847  23.982  1.00  0.00    -0.167 F 
ATOM     23  F   UNL A   1      30.017  23.965  22.750  1.00  0.00    -0.167 F 
ENDBRANCH  10  20
ENDBRANCH   6   8
ENDBRANCH   3   4
ENDBRANCH   2   3
ENDBRANCH   1   2
BRANCH   1  24
ATOM     24  N   UNL A   1      32.377  31.377  26.375  1.00  0.00    -0.352 N 
ATOM     25  C   UNL A   1      33.177  32.084  27.254  1.00  0.00     0.251 C 
ATOM     26  H   UNL A   1      31.571  31.860  26.082  1.00  0.00     0.163 HD
ATOM     27  O   UNL A   1      32.801  33.168  27.665  1.00  0.00    -0.269 OA
BRANCH  25  28
ATOM     28  C   UNL A   1      34.460  31.512  27.732  1.00  0.00     0.039 A 
ATOM     29  C   UNL A   1      35.535  32.369  27.997  1.00  0.00     0.014 A 
ATOM     30  C   UNL A   1      34.602  30.145  27.953  1.00  0.00     0.014 A 
ATOM     31  C   UNL A   1      36.694  31.866  28.597  1.00  0.00     0.010 A 
ATOM     32  C   UNL A   1      35.689  29.675  28.677  1.00  0.00     0.010 A 
ATOM     33  C   UNL A   1      36.753  30.525  29.008  1.00  0.00    -0.014 A 
BRANCH  33  34
ATOM     34  C   UNL A   1      37.898  29.970  29.784  1.00  0.00     0.031 A 
ATOM     35  C   UNL A   1      38.151  30.451  31.192  1.00  0.00     0.074 A 
ATOM     36  C   UNL A   1      38.787  29.152  29.183  1.00  0.00     0.049 A 
ATOM     37  N   UNL A   1      39.186  30.244  31.963  1.00  0.00    -0.248 NA
ATOM     38  C   UNL A   1      37.128  31.329  31.791  1.00  0.00     0.031 C 
ATOM     39  C   UNL A   1      38.716  28.686  27.795  1.00  0.00     0.029 A 
ATOM     40  N   UNL A   1      39.948  28.591  29.656  1.00  0.00    -0.354 N 
ATOM     41  C   UNL A   1      38.972  31.018  33.100  1.00  0.00     0.074 A 
ATOM     42  C   UNL A   1      37.733  31.734  32.897  1.00  0.00     0.031 C 
ATOM     43  C   UNL A   1      39.772  27.899  27.536  1.00  0.00     0.029 A 
ATOM     44  C   UNL A   1      40.619  27.834  28.722  1.00  0.00     0.049 A 
ATOM     45  H   UNL A   1      40.271  28.719  30.578  1.00  0.00     0.167 HD
ATOM     46  C   UNL A   1      39.715  31.095  34.229  1.00  0.00     0.034 A 
ATOM     47  C   UNL A   1      41.787  27.168  28.808  1.00  0.00     0.034 A 
ATOM     48  C   UNL A   1      40.891  30.305  34.467  1.00  0.00     0.049 A 
ATOM     49  C   UNL A   1      42.544  27.194  30.108  1.00  0.00     0.074 A 
ATOM     50  C   UNL A   1      41.652  30.219  35.618  1.00  0.00     0.029 A 
ATOM     51  N   UNL A   1      41.463  29.447  33.541  1.00  0.00    -0.354 N 
ATOM     52  N   UNL A   1      42.248  27.817  31.223  1.00  0.00    -0.248 NA
ATOM     53  C   UNL A   1      43.779  26.399  30.176  1.00  0.00     0.031 C 
ATOM     54  C   UNL A   1      42.688  29.309  35.387  1.00  0.00     0.029 A 
ATOM     55  C   UNL A   1      42.565  28.821  34.096  1.00  0.00     0.049 A 
ATOM     56  H   UNL A   1      41.135  29.305  32.623  1.00  0.00     0.167 HD
ATOM     57  C   UNL A   1      43.235  27.462  32.134  1.00  0.00     0.074 A 
ATOM     58  C   UNL A   1      44.128  26.550  31.447  1.00  0.00     0.031 C 
ATOM     59  C   UNL A   1      43.401  27.866  33.417  1.00  0.00     0.034 A 
BRANCH  46  60
ATOM     60  C   UNL A   1      39.226  32.006  35.326  1.00  0.00     0.023 A 
ATOM     61  C   UNL A   1      38.237  31.543  36.221  1.00  0.00     0.012 A 
ATOM     62  C   UNL A   1      39.767  33.294  35.504  1.00  0.00     0.148 A 
ATOM     63  C   UNL A   1      37.764  32.362  37.243  1.00  0.00     0.002 A 
ATOM     64  C   UNL A   1      39.323  34.088  36.556  1.00  0.00     0.091 A 
ATOM     65  F   UNL A   1      40.691  33.726  34.634  1.00  0.00    -0.205 F 
ATOM     66  C   UNL A   1      38.313  33.628  37.418  1.00  0.00     0.022 A 
BRANCH  64  67
ATOM     67  S   UNL A   1      40.022  35.703  36.915  1.00  0.00     0.127 S 
ATOM     68  O   UNL A   1      39.654  36.456  35.717  1.00  0.00    -0.237 OA
ATOM     69  O   UNL A   1      39.296  36.091  38.125  1.00  0.00    -0.237 OA
ATOM     70  O   UNL A   1      41.449  35.488  37.106  1.00  0.00    -0.744 OA
ENDBRANCH  64  67
ENDBRANCH  46  60
BRANCH  47  71
ATOM     71  C   UNL A   1      42.267  26.345  27.660  1.00  0.00     0.023 A 
ATOM     72  C   UNL A   1      43.163  26.919  26.737  1.00  0.00     0.012 A 
ATOM     73  C   UNL A   1      41.874  25.003  27.489  1.00  0.00     0.148 A 
ATOM     74  C   UNL A   1      43.634  26.186  25.647  1.00  0.00     0.002 A 
ATOM     75  C   UNL A   1      42.387  24.261  26.430  1.00  0.00     0.091 A 
ATOM     76  F   UNL A   1      41.012  24.476  28.370  1.00  0.00    -0.205 F 
ATOM     77  C   UNL A   1      43.254  24.855  25.499  1.00  0.00     0.022 A 
BRANCH  75  78
ATOM     78  S   UNL A   1      42.056  22.506  26.238  1.00  0.00     0.127 S 
ATOM     79  O   UNL A   1      42.774  22.201  25.003  1.00  0.00    -0.237 OA
ATOM     80  O   UNL A   1      42.653  21.949  27.452  1.00  0.00    -0.237 OA
ATOM     81  O   UNL A   1      40.606  22.390  26.177  1.00  0.00    -0.744 OA
ENDBRANCH  75  78
ENDBRANCH  47  71
BRANCH  59  82
ATOM     82  C   UNL A   1      44.564  27.300  34.184  1.00  0.00     0.023 A 
ATOM     83  C   UNL A   1      45.800  27.975  34.175  1.00  0.00     0.012 A 
ATOM     84  C   UNL A   1      44.406  26.152  34.984  1.00  0.00     0.148 A 
ATOM     85  C   UNL A   1      46.870  27.502  34.931  1.00  0.00     0.002 A 
ATOM     86  C   UNL A   1      45.463  25.712  35.771  1.00  0.00     0.091 A 
ATOM     87  F   UNL A   1      43.227  25.514  34.962  1.00  0.00    -0.205 F 
ATOM     88  C   UNL A   1      46.698  26.379  35.739  1.00  0.00     0.022 A 
BRANCH  86  89
ATOM     89  S   UNL A   1      45.300  24.335  36.914  1.00  0.00     0.127 S 
ATOM     90  O   UNL A   1      44.247  24.812  37.807  1.00  0.00    -0.237 OA
ATOM     91  O   UNL A   1      44.900  23.241  36.027  1.00  0.00    -0.237 OA
ATOM     92  O   UNL A   1      46.611  24.165  37.525  1.00  0.00    -0.744 OA
ENDBRANCH  86  89
ENDBRANCH  59  82
ENDBRANCH  33  34
ENDBRANCH  25  28
ENDBRANCH   1  24
TORSDOF 14
ENDMDL
