MODEL 1
REMARK VINA RESULT:     -12.2      0.000      0.000
REMARK SMILES CS(=O)(=O)c1ccc(/C=C(/C(=O)NCCCNC(=O)c2ccc(-c3c4nc(c(-c5cccc(S(=O)(=O)[O-])c5F)c5ccc([nH]5)c(-c5cccc(S(=O)(=O)[O-])c5F)c5nc(c(-c6cccc(S(=O)(=O)[O-])c6F)c6ccc3[nH]6)C=C5)C=C4)cc2)c2ccccc2)cc1
REMARK SMILES IDX 15 1 14 2 13 3 11 4 12 5 10 7 9 8 8 9 5 10 6 11 90 12 7 13
REMARK SMILES IDX 89 14 2 15 1 16 3 17 4 18 83 19 84 20 88 21 85 22 87 23
REMARK SMILES IDX 86 24 16 25 17 26 18 27 19 29 20 30 21 31 82 32 22 33 81 34
REMARK SMILES IDX 23 35 24 36 25 37 75 38 26 39 80 40 74 41 76 42 27 43 79 44
REMARK SMILES IDX 73 45 72 46 28 48 60 49 40 50 59 51 41 52 44 53 58 54 77 55
REMARK SMILES IDX 42 56 43 57 57 59 78 60 45 61 29 62 30 63 38 64 31 65 33 66
REMARK SMILES IDX 39 67 32 68 34 69 35 70 36 71 37 72 61 73 62 74 70 75 63 76
REMARK SMILES IDX 65 77 71 78 64 79 66 80 67 81 68 82 69 83 46 84 47 85 55 86
REMARK SMILES IDX 48 87 50 88 56 89 49 90 51 91 52 92 53 93 54 94
REMARK H PARENT 13 6 17 28 76 47 44 58
REMARK Flexibility Score: inf
ROOT
ATOM      1  C   UNL A   1      36.119  23.136  24.411  1.00  0.00     0.042 C 
ENDROOT
BRANCH   1   2
ATOM      2  C   UNL A   1      34.753  23.802  24.240  1.00  0.00     0.118 C 
BRANCH   2   3
ATOM      3  N   UNL A   1      33.888  23.499  25.363  1.00  0.00    -0.352 N 
ATOM      4  C   UNL A   1      32.822  24.115  25.935  1.00  0.00     0.251 C 
ATOM      5  O   UNL A   1      32.339  23.541  26.915  1.00  0.00    -0.269 OA
ATOM      6  H   UNL A   1      34.128  22.656  25.813  1.00  0.00     0.163 HD
BRANCH   4   7
ATOM      7  C   UNL A   1      32.170  25.363  25.381  1.00  0.00     0.047 C 
ATOM      8  C   UNL A   1      31.393  25.347  24.272  1.00  0.00     0.022 C 
BRANCH   8   9
ATOM      9  C   UNL A   1      30.582  26.437  23.676  1.00  0.00    -0.025 A 
ATOM     10  C   UNL A   1      28.954  28.578  22.845  1.00  0.00     0.067 A 
ATOM     11  C   UNL A   1      30.309  28.553  22.506  1.00  0.00     0.021 A 
ATOM     12  C   UNL A   1      28.385  27.505  23.526  1.00  0.00     0.021 A 
ATOM     13  C   UNL A   1      31.106  27.471  22.893  1.00  0.00     0.009 A 
ATOM     14  C   UNL A   1      29.201  26.443  23.940  1.00  0.00     0.009 A 
BRANCH  10  15
ATOM     15  S   UNL A   1      28.032  30.029  22.402  1.00  0.00     0.175 S 
ATOM     16  C   UNL A   1      28.992  31.439  22.870  1.00  0.00     0.163 C 
ATOM     17  O   UNL A   1      26.834  30.034  23.217  1.00  0.00    -0.224 OA
ATOM     18  O   UNL A   1      27.946  30.030  20.951  1.00  0.00    -0.224 OA
ENDBRANCH  10  15
ENDBRANCH   8   9
BRANCH   7  19
ATOM     19  C   UNL A   1      32.572  26.649  26.009  1.00  0.00    -0.013 A 
ATOM     20  C   UNL A   1      31.690  27.247  26.927  1.00  0.00     0.009 A 
ATOM     21  C   UNL A   1      33.828  27.231  25.800  1.00  0.00     0.009 A 
ATOM     22  C   UNL A   1      32.068  28.377  27.650  1.00  0.00     0.001 A 
ATOM     23  C   UNL A   1      34.212  28.354  26.542  1.00  0.00     0.001 A 
ATOM     24  C   UNL A   1      33.336  28.920  27.469  1.00  0.00     0.000 A 
ENDBRANCH   7  19
ENDBRANCH   4   7
ENDBRANCH   2   3
ENDBRANCH   1   2
BRANCH   1  25
ATOM     25  C   UNL A   1      36.789  23.452  25.751  1.00  0.00     0.118 C 
BRANCH  25  26
ATOM     26  N   UNL A   1      37.796  22.460  26.107  1.00  0.00    -0.352 N 
ATOM     27  C   UNL A   1      39.091  22.628  26.530  1.00  0.00     0.251 C 
ATOM     28  H   UNL A   1      37.502  21.523  26.032  1.00  0.00     0.163 HD
ATOM     29  O   UNL A   1      39.848  21.660  26.543  1.00  0.00    -0.269 OA
BRANCH  27  30
ATOM     30  C   UNL A   1      39.578  23.955  26.962  1.00  0.00     0.039 A 
ATOM     31  C   UNL A   1      40.010  24.866  25.993  1.00  0.00     0.014 A 
ATOM     32  C   UNL A   1      39.655  24.290  28.318  1.00  0.00     0.014 A 
ATOM     33  C   UNL A   1      40.468  26.127  26.380  1.00  0.00     0.010 A 
ATOM     34  C   UNL A   1      40.041  25.573  28.696  1.00  0.00     0.010 A 
ATOM     35  C   UNL A   1      40.460  26.503  27.734  1.00  0.00    -0.014 A 
BRANCH  35  36
ATOM     36  C   UNL A   1      40.872  27.867  28.158  1.00  0.00     0.031 A 
ATOM     37  C   UNL A   1      42.328  28.250  28.185  1.00  0.00     0.074 A 
ATOM     38  C   UNL A   1      39.938  28.734  28.599  1.00  0.00     0.049 A 
ATOM     39  N   UNL A   1      42.878  29.368  28.582  1.00  0.00    -0.248 NA
ATOM     40  C   UNL A   1      43.294  27.235  27.734  1.00  0.00     0.031 C 
ATOM     41  C   UNL A   1      38.504  28.453  28.694  1.00  0.00     0.029 A 
ATOM     42  N   UNL A   1      40.058  30.015  29.078  1.00  0.00    -0.354 N 
ATOM     43  C   UNL A   1      44.250  29.182  28.462  1.00  0.00     0.074 A 
ATOM     44  C   UNL A   1      44.451  27.830  27.988  1.00  0.00     0.031 C 
ATOM     45  C   UNL A   1      37.878  29.529  29.199  1.00  0.00     0.029 A 
ATOM     46  C   UNL A   1      38.866  30.561  29.493  1.00  0.00     0.049 A 
ATOM     47  H   UNL A   1      40.915  30.496  29.120  1.00  0.00     0.167 HD
ATOM     48  C   UNL A   1      45.252  30.063  28.696  1.00  0.00     0.034 A 
ATOM     49  C   UNL A   1      38.599  31.753  30.061  1.00  0.00     0.034 A 
ATOM     50  C   UNL A   1      45.045  31.418  29.134  1.00  0.00     0.049 A 
ATOM     51  C   UNL A   1      39.725  32.726  30.280  1.00  0.00     0.074 A 
ATOM     52  C   UNL A   1      45.987  32.415  29.321  1.00  0.00     0.029 A 
ATOM     53  N   UNL A   1      43.814  31.964  29.464  1.00  0.00    -0.354 N 
ATOM     54  N   UNL A   1      41.001  32.585  30.013  1.00  0.00    -0.248 NA
ATOM     55  C   UNL A   1      39.371  34.037  30.843  1.00  0.00     0.031 C 
ATOM     56  C   UNL A   1      45.328  33.556  29.791  1.00  0.00     0.029 A 
ATOM     57  C   UNL A   1      43.972  33.281  29.863  1.00  0.00     0.049 A 
ATOM     58  H   UNL A   1      42.955  31.487  29.421  1.00  0.00     0.167 HD
ATOM     59  C   UNL A   1      41.596  33.798  30.341  1.00  0.00     0.074 A 
ATOM     60  C   UNL A   1      40.536  34.669  30.804  1.00  0.00     0.031 C 
ATOM     61  C   UNL A   1      42.902  34.153  30.275  1.00  0.00     0.034 A 
BRANCH  48  62
ATOM     62  C   UNL A   1      46.665  29.605  28.437  1.00  0.00     0.023 A 
ATOM     63  C   UNL A   1      47.253  29.842  27.177  1.00  0.00     0.012 A 
ATOM     64  C   UNL A   1      47.430  28.996  29.451  1.00  0.00     0.148 A 
ATOM     65  C   UNL A   1      48.565  29.446  26.918  1.00  0.00     0.002 A 
ATOM     66  C   UNL A   1      48.752  28.647  29.200  1.00  0.00     0.091 A 
ATOM     67  F   UNL A   1      46.850  28.762  30.637  1.00  0.00    -0.205 F 
ATOM     68  C   UNL A   1      49.317  28.858  27.931  1.00  0.00     0.022 A 
BRANCH  66  69
ATOM     69  S   UNL A   1      49.832  27.960  30.462  1.00  0.00     0.127 S 
ATOM     70  O   UNL A   1      49.176  26.685  30.748  1.00  0.00    -0.237 OA
ATOM     71  O   UNL A   1      51.104  27.844  29.747  1.00  0.00    -0.237 OA
ATOM     72  O   UNL A   1      49.834  28.920  31.556  1.00  0.00    -0.744 OA
ENDBRANCH  66  69
ENDBRANCH  48  62
BRANCH  49  73
ATOM     73  C   UNL A   1      37.195  32.113  30.409  1.00  0.00     0.023 A 
ATOM     74  C   UNL A   1      36.712  31.851  31.706  1.00  0.00     0.012 A 
ATOM     75  C   UNL A   1      36.347  32.740  29.476  1.00  0.00     0.148 A 
ATOM     76  C   UNL A   1      35.399  32.173  32.056  1.00  0.00     0.002 A 
ATOM     77  C   UNL A   1      35.061  33.112  29.848  1.00  0.00     0.091 A 
ATOM     78  F   UNL A   1      36.823  32.974  28.244  1.00  0.00    -0.205 F 
ATOM     79  C   UNL A   1      34.579  32.812  31.131  1.00  0.00     0.022 A 
BRANCH  77  80
ATOM     80  S   UNL A   1      33.983  34.062  28.770  1.00  0.00     0.127 S 
ATOM     81  O   UNL A   1      34.897  35.076  28.251  1.00  0.00    -0.237 OA
ATOM     82  O   UNL A   1      33.564  33.052  27.797  1.00  0.00    -0.237 OA
ATOM     83  O   UNL A   1      32.909  34.554  29.622  1.00  0.00    -0.744 OA
ENDBRANCH  77  80
ENDBRANCH  49  73
BRANCH  61  84
ATOM     84  C   UNL A   1      43.264  35.561  30.676  1.00  0.00     0.023 A 
ATOM     85  C   UNL A   1      43.644  35.840  32.003  1.00  0.00     0.012 A 
ATOM     86  C   UNL A   1      43.297  36.591  29.715  1.00  0.00     0.148 A 
ATOM     87  C   UNL A   1      44.016  37.130  32.377  1.00  0.00     0.002 A 
ATOM     88  C   UNL A   1      43.719  37.862  30.084  1.00  0.00     0.091 A 
ATOM     89  F   UNL A   1      42.915  36.310  28.461  1.00  0.00    -0.205 F 
ATOM     90  C   UNL A   1      44.066  38.137  31.416  1.00  0.00     0.022 A 
BRANCH  88  91
ATOM     91  S   UNL A   1      43.909  39.197  28.895  1.00  0.00     0.127 S 
ATOM     92  O   UNL A   1      42.516  39.537  28.605  1.00  0.00    -0.237 OA
ATOM     93  O   UNL A   1      44.634  40.202  29.671  1.00  0.00    -0.237 OA
ATOM     94  O   UNL A   1      44.659  38.637  27.779  1.00  0.00    -0.744 OA
ENDBRANCH  88  91
ENDBRANCH  61  84
ENDBRANCH  35  36
ENDBRANCH  27  30
ENDBRANCH  25  26
ENDBRANCH   1  25
TORSDOF 16
ENDMDL
MODEL 2
REMARK VINA RESULT:     -11.4      1.990      2.306
REMARK SMILES CS(=O)(=O)c1ccc(/C=C(/C(=O)NCCCNC(=O)c2ccc(-c3c4nc(c(-c5cccc(S(=O)(=O)[O-])c5F)c5ccc([nH]5)c(-c5cccc(S(=O)(=O)[O-])c5F)c5nc(c(-c6cccc(S(=O)(=O)[O-])c6F)c6ccc3[nH]6)C=C5)C=C4)cc2)c2ccccc2)cc1
REMARK SMILES IDX 15 1 14 2 13 3 11 4 12 5 10 7 9 8 8 9 5 10 6 11 90 12 7 13
REMARK SMILES IDX 89 14 2 15 1 16 3 17 4 18 83 19 84 20 88 21 85 22 87 23
REMARK SMILES IDX 86 24 16 25 17 26 18 27 19 29 20 30 21 31 82 32 22 33 81 34
REMARK SMILES IDX 23 35 24 36 25 37 75 38 26 39 80 40 74 41 76 42 27 43 79 44
REMARK SMILES IDX 73 45 72 46 28 48 60 49 40 50 59 51 41 52 44 53 58 54 77 55
REMARK SMILES IDX 42 56 43 57 57 59 78 60 45 61 29 62 30 63 38 64 31 65 33 66
REMARK SMILES IDX 39 67 32 68 34 69 35 70 36 71 37 72 61 73 62 74 70 75 63 76
REMARK SMILES IDX 65 77 71 78 64 79 66 80 67 81 68 82 69 83 46 84 47 85 55 86
REMARK SMILES IDX 48 87 50 88 56 89 49 90 51 91 52 92 53 93 54 94
REMARK H PARENT 13 6 17 28 76 47 44 58
REMARK Flexibility Score: inf
ROOT
ATOM      1  C   UNL A   1      36.200  23.144  24.311  1.00  0.00     0.042 C 
ENDROOT
BRANCH   1   2
ATOM      2  C   UNL A   1      34.714  23.427  24.085  1.00  0.00     0.118 C 
BRANCH   2   3
ATOM      3  N   UNL A   1      33.958  23.213  25.304  1.00  0.00    -0.352 N 
ATOM      4  C   UNL A   1      32.972  23.893  25.943  1.00  0.00     0.251 C 
ATOM      5  O   UNL A   1      32.575  23.389  26.997  1.00  0.00    -0.269 OA
ATOM      6  H   UNL A   1      34.219  22.388  25.775  1.00  0.00     0.163 HD
BRANCH   4   7
ATOM      7  C   UNL A   1      32.302  25.130  25.386  1.00  0.00     0.047 C 
ATOM      8  C   UNL A   1      31.489  25.093  24.304  1.00  0.00     0.022 C 
BRANCH   8   9
ATOM      9  C   UNL A   1      30.659  26.171  23.714  1.00  0.00    -0.025 A 
ATOM     10  C   UNL A   1      29.046  28.328  22.893  1.00  0.00     0.067 A 
ATOM     11  C   UNL A   1      30.327  28.167  22.361  1.00  0.00     0.021 A 
ATOM     12  C   UNL A   1      28.530  27.378  23.771  1.00  0.00     0.021 A 
ATOM     13  C   UNL A   1      31.112  27.076  22.747  1.00  0.00     0.009 A 
ATOM     14  C   UNL A   1      29.339  26.308  24.178  1.00  0.00     0.009 A 
BRANCH  10  15
ATOM     15  S   UNL A   1      28.151  29.789  22.429  1.00  0.00     0.175 S 
ATOM     16  C   UNL A   1      28.739  31.121  23.433  1.00  0.00     0.163 C 
ATOM     17  O   UNL A   1      26.764  29.564  22.780  1.00  0.00    -0.224 OA
ATOM     18  O   UNL A   1      28.535  30.083  21.057  1.00  0.00    -0.224 OA
ENDBRANCH  10  15
ENDBRANCH   8   9
BRANCH   7  19
ATOM     19  C   UNL A   1      32.724  26.428  25.975  1.00  0.00    -0.013 A 
ATOM     20  C   UNL A   1      31.853  27.065  26.877  1.00  0.00     0.009 A 
ATOM     21  C   UNL A   1      33.988  26.986  25.747  1.00  0.00     0.009 A 
ATOM     22  C   UNL A   1      32.249  28.210  27.566  1.00  0.00     0.001 A 
ATOM     23  C   UNL A   1      34.390  28.125  26.455  1.00  0.00     0.001 A 
ATOM     24  C   UNL A   1      33.524  28.730  27.367  1.00  0.00     0.000 A 
ENDBRANCH   7  19
ENDBRANCH   4   7
ENDBRANCH   2   3
ENDBRANCH   1   2
BRANCH   1  25
ATOM     25  C   UNL A   1      36.583  23.031  25.788  1.00  0.00     0.118 C 
BRANCH  25  26
ATOM     26  N   UNL A   1      37.601  22.012  26.014  1.00  0.00    -0.352 N 
ATOM     27  C   UNL A   1      38.933  22.145  26.313  1.00  0.00     0.251 C 
ATOM     28  H   UNL A   1      37.282  21.083  25.941  1.00  0.00     0.163 HD
ATOM     29  O   UNL A   1      39.669  21.165  26.223  1.00  0.00    -0.269 OA
BRANCH  27  30
ATOM     30  C   UNL A   1      39.486  23.450  26.735  1.00  0.00     0.039 A 
ATOM     31  C   UNL A   1      39.481  24.512  25.826  1.00  0.00     0.014 A 
ATOM     32  C   UNL A   1      40.051  23.619  28.003  1.00  0.00     0.014 A 
ATOM     33  C   UNL A   1      39.993  25.755  26.206  1.00  0.00     0.010 A 
ATOM     34  C   UNL A   1      40.492  24.877  28.406  1.00  0.00     0.010 A 
ATOM     35  C   UNL A   1      40.477  25.956  27.510  1.00  0.00    -0.014 A 
BRANCH  35  36
ATOM     36  C   UNL A   1      40.955  27.290  27.957  1.00  0.00     0.031 A 
ATOM     37  C   UNL A   1      42.424  27.621  27.938  1.00  0.00     0.074 A 
ATOM     38  C   UNL A   1      40.072  28.176  28.460  1.00  0.00     0.049 A 
ATOM     39  N   UNL A   1      43.030  28.705  28.345  1.00  0.00    -0.248 NA
ATOM     40  C   UNL A   1      43.334  26.586  27.419  1.00  0.00     0.031 C 
ATOM     41  C   UNL A   1      38.633  27.945  28.605  1.00  0.00     0.029 A 
ATOM     42  N   UNL A   1      40.258  29.437  28.972  1.00  0.00    -0.354 N 
ATOM     43  C   UNL A   1      44.389  28.474  28.164  1.00  0.00     0.074 A 
ATOM     44  C   UNL A   1      44.521  27.130  27.643  1.00  0.00     0.031 C 
ATOM     45  C   UNL A   1      38.068  29.026  29.166  1.00  0.00     0.029 A 
ATOM     46  C   UNL A   1      39.104  30.012  29.451  1.00  0.00     0.049 A 
ATOM     47  H   UNL A   1      41.133  29.886  28.993  1.00  0.00     0.167 HD
ATOM     48  C   UNL A   1      45.431  29.311  28.384  1.00  0.00     0.034 A 
ATOM     49  C   UNL A   1      38.903  31.195  30.064  1.00  0.00     0.034 A 
ATOM     50  C   UNL A   1      45.292  30.658  28.870  1.00  0.00     0.049 A 
ATOM     51  C   UNL A   1      40.072  32.120  30.266  1.00  0.00     0.074 A 
ATOM     52  C   UNL A   1      46.277  31.614  29.048  1.00  0.00     0.029 A 
ATOM     53  N   UNL A   1      44.096  31.238  29.264  1.00  0.00    -0.354 N 
ATOM     54  N   UNL A   1      41.331  31.941  29.944  1.00  0.00    -0.248 NA
ATOM     55  C   UNL A   1      39.790  33.425  30.881  1.00  0.00     0.031 C 
ATOM     56  C   UNL A   1      45.679  32.763  29.577  1.00  0.00     0.029 A 
ATOM     57  C   UNL A   1      44.318  32.534  29.695  1.00  0.00     0.049 A 
ATOM     58  H   UNL A   1      43.219  30.793  29.242  1.00  0.00     0.167 HD
ATOM     59  C   UNL A   1      41.983  33.122  30.283  1.00  0.00     0.074 A 
ATOM     60  C   UNL A   1      40.974  34.016  30.814  1.00  0.00     0.031 C 
ATOM     61  C   UNL A   1      43.298  33.432  30.175  1.00  0.00     0.034 A 
BRANCH  48  62
ATOM     62  C   UNL A   1      46.815  28.810  28.055  1.00  0.00     0.023 A 
ATOM     63  C   UNL A   1      47.695  28.459  29.100  1.00  0.00     0.012 A 
ATOM     64  C   UNL A   1      47.225  28.630  26.720  1.00  0.00     0.148 A 
ATOM     65  C   UNL A   1      48.972  27.975  28.822  1.00  0.00     0.002 A 
ATOM     66  C   UNL A   1      48.482  28.102  26.451  1.00  0.00     0.091 A 
ATOM     67  F   UNL A   1      46.383  28.985  25.739  1.00  0.00    -0.205 F 
ATOM     68  C   UNL A   1      49.362  27.787  27.499  1.00  0.00     0.022 A 
BRANCH  66  69
ATOM     69  S   UNL A   1      49.050  27.744  24.784  1.00  0.00     0.127 S 
ATOM     70  O   UNL A   1      47.915  28.200  23.982  1.00  0.00    -0.237 OA
ATOM     71  O   UNL A   1      50.245  28.582  24.680  1.00  0.00    -0.237 OA
ATOM     72  O   UNL A   1      49.306  26.311  24.745  1.00  0.00    -0.744 OA
ENDBRANCH  66  69
ENDBRANCH  48  62
BRANCH  49  73
ATOM     73  C   UNL A   1      37.529  31.595  30.478  1.00  0.00     0.023 A 
ATOM     74  C   UNL A   1      37.090  31.318  31.787  1.00  0.00     0.012 A 
ATOM     75  C   UNL A   1      36.666  32.272  29.595  1.00  0.00     0.148 A 
ATOM     76  C   UNL A   1      35.805  31.676  32.199  1.00  0.00     0.002 A 
ATOM     77  C   UNL A   1      35.410  32.679  30.029  1.00  0.00     0.091 A 
ATOM     78  F   UNL A   1      37.098  32.520  28.351  1.00  0.00    -0.205 F 
ATOM     79  C   UNL A   1      34.970  32.365  31.324  1.00  0.00     0.022 A 
BRANCH  77  80
ATOM     80  S   UNL A   1      34.323  33.692  29.019  1.00  0.00     0.127 S 
ATOM     81  O   UNL A   1      33.368  34.183  30.008  1.00  0.00    -0.237 OA
ATOM     82  O   UNL A   1      35.247  34.700  28.499  1.00  0.00    -0.237 OA
ATOM     83  O   UNL A   1      33.781  32.797  28.005  1.00  0.00    -0.744 OA
ENDBRANCH  77  80
ENDBRANCH  49  73
BRANCH  61  84
ATOM     84  C   UNL A   1      43.727  34.812  30.602  1.00  0.00     0.023 A 
ATOM     85  C   UNL A   1      43.754  35.863  29.665  1.00  0.00     0.012 A 
ATOM     86  C   UNL A   1      44.032  35.081  31.951  1.00  0.00     0.148 A 
ATOM     87  C   UNL A   1      44.114  37.152  30.056  1.00  0.00     0.002 A 
ATOM     88  C   UNL A   1      44.339  36.378  32.343  1.00  0.00     0.091 A 
ATOM     89  F   UNL A   1      44.018  34.064  32.825  1.00  0.00    -0.205 F 
ATOM     90  C   UNL A   1      44.393  37.412  31.395  1.00  0.00     0.022 A 
BRANCH  88  91
ATOM     91  S   UNL A   1      44.616  36.825  34.061  1.00  0.00     0.127 S 
ATOM     92  O   UNL A   1      45.893  36.168  34.337  1.00  0.00    -0.237 OA
ATOM     93  O   UNL A   1      44.683  38.285  33.994  1.00  0.00    -0.237 OA
ATOM     94  O   UNL A   1      43.475  36.305  34.802  1.00  0.00    -0.744 OA
ENDBRANCH  88  91
ENDBRANCH  61  84
ENDBRANCH  35  36
ENDBRANCH  27  30
ENDBRANCH  25  26
ENDBRANCH   1  25
TORSDOF 16
ENDMDL
MODEL 3
REMARK VINA RESULT:     -11.0      5.336      8.980
REMARK SMILES CS(=O)(=O)c1ccc(/C=C(/C(=O)NCCCNC(=O)c2ccc(-c3c4nc(c(-c5cccc(S(=O)(=O)[O-])c5F)c5ccc([nH]5)c(-c5cccc(S(=O)(=O)[O-])c5F)c5nc(c(-c6cccc(S(=O)(=O)[O-])c6F)c6ccc3[nH]6)C=C5)C=C4)cc2)c2ccccc2)cc1
REMARK SMILES IDX 15 1 14 2 13 3 11 4 12 5 10 7 9 8 8 9 5 10 6 11 90 12 7 13
REMARK SMILES IDX 89 14 2 15 1 16 3 17 4 18 83 19 84 20 88 21 85 22 87 23
REMARK SMILES IDX 86 24 16 25 17 26 18 27 19 29 20 30 21 31 82 32 22 33 81 34
REMARK SMILES IDX 23 35 24 36 25 37 75 38 26 39 80 40 74 41 76 42 27 43 79 44
REMARK SMILES IDX 73 45 72 46 28 48 60 49 40 50 59 51 41 52 44 53 58 54 77 55
REMARK SMILES IDX 42 56 43 57 57 59 78 60 45 61 29 62 30 63 38 64 31 65 33 66
REMARK SMILES IDX 39 67 32 68 34 69 35 70 36 71 37 72 61 73 62 74 70 75 63 76
REMARK SMILES IDX 65 77 71 78 64 79 66 80 67 81 68 82 69 83 46 84 47 85 55 86
REMARK SMILES IDX 48 87 50 88 56 89 49 90 51 91 52 92 53 93 54 94
REMARK H PARENT 13 6 17 28 76 47 44 58
REMARK Flexibility Score: inf
ROOT
ATOM      1  C   UNL A   1      31.667  31.938  27.209  1.00  0.00     0.042 C 
ENDROOT
BRANCH   1   2
ATOM      2  C   UNL A   1      31.890  30.587  26.528  1.00  0.00     0.118 C 
BRANCH   2   3
ATOM      3  N   UNL A   1      31.060  30.463  25.346  1.00  0.00    -0.352 N 
ATOM      4  C   UNL A   1      30.854  29.485  24.427  1.00  0.00     0.251 C 
ATOM      5  O   UNL A   1      30.056  29.761  23.527  1.00  0.00    -0.269 OA
ATOM      6  H   UNL A   1      30.524  31.271  25.170  1.00  0.00     0.163 HD
BRANCH   4   7
ATOM      7  C   UNL A   1      31.459  28.101  24.517  1.00  0.00     0.047 C 
ATOM      8  C   UNL A   1      31.776  27.521  25.699  1.00  0.00     0.022 C 
BRANCH   8   9
ATOM      9  C   UNL A   1      32.246  26.142  25.974  1.00  0.00    -0.025 A 
ATOM     10  C   UNL A   1      32.940  23.428  26.259  1.00  0.00     0.067 A 
ATOM     11  C   UNL A   1      33.927  24.383  26.004  1.00  0.00     0.021 A 
ATOM     12  C   UNL A   1      31.619  23.824  26.454  1.00  0.00     0.021 A 
ATOM     13  C   UNL A   1      33.582  25.733  25.896  1.00  0.00     0.009 A 
ATOM     14  C   UNL A   1      31.279  25.176  26.307  1.00  0.00     0.009 A 
BRANCH  10  15
ATOM     15  S   UNL A   1      33.443  21.726  26.286  1.00  0.00     0.175 S 
ATOM     16  C   UNL A   1      34.827  21.558  25.198  1.00  0.00     0.163 C 
ATOM     17  O   UNL A   1      32.355  20.954  25.722  1.00  0.00    -0.224 OA
ATOM     18  O   UNL A   1      33.922  21.464  27.634  1.00  0.00    -0.224 OA
ENDBRANCH  10  15
ENDBRANCH   8   9
BRANCH   7  19
ATOM     19  C   UNL A   1      31.860  27.473  23.231  1.00  0.00    -0.013 A 
ATOM     20  C   UNL A   1      33.182  27.653  22.785  1.00  0.00     0.009 A 
ATOM     21  C   UNL A   1      31.009  26.633  22.502  1.00  0.00     0.009 A 
ATOM     22  C   UNL A   1      33.657  26.979  21.662  1.00  0.00     0.001 A 
ATOM     23  C   UNL A   1      31.494  25.943  21.385  1.00  0.00     0.001 A 
ATOM     24  C   UNL A   1      32.817  26.110  20.972  1.00  0.00     0.000 A 
ENDBRANCH   7  19
ENDBRANCH   4   7
ENDBRANCH   2   3
ENDBRANCH   1   2
BRANCH   1  25
ATOM     25  C   UNL A   1      32.712  32.991  26.834  1.00  0.00     0.118 C 
BRANCH  25  26
ATOM     26  N   UNL A   1      32.526  34.234  27.572  1.00  0.00    -0.352 N 
ATOM     27  C   UNL A   1      33.094  34.657  28.748  1.00  0.00     0.251 C 
ATOM     28  H   UNL A   1      31.895  34.870  27.164  1.00  0.00     0.163 HD
ATOM     29  O   UNL A   1      32.620  35.633  29.326  1.00  0.00    -0.269 OA
BRANCH  27  30
ATOM     30  C   UNL A   1      34.260  33.952  29.321  1.00  0.00     0.039 A 
ATOM     31  C   UNL A   1      35.545  34.416  29.023  1.00  0.00     0.014 A 
ATOM     32  C   UNL A   1      34.096  32.811  30.112  1.00  0.00     0.014 A 
ATOM     33  C   UNL A   1      36.660  33.768  29.559  1.00  0.00     0.010 A 
ATOM     34  C   UNL A   1      35.204  32.212  30.706  1.00  0.00     0.010 A 
ATOM     35  C   UNL A   1      36.499  32.677  30.430  1.00  0.00    -0.014 A 
BRANCH  35  36
ATOM     36  C   UNL A   1      37.669  32.023  31.070  1.00  0.00     0.031 A 
ATOM     37  C   UNL A   1      38.460  30.978  30.328  1.00  0.00     0.074 A 
ATOM     38  C   UNL A   1      37.968  32.309  32.354  1.00  0.00     0.049 A 
ATOM     39  N   UNL A   1      39.470  30.260  30.745  1.00  0.00    -0.248 NA
ATOM     40  C   UNL A   1      38.046  30.684  28.946  1.00  0.00     0.031 C 
ATOM     41  C   UNL A   1      37.229  33.245  33.204  1.00  0.00     0.029 A 
ATOM     42  N   UNL A   1      38.953  31.820  33.176  1.00  0.00    -0.354 N 
ATOM     43  C   UNL A   1      39.790  29.407  29.695  1.00  0.00     0.074 A 
ATOM     44  C   UNL A   1      38.844  29.673  28.633  1.00  0.00     0.031 C 
ATOM     45  C   UNL A   1      37.786  33.263  34.426  1.00  0.00     0.029 A 
ATOM     46  C   UNL A   1      38.898  32.319  34.457  1.00  0.00     0.049 A 
ATOM     47  H   UNL A   1      39.633  31.175  32.877  1.00  0.00     0.167 HD
ATOM     48  C   UNL A   1      40.797  28.504  29.609  1.00  0.00     0.034 A 
ATOM     49  C   UNL A   1      39.649  32.038  35.540  1.00  0.00     0.034 A 
ATOM     50  C   UNL A   1      41.756  28.267  30.654  1.00  0.00     0.049 A 
ATOM     51  C   UNL A   1      40.780  31.056  35.408  1.00  0.00     0.074 A 
ATOM     52  C   UNL A   1      42.862  27.435  30.635  1.00  0.00     0.029 A 
ATOM     53  N   UNL A   1      41.720  28.855  31.910  1.00  0.00    -0.354 N 
ATOM     54  N   UNL A   1      41.162  30.374  34.356  1.00  0.00    -0.248 NA
ATOM     55  C   UNL A   1      41.609  30.833  36.602  1.00  0.00     0.031 C 
ATOM     56  C   UNL A   1      43.478  27.498  31.889  1.00  0.00     0.029 A 
ATOM     57  C   UNL A   1      42.777  28.396  32.678  1.00  0.00     0.049 A 
ATOM     58  H   UNL A   1      41.043  29.502  32.211  1.00  0.00     0.167 HD
ATOM     59  C   UNL A   1      42.295  29.669  34.748  1.00  0.00     0.074 A 
ATOM     60  C   UNL A   1      42.549  30.026  36.129  1.00  0.00     0.031 C 
ATOM     61  C   UNL A   1      43.048  28.797  34.035  1.00  0.00     0.034 A 
BRANCH  48  62
ATOM     62  C   UNL A   1      40.942  27.736  28.319  1.00  0.00     0.023 A 
ATOM     63  C   UNL A   1      41.560  28.350  27.210  1.00  0.00     0.012 A 
ATOM     64  C   UNL A   1      40.525  26.394  28.220  1.00  0.00     0.148 A 
ATOM     65  C   UNL A   1      41.725  27.655  26.012  1.00  0.00     0.002 A 
ATOM     66  C   UNL A   1      40.735  25.694  27.038  1.00  0.00     0.091 A 
ATOM     67  F   UNL A   1      39.923  25.832  29.278  1.00  0.00    -0.205 F 
ATOM     68  C   UNL A   1      41.322  26.325  25.930  1.00  0.00     0.022 A 
BRANCH  66  69
ATOM     69  S   UNL A   1      40.328  23.953  26.855  1.00  0.00     0.127 S 
ATOM     70  O   UNL A   1      41.237  23.548  25.784  1.00  0.00    -0.237 OA
ATOM     71  O   UNL A   1      40.665  23.419  28.176  1.00  0.00    -0.237 OA
ATOM     72  O   UNL A   1      38.911  23.904  26.524  1.00  0.00    -0.744 OA
ENDBRANCH  66  69
ENDBRANCH  48  62
BRANCH  49  73
ATOM     73  C   UNL A   1      39.388  32.740  36.828  1.00  0.00     0.023 A 
ATOM     74  C   UNL A   1      40.093  33.921  37.130  1.00  0.00     0.012 A 
ATOM     75  C   UNL A   1      38.427  32.263  37.741  1.00  0.00     0.148 A 
ATOM     76  C   UNL A   1      39.872  34.595  38.333  1.00  0.00     0.002 A 
ATOM     77  C   UNL A   1      38.169  32.970  38.909  1.00  0.00     0.091 A 
ATOM     78  F   UNL A   1      37.773  31.133  37.439  1.00  0.00    -0.205 F 
ATOM     79  C   UNL A   1      38.904  34.125  39.216  1.00  0.00     0.022 A 
BRANCH  77  80
ATOM     80  S   UNL A   1      36.846  32.518  40.036  1.00  0.00     0.127 S 
ATOM     81  O   UNL A   1      37.278  31.200  40.492  1.00  0.00    -0.237 OA
ATOM     82  O   UNL A   1      36.932  33.578  41.042  1.00  0.00    -0.237 OA
ATOM     83  O   UNL A   1      35.625  32.545  39.241  1.00  0.00    -0.744 OA
ENDBRANCH  77  80
ENDBRANCH  49  73
BRANCH  61  84
ATOM     84  C   UNL A   1      44.249  28.192  34.715  1.00  0.00     0.023 A 
ATOM     85  C   UNL A   1      45.485  28.867  34.695  1.00  0.00     0.012 A 
ATOM     86  C   UNL A   1      44.131  26.988  35.437  1.00  0.00     0.148 A 
ATOM     87  C   UNL A   1      46.593  28.336  35.352  1.00  0.00     0.002 A 
ATOM     88  C   UNL A   1      45.226  26.491  36.132  1.00  0.00     0.091 A 
ATOM     89  F   UNL A   1      42.951  26.350  35.429  1.00  0.00    -0.205 F 
ATOM     90  C   UNL A   1      46.461  27.155  36.080  1.00  0.00     0.022 A 
BRANCH  88  91
ATOM     91  S   UNL A   1      45.123  25.032  37.176  1.00  0.00     0.127 S 
ATOM     92  O   UNL A   1      46.494  24.927  37.676  1.00  0.00    -0.237 OA
ATOM     93  O   UNL A   1      44.137  25.437  38.178  1.00  0.00    -0.237 OA
ATOM     94  O   UNL A   1      44.693  23.945  36.307  1.00  0.00    -0.744 OA
ENDBRANCH  88  91
ENDBRANCH  61  84
ENDBRANCH  35  36
ENDBRANCH  27  30
ENDBRANCH  25  26
ENDBRANCH   1  25
TORSDOF 16
ENDMDL
