MODEL 1
REMARK VINA RESULT:     -13.2      0.000      0.000
REMARK SMILES Cc1[nH]c2c(C(=O)N3CC[C@H](O)C[C@@H]3C(=O)NCCCNC(=O)c3ccc(-c4c5nc(c(-c6cccc(S(=O)(=O)[O-])c6F)c6ccc([nH]6)c(-c6cccc(S(=O)(=O)[O-])c6F)c6nc(c(-c7cccc(S(=O)(=O)[O-])c7F)c7ccc4[nH]7)C=C6)C=C5)cc3)cccc2c1C
REMARK SMILES IDX 19 1 18 2 17 3 15 4 16 5 14 7 8 8 9 9 10 10 13 11 11 12 6 13
REMARK SMILES IDX 7 14 5 15 1 16 2 17 3 18 91 19 4 20 90 22 92 23 89 24 87 25
REMARK SMILES IDX 88 26 12 27 20 29 21 30 22 31 23 33 24 34 25 35 86 36 26 37
REMARK SMILES IDX 85 38 27 39 28 40 29 41 79 42 30 43 84 44 78 45 80 46 31 47
REMARK SMILES IDX 83 48 77 49 76 50 32 52 64 53 44 54 63 55 45 56 48 57 62 58
REMARK SMILES IDX 81 59 46 60 47 61 61 63 82 64 49 65 33 66 34 67 42 68 35 69
REMARK SMILES IDX 37 70 43 71 36 72 38 73 39 74 40 75 41 76 65 77 66 78 74 79
REMARK SMILES IDX 67 80 69 81 75 82 68 83 70 84 71 85 72 86 73 87 50 88 51 89
REMARK SMILES IDX 59 90 52 91 54 92 60 93 53 94 55 95 56 96 57 97 58 98
REMARK H PARENT 17 6 3 21 12 28 21 32 80 51 48 62
REMARK Flexibility Score: inf
ROOT
ATOM      1  C   UNL A   1      31.966  28.152  26.375  1.00  0.00     0.042 C 
ENDROOT
BRANCH   1   2
ATOM      2  C   UNL A   1      32.609  26.778  26.299  1.00  0.00     0.117 C 
BRANCH   2   3
ATOM      3  N   UNL A   1      31.796  25.726  26.884  1.00  0.00    -0.354 N 
ATOM      4  C   UNL A   1      31.682  24.402  26.590  1.00  0.00     0.242 C 
ATOM      5  O   UNL A   1      30.681  23.841  27.059  1.00  0.00    -0.273 OA
ATOM      6  H   UNL A   1      31.225  26.024  27.629  1.00  0.00     0.163 HD
BRANCH   4   7
ATOM      7  C   UNL A   1      32.647  23.596  25.673  1.00  0.00     0.177 C 
ATOM      8  N   UNL A   1      32.071  22.585  24.777  1.00  0.00    -0.326 N 
ATOM      9  C   UNL A   1      32.175  21.163  25.110  1.00  0.00     0.123 C 
ATOM     10  C   UNL A   1      32.960  20.757  26.374  1.00  0.00     0.053 C 
ATOM     11  C   UNL A   1      33.905  23.112  26.379  1.00  0.00     0.067 C 
ATOM     12  C   UNL A   1      33.645  21.860  27.182  1.00  0.00     0.118 C 
BRANCH   8  13
ATOM     13  C   UNL A   1      32.009  22.918  23.419  1.00  0.00     0.256 C 
ATOM     14  O   UNL A   1      31.859  22.081  22.532  1.00  0.00    -0.269 OA
BRANCH  13  15
ATOM     15  C   UNL A   1      32.172  24.337  23.029  1.00  0.00     0.064 A 
ATOM     16  C   UNL A   1      27.791  26.475  24.113  1.00  0.00     0.064 C 
ATOM     17  C   UNL A   1      29.212  26.352  23.693  1.00  0.00     0.016 A 
ATOM     18  N   UNL A   1      29.869  25.148  23.696  1.00  0.00    -0.358 N 
ATOM     19  C   UNL A   1      30.106  27.316  23.266  1.00  0.00    -0.023 A 
ATOM     20  C   UNL A   1      31.148  25.284  23.215  1.00  0.00     0.059 A 
ATOM     21  H   UNL A   1      29.476  24.300  24.004  1.00  0.00     0.166 HD
ATOM     22  C   UNL A   1      31.343  26.647  22.987  1.00  0.00     0.003 A 
ATOM     23  C   UNL A   1      29.846  28.777  23.143  1.00  0.00     0.047 C 
ATOM     24  C   UNL A   1      32.619  27.090  22.580  1.00  0.00     0.010 A 
ATOM     25  C   UNL A   1      33.437  24.808  22.652  1.00  0.00     0.016 A 
ATOM     26  C   UNL A   1      33.657  26.165  22.426  1.00  0.00     0.002 A 
ENDBRANCH  13  15
ENDBRANCH   8  13
BRANCH  12  27
ATOM     27  O   UNL A   1      32.851  22.183  28.317  1.00  0.00    -0.393 OA
ATOM     28  H   UNL A   1      32.164  21.508  28.434  1.00  0.00     0.210 HD
ENDBRANCH  12  27
ENDBRANCH   4   7
ENDBRANCH   2   3
ENDBRANCH   1   2
BRANCH   1  29
ATOM     29  C   UNL A   1      32.798  29.237  25.717  1.00  0.00     0.118 C 
BRANCH  29  30
ATOM     30  N   UNL A   1      32.405  30.583  26.123  1.00  0.00    -0.352 N 
ATOM     31  C   UNL A   1      32.987  31.480  26.987  1.00  0.00     0.251 C 
ATOM     32  H   UNL A   1      31.575  30.908  25.702  1.00  0.00     0.163 HD
ATOM     33  O   UNL A   1      32.384  32.509  27.287  1.00  0.00    -0.269 OA
BRANCH  31  34
ATOM     34  C   UNL A   1      34.307  31.195  27.583  1.00  0.00     0.039 A 
ATOM     35  C   UNL A   1      35.241  32.226  27.714  1.00  0.00     0.014 A 
ATOM     36  C   UNL A   1      34.620  29.913  28.028  1.00  0.00     0.014 A 
ATOM     37  C   UNL A   1      36.450  31.987  28.375  1.00  0.00     0.010 A 
ATOM     38  C   UNL A   1      35.749  29.714  28.808  1.00  0.00     0.010 A 
ATOM     39  C   UNL A   1      36.690  30.740  28.971  1.00  0.00    -0.014 A 
BRANCH  39  40
ATOM     40  C   UNL A   1      37.927  30.445  29.738  1.00  0.00     0.031 A 
ATOM     41  C   UNL A   1      38.959  29.520  29.142  1.00  0.00     0.074 A 
ATOM     42  C   UNL A   1      38.061  30.890  31.003  1.00  0.00     0.049 A 
ATOM     43  N   UNL A   1      40.010  28.983  29.702  1.00  0.00    -0.248 NA
ATOM     44  C   UNL A   1      38.745  29.093  27.747  1.00  0.00     0.031 C 
ATOM     45  C   UNL A   1      37.088  31.714  31.724  1.00  0.00     0.029 A 
ATOM     46  N   UNL A   1      39.060  30.683  31.921  1.00  0.00    -0.354 N 
ATOM     47  C   UNL A   1      40.533  28.105  28.759  1.00  0.00     0.074 A 
ATOM     48  C   UNL A   1      39.659  28.146  27.610  1.00  0.00     0.031 C 
ATOM     49  C   UNL A   1      37.543  31.953  32.964  1.00  0.00     0.029 A 
ATOM     50  C   UNL A   1      38.821  31.273  33.141  1.00  0.00     0.049 A 
ATOM     51  H   UNL A   1      39.872  30.162  31.725  1.00  0.00     0.167 HD
ATOM     52  C   UNL A   1      41.662  27.362  28.825  1.00  0.00     0.034 A 
ATOM     53  C   UNL A   1      39.552  31.262  34.273  1.00  0.00     0.034 A 
ATOM     54  C   UNL A   1      42.581  27.413  29.928  1.00  0.00     0.049 A 
ATOM     55  C   UNL A   1      40.864  30.525  34.279  1.00  0.00     0.074 A 
ATOM     56  C   UNL A   1      43.812  26.798  30.052  1.00  0.00     0.029 A 
ATOM     57  N   UNL A   1      42.374  28.142  31.088  1.00  0.00    -0.354 N 
ATOM     58  N   UNL A   1      41.414  29.815  33.322  1.00  0.00    -0.248 NA
ATOM     59  C   UNL A   1      41.675  30.615  35.501  1.00  0.00     0.031 C 
ATOM     60  C   UNL A   1      44.352  27.156  31.292  1.00  0.00     0.029 A 
ATOM     61  C   UNL A   1      43.459  28.004  31.931  1.00  0.00     0.049 A 
ATOM     62  H   UNL A   1      41.572  28.680  31.282  1.00  0.00     0.167 HD
ATOM     63  C   UNL A   1      42.650  29.409  33.812  1.00  0.00     0.074 A 
ATOM     64  C   UNL A   1      42.775  29.966  35.143  1.00  0.00     0.031 C 
ATOM     65  C   UNL A   1      43.590  28.630  33.221  1.00  0.00     0.034 A 
BRANCH  52  66
ATOM     66  C   UNL A   1      42.002  26.498  27.637  1.00  0.00     0.023 A 
ATOM     67  C   UNL A   1      42.688  27.063  26.542  1.00  0.00     0.012 A 
ATOM     68  C   UNL A   1      41.675  25.129  27.615  1.00  0.00     0.148 A 
ATOM     69  C   UNL A   1      43.003  26.292  25.424  1.00  0.00     0.002 A 
ATOM     70  C   UNL A   1      42.035  24.355  26.517  1.00  0.00     0.091 A 
ATOM     71  F   UNL A   1      41.002  24.613  28.654  1.00  0.00    -0.205 F 
ATOM     72  C   UNL A   1      42.684  24.937  25.416  1.00  0.00     0.022 A 
BRANCH  70  73
ATOM     73  S   UNL A   1      41.742  22.584  26.443  1.00  0.00     0.127 S 
ATOM     74  O   UNL A   1      40.281  22.527  26.398  1.00  0.00    -0.237 OA
ATOM     75  O   UNL A   1      42.404  22.213  25.193  1.00  0.00    -0.237 OA
ATOM     76  O   UNL A   1      42.355  22.028  27.641  1.00  0.00    -0.744 OA
ENDBRANCH  70  73
ENDBRANCH  52  66
BRANCH  53  77
ATOM     77  C   UNL A   1      39.107  32.054  35.456  1.00  0.00     0.023 A 
ATOM     78  C   UNL A   1      39.325  33.446  35.467  1.00  0.00     0.012 A 
ATOM     79  C   UNL A   1      38.442  31.455  36.543  1.00  0.00     0.148 A 
ATOM     80  C   UNL A   1      38.919  34.223  36.553  1.00  0.00     0.002 A 
ATOM     81  C   UNL A   1      37.995  32.243  37.600  1.00  0.00     0.091 A 
ATOM     82  F   UNL A   1      38.252  30.129  36.521  1.00  0.00    -0.205 F 
ATOM     83  C   UNL A   1      38.246  33.624  37.613  1.00  0.00     0.022 A 
BRANCH  81  84
ATOM     84  S   UNL A   1      37.006  31.577  38.944  1.00  0.00     0.127 S 
ATOM     85  O   UNL A   1      35.830  32.442  38.909  1.00  0.00    -0.237 OA
ATOM     86  O   UNL A   1      36.773  30.202  38.499  1.00  0.00    -0.237 OA
ATOM     87  O   UNL A   1      37.841  31.685  40.134  1.00  0.00    -0.744 OA
ENDBRANCH  81  84
ENDBRANCH  53  77
BRANCH  65  88
ATOM     88  C   UNL A   1      44.860  28.367  33.983  1.00  0.00     0.023 A 
ATOM     89  C   UNL A   1      45.930  29.277  33.889  1.00  0.00     0.012 A 
ATOM     90  C   UNL A   1      44.949  27.274  34.867  1.00  0.00     0.148 A 
ATOM     91  C   UNL A   1      47.084  29.089  34.649  1.00  0.00     0.002 A 
ATOM     92  C   UNL A   1      46.083  27.120  35.656  1.00  0.00     0.091 A 
ATOM     93  F   UNL A   1      43.925  26.411  34.924  1.00  0.00    -0.205 F 
ATOM     94  C   UNL A   1      47.155  28.021  35.541  1.00  0.00     0.022 A 
BRANCH  92  95
ATOM     95  S   UNL A   1      46.215  25.832  36.901  1.00  0.00     0.127 S 
ATOM     96  O   UNL A   1      45.064  26.123  37.754  1.00  0.00    -0.237 OA
ATOM     97  O   UNL A   1      46.089  24.612  36.102  1.00  0.00    -0.237 OA
ATOM     98  O   UNL A   1      47.520  26.011  37.524  1.00  0.00    -0.744 OA
ENDBRANCH  92  95
ENDBRANCH  65  88
ENDBRANCH  39  40
ENDBRANCH  31  34
ENDBRANCH  29  30
ENDBRANCH   1  29
TORSDOF 16
ENDMDL
MODEL 2
REMARK VINA RESULT:     -13.1      1.484      7.568
REMARK SMILES Cc1[nH]c2c(C(=O)N3CC[C@H](O)C[C@@H]3C(=O)NCCCNC(=O)c3ccc(-c4c5nc(c(-c6cccc(S(=O)(=O)[O-])c6F)c6ccc([nH]6)c(-c6cccc(S(=O)(=O)[O-])c6F)c6nc(c(-c7cccc(S(=O)(=O)[O-])c7F)c7ccc4[nH]7)C=C6)C=C5)cc3)cccc2c1C
REMARK SMILES IDX 19 1 18 2 17 3 15 4 16 5 14 7 8 8 9 9 10 10 13 11 11 12 6 13
REMARK SMILES IDX 7 14 5 15 1 16 2 17 3 18 91 19 4 20 90 22 92 23 89 24 87 25
REMARK SMILES IDX 88 26 12 27 20 29 21 30 22 31 23 33 24 34 25 35 86 36 26 37
REMARK SMILES IDX 85 38 27 39 28 40 29 41 79 42 30 43 84 44 78 45 80 46 31 47
REMARK SMILES IDX 83 48 77 49 76 50 32 52 64 53 44 54 63 55 45 56 48 57 62 58
REMARK SMILES IDX 81 59 46 60 47 61 61 63 82 64 49 65 33 66 34 67 42 68 35 69
REMARK SMILES IDX 37 70 43 71 36 72 38 73 39 74 40 75 41 76 65 77 66 78 74 79
REMARK SMILES IDX 67 80 69 81 75 82 68 83 70 84 71 85 72 86 73 87 50 88 51 89
REMARK SMILES IDX 59 90 52 91 54 92 60 93 53 94 55 95 56 96 57 97 58 98
REMARK H PARENT 17 6 3 21 12 28 21 32 80 51 48 62
REMARK Flexibility Score: inf
ROOT
ATOM      1  C   UNL A   1      31.921  28.843  26.526  1.00  0.00     0.042 C 
ENDROOT
BRANCH   1   2
ATOM      2  C   UNL A   1      32.535  27.453  26.509  1.00  0.00     0.117 C 
BRANCH   2   3
ATOM      3  N   UNL A   1      31.578  26.395  26.785  1.00  0.00    -0.354 N 
ATOM      4  C   UNL A   1      31.493  25.113  26.336  1.00  0.00     0.242 C 
ATOM      5  O   UNL A   1      30.395  24.564  26.509  1.00  0.00    -0.273 OA
ATOM      6  H   UNL A   1      30.862  26.651  27.411  1.00  0.00     0.163 HD
BRANCH   4   7
ATOM      7  C   UNL A   1      32.615  24.348  25.577  1.00  0.00     0.177 C 
ATOM      8  N   UNL A   1      32.230  23.488  24.451  1.00  0.00    -0.326 N 
ATOM      9  C   UNL A   1      32.189  22.033  24.617  1.00  0.00     0.123 C 
ATOM     10  C   UNL A   1      32.627  21.433  25.969  1.00  0.00     0.053 C 
ATOM     11  C   UNL A   1      33.643  23.699  26.492  1.00  0.00     0.067 C 
ATOM     12  C   UNL A   1      33.143  22.386  27.046  1.00  0.00     0.118 C 
BRANCH   8  13
ATOM     13  C   UNL A   1      32.513  23.974  23.169  1.00  0.00     0.256 C 
ATOM     14  O   UNL A   1      32.839  23.246  22.235  1.00  0.00    -0.269 OA
BRANCH  13  15
ATOM     15  C   UNL A   1      32.456  25.435  22.937  1.00  0.00     0.064 A 
ATOM     16  C   UNL A   1      27.717  26.701  23.876  1.00  0.00     0.064 C 
ATOM     17  C   UNL A   1      29.162  26.857  23.561  1.00  0.00     0.016 A 
ATOM     18  N   UNL A   1      30.013  25.782  23.496  1.00  0.00    -0.358 N 
ATOM     19  C   UNL A   1      29.904  27.995  23.305  1.00  0.00    -0.023 A 
ATOM     20  C   UNL A   1      31.277  26.177  23.135  1.00  0.00     0.059 A 
ATOM     21  H   UNL A   1      29.751  24.853  23.685  1.00  0.00     0.166 HD
ATOM     22  C   UNL A   1      31.252  27.571  23.061  1.00  0.00     0.003 A 
ATOM     23  C   UNL A   1      29.408  29.398  23.309  1.00  0.00     0.047 C 
ATOM     24  C   UNL A   1      32.457  28.257  22.803  1.00  0.00     0.010 A 
ATOM     25  C   UNL A   1      33.644  26.145  22.712  1.00  0.00     0.016 A 
ATOM     26  C   UNL A   1      33.645  27.536  22.641  1.00  0.00     0.002 A 
ENDBRANCH  13  15
ENDBRANCH   8  13
BRANCH  12  27
ATOM     27  O   UNL A   1      32.112  22.637  27.996  1.00  0.00    -0.393 OA
ATOM     28  H   UNL A   1      32.347  23.412  28.529  1.00  0.00     0.210 HD
ENDBRANCH  12  27
ENDBRANCH   4   7
ENDBRANCH   2   3
ENDBRANCH   1   2
BRANCH   1  29
ATOM     29  C   UNL A   1      32.761  29.874  25.794  1.00  0.00     0.118 C 
BRANCH  29  30
ATOM     30  N   UNL A   1      32.581  31.227  26.311  1.00  0.00    -0.352 N 
ATOM     31  C   UNL A   1      33.286  31.946  27.246  1.00  0.00     0.251 C 
ATOM     32  H   UNL A   1      31.818  31.713  25.919  1.00  0.00     0.163 HD
ATOM     33  O   UNL A   1      32.850  33.030  27.630  1.00  0.00    -0.269 OA
BRANCH  31  34
ATOM     34  C   UNL A   1      34.537  31.407  27.816  1.00  0.00     0.039 A 
ATOM     35  C   UNL A   1      35.629  32.257  28.008  1.00  0.00     0.014 A 
ATOM     36  C   UNL A   1      34.628  30.065  28.176  1.00  0.00     0.014 A 
ATOM     37  C   UNL A   1      36.776  31.777  28.646  1.00  0.00     0.010 A 
ATOM     38  C   UNL A   1      35.703  29.631  28.937  1.00  0.00     0.010 A 
ATOM     39  C   UNL A   1      36.802  30.472  29.160  1.00  0.00    -0.014 A 
BRANCH  39  40
ATOM     40  C   UNL A   1      37.968  29.926  29.901  1.00  0.00     0.031 A 
ATOM     41  C   UNL A   1      38.218  30.382  31.316  1.00  0.00     0.074 A 
ATOM     42  C   UNL A   1      38.861  29.139  29.271  1.00  0.00     0.049 A 
ATOM     43  N   UNL A   1      39.263  30.184  32.077  1.00  0.00    -0.248 NA
ATOM     44  C   UNL A   1      37.182  31.228  31.938  1.00  0.00     0.031 C 
ATOM     45  C   UNL A   1      38.779  28.705  27.874  1.00  0.00     0.029 A 
ATOM     46  N   UNL A   1      40.037  28.588  29.716  1.00  0.00    -0.354 N 
ATOM     47  C   UNL A   1      39.041  30.937  33.224  1.00  0.00     0.074 A 
ATOM     48  C   UNL A   1      37.788  31.631  33.043  1.00  0.00     0.031 C 
ATOM     49  C   UNL A   1      39.848  27.947  27.582  1.00  0.00     0.029 A 
ATOM     50  C   UNL A   1      40.710  27.868  28.756  1.00  0.00     0.049 A 
ATOM     51  H   UNL A   1      40.368  28.699  30.637  1.00  0.00     0.167 HD
ATOM     52  C   UNL A   1      39.791  31.012  34.349  1.00  0.00     0.034 A 
ATOM     53  C   UNL A   1      41.889  27.219  28.820  1.00  0.00     0.034 A 
ATOM     54  C   UNL A   1      40.978  30.232  34.562  1.00  0.00     0.049 A 
ATOM     55  C   UNL A   1      42.645  27.221  30.121  1.00  0.00     0.074 A 
ATOM     56  C   UNL A   1      41.752  30.135  35.703  1.00  0.00     0.029 A 
ATOM     57  N   UNL A   1      41.548  29.395  33.615  1.00  0.00    -0.354 N 
ATOM     58  N   UNL A   1      42.346  27.823  31.247  1.00  0.00    -0.248 NA
ATOM     59  C   UNL A   1      43.879  26.425  30.176  1.00  0.00     0.031 C 
ATOM     60  C   UNL A   1      42.793  29.237  35.445  1.00  0.00     0.029 A 
ATOM     61  C   UNL A   1      42.658  28.768  34.147  1.00  0.00     0.049 A 
ATOM     62  H   UNL A   1      41.211  29.266  32.698  1.00  0.00     0.167 HD
ATOM     63  C   UNL A   1      43.330  27.448  32.154  1.00  0.00     0.074 A 
ATOM     64  C   UNL A   1      44.226  26.552  31.451  1.00  0.00     0.031 C 
ATOM     65  C   UNL A   1      43.490  27.824  33.447  1.00  0.00     0.034 A 
BRANCH  52  66
ATOM     66  C   UNL A   1      39.302  31.905  35.459  1.00  0.00     0.023 A 
ATOM     67  C   UNL A   1      38.347  31.417  36.374  1.00  0.00     0.012 A 
ATOM     68  C   UNL A   1      39.805  33.211  35.618  1.00  0.00     0.148 A 
ATOM     69  C   UNL A   1      37.866  32.225  37.402  1.00  0.00     0.002 A 
ATOM     70  C   UNL A   1      39.356  33.996  36.675  1.00  0.00     0.091 A 
ATOM     71  F   UNL A   1      40.695  33.668  34.726  1.00  0.00    -0.205 F 
ATOM     72  C   UNL A   1      38.376  33.511  37.558  1.00  0.00     0.022 A 
BRANCH  70  73
ATOM     73  S   UNL A   1      40.010  35.635  37.009  1.00  0.00     0.127 S 
ATOM     74  O   UNL A   1      39.327  35.978  38.256  1.00  0.00    -0.237 OA
ATOM     75  O   UNL A   1      41.442  35.373  37.151  1.00  0.00    -0.237 OA
ATOM     76  O   UNL A   1      39.655  36.450  35.855  1.00  0.00    -0.744 OA
ENDBRANCH  70  73
ENDBRANCH  52  66
BRANCH  53  77
ATOM     77  C   UNL A   1      42.374  26.437  27.647  1.00  0.00     0.023 A 
ATOM     78  C   UNL A   1      43.205  27.070  26.700  1.00  0.00     0.012 A 
ATOM     79  C   UNL A   1      42.057  25.075  27.479  1.00  0.00     0.148 A 
ATOM     80  C   UNL A   1      43.684  26.370  25.592  1.00  0.00     0.002 A 
ATOM     81  C   UNL A   1      42.580  24.371  26.398  1.00  0.00     0.091 A 
ATOM     82  F   UNL A   1      41.259  24.492  28.383  1.00  0.00    -0.205 F 
ATOM     83  C   UNL A   1      43.380  25.021  25.446  1.00  0.00     0.022 A 
BRANCH  81  84
ATOM     84  S   UNL A   1      42.348  22.600  26.202  1.00  0.00     0.127 S 
ATOM     85  O   UNL A   1      42.944  22.081  27.431  1.00  0.00    -0.237 OA
ATOM     86  O   UNL A   1      40.890  22.490  26.131  1.00  0.00    -0.237 OA
ATOM     87  O   UNL A   1      43.033  22.250  24.965  1.00  0.00    -0.744 OA
ENDBRANCH  81  84
ENDBRANCH  53  77
BRANCH  65  88
ATOM     88  C   UNL A   1      44.647  27.236  34.208  1.00  0.00     0.023 A 
ATOM     89  C   UNL A   1      45.909  27.855  34.145  1.00  0.00     0.012 A 
ATOM     90  C   UNL A   1      44.453  26.133  35.062  1.00  0.00     0.148 A 
ATOM     91  C   UNL A   1      46.972  27.369  34.906  1.00  0.00     0.002 A 
ATOM     92  C   UNL A   1      45.503  25.684  35.852  1.00  0.00     0.091 A 
ATOM     93  F   UNL A   1      43.247  25.548  35.090  1.00  0.00    -0.205 F 
ATOM     94  C   UNL A   1      46.766  26.295  35.769  1.00  0.00     0.022 A 
BRANCH  92  95
ATOM     95  S   UNL A   1      45.299  24.372  37.062  1.00  0.00     0.127 S 
ATOM     96  O   UNL A   1      44.923  23.241  36.215  1.00  0.00    -0.237 OA
ATOM     97  O   UNL A   1      46.637  24.276  37.648  1.00  0.00    -0.237 OA
ATOM     98  O   UNL A   1      44.270  24.835  37.984  1.00  0.00    -0.744 OA
ENDBRANCH  92  95
ENDBRANCH  65  88
ENDBRANCH  39  40
ENDBRANCH  31  34
ENDBRANCH  29  30
ENDBRANCH   1  29
TORSDOF 16
ENDMDL
MODEL 3
REMARK VINA RESULT:     -13.0      5.036      9.881
REMARK SMILES Cc1[nH]c2c(C(=O)N3CC[C@H](O)C[C@@H]3C(=O)NCCCNC(=O)c3ccc(-c4c5nc(c(-c6cccc(S(=O)(=O)[O-])c6F)c6ccc([nH]6)c(-c6cccc(S(=O)(=O)[O-])c6F)c6nc(c(-c7cccc(S(=O)(=O)[O-])c7F)c7ccc4[nH]7)C=C6)C=C5)cc3)cccc2c1C
REMARK SMILES IDX 19 1 18 2 17 3 15 4 16 5 14 7 8 8 9 9 10 10 13 11 11 12 6 13
REMARK SMILES IDX 7 14 5 15 1 16 2 17 3 18 91 19 4 20 90 22 92 23 89 24 87 25
REMARK SMILES IDX 88 26 12 27 20 29 21 30 22 31 23 33 24 34 25 35 86 36 26 37
REMARK SMILES IDX 85 38 27 39 28 40 29 41 79 42 30 43 84 44 78 45 80 46 31 47
REMARK SMILES IDX 83 48 77 49 76 50 32 52 64 53 44 54 63 55 45 56 48 57 62 58
REMARK SMILES IDX 81 59 46 60 47 61 61 63 82 64 49 65 33 66 34 67 42 68 35 69
REMARK SMILES IDX 37 70 43 71 36 72 38 73 39 74 40 75 41 76 65 77 66 78 74 79
REMARK SMILES IDX 67 80 69 81 75 82 68 83 70 84 71 85 72 86 73 87 50 88 51 89
REMARK SMILES IDX 59 90 52 91 54 92 60 93 53 94 55 95 56 96 57 97 58 98
REMARK H PARENT 17 6 3 21 12 28 21 32 80 51 48 62
REMARK Flexibility Score: inf
ROOT
ATOM      1  C   UNL A   1      35.418  22.656  24.466  1.00  0.00     0.042 C 
ENDROOT
BRANCH   1   2
ATOM      2  C   UNL A   1      34.933  24.093  24.569  1.00  0.00     0.117 C 
BRANCH   2   3
ATOM      3  N   UNL A   1      34.713  24.722  23.278  1.00  0.00    -0.354 N 
ATOM      4  C   UNL A   1      33.756  25.589  22.846  1.00  0.00     0.242 C 
ATOM      5  O   UNL A   1      33.658  25.698  21.616  1.00  0.00    -0.273 OA
ATOM      6  H   UNL A   1      35.376  24.479  22.592  1.00  0.00     0.163 HD
BRANCH   4   7
ATOM      7  C   UNL A   1      32.761  26.361  23.761  1.00  0.00     0.177 C 
ATOM      8  N   UNL A   1      31.373  26.512  23.305  1.00  0.00    -0.326 N 
ATOM      9  C   UNL A   1      30.915  27.789  22.756  1.00  0.00     0.123 C 
ATOM     10  C   UNL A   1      31.897  28.979  22.737  1.00  0.00     0.053 C 
ATOM     11  C   UNL A   1      33.334  27.643  24.346  1.00  0.00     0.067 C 
ATOM     12  C   UNL A   1      33.281  28.780  23.352  1.00  0.00     0.118 C 
BRANCH   8  13
ATOM     13  C   UNL A   1      30.417  25.713  23.944  1.00  0.00     0.256 C 
ATOM     14  O   UNL A   1      29.210  25.926  23.866  1.00  0.00    -0.269 OA
BRANCH  13  15
ATOM     15  C   UNL A   1      30.881  24.586  24.783  1.00  0.00     0.064 A 
ATOM     16  C   UNL A   1      31.887  20.912  21.553  1.00  0.00     0.064 C 
ATOM     17  C   UNL A   1      31.805  21.644  22.844  1.00  0.00     0.016 A 
ATOM     18  N   UNL A   1      31.325  22.927  22.924  1.00  0.00    -0.358 N 
ATOM     19  C   UNL A   1      32.168  21.253  24.120  1.00  0.00    -0.023 A 
ATOM     20  C   UNL A   1      31.297  23.363  24.226  1.00  0.00     0.059 A 
ATOM     21  H   UNL A   1      31.041  23.464  22.150  1.00  0.00     0.166 HD
ATOM     22  C   UNL A   1      31.872  22.350  24.995  1.00  0.00     0.003 A 
ATOM     23  C   UNL A   1      32.776  19.952  24.511  1.00  0.00     0.047 C 
ATOM     24  C   UNL A   1      32.065  22.574  26.374  1.00  0.00     0.010 A 
ATOM     25  C   UNL A   1      31.112  24.793  26.150  1.00  0.00     0.016 A 
ATOM     26  C   UNL A   1      31.691  23.799  26.937  1.00  0.00     0.002 A 
ENDBRANCH  13  15
ENDBRANCH   8  13
BRANCH  12  27
ATOM     27  O   UNL A   1      34.234  28.549  22.321  1.00  0.00    -0.393 OA
ATOM     28  H   UNL A   1      35.114  28.817  22.629  1.00  0.00     0.210 HD
ENDBRANCH  12  27
ENDBRANCH   4   7
ENDBRANCH   2   3
ENDBRANCH   1   2
BRANCH   1  29
ATOM     29  C   UNL A   1      35.963  22.115  25.775  1.00  0.00     0.118 C 
BRANCH  29  30
ATOM     30  N   UNL A   1      36.953  21.059  25.588  1.00  0.00    -0.352 N 
ATOM     31  C   UNL A   1      38.317  21.051  25.752  1.00  0.00     0.251 C 
ATOM     32  H   UNL A   1      36.576  20.198  25.293  1.00  0.00     0.163 HD
ATOM     33  O   UNL A   1      38.964  20.071  25.386  1.00  0.00    -0.269 OA
BRANCH  31  34
ATOM     34  C   UNL A   1      39.008  22.222  26.326  1.00  0.00     0.039 A 
ATOM     35  C   UNL A   1      40.099  22.029  27.178  1.00  0.00     0.014 A 
ATOM     36  C   UNL A   1      38.590  23.513  26.013  1.00  0.00     0.014 A 
ATOM     37  C   UNL A   1      40.823  23.134  27.637  1.00  0.00     0.010 A 
ATOM     38  C   UNL A   1      39.392  24.594  26.347  1.00  0.00     0.010 A 
ATOM     39  C   UNL A   1      40.503  24.422  27.183  1.00  0.00    -0.014 A 
BRANCH  39  40
ATOM     40  C   UNL A   1      41.273  25.627  27.587  1.00  0.00     0.031 A 
ATOM     41  C   UNL A   1      40.595  26.689  28.416  1.00  0.00     0.074 A 
ATOM     42  C   UNL A   1      42.516  25.828  27.106  1.00  0.00     0.049 A 
ATOM     43  N   UNL A   1      41.010  27.891  28.720  1.00  0.00    -0.248 NA
ATOM     44  C   UNL A   1      39.243  26.381  28.917  1.00  0.00     0.031 C 
ATOM     45  C   UNL A   1      43.244  24.918  26.218  1.00  0.00     0.029 A 
ATOM     46  N   UNL A   1      43.377  26.884  27.271  1.00  0.00    -0.354 N 
ATOM     47  C   UNL A   1      39.947  28.501  29.377  1.00  0.00     0.074 A 
ATOM     48  C   UNL A   1      38.854  27.556  29.386  1.00  0.00     0.031 C 
ATOM     49  C   UNL A   1      44.443  25.447  25.929  1.00  0.00     0.029 A 
ATOM     50  C   UNL A   1      44.559  26.748  26.579  1.00  0.00     0.049 A 
ATOM     51  H   UNL A   1      43.169  27.665  27.832  1.00  0.00     0.167 HD
ATOM     52  C   UNL A   1      39.896  29.722  29.959  1.00  0.00     0.034 A 
ATOM     53  C   UNL A   1      45.613  27.581  26.482  1.00  0.00     0.034 A 
ATOM     54  C   UNL A   1      41.024  30.608  30.039  1.00  0.00     0.049 A 
ATOM     55  C   UNL A   1      45.577  28.882  27.237  1.00  0.00     0.074 A 
ATOM     56  C   UNL A   1      41.124  31.815  30.704  1.00  0.00     0.029 A 
ATOM     57  N   UNL A   1      42.255  30.367  29.450  1.00  0.00    -0.354 N 
ATOM     58  N   UNL A   1      44.614  29.380  27.975  1.00  0.00    -0.248 NA
ATOM     59  C   UNL A   1      46.784  29.720  27.180  1.00  0.00     0.031 C 
ATOM     60  C   UNL A   1      42.421  32.305  30.517  1.00  0.00     0.029 A 
ATOM     61  C   UNL A   1      43.128  31.395  29.745  1.00  0.00     0.049 A 
ATOM     62  H   UNL A   1      42.475  29.578  28.903  1.00  0.00     0.167 HD
ATOM     63  C   UNL A   1      45.112  30.567  28.502  1.00  0.00     0.074 A 
ATOM     64  C   UNL A   1      46.468  30.704  28.012  1.00  0.00     0.031 C 
ATOM     65  C   UNL A   1      44.497  31.471  29.304  1.00  0.00     0.034 A 
BRANCH  52  66
ATOM     66  C   UNL A   1      38.605  30.129  30.621  1.00  0.00     0.023 A 
ATOM     67  C   UNL A   1      38.342  29.713  31.943  1.00  0.00     0.012 A 
ATOM     68  C   UNL A   1      37.670  30.945  29.956  1.00  0.00     0.148 A 
ATOM     69  C   UNL A   1      37.150  30.062  32.575  1.00  0.00     0.002 A 
ATOM     70  C   UNL A   1      36.505  31.329  30.610  1.00  0.00     0.091 A 
ATOM     71  F   UNL A   1      37.926  31.313  28.691  1.00  0.00    -0.205 F 
ATOM     72  C   UNL A   1      36.237  30.877  31.913  1.00  0.00     0.022 A 
BRANCH  70  73
ATOM     73  S   UNL A   1      35.303  32.443  29.874  1.00  0.00     0.127 S 
ATOM     74  O   UNL A   1      36.143  33.581  29.502  1.00  0.00    -0.237 OA
ATOM     75  O   UNL A   1      34.807  31.657  28.744  1.00  0.00    -0.237 OA
ATOM     76  O   UNL A   1      34.314  32.704  30.910  1.00  0.00    -0.744 OA
ENDBRANCH  70  73
ENDBRANCH  52  66
BRANCH  53  77
ATOM     77  C   UNL A   1      46.825  27.165  25.719  1.00  0.00     0.023 A 
ATOM     78  C   UNL A   1      47.733  26.268  26.317  1.00  0.00     0.012 A 
ATOM     79  C   UNL A   1      47.068  27.613  24.406  1.00  0.00     0.148 A 
ATOM     80  C   UNL A   1      48.876  25.850  25.635  1.00  0.00     0.002 A 
ATOM     81  C   UNL A   1      48.183  27.152  23.713  1.00  0.00     0.091 A 
ATOM     82  F   UNL A   1      46.199  28.472  23.857  1.00  0.00    -0.205 F 
ATOM     83  C   UNL A   1      49.096  26.283  24.331  1.00  0.00     0.022 A 
BRANCH  81  84
ATOM     84  S   UNL A   1      48.475  27.555  21.987  1.00  0.00     0.127 S 
ATOM     85  O   UNL A   1      49.640  28.432  22.077  1.00  0.00    -0.237 OA
ATOM     86  O   UNL A   1      48.739  26.238  21.406  1.00  0.00    -0.237 OA
ATOM     87  O   UNL A   1      47.245  28.178  21.517  1.00  0.00    -0.744 OA
ENDBRANCH  81  84
ENDBRANCH  53  77
BRANCH  65  88
ATOM     88  C   UNL A   1      45.292  32.669  29.746  1.00  0.00     0.023 A 
ATOM     89  C   UNL A   1      46.043  32.607  30.935  1.00  0.00     0.012 A 
ATOM     90  C   UNL A   1      45.373  33.813  28.929  1.00  0.00     0.148 A 
ATOM     91  C   UNL A   1      46.847  33.680  31.318  1.00  0.00     0.002 A 
ATOM     92  C   UNL A   1      46.212  34.859  29.293  1.00  0.00     0.091 A 
ATOM     93  F   UNL A   1      44.633  33.857  27.812  1.00  0.00    -0.205 F 
ATOM     94  C   UNL A   1      46.943  34.798  30.492  1.00  0.00     0.022 A 
BRANCH  92  95
ATOM     95  S   UNL A   1      46.471  36.290  28.239  1.00  0.00     0.127 S 
ATOM     96  O   UNL A   1      45.145  36.905  28.241  1.00  0.00    -0.237 OA
ATOM     97  O   UNL A   1      47.492  37.039  28.975  1.00  0.00    -0.237 OA
ATOM     98  O   UNL A   1      46.918  35.766  26.956  1.00  0.00    -0.744 OA
ENDBRANCH  92  95
ENDBRANCH  65  88
ENDBRANCH  39  40
ENDBRANCH  31  34
ENDBRANCH  29  30
ENDBRANCH   1  29
TORSDOF 16
ENDMDL
