MODEL 1
REMARK VINA RESULT:     -11.7      0.000      0.000
REMARK SMILES Cc1oc2c(C)c3oc(=O)c(CC(=O)N[C@@H](CC(C)C)C(=O)NCCCNC(=O)c4ccc(-c5c6nc(c(-c7cccc(S(=O)(=O)[O-])c7F)c7ccc([nH]7)c(-c7cccc(S(=O)(=O)[O-])c7F)c7nc(c(-c8cccc(S(=O)(=O)[O-])c8F)c8ccc5[nH]8)C=C7)C=C6)cc4)c(C)c3cc2c1C
REMARK SMILES IDX 25 1 24 2 23 3 21 4 22 5 16 7 15 8 13 9 14 10 12 12 11 13
REMARK SMILES IDX 1 14 2 15 3 16 98 17 4 18 97 19 99 20 5 21 96 22 6 23 7 24
REMARK SMILES IDX 95 25 8 26 93 27 9 28 94 29 10 30 17 31 18 32 19 33 20 34
REMARK SMILES IDX 26 35 27 36 28 37 29 39 30 40 31 41 92 42 32 43 91 44 33 45
REMARK SMILES IDX 34 46 35 47 85 48 36 49 90 50 84 51 86 52 37 53 89 54 83 55
REMARK SMILES IDX 82 56 38 58 70 59 50 60 69 61 51 62 54 63 68 64 87 65 52 66
REMARK SMILES IDX 53 67 67 69 88 70 55 71 39 72 40 73 48 74 41 75 43 76 49 77
REMARK SMILES IDX 42 78 44 79 45 80 46 81 47 82 71 83 72 84 80 85 73 86 75 87
REMARK SMILES IDX 81 88 74 89 76 90 77 91 78 92 79 93 56 94 57 95 65 96 58 97
REMARK SMILES IDX 60 98 66 99 59 100 61 101 62 102 63 103 64 104
REMARK H PARENT 23 6 15 11 27 38 86 57 54 68
REMARK Flexibility Score: inf
ROOT
ATOM      1  C   UNL A   1      46.700  21.384  34.610  1.00  0.00     0.042 C 
ENDROOT
BRANCH   1   2
ATOM      2  C   UNL A   1      47.278  20.072  35.135  1.00  0.00     0.117 C 
BRANCH   2   3
ATOM      3  N   UNL A   1      48.730  20.036  35.183  1.00  0.00    -0.354 N 
ATOM      4  C   UNL A   1      49.597  20.048  36.238  1.00  0.00     0.242 C 
ATOM      5  O   UNL A   1      50.720  19.571  36.041  1.00  0.00    -0.273 OA
ATOM      6  H   UNL A   1      49.164  19.997  34.300  1.00  0.00     0.163 HD
BRANCH   4   7
ATOM      7  C   UNL A   1      49.216  20.533  37.655  1.00  0.00     0.171 C 
BRANCH   7   8
ATOM      8  N   UNL A   1      49.799  19.688  38.697  1.00  0.00    -0.344 N 
ATOM      9  C   UNL A   1      49.189  19.160  39.794  1.00  0.00     0.225 C 
ATOM     10  O   UNL A   1      49.740  18.209  40.354  1.00  0.00    -0.275 OA
ATOM     11  H   UNL A   1      50.754  19.475  38.594  1.00  0.00     0.164 HD
BRANCH   9  12
ATOM     12  C   UNL A   1      47.920  19.787  40.357  1.00  0.00     0.143 C 
BRANCH  12  13
ATOM     13  C   UNL A   1      46.848  18.732  40.556  1.00  0.00     0.051 A 
ATOM     14  C   UNL A   1      41.604  12.978  43.853  1.00  0.00     0.088 C 
ATOM     15  C   UNL A   1      42.459  14.100  43.415  1.00  0.00     0.105 A 
ATOM     16  O   UNL A   1      42.369  14.453  42.101  1.00  0.00    -0.461 OA
ATOM     17  C   UNL A   1      43.400  14.876  44.065  1.00  0.00    -0.002 A 
ATOM     18  C   UNL A   1      43.294  15.431  41.878  1.00  0.00     0.141 A 
ATOM     19  C   UNL A   1      43.956  15.722  43.061  1.00  0.00     0.025 A 
ATOM     20  C   UNL A   1      43.815  14.823  45.488  1.00  0.00     0.049 C 
ATOM     21  C   UNL A   1      43.565  16.038  40.648  1.00  0.00     0.036 A 
ATOM     22  C   UNL A   1      44.979  16.683  43.046  1.00  0.00     0.024 A 
ATOM     23  C   UNL A   1      42.793  15.716  39.408  1.00  0.00     0.052 C 
ATOM     24  C   UNL A   1      44.657  16.936  40.677  1.00  0.00     0.145 A 
ATOM     25  C   UNL A   1      45.376  17.260  41.832  1.00  0.00     0.022 A 
ATOM     26  O   UNL A   1      45.040  17.504  39.444  1.00  0.00    -0.422 OA
ATOM     27  C   UNL A   1      46.523  18.184  41.747  1.00  0.00    -0.029 A 
ATOM     28  C   UNL A   1      46.137  18.335  39.311  1.00  0.00     0.340 A 
ATOM     29  C   UNL A   1      47.285  18.461  43.023  1.00  0.00     0.046 C 
ATOM     30  O   UNL A   1      46.493  18.726  38.206  1.00  0.00    -0.246 OA
ENDBRANCH  12  13
ENDBRANCH   9  12
ENDBRANCH   7   8
BRANCH   7  31
ATOM     31  C   UNL A   1      49.321  22.041  37.969  1.00  0.00     0.038 C 
BRANCH  31  32
ATOM     32  C   UNL A   1      48.113  22.952  37.688  1.00  0.00    -0.015 C 
ATOM     33  C   UNL A   1      47.535  23.552  38.974  1.00  0.00     0.007 C 
ATOM     34  C   UNL A   1      48.513  24.110  36.764  1.00  0.00     0.007 C 
ENDBRANCH  31  32
ENDBRANCH   7  31
ENDBRANCH   4   7
ENDBRANCH   2   3
ENDBRANCH   1   2
BRANCH   1  35
ATOM     35  C   UNL A   1      45.177  21.510  34.734  1.00  0.00     0.118 C 
BRANCH  35  36
ATOM     36  N   UNL A   1      44.799  22.475  35.758  1.00  0.00    -0.352 N 
ATOM     37  C   UNL A   1      44.807  23.843  35.765  1.00  0.00     0.251 C 
ATOM     38  H   UNL A   1      44.481  22.068  36.596  1.00  0.00     0.163 HD
ATOM     39  O   UNL A   1      44.729  24.412  36.855  1.00  0.00    -0.269 OA
BRANCH  37  40
ATOM     40  C   UNL A   1      44.908  24.644  34.524  1.00  0.00     0.039 A 
ATOM     41  C   UNL A   1      46.090  25.368  34.315  1.00  0.00     0.014 A 
ATOM     42  C   UNL A   1      43.842  24.793  33.634  1.00  0.00     0.014 A 
ATOM     43  C   UNL A   1      46.226  26.185  33.194  1.00  0.00     0.010 A 
ATOM     44  C   UNL A   1      43.982  25.603  32.503  1.00  0.00     0.010 A 
ATOM     45  C   UNL A   1      45.181  26.288  32.266  1.00  0.00    -0.014 A 
BRANCH  45  46
ATOM     46  C   UNL A   1      45.424  27.043  31.019  1.00  0.00     0.031 A 
ATOM     47  C   UNL A   1      45.550  26.215  29.779  1.00  0.00     0.074 A 
ATOM     48  C   UNL A   1      45.090  28.346  30.899  1.00  0.00     0.049 A 
ATOM     49  N   UNL A   1      44.515  25.779  29.125  1.00  0.00    -0.248 NA
ATOM     50  C   UNL A   1      46.813  25.621  29.342  1.00  0.00     0.031 C 
ATOM     51  C   UNL A   1      43.966  28.959  31.620  1.00  0.00     0.029 A 
ATOM     52  N   UNL A   1      45.469  29.304  29.985  1.00  0.00    -0.354 N 
ATOM     53  C   UNL A   1      44.958  24.819  28.233  1.00  0.00     0.074 A 
ATOM     54  C   UNL A   1      46.395  24.770  28.388  1.00  0.00     0.031 C 
ATOM     55  C   UNL A   1      43.631  30.110  30.998  1.00  0.00     0.029 A 
ATOM     56  C   UNL A   1      44.607  30.401  29.950  1.00  0.00     0.049 A 
ATOM     57  H   UNL A   1      46.267  29.224  29.415  1.00  0.00     0.167 HD
ATOM     58  C   UNL A   1      44.112  24.122  27.427  1.00  0.00     0.034 A 
ATOM     59  C   UNL A   1      44.344  31.156  28.846  1.00  0.00     0.034 A 
ATOM     60  C   UNL A   1      42.723  24.462  27.562  1.00  0.00     0.049 A 
ATOM     61  C   UNL A   1      43.603  30.165  27.984  1.00  0.00     0.074 A 
ATOM     62  C   UNL A   1      41.626  23.975  28.239  1.00  0.00     0.029 A 
ATOM     63  N   UNL A   1      42.269  25.608  26.952  1.00  0.00    -0.354 N 
ATOM     64  N   UNL A   1      42.354  29.808  28.136  1.00  0.00    -0.248 NA
ATOM     65  C   UNL A   1      44.402  29.257  27.161  1.00  0.00     0.031 C 
ATOM     66  C   UNL A   1      40.733  25.088  28.371  1.00  0.00     0.029 A 
ATOM     67  C   UNL A   1      41.363  26.192  27.800  1.00  0.00     0.049 A 
ATOM     68  H   UNL A   1      42.545  25.946  26.069  1.00  0.00     0.167 HD
ATOM     69  C   UNL A   1      42.292  28.485  27.690  1.00  0.00     0.074 A 
ATOM     70  C   UNL A   1      43.585  28.216  27.093  1.00  0.00     0.031 C 
ATOM     71  C   UNL A   1      41.266  27.627  27.975  1.00  0.00     0.034 A 
BRANCH  58  72
ATOM     72  C   UNL A   1      44.522  23.190  26.348  1.00  0.00     0.023 A 
ATOM     73  C   UNL A   1      45.152  23.773  25.229  1.00  0.00     0.012 A 
ATOM     74  C   UNL A   1      44.129  21.843  26.294  1.00  0.00     0.148 A 
ATOM     75  C   UNL A   1      45.342  23.052  24.054  1.00  0.00     0.002 A 
ATOM     76  C   UNL A   1      44.331  21.122  25.116  1.00  0.00     0.091 A 
ATOM     77  F   UNL A   1      43.520  21.308  27.361  1.00  0.00    -0.205 F 
ATOM     78  C   UNL A   1      44.922  21.730  23.995  1.00  0.00     0.022 A 
BRANCH  76  79
ATOM     79  S   UNL A   1      43.840  19.403  24.922  1.00  0.00     0.127 S 
ATOM     80  O   UNL A   1      42.393  19.477  25.133  1.00  0.00    -0.237 OA
ATOM     81  O   UNL A   1      44.237  19.131  23.537  1.00  0.00    -0.237 OA
ATOM     82  O   UNL A   1      44.586  18.661  25.920  1.00  0.00    -0.744 OA
ENDBRANCH  76  79
ENDBRANCH  58  72
BRANCH  59  83
ATOM     83  C   UNL A   1      45.494  31.995  28.359  1.00  0.00     0.023 A 
ATOM     84  C   UNL A   1      46.793  31.593  28.757  1.00  0.00     0.012 A 
ATOM     85  C   UNL A   1      45.397  33.139  27.545  1.00  0.00     0.148 A 
ATOM     86  C   UNL A   1      47.943  32.224  28.278  1.00  0.00     0.002 A 
ATOM     87  C   UNL A   1      46.546  33.721  27.009  1.00  0.00     0.091 A 
ATOM     88  F   UNL A   1      44.192  33.663  27.295  1.00  0.00    -0.205 F 
ATOM     89  C   UNL A   1      47.820  33.267  27.373  1.00  0.00     0.022 A 
BRANCH  87  90
ATOM     90  S   UNL A   1      46.482  35.003  25.747  1.00  0.00     0.127 S 
ATOM     91  O   UNL A   1      45.864  36.113  26.469  1.00  0.00    -0.237 OA
ATOM     92  O   UNL A   1      47.901  35.178  25.442  1.00  0.00    -0.237 OA
ATOM     93  O   UNL A   1      45.684  34.450  24.661  1.00  0.00    -0.744 OA
ENDBRANCH  87  90
ENDBRANCH  59  83
BRANCH  71  94
ATOM     94  C   UNL A   1      40.068  28.212  28.662  1.00  0.00     0.023 A 
ATOM     95  C   UNL A   1      39.001  28.680  27.870  1.00  0.00     0.012 A 
ATOM     96  C   UNL A   1      39.934  28.227  30.066  1.00  0.00     0.148 A 
ATOM     97  C   UNL A   1      37.818  29.125  28.455  1.00  0.00     0.002 A 
ATOM     98  C   UNL A   1      38.734  28.627  30.644  1.00  0.00     0.091 A 
ATOM     99  F   UNL A   1      40.971  27.830  30.820  1.00  0.00    -0.205 F 
ATOM    100  C   UNL A   1      37.677  29.082  29.840  1.00  0.00     0.022 A 
BRANCH  98 101
ATOM    101  S   UNL A   1      38.416  28.532  32.410  1.00  0.00     0.127 S 
ATOM    102  O   UNL A   1      37.056  29.062  32.508  1.00  0.00    -0.237 OA
ATOM    103  O   UNL A   1      38.527  27.094  32.657  1.00  0.00    -0.237 OA
ATOM    104  O   UNL A   1      39.438  29.345  33.057  1.00  0.00    -0.744 OA
ENDBRANCH  98 101
ENDBRANCH  71  94
ENDBRANCH  45  46
ENDBRANCH  37  40
ENDBRANCH  35  36
ENDBRANCH   1  35
TORSDOF 18
ENDMDL
MODEL 2
REMARK VINA RESULT:     -11.6      1.075      1.835
REMARK SMILES Cc1oc2c(C)c3oc(=O)c(CC(=O)N[C@@H](CC(C)C)C(=O)NCCCNC(=O)c4ccc(-c5c6nc(c(-c7cccc(S(=O)(=O)[O-])c7F)c7ccc([nH]7)c(-c7cccc(S(=O)(=O)[O-])c7F)c7nc(c(-c8cccc(S(=O)(=O)[O-])c8F)c8ccc5[nH]8)C=C7)C=C6)cc4)c(C)c3cc2c1C
REMARK SMILES IDX 25 1 24 2 23 3 21 4 22 5 16 7 15 8 13 9 14 10 12 12 11 13
REMARK SMILES IDX 1 14 2 15 3 16 98 17 4 18 97 19 99 20 5 21 96 22 6 23 7 24
REMARK SMILES IDX 95 25 8 26 93 27 9 28 94 29 10 30 17 31 18 32 19 33 20 34
REMARK SMILES IDX 26 35 27 36 28 37 29 39 30 40 31 41 92 42 32 43 91 44 33 45
REMARK SMILES IDX 34 46 35 47 85 48 36 49 90 50 84 51 86 52 37 53 89 54 83 55
REMARK SMILES IDX 82 56 38 58 70 59 50 60 69 61 51 62 54 63 68 64 87 65 52 66
REMARK SMILES IDX 53 67 67 69 88 70 55 71 39 72 40 73 48 74 41 75 43 76 49 77
REMARK SMILES IDX 42 78 44 79 45 80 46 81 47 82 71 83 72 84 80 85 73 86 75 87
REMARK SMILES IDX 81 88 74 89 76 90 77 91 78 92 79 93 56 94 57 95 65 96 58 97
REMARK SMILES IDX 60 98 66 99 59 100 61 101 62 102 63 103 64 104
REMARK H PARENT 23 6 15 11 27 38 86 57 54 68
REMARK Flexibility Score: inf
ROOT
ATOM      1  C   UNL A   1      46.948  21.413  34.581  1.00  0.00     0.042 C 
ENDROOT
BRANCH   1   2
ATOM      2  C   UNL A   1      47.603  20.232  35.294  1.00  0.00     0.117 C 
BRANCH   2   3
ATOM      3  N   UNL A   1      48.930  19.902  34.806  1.00  0.00    -0.354 N 
ATOM      4  C   UNL A   1      50.122  19.765  35.459  1.00  0.00     0.242 C 
ATOM      5  O   UNL A   1      50.980  19.065  34.911  1.00  0.00    -0.273 OA
ATOM      6  H   UNL A   1      48.980  19.751  33.834  1.00  0.00     0.163 HD
BRANCH   4   7
ATOM      7  C   UNL A   1      50.405  20.356  36.859  1.00  0.00     0.171 C 
BRANCH   7   8
ATOM      8  N   UNL A   1      51.137  19.418  37.710  1.00  0.00    -0.344 N 
ATOM      9  C   UNL A   1      50.861  19.051  38.992  1.00  0.00     0.225 C 
ATOM     10  O   UNL A   1      51.372  18.010  39.413  1.00  0.00    -0.275 OA
ATOM     11  H   UNL A   1      51.931  19.000  37.306  1.00  0.00     0.164 HD
BRANCH   9  12
ATOM     12  C   UNL A   1      50.026  19.949  39.897  1.00  0.00     0.143 C 
BRANCH  12  13
ATOM     13  C   UNL A   1      48.984  19.134  40.638  1.00  0.00     0.051 A 
ATOM     14  C   UNL A   1      42.038  14.811  42.771  1.00  0.00     0.088 C 
ATOM     15  C   UNL A   1      43.260  15.453  42.245  1.00  0.00     0.105 A 
ATOM     16  O   UNL A   1      44.311  15.553  43.108  1.00  0.00    -0.461 OA
ATOM     17  C   UNL A   1      43.569  16.035  41.031  1.00  0.00    -0.002 A 
ATOM     18  C   UNL A   1      45.295  16.251  42.472  1.00  0.00     0.141 A 
ATOM     19  C   UNL A   1      44.880  16.572  41.188  1.00  0.00     0.025 A 
ATOM     20  C   UNL A   1      42.720  16.152  39.821  1.00  0.00     0.049 C 
ATOM     21  C   UNL A   1      46.527  16.618  43.022  1.00  0.00     0.036 A 
ATOM     22  C   UNL A   1      45.736  17.325  40.369  1.00  0.00     0.024 A 
ATOM     23  C   UNL A   1      46.942  16.212  44.401  1.00  0.00     0.052 C 
ATOM     24  C   UNL A   1      47.310  17.442  42.181  1.00  0.00     0.145 A 
ATOM     25  C   UNL A   1      46.943  17.816  40.884  1.00  0.00     0.022 A 
ATOM     26  O   UNL A   1      48.520  17.926  42.722  1.00  0.00    -0.422 OA
ATOM     27  C   UNL A   1      47.818  18.709  40.102  1.00  0.00    -0.029 A 
ATOM     28  C   UNL A   1      49.346  18.804  42.042  1.00  0.00     0.340 A 
ATOM     29  C   UNL A   1      47.345  19.109  38.724  1.00  0.00     0.046 C 
ATOM     30  O   UNL A   1      50.336  19.277  42.588  1.00  0.00    -0.246 OA
ENDBRANCH  12  13
ENDBRANCH   9  12
ENDBRANCH   7   8
BRANCH   7  31
ATOM     31  C   UNL A   1      50.938  21.802  36.953  1.00  0.00     0.038 C 
BRANCH  31  32
ATOM     32  C   UNL A   1      49.945  22.974  36.870  1.00  0.00    -0.015 C 
ATOM     33  C   UNL A   1      50.352  24.137  37.781  1.00  0.00     0.007 C 
ATOM     34  C   UNL A   1      49.857  23.506  35.433  1.00  0.00     0.007 C 
ENDBRANCH  31  32
ENDBRANCH   7  31
ENDBRANCH   4   7
ENDBRANCH   2   3
ENDBRANCH   1   2
BRANCH   1  35
ATOM     35  C   UNL A   1      45.420  21.469  34.701  1.00  0.00     0.118 C 
BRANCH  35  36
ATOM     36  N   UNL A   1      44.997  22.416  35.724  1.00  0.00    -0.352 N 
ATOM     37  C   UNL A   1      44.945  23.783  35.732  1.00  0.00     0.251 C 
ATOM     38  H   UNL A   1      44.693  21.995  36.561  1.00  0.00     0.163 HD
ATOM     39  O   UNL A   1      44.838  24.347  36.822  1.00  0.00    -0.269 OA
BRANCH  37  40
ATOM     40  C   UNL A   1      45.016  24.589  34.493  1.00  0.00     0.039 A 
ATOM     41  C   UNL A   1      46.050  25.530  34.390  1.00  0.00     0.014 A 
ATOM     42  C   UNL A   1      44.039  24.526  33.496  1.00  0.00     0.014 A 
ATOM     43  C   UNL A   1      46.139  26.358  33.272  1.00  0.00     0.010 A 
ATOM     44  C   UNL A   1      44.135  25.349  32.369  1.00  0.00     0.010 A 
ATOM     45  C   UNL A   1      45.196  26.255  32.241  1.00  0.00    -0.014 A 
BRANCH  45  46
ATOM     46  C   UNL A   1      45.416  27.043  31.010  1.00  0.00     0.031 A 
ATOM     47  C   UNL A   1      45.547  26.246  29.750  1.00  0.00     0.074 A 
ATOM     48  C   UNL A   1      45.057  28.342  30.923  1.00  0.00     0.049 A 
ATOM     49  N   UNL A   1      44.515  25.807  29.093  1.00  0.00    -0.248 NA
ATOM     50  C   UNL A   1      46.817  25.686  29.289  1.00  0.00     0.031 C 
ATOM     51  C   UNL A   1      43.927  28.917  31.667  1.00  0.00     0.029 A 
ATOM     52  N   UNL A   1      45.411  29.328  30.029  1.00  0.00    -0.354 N 
ATOM     53  C   UNL A   1      44.968  24.876  28.176  1.00  0.00     0.074 A 
ATOM     54  C   UNL A   1      46.407  24.850  28.319  1.00  0.00     0.031 C 
ATOM     55  C   UNL A   1      43.567  30.076  31.075  1.00  0.00     0.029 A 
ATOM     56  C   UNL A   1      44.529  30.409  30.026  1.00  0.00     0.049 A 
ATOM     57  H   UNL A   1      46.206  29.275  29.451  1.00  0.00     0.167 HD
ATOM     58  C   UNL A   1      44.128  24.182  27.360  1.00  0.00     0.034 A 
ATOM     59  C   UNL A   1      44.243  31.185  28.942  1.00  0.00     0.034 A 
ATOM     60  C   UNL A   1      42.735  24.493  27.514  1.00  0.00     0.049 A 
ATOM     61  C   UNL A   1      43.513  30.201  28.062  1.00  0.00     0.074 A 
ATOM     62  C   UNL A   1      41.652  23.971  28.188  1.00  0.00     0.029 A 
ATOM     63  N   UNL A   1      42.255  25.644  26.935  1.00  0.00    -0.354 N 
ATOM     64  N   UNL A   1      42.273  29.817  28.216  1.00  0.00    -0.248 NA
ATOM     65  C   UNL A   1      44.323  29.327  27.213  1.00  0.00     0.031 C 
ATOM     66  C   UNL A   1      40.740  25.064  28.352  1.00  0.00     0.029 A 
ATOM     67  C   UNL A   1      41.346  26.192  27.802  1.00  0.00     0.049 A 
ATOM     68  H   UNL A   1      42.518  26.008  26.058  1.00  0.00     0.167 HD
ATOM     69  C   UNL A   1      42.231  28.504  27.740  1.00  0.00     0.074 A 
ATOM     70  C   UNL A   1      43.524  28.273  27.126  1.00  0.00     0.031 C 
ATOM     71  C   UNL A   1      41.224  27.620  28.012  1.00  0.00     0.034 A 
BRANCH  58  72
ATOM     72  C   UNL A   1      44.547  23.284  26.257  1.00  0.00     0.023 A 
ATOM     73  C   UNL A   1      45.124  23.908  25.131  1.00  0.00     0.012 A 
ATOM     74  C   UNL A   1      44.207  21.922  26.192  1.00  0.00     0.148 A 
ATOM     75  C   UNL A   1      45.311  23.213  23.940  1.00  0.00     0.002 A 
ATOM     76  C   UNL A   1      44.406  21.227  24.998  1.00  0.00     0.091 A 
ATOM     77  F   UNL A   1      43.648  21.348  27.266  1.00  0.00    -0.205 F 
ATOM     78  C   UNL A   1      44.943  21.875  23.872  1.00  0.00     0.022 A 
BRANCH  76  79
ATOM     79  S   UNL A   1      43.980  19.494  24.790  1.00  0.00     0.127 S 
ATOM     80  O   UNL A   1      44.856  18.847  25.769  1.00  0.00    -0.237 OA
ATOM     81  O   UNL A   1      42.559  19.487  25.152  1.00  0.00    -0.237 OA
ATOM     82  O   UNL A   1      44.248  19.181  23.400  1.00  0.00    -0.744 OA
ENDBRANCH  76  79
ENDBRANCH  58  72
BRANCH  59  83
ATOM     83  C   UNL A   1      45.374  32.056  28.466  1.00  0.00     0.023 A 
ATOM     84  C   UNL A   1      46.646  31.827  29.047  1.00  0.00     0.012 A 
ATOM     85  C   UNL A   1      45.284  33.074  27.499  1.00  0.00     0.148 A 
ATOM     86  C   UNL A   1      47.792  32.494  28.607  1.00  0.00     0.002 A 
ATOM     87  C   UNL A   1      46.438  33.685  27.009  1.00  0.00     0.091 A 
ATOM     88  F   UNL A   1      44.078  33.451  27.058  1.00  0.00    -0.205 F 
ATOM     89  C   UNL A   1      47.693  33.398  27.561  1.00  0.00     0.022 A 
BRANCH  87  90
ATOM     90  S   UNL A   1      46.420  34.786  25.585  1.00  0.00     0.127 S 
ATOM     91  O   UNL A   1      46.027  36.058  26.186  1.00  0.00    -0.237 OA
ATOM     92  O   UNL A   1      47.814  34.713  25.149  1.00  0.00    -0.237 OA
ATOM     93  O   UNL A   1      45.455  34.215  24.656  1.00  0.00    -0.744 OA
ENDBRANCH  87  90
ENDBRANCH  59  83
BRANCH  71  94
ATOM     94  C   UNL A   1      40.020  28.168  28.722  1.00  0.00     0.023 A 
ATOM     95  C   UNL A   1      38.931  28.614  27.949  1.00  0.00     0.012 A 
ATOM     96  C   UNL A   1      39.906  28.166  30.127  1.00  0.00     0.148 A 
ATOM     97  C   UNL A   1      37.744  29.023  28.555  1.00  0.00     0.002 A 
ATOM     98  C   UNL A   1      38.704  28.529  30.726  1.00  0.00     0.091 A 
ATOM     99  F   UNL A   1      40.964  27.789  30.862  1.00  0.00    -0.205 F 
ATOM    100  C   UNL A   1      37.624  28.963  29.941  1.00  0.00     0.022 A 
BRANCH  98 101
ATOM    101  S   UNL A   1      38.415  28.409  32.496  1.00  0.00     0.127 S 
ATOM    102  O   UNL A   1      39.517  29.201  33.042  1.00  0.00    -0.237 OA
ATOM    103  O   UNL A   1      37.097  29.030  32.626  1.00  0.00    -0.237 OA
ATOM    104  O   UNL A   1      38.459  26.990  32.824  1.00  0.00    -0.744 OA
ENDBRANCH  98 101
ENDBRANCH  71  94
ENDBRANCH  45  46
ENDBRANCH  37  40
ENDBRANCH  35  36
ENDBRANCH   1  35
TORSDOF 18
ENDMDL
MODEL 3
REMARK VINA RESULT:     -11.1      7.444     20.018
REMARK SMILES Cc1oc2c(C)c3oc(=O)c(CC(=O)N[C@@H](CC(C)C)C(=O)NCCCNC(=O)c4ccc(-c5c6nc(c(-c7cccc(S(=O)(=O)[O-])c7F)c7ccc([nH]7)c(-c7cccc(S(=O)(=O)[O-])c7F)c7nc(c(-c8cccc(S(=O)(=O)[O-])c8F)c8ccc5[nH]8)C=C7)C=C6)cc4)c(C)c3cc2c1C
REMARK SMILES IDX 25 1 24 2 23 3 21 4 22 5 16 7 15 8 13 9 14 10 12 12 11 13
REMARK SMILES IDX 1 14 2 15 3 16 98 17 4 18 97 19 99 20 5 21 96 22 6 23 7 24
REMARK SMILES IDX 95 25 8 26 93 27 9 28 94 29 10 30 17 31 18 32 19 33 20 34
REMARK SMILES IDX 26 35 27 36 28 37 29 39 30 40 31 41 92 42 32 43 91 44 33 45
REMARK SMILES IDX 34 46 35 47 85 48 36 49 90 50 84 51 86 52 37 53 89 54 83 55
REMARK SMILES IDX 82 56 38 58 70 59 50 60 69 61 51 62 54 63 68 64 87 65 52 66
REMARK SMILES IDX 53 67 67 69 88 70 55 71 39 72 40 73 48 74 41 75 43 76 49 77
REMARK SMILES IDX 42 78 44 79 45 80 46 81 47 82 71 83 72 84 80 85 73 86 75 87
REMARK SMILES IDX 81 88 74 89 76 90 77 91 78 92 79 93 56 94 57 95 65 96 58 97
REMARK SMILES IDX 60 98 66 99 59 100 61 101 62 102 63 103 64 104
REMARK H PARENT 23 6 15 11 27 38 86 57 54 68
REMARK Flexibility Score: inf
ROOT
ATOM      1  C   UNL A   1      47.329  37.326  25.784  1.00  0.00     0.042 C 
ENDROOT
BRANCH   1   2
ATOM      2  C   UNL A   1      46.953  38.465  26.729  1.00  0.00     0.117 C 
BRANCH   2   3
ATOM      3  N   UNL A   1      47.519  39.753  26.367  1.00  0.00    -0.354 N 
ATOM      4  C   UNL A   1      47.013  41.018  26.459  1.00  0.00     0.242 C 
ATOM      5  O   UNL A   1      47.831  41.943  26.506  1.00  0.00    -0.273 OA
ATOM      6  H   UNL A   1      48.427  39.705  25.988  1.00  0.00     0.163 HD
BRANCH   4   7
ATOM      7  C   UNL A   1      45.505  41.330  26.598  1.00  0.00     0.171 C 
BRANCH   7   8
ATOM      8  N   UNL A   1      45.203  42.724  26.273  1.00  0.00    -0.344 N 
ATOM      9  C   UNL A   1      44.857  43.253  25.067  1.00  0.00     0.225 C 
ATOM     10  O   UNL A   1      44.311  44.359  25.061  1.00  0.00    -0.275 OA
ATOM     11  H   UNL A   1      45.259  43.361  27.021  1.00  0.00     0.164 HD
BRANCH   9  12
ATOM     12  C   UNL A   1      45.220  42.540  23.770  1.00  0.00     0.143 C 
BRANCH  12  13
ATOM     13  C   UNL A   1      44.478  43.155  22.600  1.00  0.00     0.051 A 
ATOM     14  C   UNL A   1      42.231  47.911  15.981  1.00  0.00     0.088 C 
ATOM     15  C   UNL A   1      42.785  47.047  17.043  1.00  0.00     0.105 A 
ATOM     16  O   UNL A   1      41.995  46.019  17.462  1.00  0.00    -0.461 OA
ATOM     17  C   UNL A   1      43.965  47.081  17.762  1.00  0.00    -0.002 A 
ATOM     18  C   UNL A   1      42.638  45.407  18.498  1.00  0.00     0.141 A 
ATOM     19  C   UNL A   1      43.856  46.031  18.720  1.00  0.00     0.025 A 
ATOM     20  C   UNL A   1      45.096  48.031  17.636  1.00  0.00     0.049 C 
ATOM     21  C   UNL A   1      42.149  44.334  19.248  1.00  0.00     0.036 A 
ATOM     22  C   UNL A   1      44.668  45.576  19.771  1.00  0.00     0.024 A 
ATOM     23  C   UNL A   1      40.843  43.670  18.941  1.00  0.00     0.052 C 
ATOM     24  C   UNL A   1      42.969  43.973  20.341  1.00  0.00     0.145 A 
ATOM     25  C   UNL A   1      44.200  44.572  20.630  1.00  0.00     0.022 A 
ATOM     26  O   UNL A   1      42.478  42.961  21.194  1.00  0.00    -0.422 OA
ATOM     27  C   UNL A   1      44.963  44.144  21.818  1.00  0.00    -0.029 A 
ATOM     28  C   UNL A   1      43.137  42.565  22.343  1.00  0.00     0.340 A 
ATOM     29  C   UNL A   1      46.265  44.860  22.099  1.00  0.00     0.046 C 
ATOM     30  O   UNL A   1      42.626  41.754  23.106  1.00  0.00    -0.246 OA
ENDBRANCH  12  13
ENDBRANCH   9  12
ENDBRANCH   7   8
BRANCH   7  31
ATOM     31  C   UNL A   1      44.490  40.334  25.996  1.00  0.00     0.038 C 
BRANCH  31  32
ATOM     32  C   UNL A   1      43.263  39.920  26.827  1.00  0.00    -0.015 C 
ATOM     33  C   UNL A   1      41.972  40.554  26.299  1.00  0.00     0.007 C 
ATOM     34  C   UNL A   1      43.086  38.396  26.806  1.00  0.00     0.007 C 
ENDBRANCH  31  32
ENDBRANCH   7  31
ENDBRANCH   4   7
ENDBRANCH   2   3
ENDBRANCH   1   2
BRANCH   1  35
ATOM     35  C   UNL A   1      46.778  35.952  26.182  1.00  0.00     0.118 C 
BRANCH  35  36
ATOM     36  N   UNL A   1      45.887  35.415  25.162  1.00  0.00    -0.352 N 
ATOM     37  C   UNL A   1      44.958  34.412  25.203  1.00  0.00     0.251 C 
ATOM     38  H   UNL A   1      45.970  35.854  24.284  1.00  0.00     0.163 HD
ATOM     39  O   UNL A   1      44.559  33.954  24.131  1.00  0.00    -0.269 OA
BRANCH  37  40
ATOM     40  C   UNL A   1      44.430  33.868  26.475  1.00  0.00     0.039 A 
ATOM     41  C   UNL A   1      44.438  32.476  26.637  1.00  0.00     0.014 A 
ATOM     42  C   UNL A   1      43.830  34.672  27.447  1.00  0.00     0.014 A 
ATOM     43  C   UNL A   1      43.904  31.899  27.788  1.00  0.00     0.010 A 
ATOM     44  C   UNL A   1      43.306  34.094  28.607  1.00  0.00     0.010 A 
ATOM     45  C   UNL A   1      43.357  32.707  28.794  1.00  0.00    -0.014 A 
BRANCH  45  46
ATOM     46  C   UNL A   1      42.944  32.066  30.060  1.00  0.00     0.031 A 
ATOM     47  C   UNL A   1      41.563  32.400  30.529  1.00  0.00     0.074 A 
ATOM     48  C   UNL A   1      43.525  30.932  30.506  1.00  0.00     0.049 A 
ATOM     49  N   UNL A   1      40.506  31.801  30.066  1.00  0.00    -0.248 NA
ATOM     50  C   UNL A   1      41.261  33.575  31.346  1.00  0.00     0.031 C 
ATOM     51  C   UNL A   1      44.093  29.912  29.613  1.00  0.00     0.029 A 
ATOM     52  N   UNL A   1      43.522  30.332  31.746  1.00  0.00    -0.354 N 
ATOM     53  C   UNL A   1      39.402  32.532  30.467  1.00  0.00     0.074 A 
ATOM     54  C   UNL A   1      39.918  33.613  31.278  1.00  0.00     0.031 C 
ATOM     55  C   UNL A   1      44.209  28.755  30.299  1.00  0.00     0.029 A 
ATOM     56  C   UNL A   1      43.887  28.986  31.705  1.00  0.00     0.049 A 
ATOM     57  H   UNL A   1      43.285  30.805  32.576  1.00  0.00     0.167 HD
ATOM     58  C   UNL A   1      38.133  32.204  30.101  1.00  0.00     0.034 A 
ATOM     59  C   UNL A   1      43.429  28.024  32.556  1.00  0.00     0.034 A 
ATOM     60  C   UNL A   1      38.021  31.035  29.274  1.00  0.00     0.049 A 
ATOM     61  C   UNL A   1      41.976  27.951  32.160  1.00  0.00     0.074 A 
ATOM     62  C   UNL A   1      37.912  30.757  27.929  1.00  0.00     0.029 A 
ATOM     63  N   UNL A   1      38.108  29.801  29.873  1.00  0.00    -0.354 N 
ATOM     64  N   UNL A   1      41.506  27.350  31.097  1.00  0.00    -0.248 NA
ATOM     65  C   UNL A   1      41.061  28.915  32.772  1.00  0.00     0.031 C 
ATOM     66  C   UNL A   1      38.403  29.420  27.773  1.00  0.00     0.029 A 
ATOM     67  C   UNL A   1      38.818  28.984  29.031  1.00  0.00     0.049 A 
ATOM     68  H   UNL A   1      37.729  29.550  30.747  1.00  0.00     0.167 HD
ATOM     69  C   UNL A   1      40.370  28.079  30.734  1.00  0.00     0.074 A 
ATOM     70  C   UNL A   1      40.150  29.019  31.816  1.00  0.00     0.031 C 
ATOM     71  C   UNL A   1      39.769  28.002  29.508  1.00  0.00     0.034 A 
BRANCH  58  72
ATOM     72  C   UNL A   1      36.897  32.847  30.609  1.00  0.00     0.023 A 
ATOM     73  C   UNL A   1      36.527  32.526  31.931  1.00  0.00     0.012 A 
ATOM     74  C   UNL A   1      35.998  33.554  29.793  1.00  0.00     0.148 A 
ATOM     75  C   UNL A   1      35.266  32.849  32.424  1.00  0.00     0.002 A 
ATOM     76  C   UNL A   1      34.739  33.885  30.297  1.00  0.00     0.091 A 
ATOM     77  F   UNL A   1      36.360  33.840  28.535  1.00  0.00    -0.205 F 
ATOM     78  C   UNL A   1      34.369  33.520  31.603  1.00  0.00     0.022 A 
BRANCH  76  79
ATOM     79  S   UNL A   1      33.497  34.760  29.335  1.00  0.00     0.127 S 
ATOM     80  O   UNL A   1      32.539  35.157  30.369  1.00  0.00    -0.237 OA
ATOM     81  O   UNL A   1      34.276  35.868  28.773  1.00  0.00    -0.237 OA
ATOM     82  O   UNL A   1      33.009  33.809  28.355  1.00  0.00    -0.744 OA
ENDBRANCH  76  79
ENDBRANCH  58  72
BRANCH  59  83
ATOM     83  C   UNL A   1      43.905  28.151  33.978  1.00  0.00     0.023 A 
ATOM     84  C   UNL A   1      44.595  29.341  34.318  1.00  0.00     0.012 A 
ATOM     85  C   UNL A   1      43.726  27.199  34.998  1.00  0.00     0.148 A 
ATOM     86  C   UNL A   1      44.985  29.623  35.629  1.00  0.00     0.002 A 
ATOM     87  C   UNL A   1      44.049  27.512  36.319  1.00  0.00     0.091 A 
ATOM     88  F   UNL A   1      43.248  25.989  34.686  1.00  0.00    -0.205 F 
ATOM     89  C   UNL A   1      44.679  28.722  36.638  1.00  0.00     0.022 A 
BRANCH  87  90
ATOM     90  S   UNL A   1      43.592  26.456  37.703  1.00  0.00     0.127 S 
ATOM     91  O   UNL A   1      42.133  26.463  37.624  1.00  0.00    -0.237 OA
ATOM     92  O   UNL A   1      44.225  25.194  37.323  1.00  0.00    -0.237 OA
ATOM     93  O   UNL A   1      44.151  27.093  38.888  1.00  0.00    -0.744 OA
ENDBRANCH  87  90
ENDBRANCH  59  83
BRANCH  71  94
ATOM     94  C   UNL A   1      40.273  26.940  28.576  1.00  0.00     0.023 A 
ATOM     95  C   UNL A   1      39.586  25.711  28.525  1.00  0.00     0.012 A 
ATOM     96  C   UNL A   1      41.346  27.160  27.688  1.00  0.00     0.148 A 
ATOM     97  C   UNL A   1      39.938  24.734  27.596  1.00  0.00     0.002 A 
ATOM     98  C   UNL A   1      41.662  26.202  26.731  1.00  0.00     0.091 A 
ATOM     99  F   UNL A   1      42.032  28.311  27.774  1.00  0.00    -0.205 F 
ATOM    100  C   UNL A   1      40.963  24.986  26.687  1.00  0.00     0.022 A 
BRANCH  98 101
ATOM    101  S   UNL A   1      42.908  26.459  25.461  1.00  0.00     0.127 S 
ATOM    102  O   UNL A   1      42.916  25.168  24.772  1.00  0.00    -0.237 OA
ATOM    103  O   UNL A   1      42.325  27.556  24.688  1.00  0.00    -0.237 OA
ATOM    104  O   UNL A   1      44.144  26.789  26.158  1.00  0.00    -0.744 OA
ENDBRANCH  98 101
ENDBRANCH  71  94
ENDBRANCH  45  46
ENDBRANCH  37  40
ENDBRANCH  35  36
ENDBRANCH   1  35
TORSDOF 18
ENDMDL
