MODEL 1
REMARK VINA RESULT:     -11.9      0.000      0.000
REMARK SMILES C[C@@H]1C[C@@H](C)CN(C(=O)CCn2ccc(C(=O)NCCCNC(=O)c3ccc(-c4c5nc(c(-c6cccc(S(=O)(=O)[O-])c6F)c6ccc([nH]6)c(-c6cccc(S(=O)(=O)[O-])c6F)c6nc(c(-c7cccc(S(=O)(=O)[O-])c7F)c7ccc4[nH]7)C=C6)C=C5)cc3)n2)C1
REMARK SMILES IDX 20 1 19 2 18 3 16 4 17 5 15 7 12 8 13 9 88 10 14 11 11 12
REMARK SMILES IDX 10 13 8 14 1 15 2 16 3 17 89 18 4 19 7 20 6 21 5 22 9 23
REMARK SMILES IDX 21 24 22 25 23 26 24 28 25 29 26 30 87 31 27 32 86 33 28 34
REMARK SMILES IDX 29 35 30 36 80 37 31 38 85 39 79 40 81 41 32 42 84 43 78 44
REMARK SMILES IDX 77 45 33 47 65 48 45 49 64 50 46 51 49 52 63 53 82 54 47 55
REMARK SMILES IDX 48 56 62 58 83 59 50 60 34 61 35 62 43 63 36 64 38 65 44 66
REMARK SMILES IDX 37 67 39 68 40 69 41 70 42 71 66 72 67 73 75 74 68 75 70 76
REMARK SMILES IDX 76 77 69 78 71 79 72 80 73 81 74 82 51 83 52 84 60 85 53 86
REMARK SMILES IDX 55 87 61 88 54 89 56 90 57 91 58 92 59 93
REMARK H PARENT 18 6 22 27 81 46 49 57
REMARK Flexibility Score: inf
ROOT
ATOM      1  C   UNL A   1      38.637  20.553  25.027  1.00  0.00     0.042 C 
ENDROOT
BRANCH   1   2
ATOM      2  C   UNL A   1      37.905  21.829  25.438  1.00  0.00     0.118 C 
BRANCH   2   3
ATOM      3  N   UNL A   1      37.306  22.485  24.288  1.00  0.00    -0.351 N 
ATOM      4  C   UNL A   1      35.995  22.525  23.859  1.00  0.00     0.271 C 
ATOM      5  O   UNL A   1      35.774  23.036  22.764  1.00  0.00    -0.267 OA
ATOM      6  H   UNL A   1      37.940  22.983  23.722  1.00  0.00     0.163 HD
BRANCH   4   7
ATOM      7  C   UNL A   1      34.892  22.112  24.748  1.00  0.00     0.150 A 
ATOM      8  N   UNL A   1      33.156  22.321  25.948  1.00  0.00    -0.271 N 
ATOM      9  C   UNL A   1      33.032  21.075  25.418  1.00  0.00     0.109 A 
ATOM     10  N   UNL A   1      34.346  22.888  25.698  1.00  0.00    -0.168 NA
ATOM     11  C   UNL A   1      34.154  20.897  24.639  1.00  0.00     0.056 A 
BRANCH   8  12
ATOM     12  C   UNL A   1      32.148  23.099  26.644  1.00  0.00     0.154 C 
BRANCH  12  13
ATOM     13  C   UNL A   1      30.878  23.314  25.820  1.00  0.00     0.124 C 
BRANCH  13  14
ATOM     14  C   UNL A   1      31.098  24.286  24.683  1.00  0.00     0.224 C 
ATOM     15  C   UNL A   1      33.479  26.718  23.705  1.00  0.00     0.009 C 
ATOM     16  C   UNL A   1      32.150  27.472  23.802  1.00  0.00     0.006 C 
ATOM     17  C   UNL A   1      32.040  28.279  25.103  1.00  0.00     0.010 C 
ATOM     18  C   UNL A   1      30.959  26.516  23.691  1.00  0.00     0.122 C 
ATOM     19  C   UNL A   1      31.853  27.386  26.341  1.00  0.00     0.006 C 
ATOM     20  N   UNL A   1      30.887  25.643  24.859  1.00  0.00    -0.342 N 
ATOM     21  C   UNL A   1      30.710  26.369  26.123  1.00  0.00     0.122 C 
ATOM     22  C   UNL A   1      31.633  28.260  27.579  1.00  0.00     0.009 C 
ATOM     23  O   UNL A   1      31.449  23.821  23.591  1.00  0.00    -0.275 OA
ENDBRANCH  13  14
ENDBRANCH  12  13
ENDBRANCH   8  12
ENDBRANCH   4   7
ENDBRANCH   2   3
ENDBRANCH   1   2
BRANCH   1  24
ATOM     24  C   UNL A   1      39.326  19.912  26.224  1.00  0.00     0.118 C 
BRANCH  24  25
ATOM     25  N   UNL A   1      40.518  19.170  25.824  1.00  0.00    -0.352 N 
ATOM     26  C   UNL A   1      41.818  19.627  25.749  1.00  0.00     0.251 C 
ATOM     27  H   UNL A   1      40.378  18.227  25.577  1.00  0.00     0.163 HD
ATOM     28  O   UNL A   1      42.647  19.023  25.090  1.00  0.00    -0.269 OA
BRANCH  26  29
ATOM     29  C   UNL A   1      42.179  20.867  26.462  1.00  0.00     0.039 A 
ATOM     30  C   UNL A   1      42.526  22.003  25.730  1.00  0.00     0.014 A 
ATOM     31  C   UNL A   1      42.150  20.894  27.857  1.00  0.00     0.014 A 
ATOM     32  C   UNL A   1      42.763  23.194  26.408  1.00  0.00     0.010 A 
ATOM     33  C   UNL A   1      42.295  22.095  28.523  1.00  0.00     0.010 A 
ATOM     34  C   UNL A   1      42.616  23.245  27.805  1.00  0.00    -0.014 A 
BRANCH  34  35
ATOM     35  C   UNL A   1      42.609  24.548  28.472  1.00  0.00     0.031 A 
ATOM     36  C   UNL A   1      41.379  25.350  28.217  1.00  0.00     0.074 A 
ATOM     37  C   UNL A   1      43.510  24.940  29.398  1.00  0.00     0.049 A 
ATOM     38  N   UNL A   1      41.285  26.456  27.554  1.00  0.00    -0.248 NA
ATOM     39  C   UNL A   1      40.081  24.781  28.614  1.00  0.00     0.031 C 
ATOM     40  C   UNL A   1      44.592  24.137  29.977  1.00  0.00     0.029 A 
ATOM     41  N   UNL A   1      43.561  26.094  30.129  1.00  0.00    -0.354 N 
ATOM     42  C   UNL A   1      39.956  26.852  27.685  1.00  0.00     0.074 A 
ATOM     43  C   UNL A   1      39.233  25.699  28.145  1.00  0.00     0.031 C 
ATOM     44  C   UNL A   1      45.010  24.712  31.125  1.00  0.00     0.029 A 
ATOM     45  C   UNL A   1      44.349  25.994  31.274  1.00  0.00     0.049 A 
ATOM     46  H   UNL A   1      43.087  26.917  29.871  1.00  0.00     0.167 HD
ATOM     47  C   UNL A   1      39.620  28.172  27.690  1.00  0.00     0.034 A 
ATOM     48  C   UNL A   1      44.422  26.877  32.298  1.00  0.00     0.034 A 
ATOM     49  C   UNL A   1      40.697  28.991  27.193  1.00  0.00     0.049 A 
ATOM     50  C   UNL A   1      43.950  28.182  31.792  1.00  0.00     0.074 A 
ATOM     51  C   UNL A   1      41.427  29.073  26.026  1.00  0.00     0.029 A 
ATOM     52  N   UNL A   1      41.408  29.675  28.145  1.00  0.00    -0.354 N 
ATOM     53  N   UNL A   1      44.602  28.893  30.916  1.00  0.00    -0.248 NA
ATOM     54  C   UNL A   1      42.566  28.567  32.008  1.00  0.00     0.031 C 
ATOM     55  C   UNL A   1      42.740  29.455  26.432  1.00  0.00     0.029 A 
ATOM     56  C   UNL A   1      42.733  29.644  27.816  1.00  0.00     0.049 A 
ATOM     57  H   UNL A   1      41.025  30.117  28.938  1.00  0.00     0.167 HD
ATOM     58  C   UNL A   1      43.605  29.465  30.141  1.00  0.00     0.074 A 
ATOM     59  C   UNL A   1      42.401  29.380  30.962  1.00  0.00     0.031 C 
ATOM     60  C   UNL A   1      43.794  29.659  28.802  1.00  0.00     0.034 A 
BRANCH  47  61
ATOM     61  C   UNL A   1      38.519  28.779  28.544  1.00  0.00     0.023 A 
ATOM     62  C   UNL A   1      37.568  29.594  27.885  1.00  0.00     0.012 A 
ATOM     63  C   UNL A   1      38.542  28.848  29.955  1.00  0.00     0.148 A 
ATOM     64  C   UNL A   1      36.737  30.474  28.586  1.00  0.00     0.002 A 
ATOM     65  C   UNL A   1      37.653  29.659  30.653  1.00  0.00     0.091 A 
ATOM     66  F   UNL A   1      39.514  28.246  30.644  1.00  0.00    -0.205 F 
ATOM     67  C   UNL A   1      36.773  30.502  29.974  1.00  0.00     0.022 A 
BRANCH  65  68
ATOM     68  S   UNL A   1      37.620  29.685  32.450  1.00  0.00     0.127 S 
ATOM     69  O   UNL A   1      36.491  30.575  32.709  1.00  0.00    -0.237 OA
ATOM     70  O   UNL A   1      37.386  28.275  32.765  1.00  0.00    -0.237 OA
ATOM     71  O   UNL A   1      38.932  30.175  32.856  1.00  0.00    -0.744 OA
ENDBRANCH  65  68
ENDBRANCH  47  61
BRANCH  48  72
ATOM     72  C   UNL A   1      44.716  26.670  33.735  1.00  0.00     0.023 A 
ATOM     73  C   UNL A   1      45.995  26.989  34.235  1.00  0.00     0.012 A 
ATOM     74  C   UNL A   1      43.674  26.445  34.660  1.00  0.00     0.148 A 
ATOM     75  C   UNL A   1      46.218  27.131  35.609  1.00  0.00     0.002 A 
ATOM     76  C   UNL A   1      43.903  26.583  36.027  1.00  0.00     0.091 A 
ATOM     77  F   UNL A   1      42.443  26.193  34.199  1.00  0.00    -0.205 F 
ATOM     78  C   UNL A   1      45.170  26.941  36.505  1.00  0.00     0.022 A 
BRANCH  76  79
ATOM     79  S   UNL A   1      42.593  26.374  37.241  1.00  0.00     0.127 S 
ATOM     80  O   UNL A   1      42.105  25.028  36.934  1.00  0.00    -0.237 OA
ATOM     81  O   UNL A   1      43.326  26.488  38.498  1.00  0.00    -0.237 OA
ATOM     82  O   UNL A   1      41.630  27.433  36.968  1.00  0.00    -0.744 OA
ENDBRANCH  76  79
ENDBRANCH  48  72
BRANCH  60  83
ATOM     83  C   UNL A   1      45.210  29.644  28.282  1.00  0.00     0.023 A 
ATOM     84  C   UNL A   1      46.055  30.772  28.322  1.00  0.00     0.012 A 
ATOM     85  C   UNL A   1      45.735  28.421  27.834  1.00  0.00     0.148 A 
ATOM     86  C   UNL A   1      47.379  30.691  27.880  1.00  0.00     0.002 A 
ATOM     87  C   UNL A   1      47.066  28.331  27.445  1.00  0.00     0.091 A 
ATOM     88  F   UNL A   1      44.924  27.352  27.798  1.00  0.00    -0.205 F 
ATOM     89  C   UNL A   1      47.889  29.467  27.452  1.00  0.00     0.022 A 
BRANCH  87  90
ATOM     90  S   UNL A   1      47.795  26.753  27.003  1.00  0.00     0.127 S 
ATOM     91  O   UNL A   1      47.716  26.016  28.263  1.00  0.00    -0.237 OA
ATOM     92  O   UNL A   1      46.897  26.268  25.953  1.00  0.00    -0.237 OA
ATOM     93  O   UNL A   1      49.141  27.059  26.532  1.00  0.00    -0.744 OA
ENDBRANCH  87  90
ENDBRANCH  60  83
ENDBRANCH  34  35
ENDBRANCH  26  29
ENDBRANCH  24  25
ENDBRANCH   1  24
TORSDOF 16
ENDMDL
MODEL 2
REMARK VINA RESULT:     -11.9      4.204      9.737
REMARK SMILES C[C@@H]1C[C@@H](C)CN(C(=O)CCn2ccc(C(=O)NCCCNC(=O)c3ccc(-c4c5nc(c(-c6cccc(S(=O)(=O)[O-])c6F)c6ccc([nH]6)c(-c6cccc(S(=O)(=O)[O-])c6F)c6nc(c(-c7cccc(S(=O)(=O)[O-])c7F)c7ccc4[nH]7)C=C6)C=C5)cc3)n2)C1
REMARK SMILES IDX 20 1 19 2 18 3 16 4 17 5 15 7 12 8 13 9 88 10 14 11 11 12
REMARK SMILES IDX 10 13 8 14 1 15 2 16 3 17 89 18 4 19 7 20 6 21 5 22 9 23
REMARK SMILES IDX 21 24 22 25 23 26 24 28 25 29 26 30 87 31 27 32 86 33 28 34
REMARK SMILES IDX 29 35 30 36 80 37 31 38 85 39 79 40 81 41 32 42 84 43 78 44
REMARK SMILES IDX 77 45 33 47 65 48 45 49 64 50 46 51 49 52 63 53 82 54 47 55
REMARK SMILES IDX 48 56 62 58 83 59 50 60 34 61 35 62 43 63 36 64 38 65 44 66
REMARK SMILES IDX 37 67 39 68 40 69 41 70 42 71 66 72 67 73 75 74 68 75 70 76
REMARK SMILES IDX 76 77 69 78 71 79 72 80 73 81 74 82 51 83 52 84 60 85 53 86
REMARK SMILES IDX 55 87 61 88 54 89 56 90 57 91 58 92 59 93
REMARK H PARENT 18 6 22 27 81 46 49 57
REMARK Flexibility Score: inf
ROOT
ATOM      1  C   UNL A   1      35.007  33.262  29.186  1.00  0.00     0.042 C 
ENDROOT
BRANCH   1   2
ATOM      2  C   UNL A   1      35.290  34.752  29.006  1.00  0.00     0.118 C 
BRANCH   2   3
ATOM      3  N   UNL A   1      34.086  35.473  28.630  1.00  0.00    -0.351 N 
ATOM      4  C   UNL A   1      33.074  35.998  29.409  1.00  0.00     0.271 C 
ATOM      5  O   UNL A   1      32.086  36.440  28.829  1.00  0.00    -0.267 OA
ATOM      6  H   UNL A   1      33.973  35.611  27.662  1.00  0.00     0.163 HD
BRANCH   4   7
ATOM      7  C   UNL A   1      33.243  36.160  30.865  1.00  0.00     0.150 A 
ATOM      8  N   UNL A   1      33.943  35.724  32.820  1.00  0.00    -0.271 N 
ATOM      9  C   UNL A   1      33.864  37.081  32.803  1.00  0.00     0.109 A 
ATOM     10  N   UNL A   1      33.410  35.147  31.733  1.00  0.00    -0.168 NA
ATOM     11  C   UNL A   1      33.398  37.403  31.547  1.00  0.00     0.056 A 
BRANCH   8  12
ATOM     12  C   UNL A   1      34.594  34.880  33.805  1.00  0.00     0.154 C 
BRANCH  12  13
ATOM     13  C   UNL A   1      34.918  33.481  33.280  1.00  0.00     0.124 C 
BRANCH  13  14
ATOM     14  C   UNL A   1      36.186  32.927  33.888  1.00  0.00     0.224 C 
ATOM     15  C   UNL A   1      39.640  33.701  33.969  1.00  0.00     0.009 C 
ATOM     16  C   UNL A   1      39.558  32.284  33.392  1.00  0.00     0.006 C 
ATOM     17  C   UNL A   1      39.720  32.275  31.866  1.00  0.00     0.010 C 
ATOM     18  C   UNL A   1      38.239  31.605  33.771  1.00  0.00     0.122 C 
ATOM     19  C   UNL A   1      38.499  32.858  31.136  1.00  0.00     0.006 C 
ATOM     20  N   UNL A   1      37.114  32.258  33.108  1.00  0.00    -0.342 N 
ATOM     21  C   UNL A   1      37.190  32.211  31.643  1.00  0.00     0.122 C 
ATOM     22  C   UNL A   1      38.681  32.707  29.623  1.00  0.00     0.009 C 
ATOM     23  O   UNL A   1      36.348  33.073  35.106  1.00  0.00    -0.275 OA
ENDBRANCH  13  14
ENDBRANCH  12  13
ENDBRANCH   8  12
ENDBRANCH   4   7
ENDBRANCH   2   3
ENDBRANCH   1   2
BRANCH   1  24
ATOM     24  C   UNL A   1      35.300  32.494  27.904  1.00  0.00     0.118 C 
BRANCH  24  25
ATOM     25  N   UNL A   1      34.535  31.251  27.836  1.00  0.00    -0.352 N 
ATOM     26  C   UNL A   1      35.015  29.957  27.855  1.00  0.00     0.251 C 
ATOM     27  H   UNL A   1      33.557  31.347  27.770  1.00  0.00     0.163 HD
ATOM     28  O   UNL A   1      34.321  29.037  27.456  1.00  0.00    -0.269 OA
BRANCH  26  29
ATOM     29  C   UNL A   1      36.385  29.712  28.343  1.00  0.00     0.039 A 
ATOM     30  C   UNL A   1      36.577  29.270  29.653  1.00  0.00     0.014 A 
ATOM     31  C   UNL A   1      37.468  29.906  27.486  1.00  0.00     0.014 A 
ATOM     32  C   UNL A   1      37.863  28.942  30.070  1.00  0.00     0.010 A 
ATOM     33  C   UNL A   1      38.729  29.494  27.869  1.00  0.00     0.010 A 
ATOM     34  C   UNL A   1      38.935  29.026  29.165  1.00  0.00    -0.014 A 
BRANCH  34  35
ATOM     35  C   UNL A   1      40.223  28.434  29.531  1.00  0.00     0.031 A 
ATOM     36  C   UNL A   1      40.576  28.600  30.969  1.00  0.00     0.074 A 
ATOM     37  C   UNL A   1      40.954  27.632  28.728  1.00  0.00     0.049 A 
ATOM     38  N   UNL A   1      41.537  29.309  31.466  1.00  0.00    -0.248 NA
ATOM     39  C   UNL A   1      39.667  28.036  31.981  1.00  0.00     0.031 C 
ATOM     40  C   UNL A   1      40.581  27.128  27.403  1.00  0.00     0.029 A 
ATOM     41  N   UNL A   1      42.124  26.974  28.987  1.00  0.00    -0.354 N 
ATOM     42  C   UNL A   1      41.508  29.059  32.837  1.00  0.00     0.074 A 
ATOM     43  C   UNL A   1      40.230  28.462  33.113  1.00  0.00     0.031 C 
ATOM     44  C   UNL A   1      41.353  26.065  27.095  1.00  0.00     0.029 A 
ATOM     45  C   UNL A   1      42.374  25.917  28.115  1.00  0.00     0.049 A 
ATOM     46  H   UNL A   1      42.733  27.226  29.719  1.00  0.00     0.167 HD
ATOM     47  C   UNL A   1      42.652  29.090  33.574  1.00  0.00     0.034 A 
ATOM     48  C   UNL A   1      43.320  24.956  28.242  1.00  0.00     0.034 A 
ATOM     49  C   UNL A   1      43.721  29.743  32.861  1.00  0.00     0.049 A 
ATOM     50  C   UNL A   1      44.364  25.480  29.146  1.00  0.00     0.074 A 
ATOM     51  C   UNL A   1      43.927  30.984  32.295  1.00  0.00     0.029 A 
ATOM     52  N   UNL A   1      44.671  28.911  32.327  1.00  0.00    -0.354 N 
ATOM     53  N   UNL A   1      45.165  26.457  28.831  1.00  0.00    -0.248 NA
ATOM     54  C   UNL A   1      44.315  25.139  30.557  1.00  0.00     0.031 C 
ATOM     55  C   UNL A   1      44.733  30.741  31.143  1.00  0.00     0.029 A 
ATOM     56  C   UNL A   1      45.027  29.377  31.094  1.00  0.00     0.049 A 
ATOM     57  H   UNL A   1      45.038  28.107  32.763  1.00  0.00     0.167 HD
ATOM     58  C   UNL A   1      45.329  27.151  30.019  1.00  0.00     0.074 A 
ATOM     59  C   UNL A   1      44.943  26.204  31.060  1.00  0.00     0.031 C 
ATOM     60  C   UNL A   1      45.456  28.512  30.014  1.00  0.00     0.034 A 
BRANCH  47  61
ATOM     61  C   UNL A   1      42.956  28.158  34.736  1.00  0.00     0.023 A 
ATOM     62  C   UNL A   1      43.376  28.756  35.948  1.00  0.00     0.012 A 
ATOM     63  C   UNL A   1      43.148  26.763  34.618  1.00  0.00     0.148 A 
ATOM     64  C   UNL A   1      44.011  28.018  36.954  1.00  0.00     0.002 A 
ATOM     65  C   UNL A   1      43.697  26.019  35.658  1.00  0.00     0.091 A 
ATOM     66  F   UNL A   1      42.938  26.150  33.451  1.00  0.00    -0.205 F 
ATOM     67  C   UNL A   1      44.165  26.646  36.813  1.00  0.00     0.022 A 
BRANCH  65  68
ATOM     68  S   UNL A   1      43.863  24.233  35.547  1.00  0.00     0.127 S 
ATOM     69  O   UNL A   1      44.782  24.095  34.420  1.00  0.00    -0.237 OA
ATOM     70  O   UNL A   1      44.431  23.904  36.855  1.00  0.00    -0.237 OA
ATOM     71  O   UNL A   1      42.512  23.729  35.341  1.00  0.00    -0.744 OA
ENDBRANCH  65  68
ENDBRANCH  47  61
BRANCH  48  72
ATOM     72  C   UNL A   1      43.339  23.549  27.779  1.00  0.00     0.023 A 
ATOM     73  C   UNL A   1      42.357  22.652  28.246  1.00  0.00     0.012 A 
ATOM     74  C   UNL A   1      44.123  23.163  26.671  1.00  0.00     0.148 A 
ATOM     75  C   UNL A   1      42.127  21.432  27.599  1.00  0.00     0.002 A 
ATOM     76  C   UNL A   1      43.894  21.946  26.034  1.00  0.00     0.091 A 
ATOM     77  F   UNL A   1      45.023  24.026  26.184  1.00  0.00    -0.205 F 
ATOM     78  C   UNL A   1      42.886  21.085  26.486  1.00  0.00     0.022 A 
BRANCH  76  79
ATOM     79  S   UNL A   1      44.819  21.440  24.578  1.00  0.00     0.127 S 
ATOM     80  O   UNL A   1      44.409  22.443  23.593  1.00  0.00    -0.237 OA
ATOM     81  O   UNL A   1      46.198  21.565  25.039  1.00  0.00    -0.237 OA
ATOM     82  O   UNL A   1      44.369  20.088  24.274  1.00  0.00    -0.744 OA
ENDBRANCH  76  79
ENDBRANCH  48  72
BRANCH  60  83
ATOM     83  C   UNL A   1      45.840  29.178  28.717  1.00  0.00     0.023 A 
ATOM     84  C   UNL A   1      44.899  29.549  27.735  1.00  0.00     0.012 A 
ATOM     85  C   UNL A   1      47.186  29.535  28.531  1.00  0.00     0.148 A 
ATOM     86  C   UNL A   1      45.299  30.217  26.574  1.00  0.00     0.002 A 
ATOM     87  C   UNL A   1      47.573  30.246  27.402  1.00  0.00     0.091 A 
ATOM     88  F   UNL A   1      48.076  29.179  29.471  1.00  0.00    -0.205 F 
ATOM     89  C   UNL A   1      46.635  30.576  26.413  1.00  0.00     0.022 A 
BRANCH  87  90
ATOM     90  S   UNL A   1      49.257  30.833  27.212  1.00  0.00     0.127 S 
ATOM     91  O   UNL A   1      49.883  29.737  26.476  1.00  0.00    -0.237 OA
ATOM     92  O   UNL A   1      49.081  32.066  26.442  1.00  0.00    -0.237 OA
ATOM     93  O   UNL A   1      49.752  31.050  28.567  1.00  0.00    -0.744 OA
ENDBRANCH  87  90
ENDBRANCH  60  83
ENDBRANCH  34  35
ENDBRANCH  26  29
ENDBRANCH  24  25
ENDBRANCH   1  24
TORSDOF 16
ENDMDL
MODEL 3
REMARK VINA RESULT:     -11.5      4.902     10.319
REMARK SMILES C[C@@H]1C[C@@H](C)CN(C(=O)CCn2ccc(C(=O)NCCCNC(=O)c3ccc(-c4c5nc(c(-c6cccc(S(=O)(=O)[O-])c6F)c6ccc([nH]6)c(-c6cccc(S(=O)(=O)[O-])c6F)c6nc(c(-c7cccc(S(=O)(=O)[O-])c7F)c7ccc4[nH]7)C=C6)C=C5)cc3)n2)C1
REMARK SMILES IDX 20 1 19 2 18 3 16 4 17 5 15 7 12 8 13 9 88 10 14 11 11 12
REMARK SMILES IDX 10 13 8 14 1 15 2 16 3 17 89 18 4 19 7 20 6 21 5 22 9 23
REMARK SMILES IDX 21 24 22 25 23 26 24 28 25 29 26 30 87 31 27 32 86 33 28 34
REMARK SMILES IDX 29 35 30 36 80 37 31 38 85 39 79 40 81 41 32 42 84 43 78 44
REMARK SMILES IDX 77 45 33 47 65 48 45 49 64 50 46 51 49 52 63 53 82 54 47 55
REMARK SMILES IDX 48 56 62 58 83 59 50 60 34 61 35 62 43 63 36 64 38 65 44 66
REMARK SMILES IDX 37 67 39 68 40 69 41 70 42 71 66 72 67 73 75 74 68 75 70 76
REMARK SMILES IDX 76 77 69 78 71 79 72 80 73 81 74 82 51 83 52 84 60 85 53 86
REMARK SMILES IDX 55 87 61 88 54 89 56 90 57 91 58 92 59 93
REMARK H PARENT 18 6 22 27 81 46 49 57
REMARK Flexibility Score: inf
ROOT
ATOM      1  C   UNL A   1      35.537  33.389  27.983  1.00  0.00     0.042 C 
ENDROOT
BRANCH   1   2
ATOM      2  C   UNL A   1      34.097  33.894  28.029  1.00  0.00     0.118 C 
BRANCH   2   3
ATOM      3  N   UNL A   1      34.050  35.345  28.090  1.00  0.00    -0.351 N 
ATOM      4  C   UNL A   1      33.520  36.187  29.047  1.00  0.00     0.271 C 
ATOM      5  O   UNL A   1      33.483  37.386  28.785  1.00  0.00    -0.267 OA
ATOM      6  H   UNL A   1      34.464  35.803  27.323  1.00  0.00     0.163 HD
BRANCH   4   7
ATOM      7  C   UNL A   1      33.157  35.683  30.385  1.00  0.00     0.150 A 
ATOM      8  N   UNL A   1      33.435  34.766  32.277  1.00  0.00    -0.271 N 
ATOM      9  C   UNL A   1      32.493  35.717  32.516  1.00  0.00     0.109 A 
ATOM     10  N   UNL A   1      33.717  34.613  30.975  1.00  0.00    -0.168 NA
ATOM     11  C   UNL A   1      32.276  36.328  31.301  1.00  0.00     0.056 A 
BRANCH   8  12
ATOM     12  C   UNL A   1      34.196  34.001  33.248  1.00  0.00     0.154 C 
BRANCH  12  13
ATOM     13  C   UNL A   1      35.309  34.811  33.914  1.00  0.00     0.124 C 
BRANCH  13  14
ATOM     14  C   UNL A   1      36.139  33.967  34.854  1.00  0.00     0.224 C 
ATOM     15  C   UNL A   1      39.141  34.249  36.711  1.00  0.00     0.009 C 
ATOM     16  C   UNL A   1      39.346  33.039  35.794  1.00  0.00     0.006 C 
ATOM     17  C   UNL A   1      40.212  33.382  34.574  1.00  0.00     0.010 C 
ATOM     18  C   UNL A   1      38.007  32.463  35.326  1.00  0.00     0.122 C 
ATOM     19  C   UNL A   1      39.479  34.277  33.561  1.00  0.00     0.006 C 
ATOM     20  N   UNL A   1      37.328  33.396  34.432  1.00  0.00    -0.342 N 
ATOM     21  C   UNL A   1      38.089  33.700  33.214  1.00  0.00     0.122 C 
ATOM     22  C   UNL A   1      40.357  34.479  32.322  1.00  0.00     0.009 C 
ATOM     23  O   UNL A   1      35.705  33.788  35.998  1.00  0.00    -0.275 OA
ENDBRANCH  13  14
ENDBRANCH  12  13
ENDBRANCH   8  12
ENDBRANCH   4   7
ENDBRANCH   2   3
ENDBRANCH   1   2
BRANCH   1  24
ATOM     24  C   UNL A   1      35.659  32.029  28.656  1.00  0.00     0.118 C 
BRANCH  24  25
ATOM     25  N   UNL A   1      35.416  32.117  30.093  1.00  0.00    -0.352 N 
ATOM     26  C   UNL A   1      36.037  31.413  31.104  1.00  0.00     0.251 C 
ATOM     27  H   UNL A   1      34.724  32.759  30.377  1.00  0.00     0.163 HD
ATOM     28  O   UNL A   1      35.519  31.329  32.205  1.00  0.00    -0.269 OA
BRANCH  26  29
ATOM     29  C   UNL A   1      37.324  30.749  30.824  1.00  0.00     0.039 A 
ATOM     30  C   UNL A   1      38.514  31.459  30.991  1.00  0.00     0.014 A 
ATOM     31  C   UNL A   1      37.337  29.415  30.414  1.00  0.00     0.014 A 
ATOM     32  C   UNL A   1      39.724  30.792  30.825  1.00  0.00     0.010 A 
ATOM     33  C   UNL A   1      38.533  28.732  30.339  1.00  0.00     0.010 A 
ATOM     34  C   UNL A   1      39.731  29.419  30.528  1.00  0.00    -0.014 A 
BRANCH  34  35
ATOM     35  C   UNL A   1      40.991  28.680  30.616  1.00  0.00     0.031 A 
ATOM     36  C   UNL A   1      41.511  28.536  32.005  1.00  0.00     0.074 A 
ATOM     37  C   UNL A   1      41.556  28.003  29.593  1.00  0.00     0.049 A 
ATOM     38  N   UNL A   1      42.581  29.065  32.503  1.00  0.00    -0.248 NA
ATOM     39  C   UNL A   1      40.669  27.848  32.997  1.00  0.00     0.031 C 
ATOM     40  C   UNL A   1      40.997  27.795  28.253  1.00  0.00     0.029 A 
ATOM     41  N   UNL A   1      42.681  27.228  29.577  1.00  0.00    -0.354 N 
ATOM     42  C   UNL A   1      42.678  28.554  33.795  1.00  0.00     0.074 A 
ATOM     43  C   UNL A   1      41.388  28.004  34.111  1.00  0.00     0.031 C 
ATOM     44  C   UNL A   1      41.631  26.763  27.659  1.00  0.00     0.029 A 
ATOM     45  C   UNL A   1      42.738  26.347  28.499  1.00  0.00     0.049 A 
ATOM     46  H   UNL A   1      43.386  27.288  30.262  1.00  0.00     0.167 HD
ATOM     47  C   UNL A   1      43.893  28.361  34.378  1.00  0.00     0.034 A 
ATOM     48  C   UNL A   1      43.600  25.317  28.326  1.00  0.00     0.034 A 
ATOM     49  C   UNL A   1      44.934  29.066  33.673  1.00  0.00     0.049 A 
ATOM     50  C   UNL A   1      44.779  25.581  29.176  1.00  0.00     0.074 A 
ATOM     51  C   UNL A   1      45.189  30.377  33.328  1.00  0.00     0.029 A 
ATOM     52  N   UNL A   1      45.740  28.291  32.880  1.00  0.00    -0.354 N 
ATOM     53  N   UNL A   1      45.627  26.544  28.953  1.00  0.00    -0.248 NA
ATOM     54  C   UNL A   1      44.853  24.973  30.494  1.00  0.00     0.031 C 
ATOM     55  C   UNL A   1      45.840  30.310  32.060  1.00  0.00     0.029 A 
ATOM     56  C   UNL A   1      46.002  28.965  31.721  1.00  0.00     0.049 A 
ATOM     57  H   UNL A   1      46.077  27.394  33.109  1.00  0.00     0.167 HD
ATOM     58  C   UNL A   1      45.982  26.978  30.220  1.00  0.00     0.074 A 
ATOM     59  C   UNL A   1      45.625  25.874  31.105  1.00  0.00     0.031 C 
ATOM     60  C   UNL A   1      46.232  28.301  30.454  1.00  0.00     0.034 A 
BRANCH  47  61
ATOM     61  C   UNL A   1      44.234  27.201  35.299  1.00  0.00     0.023 A 
ATOM     62  C   UNL A   1      44.902  27.512  36.507  1.00  0.00     0.012 A 
ATOM     63  C   UNL A   1      44.218  25.840  34.917  1.00  0.00     0.148 A 
ATOM     64  C   UNL A   1      45.571  26.536  37.254  1.00  0.00     0.002 A 
ATOM     65  C   UNL A   1      44.807  24.860  35.710  1.00  0.00     0.091 A 
ATOM     66  F   UNL A   1      43.759  25.483  33.715  1.00  0.00    -0.205 F 
ATOM     67  C   UNL A   1      45.517  25.206  36.860  1.00  0.00     0.022 A 
BRANCH  65  68
ATOM     68  S   UNL A   1      44.713  23.119  35.273  1.00  0.00     0.127 S 
ATOM     69  O   UNL A   1      43.277  22.944  35.078  1.00  0.00    -0.237 OA
ATOM     70  O   UNL A   1      45.516  23.075  34.050  1.00  0.00    -0.237 OA
ATOM     71  O   UNL A   1      45.303  22.404  36.397  1.00  0.00    -0.744 OA
ENDBRANCH  65  68
ENDBRANCH  47  61
BRANCH  48  72
ATOM     72  C   UNL A   1      43.440  24.031  27.610  1.00  0.00     0.023 A 
ATOM     73  C   UNL A   1      42.197  23.368  27.644  1.00  0.00     0.012 A 
ATOM     74  C   UNL A   1      44.398  23.606  26.664  1.00  0.00     0.148 A 
ATOM     75  C   UNL A   1      41.896  22.351  26.731  1.00  0.00     0.002 A 
ATOM     76  C   UNL A   1      44.096  22.590  25.762  1.00  0.00     0.091 A 
ATOM     77  F   UNL A   1      45.563  24.261  26.586  1.00  0.00    -0.205 F 
ATOM     78  C   UNL A   1      42.839  21.970  25.782  1.00  0.00     0.022 A 
BRANCH  76  79
ATOM     79  S   UNL A   1      45.256  22.061  24.495  1.00  0.00     0.127 S 
ATOM     80  O   UNL A   1      46.353  21.513  25.296  1.00  0.00    -0.237 OA
ATOM     81  O   UNL A   1      44.474  21.066  23.767  1.00  0.00    -0.237 OA
ATOM     82  O   UNL A   1      45.605  23.264  23.751  1.00  0.00    -0.744 OA
ENDBRANCH  76  79
ENDBRANCH  48  72
BRANCH  60  83
ATOM     83  C   UNL A   1      46.532  29.181  29.267  1.00  0.00     0.023 A 
ATOM     84  C   UNL A   1      47.795  29.223  28.640  1.00  0.00     0.012 A 
ATOM     85  C   UNL A   1      45.473  29.911  28.702  1.00  0.00     0.148 A 
ATOM     86  C   UNL A   1      48.006  30.012  27.507  1.00  0.00     0.002 A 
ATOM     87  C   UNL A   1      45.673  30.653  27.544  1.00  0.00     0.091 A 
ATOM     88  F   UNL A   1      44.274  29.865  29.304  1.00  0.00    -0.205 F 
ATOM     89  C   UNL A   1      46.941  30.718  26.951  1.00  0.00     0.022 A 
BRANCH  87  90
ATOM     90  S   UNL A   1      44.305  31.477  26.728  1.00  0.00     0.127 S 
ATOM     91  O   UNL A   1      44.952  32.052  25.551  1.00  0.00    -0.237 OA
ATOM     92  O   UNL A   1      43.388  30.371  26.443  1.00  0.00    -0.237 OA
ATOM     93  O   UNL A   1      43.788  32.435  27.699  1.00  0.00    -0.744 OA
ENDBRANCH  87  90
ENDBRANCH  60  83
ENDBRANCH  34  35
ENDBRANCH  26  29
ENDBRANCH  24  25
ENDBRANCH   1  24
TORSDOF 16
ENDMDL
