MODEL 1
REMARK VINA RESULT:     -12.8      0.000      0.000
REMARK SMILES O=C(NCCCNC(=O)[C@H]1CC2=c3ccccc3=N[C@H]2[C@@H](c2ccccc2)[NH2+]1)c1ccc(-c2c3nc(c(-c4cccc(S(=O)(=O)[O-])c4F)c4ccc([nH]4)c(-c4cccc(S(=O)(=O)[O-])c4F)c4nc(c(-c5cccc(S(=O)(=O)[O-])c5F)c5ccc2[nH]5)C=C4)C=C3)cc1
REMARK SMILES IDX 4 1 3 2 1 3 2 4 29 6 30 7 91 8 31 9 90 10 32 11 33 12 34 13
REMARK SMILES IDX 84 14 35 15 89 16 83 17 85 18 36 19 88 20 82 21 81 22 37 24
REMARK SMILES IDX 69 25 49 26 68 27 50 28 53 29 67 30 86 31 51 32 52 33 66 35
REMARK SMILES IDX 87 36 54 37 38 38 39 39 47 40 40 41 42 42 48 43 41 44 43 45
REMARK SMILES IDX 44 46 45 47 46 48 70 49 71 50 79 51 72 52 74 53 80 54 73 55
REMARK SMILES IDX 75 56 76 57 77 58 78 59 55 60 56 61 64 62 57 63 59 64 65 65
REMARK SMILES IDX 58 66 60 67 61 68 62 69 63 70 5 71 6 72 7 73 8 74 9 76 10 77
REMARK SMILES IDX 11 78 28 79 12 80 21 81 13 84 20 85 14 86 18 87 19 88 15 89
REMARK SMILES IDX 17 90 16 91 22 92 23 93 27 94 24 95 26 96 25 97
REMARK H PARENT 3 5 85 23 53 34 7 75 28 82 28 83
REMARK Flexibility Score: inf
ROOT
ATOM      1  C   UNL A   1      33.264  29.057  26.921  1.00  0.00     0.118 C 
ENDROOT
BRANCH   1   2
ATOM      2  N   UNL A   1      33.525  30.453  27.228  1.00  0.00    -0.352 N 
ATOM      3  O   UNL A   1      34.402  32.203  28.306  1.00  0.00    -0.269 OA
ATOM      4  C   UNL A   1      34.548  31.041  27.929  1.00  0.00     0.251 C 
ATOM      5  H   UNL A   1      32.857  31.083  26.874  1.00  0.00     0.163 HD
BRANCH   4   6
ATOM      6  C   UNL A   1      35.812  30.325  28.229  1.00  0.00     0.039 A 
ATOM      7  C   UNL A   1      35.925  29.653  29.453  1.00  0.00     0.014 A 
ATOM      8  C   UNL A   1      36.926  30.404  27.391  1.00  0.00     0.014 A 
ATOM      9  C   UNL A   1      37.143  29.079  29.831  1.00  0.00     0.010 A 
ATOM     10  C   UNL A   1      38.107  29.741  27.718  1.00  0.00     0.010 A 
ATOM     11  C   UNL A   1      38.247  29.123  28.967  1.00  0.00    -0.014 A 
BRANCH  11  12
ATOM     12  C   UNL A   1      39.588  28.644  29.395  1.00  0.00     0.031 A 
ATOM     13  C   UNL A   1      40.308  29.354  30.515  1.00  0.00     0.074 A 
ATOM     14  C   UNL A   1      40.178  27.610  28.767  1.00  0.00     0.049 A 
ATOM     15  N   UNL A   1      41.507  29.140  30.991  1.00  0.00    -0.248 NA
ATOM     16  C   UNL A   1      39.602  30.472  31.167  1.00  0.00     0.031 C 
ATOM     17  C   UNL A   1      39.612  26.868  27.641  1.00  0.00     0.029 A 
ATOM     18  N   UNL A   1      41.395  27.013  28.984  1.00  0.00    -0.354 N 
ATOM     19  C   UNL A   1      41.715  30.123  31.951  1.00  0.00     0.074 A 
ATOM     20  C   UNL A   1      40.534  30.954  31.974  1.00  0.00     0.031 C 
ATOM     21  C   UNL A   1      40.469  25.900  27.281  1.00  0.00     0.029 A 
ATOM     22  C   UNL A   1      41.657  25.970  28.129  1.00  0.00     0.049 A 
ATOM     23  H   UNL A   1      42.021  27.304  29.686  1.00  0.00     0.167 HD
ATOM     24  C   UNL A   1      42.776  30.298  32.772  1.00  0.00     0.034 A 
ATOM     25  C   UNL A   1      42.730  25.160  28.038  1.00  0.00     0.034 A 
ATOM     26  C   UNL A   1      43.909  29.419  32.820  1.00  0.00     0.049 A 
ATOM     27  C   UNL A   1      43.875  25.337  28.994  1.00  0.00     0.074 A 
ATOM     28  C   UNL A   1      44.983  29.453  33.689  1.00  0.00     0.029 A 
ATOM     29  N   UNL A   1      44.107  28.341  31.974  1.00  0.00    -0.354 N 
ATOM     30  N   UNL A   1      44.004  26.205  29.968  1.00  0.00    -0.248 NA
ATOM     31  C   UNL A   1      45.011  24.414  28.857  1.00  0.00     0.031 C 
ATOM     32  C   UNL A   1      45.838  28.396  33.364  1.00  0.00     0.029 A 
ATOM     33  C   UNL A   1      45.290  27.703  32.296  1.00  0.00     0.049 A 
ATOM     34  H   UNL A   1      43.496  28.069  31.250  1.00  0.00     0.167 HD
ATOM     35  C   UNL A   1      45.224  25.923  30.572  1.00  0.00     0.074 A 
ATOM     36  C   UNL A   1      45.792  24.795  29.864  1.00  0.00     0.031 C 
ATOM     37  C   UNL A   1      45.822  26.554  31.611  1.00  0.00     0.034 A 
BRANCH  24  38
ATOM     38  C   UNL A   1      42.732  31.447  33.740  1.00  0.00     0.023 A 
ATOM     39  C   UNL A   1      43.225  32.705  33.342  1.00  0.00     0.012 A 
ATOM     40  C   UNL A   1      42.144  31.300  35.011  1.00  0.00     0.148 A 
ATOM     41  C   UNL A   1      43.154  33.799  34.204  1.00  0.00     0.002 A 
ATOM     42  C   UNL A   1      42.046  32.403  35.851  1.00  0.00     0.091 A 
ATOM     43  F   UNL A   1      41.699  30.089  35.373  1.00  0.00    -0.205 F 
ATOM     44  C   UNL A   1      42.557  33.650  35.453  1.00  0.00     0.022 A 
BRANCH  42  45
ATOM     45  S   UNL A   1      41.246  32.333  37.458  1.00  0.00     0.127 S 
ATOM     46  O   UNL A   1      42.141  31.440  38.193  1.00  0.00    -0.237 OA
ATOM     47  O   UNL A   1      41.294  33.731  37.885  1.00  0.00    -0.237 OA
ATOM     48  O   UNL A   1      39.908  31.812  37.220  1.00  0.00    -0.744 OA
ENDBRANCH  42  45
ENDBRANCH  24  38
BRANCH  25  49
ATOM     49  C   UNL A   1      42.713  24.052  27.045  1.00  0.00     0.023 A 
ATOM     50  C   UNL A   1      43.405  24.214  25.830  1.00  0.00     0.012 A 
ATOM     51  C   UNL A   1      42.108  22.815  27.338  1.00  0.00     0.148 A 
ATOM     52  C   UNL A   1      43.496  23.161  24.920  1.00  0.00     0.002 A 
ATOM     53  C   UNL A   1      42.236  21.758  26.444  1.00  0.00     0.091 A 
ATOM     54  F   UNL A   1      41.461  22.687  28.504  1.00  0.00    -0.205 F 
ATOM     55  C   UNL A   1      42.922  21.931  25.231  1.00  0.00     0.022 A 
BRANCH  53  56
ATOM     56  S   UNL A   1      41.627  20.106  26.801  1.00  0.00     0.127 S 
ATOM     57  O   UNL A   1      40.241  20.373  27.182  1.00  0.00    -0.237 OA
ATOM     58  O   UNL A   1      41.792  19.446  25.504  1.00  0.00    -0.237 OA
ATOM     59  O   UNL A   1      42.475  19.588  27.861  1.00  0.00    -0.744 OA
ENDBRANCH  53  56
ENDBRANCH  25  49
BRANCH  37  60
ATOM     60  C   UNL A   1      47.165  26.058  32.070  1.00  0.00     0.023 A 
ATOM     61  C   UNL A   1      48.329  26.639  31.536  1.00  0.00     0.012 A 
ATOM     62  C   UNL A   1      47.267  25.139  33.132  1.00  0.00     0.148 A 
ATOM     63  C   UNL A   1      49.582  26.312  32.053  1.00  0.00     0.002 A 
ATOM     64  C   UNL A   1      48.515  24.842  33.665  1.00  0.00     0.091 A 
ATOM     65  F   UNL A   1      46.140  24.598  33.618  1.00  0.00    -0.205 F 
ATOM     66  C   UNL A   1      49.674  25.425  33.124  1.00  0.00     0.022 A 
BRANCH  64  67
ATOM     67  S   UNL A   1      48.732  23.777  35.095  1.00  0.00     0.127 S 
ATOM     68  O   UNL A   1      48.046  24.536  36.139  1.00  0.00    -0.237 OA
ATOM     69  O   UNL A   1      48.046  22.555  34.675  1.00  0.00    -0.237 OA
ATOM     70  O   UNL A   1      50.171  23.635  35.280  1.00  0.00    -0.744 OA
ENDBRANCH  64  67
ENDBRANCH  37  60
ENDBRANCH  11  12
ENDBRANCH   4   6
ENDBRANCH   1   2
BRANCH   1  71
ATOM     71  C   UNL A   1      31.773  28.774  26.823  1.00  0.00     0.042 C 
BRANCH  71  72
ATOM     72  C   UNL A   1      31.429  27.533  26.010  1.00  0.00     0.118 C 
BRANCH  72  73
ATOM     73  N   UNL A   1      31.426  26.332  26.828  1.00  0.00    -0.351 N 
ATOM     74  C   UNL A   1      31.727  25.033  26.533  1.00  0.00     0.278 C 
ATOM     75  H   UNL A   1      31.159  26.482  27.765  1.00  0.00     0.163 HD
ATOM     76  O   UNL A   1      31.527  24.192  27.415  1.00  0.00    -0.268 OA
BRANCH  74  77
ATOM     77  C   UNL A   1      32.305  24.623  25.160  1.00  0.00     0.277 C 
ATOM     78  C   UNL A   1      33.730  25.187  24.950  1.00  0.00     0.109 C 
ATOM     79  N   UNL A   1      32.090  23.168  24.967  1.00  0.00    -0.327 N 
ATOM     80  C   UNL A   1      34.680  24.120  24.530  1.00  0.00    -0.024 C 
ATOM     81  C   UNL A   1      32.774  22.605  23.777  1.00  0.00     0.243 C 
ATOM     82  H   UNL A   1      31.090  23.002  24.870  1.00  0.00     0.347 HD
ATOM     83  H   UNL A   1      32.491  22.703  25.781  1.00  0.00     0.347 HD
ATOM     84  C   UNL A   1      35.875  23.778  24.999  1.00  0.00     0.002 A 
ATOM     85  C   UNL A   1      34.211  23.166  23.469  1.00  0.00     0.196 C 
ATOM     86  C   UNL A   1      36.773  24.284  25.983  1.00  0.00     0.010 A 
ATOM     87  C   UNL A   1      36.145  22.521  24.281  1.00  0.00     0.066 A 
ATOM     88  N   UNL A   1      35.280  22.130  23.396  1.00  0.00    -0.270 NA
ATOM     89  C   UNL A   1      37.859  23.561  26.300  1.00  0.00     0.001 A 
ATOM     90  C   UNL A   1      37.364  21.784  24.677  1.00  0.00     0.028 A 
ATOM     91  C   UNL A   1      38.139  22.291  25.650  1.00  0.00     0.002 A 
BRANCH  81  92
ATOM     92  C   UNL A   1      32.684  21.082  23.817  1.00  0.00     0.012 A 
ATOM     93  C   UNL A   1      32.993  20.387  24.996  1.00  0.00     0.010 A 
ATOM     94  C   UNL A   1      32.269  20.342  22.694  1.00  0.00     0.010 A 
ATOM     95  C   UNL A   1      32.877  18.996  25.054  1.00  0.00     0.001 A 
ATOM     96  C   UNL A   1      32.154  18.952  22.754  1.00  0.00     0.001 A 
ATOM     97  C   UNL A   1      32.457  18.280  23.934  1.00  0.00     0.000 A 
ENDBRANCH  81  92
ENDBRANCH  74  77
ENDBRANCH  72  73
ENDBRANCH  71  72
ENDBRANCH   1  71
TORSDOF 14
ENDMDL
MODEL 2
REMARK VINA RESULT:     -12.8      2.004      2.710
REMARK SMILES O=C(NCCCNC(=O)[C@H]1CC2=c3ccccc3=N[C@H]2[C@@H](c2ccccc2)[NH2+]1)c1ccc(-c2c3nc(c(-c4cccc(S(=O)(=O)[O-])c4F)c4ccc([nH]4)c(-c4cccc(S(=O)(=O)[O-])c4F)c4nc(c(-c5cccc(S(=O)(=O)[O-])c5F)c5ccc2[nH]5)C=C4)C=C3)cc1
REMARK SMILES IDX 4 1 3 2 1 3 2 4 29 6 30 7 91 8 31 9 90 10 32 11 33 12 34 13
REMARK SMILES IDX 84 14 35 15 89 16 83 17 85 18 36 19 88 20 82 21 81 22 37 24
REMARK SMILES IDX 69 25 49 26 68 27 50 28 53 29 67 30 86 31 51 32 52 33 66 35
REMARK SMILES IDX 87 36 54 37 38 38 39 39 47 40 40 41 42 42 48 43 41 44 43 45
REMARK SMILES IDX 44 46 45 47 46 48 70 49 71 50 79 51 72 52 74 53 80 54 73 55
REMARK SMILES IDX 75 56 76 57 77 58 78 59 55 60 56 61 64 62 57 63 59 64 65 65
REMARK SMILES IDX 58 66 60 67 61 68 62 69 63 70 5 71 6 72 7 73 8 74 9 76 10 77
REMARK SMILES IDX 11 78 28 79 12 80 21 81 13 84 20 85 14 86 18 87 19 88 15 89
REMARK SMILES IDX 17 90 16 91 22 92 23 93 27 94 24 95 26 96 25 97
REMARK H PARENT 3 5 85 23 53 34 7 75 28 82 28 83
REMARK Flexibility Score: inf
ROOT
ATOM      1  C   UNL A   1      32.648  29.548  25.854  1.00  0.00     0.118 C 
ENDROOT
BRANCH   1   2
ATOM      2  N   UNL A   1      32.533  30.928  26.294  1.00  0.00    -0.352 N 
ATOM      3  O   UNL A   1      32.801  32.701  27.627  1.00  0.00    -0.269 OA
ATOM      4  C   UNL A   1      33.265  31.642  27.209  1.00  0.00     0.251 C 
ATOM      5  H   UNL A   1      31.808  31.436  25.864  1.00  0.00     0.163 HD
BRANCH   4   6
ATOM      6  C   UNL A   1      34.591  31.181  27.691  1.00  0.00     0.039 A 
ATOM      7  C   UNL A   1      34.778  29.813  27.927  1.00  0.00     0.014 A 
ATOM      8  C   UNL A   1      35.608  32.075  28.031  1.00  0.00     0.014 A 
ATOM      9  C   UNL A   1      35.965  29.354  28.505  1.00  0.00     0.010 A 
ATOM     10  C   UNL A   1      36.832  31.609  28.506  1.00  0.00     0.010 A 
ATOM     11  C   UNL A   1      37.001  30.251  28.805  1.00  0.00    -0.014 A 
BRANCH  11  12
ATOM     12  C   UNL A   1      38.216  29.815  29.543  1.00  0.00     0.031 A 
ATOM     13  C   UNL A   1      38.393  30.216  30.987  1.00  0.00     0.074 A 
ATOM     14  C   UNL A   1      39.174  29.101  28.924  1.00  0.00     0.049 A 
ATOM     15  N   UNL A   1      39.406  29.999  31.786  1.00  0.00    -0.248 NA
ATOM     16  C   UNL A   1      37.302  30.989  31.609  1.00  0.00     0.031 C 
ATOM     17  C   UNL A   1      39.150  28.688  27.520  1.00  0.00     0.029 A 
ATOM     18  N   UNL A   1      40.364  28.606  29.397  1.00  0.00    -0.354 N 
ATOM     19  C   UNL A   1      39.098  30.651  32.974  1.00  0.00     0.074 A 
ATOM     20  C   UNL A   1      37.819  31.296  32.789  1.00  0.00     0.031 C 
ATOM     21  C   UNL A   1      40.261  27.984  27.253  1.00  0.00     0.029 A 
ATOM     22  C   UNL A   1      41.089  27.918  28.454  1.00  0.00     0.049 A 
ATOM     23  H   UNL A   1      40.669  28.732  30.325  1.00  0.00     0.167 HD
ATOM     24  C   UNL A   1      39.795  30.678  34.133  1.00  0.00     0.034 A 
ATOM     25  C   UNL A   1      42.284  27.301  28.546  1.00  0.00     0.034 A 
ATOM     26  C   UNL A   1      41.017  29.960  34.353  1.00  0.00     0.049 A 
ATOM     27  C   UNL A   1      43.018  27.298  29.857  1.00  0.00     0.074 A 
ATOM     28  C   UNL A   1      41.741  29.841  35.525  1.00  0.00     0.029 A 
ATOM     29  N   UNL A   1      41.688  29.229  33.387  1.00  0.00    -0.354 N 
ATOM     30  N   UNL A   1      42.656  27.827  31.001  1.00  0.00    -0.248 NA
ATOM     31  C   UNL A   1      44.309  26.597  29.901  1.00  0.00     0.031 C 
ATOM     32  C   UNL A   1      42.858  29.041  35.265  1.00  0.00     0.029 A 
ATOM     33  C   UNL A   1      42.822  28.658  33.933  1.00  0.00     0.049 A 
ATOM     34  H   UNL A   1      41.399  29.130  32.450  1.00  0.00     0.167 HD
ATOM     35  C   UNL A   1      43.663  27.510  31.904  1.00  0.00     0.074 A 
ATOM     36  C   UNL A   1      44.645  26.730  31.180  1.00  0.00     0.031 C 
ATOM     37  C   UNL A   1      43.768  27.848  33.212  1.00  0.00     0.034 A 
BRANCH  24  38
ATOM     38  C   UNL A   1      39.215  31.455  35.282  1.00  0.00     0.023 A 
ATOM     39  C   UNL A   1      38.301  30.827  36.149  1.00  0.00     0.012 A 
ATOM     40  C   UNL A   1      39.626  32.777  35.542  1.00  0.00     0.148 A 
ATOM     41  C   UNL A   1      37.783  31.509  37.249  1.00  0.00     0.002 A 
ATOM     42  C   UNL A   1      39.132  33.439  36.660  1.00  0.00     0.091 A 
ATOM     43  F   UNL A   1      40.483  33.359  34.693  1.00  0.00    -0.205 F 
ATOM     44  C   UNL A   1      38.205  32.810  37.509  1.00  0.00     0.022 A 
BRANCH  42  45
ATOM     45  S   UNL A   1      39.653  35.096  37.117  1.00  0.00     0.127 S 
ATOM     46  O   UNL A   1      38.899  35.311  38.352  1.00  0.00    -0.237 OA
ATOM     47  O   UNL A   1      41.093  34.923  37.304  1.00  0.00    -0.237 OA
ATOM     48  O   UNL A   1      39.280  35.958  36.005  1.00  0.00    -0.744 OA
ENDBRANCH  42  45
ENDBRANCH  24  38
BRANCH  25  49
ATOM     49  C   UNL A   1      42.805  26.564  27.364  1.00  0.00     0.023 A 
ATOM     50  C   UNL A   1      43.694  27.218  26.490  1.00  0.00     0.012 A 
ATOM     51  C   UNL A   1      42.510  25.202  27.160  1.00  0.00     0.148 A 
ATOM     52  C   UNL A   1      44.282  26.528  25.430  1.00  0.00     0.002 A 
ATOM     53  C   UNL A   1      43.129  24.511  26.126  1.00  0.00     0.091 A 
ATOM     54  F   UNL A   1      41.664  24.605  28.011  1.00  0.00    -0.205 F 
ATOM     55  C   UNL A   1      44.008  25.174  25.254  1.00  0.00     0.022 A 
BRANCH  53  56
ATOM     56  S   UNL A   1      42.927  22.743  25.882  1.00  0.00     0.127 S 
ATOM     57  O   UNL A   1      43.386  22.575  24.504  1.00  0.00    -0.237 OA
ATOM     58  O   UNL A   1      43.829  22.201  26.901  1.00  0.00    -0.237 OA
ATOM     59  O   UNL A   1      41.518  22.467  26.107  1.00  0.00    -0.744 OA
ENDBRANCH  53  56
ENDBRANCH  25  49
BRANCH  37  60
ATOM     60  C   UNL A   1      44.979  27.386  33.973  1.00  0.00     0.023 A 
ATOM     61  C   UNL A   1      46.076  28.256  34.108  1.00  0.00     0.012 A 
ATOM     62  C   UNL A   1      44.962  26.168  34.679  1.00  0.00     0.148 A 
ATOM     63  C   UNL A   1      47.145  27.919  34.937  1.00  0.00     0.002 A 
ATOM     64  C   UNL A   1      46.016  25.853  35.529  1.00  0.00     0.091 A 
ATOM     65  F   UNL A   1      43.905  25.357  34.529  1.00  0.00    -0.205 F 
ATOM     66  C   UNL A   1      47.110  26.727  35.656  1.00  0.00     0.022 A 
BRANCH  64  67
ATOM     67  S   UNL A   1      46.026  24.382  36.560  1.00  0.00     0.127 S 
ATOM     68  O   UNL A   1      44.752  24.504  37.266  1.00  0.00    -0.237 OA
ATOM     69  O   UNL A   1      46.074  23.311  35.565  1.00  0.00    -0.237 OA
ATOM     70  O   UNL A   1      47.211  24.485  37.402  1.00  0.00    -0.744 OA
ENDBRANCH  64  67
ENDBRANCH  37  60
ENDBRANCH  11  12
ENDBRANCH   4   6
ENDBRANCH   1   2
BRANCH   1  71
ATOM     71  C   UNL A   1      31.747  28.625  26.659  1.00  0.00     0.042 C 
BRANCH  71  72
ATOM     72  C   UNL A   1      31.370  27.338  25.936  1.00  0.00     0.118 C 
BRANCH  72  73
ATOM     73  N   UNL A   1      31.425  26.185  26.819  1.00  0.00    -0.351 N 
ATOM     74  C   UNL A   1      31.754  24.880  26.585  1.00  0.00     0.278 C 
ATOM     75  H   UNL A   1      31.181  26.379  27.753  1.00  0.00     0.163 HD
ATOM     76  O   UNL A   1      31.604  24.084  27.517  1.00  0.00    -0.268 OA
BRANCH  74  77
ATOM     77  C   UNL A   1      32.303  24.411  25.219  1.00  0.00     0.277 C 
ATOM     78  C   UNL A   1      33.726  24.959  24.958  1.00  0.00     0.109 C 
ATOM     79  N   UNL A   1      32.079  22.950  25.091  1.00  0.00    -0.327 N 
ATOM     80  C   UNL A   1      34.663  23.870  24.564  1.00  0.00    -0.024 C 
ATOM     81  C   UNL A   1      32.736  22.335  23.912  1.00  0.00     0.243 C 
ATOM     82  H   UNL A   1      31.076  22.785  25.021  1.00  0.00     0.347 HD
ATOM     83  H   UNL A   1      32.494  22.517  25.916  1.00  0.00     0.347 HD
ATOM     84  C   UNL A   1      35.866  23.542  25.024  1.00  0.00     0.002 A 
ATOM     85  C   UNL A   1      34.169  22.875  23.554  1.00  0.00     0.196 C 
ATOM     86  C   UNL A   1      36.785  24.084  25.968  1.00  0.00     0.010 A 
ATOM     87  C   UNL A   1      36.116  22.255  24.353  1.00  0.00     0.066 A 
ATOM     88  N   UNL A   1      35.232  21.832  23.503  1.00  0.00    -0.270 NA
ATOM     89  C   UNL A   1      37.874  23.369  26.293  1.00  0.00     0.001 A 
ATOM     90  C   UNL A   1      37.339  21.529  24.756  1.00  0.00     0.028 A 
ATOM     91  C   UNL A   1      38.136  22.072  25.691  1.00  0.00     0.002 A 
BRANCH  81  92
ATOM     92  C   UNL A   1      32.641  20.815  24.018  1.00  0.00     0.012 A 
ATOM     93  C   UNL A   1      32.346  20.045  22.883  1.00  0.00     0.010 A 
ATOM     94  C   UNL A   1      32.867  20.149  25.237  1.00  0.00     0.010 A 
ATOM     95  C   UNL A   1      32.295  18.652  22.961  1.00  0.00     0.001 A 
ATOM     96  C   UNL A   1      32.814  18.757  25.314  1.00  0.00     0.001 A 
ATOM     97  C   UNL A   1      32.530  18.008  24.175  1.00  0.00     0.000 A 
ENDBRANCH  81  92
ENDBRANCH  74  77
ENDBRANCH  72  73
ENDBRANCH  71  72
ENDBRANCH   1  71
TORSDOF 14
ENDMDL
MODEL 3
REMARK VINA RESULT:     -12.5      4.751      9.724
REMARK SMILES O=C(NCCCNC(=O)[C@H]1CC2=c3ccccc3=N[C@H]2[C@@H](c2ccccc2)[NH2+]1)c1ccc(-c2c3nc(c(-c4cccc(S(=O)(=O)[O-])c4F)c4ccc([nH]4)c(-c4cccc(S(=O)(=O)[O-])c4F)c4nc(c(-c5cccc(S(=O)(=O)[O-])c5F)c5ccc2[nH]5)C=C4)C=C3)cc1
REMARK SMILES IDX 4 1 3 2 1 3 2 4 29 6 30 7 91 8 31 9 90 10 32 11 33 12 34 13
REMARK SMILES IDX 84 14 35 15 89 16 83 17 85 18 36 19 88 20 82 21 81 22 37 24
REMARK SMILES IDX 69 25 49 26 68 27 50 28 53 29 67 30 86 31 51 32 52 33 66 35
REMARK SMILES IDX 87 36 54 37 38 38 39 39 47 40 40 41 42 42 48 43 41 44 43 45
REMARK SMILES IDX 44 46 45 47 46 48 70 49 71 50 79 51 72 52 74 53 80 54 73 55
REMARK SMILES IDX 75 56 76 57 77 58 78 59 55 60 56 61 64 62 57 63 59 64 65 65
REMARK SMILES IDX 58 66 60 67 61 68 62 69 63 70 5 71 6 72 7 73 8 74 9 76 10 77
REMARK SMILES IDX 11 78 28 79 12 80 21 81 13 84 20 85 14 86 18 87 19 88 15 89
REMARK SMILES IDX 17 90 16 91 22 92 23 93 27 94 24 95 26 96 25 97
REMARK H PARENT 3 5 85 23 53 34 7 75 28 82 28 83
REMARK Flexibility Score: inf
ROOT
ATOM      1  C   UNL A   1      36.590  22.046  25.666  1.00  0.00     0.118 C 
ENDROOT
BRANCH   1   2
ATOM      2  N   UNL A   1      37.695  21.120  25.845  1.00  0.00    -0.352 N 
ATOM      3  O   UNL A   1      39.818  20.429  25.939  1.00  0.00    -0.269 OA
ATOM      4  C   UNL A   1      39.019  21.346  26.124  1.00  0.00     0.251 C 
ATOM      5  H   UNL A   1      37.454  20.170  25.749  1.00  0.00     0.163 HD
BRANCH   4   6
ATOM      6  C   UNL A   1      39.504  22.647  26.647  1.00  0.00     0.039 A 
ATOM      7  C   UNL A   1      38.948  23.824  26.131  1.00  0.00     0.014 A 
ATOM      8  C   UNL A   1      40.575  22.734  27.540  1.00  0.00     0.014 A 
ATOM      9  C   UNL A   1      39.467  25.069  26.500  1.00  0.00     0.010 A 
ATOM     10  C   UNL A   1      41.022  23.975  27.990  1.00  0.00     0.010 A 
ATOM     11  C   UNL A   1      40.514  25.154  27.430  1.00  0.00    -0.014 A 
BRANCH  11  12
ATOM     12  C   UNL A   1      41.177  26.449  27.737  1.00  0.00     0.031 A 
ATOM     13  C   UNL A   1      42.575  26.707  27.231  1.00  0.00     0.074 A 
ATOM     14  C   UNL A   1      40.556  27.373  28.492  1.00  0.00     0.049 A 
ATOM     15  N   UNL A   1      43.353  27.736  27.445  1.00  0.00    -0.248 NA
ATOM     16  C   UNL A   1      43.194  25.657  26.400  1.00  0.00     0.031 C 
ATOM     17  C   UNL A   1      39.224  27.231  29.082  1.00  0.00     0.029 A 
ATOM     18  N   UNL A   1      40.973  28.616  28.903  1.00  0.00    -0.354 N 
ATOM     19  C   UNL A   1      44.560  27.434  26.827  1.00  0.00     0.074 A 
ATOM     20  C   UNL A   1      44.428  26.116  26.252  1.00  0.00     0.031 C 
ATOM     21  C   UNL A   1      38.924  28.350  29.759  1.00  0.00     0.029 A 
ATOM     22  C   UNL A   1      40.050  29.278  29.676  1.00  0.00     0.049 A 
ATOM     23  H   UNL A   1      41.849  28.996  28.665  1.00  0.00     0.167 HD
ATOM     24  C   UNL A   1      45.669  28.200  26.709  1.00  0.00     0.034 A 
ATOM     25  C   UNL A   1      40.102  30.495  30.252  1.00  0.00     0.034 A 
ATOM     26  C   UNL A   1      45.772  29.546  27.193  1.00  0.00     0.049 A 
ATOM     27  C   UNL A   1      41.323  31.352  30.065  1.00  0.00     0.074 A 
ATOM     28  C   UNL A   1      46.815  30.438  27.030  1.00  0.00     0.029 A 
ATOM     29  N   UNL A   1      44.792  30.199  27.923  1.00  0.00    -0.354 N 
ATOM     30  N   UNL A   1      42.411  31.091  29.383  1.00  0.00    -0.248 NA
ATOM     31  C   UNL A   1      41.317  32.676  30.704  1.00  0.00     0.031 C 
ATOM     32  C   UNL A   1      46.469  31.633  27.668  1.00  0.00     0.029 A 
ATOM     33  C   UNL A   1      45.207  31.483  28.223  1.00  0.00     0.049 A 
ATOM     34  H   UNL A   1      43.928  29.807  28.188  1.00  0.00     0.167 HD
ATOM     35  C   UNL A   1      43.212  32.221  29.495  1.00  0.00     0.074 A 
ATOM     36  C   UNL A   1      42.479  33.177  30.299  1.00  0.00     0.031 C 
ATOM     37  C   UNL A   1      44.449  32.439  28.987  1.00  0.00     0.034 A 
BRANCH  24  38
ATOM     38  C   UNL A   1      46.842  27.626  25.964  1.00  0.00     0.023 A 
ATOM     39  C   UNL A   1      46.950  27.841  24.576  1.00  0.00     0.012 A 
ATOM     40  C   UNL A   1      47.865  26.938  26.644  1.00  0.00     0.148 A 
ATOM     41  C   UNL A   1      48.050  27.359  23.868  1.00  0.00     0.002 A 
ATOM     42  C   UNL A   1      48.976  26.492  25.937  1.00  0.00     0.091 A 
ATOM     43  F   UNL A   1      47.731  26.732  27.961  1.00  0.00    -0.205 F 
ATOM     44  C   UNL A   1      49.066  26.694  24.550  1.00  0.00     0.022 A 
BRANCH  42  45
ATOM     45  S   UNL A   1      50.365  25.673  26.727  1.00  0.00     0.127 S 
ATOM     46  O   UNL A   1      51.271  25.474  25.596  1.00  0.00    -0.237 OA
ATOM     47  O   UNL A   1      50.807  26.681  27.691  1.00  0.00    -0.237 OA
ATOM     48  O   UNL A   1      49.834  24.453  27.318  1.00  0.00    -0.744 OA
ENDBRANCH  42  45
ENDBRANCH  24  38
BRANCH  25  49
ATOM     49  C   UNL A   1      38.911  30.994  30.990  1.00  0.00     0.023 A 
ATOM     50  C   UNL A   1      38.859  30.840  32.388  1.00  0.00     0.012 A 
ATOM     51  C   UNL A   1      37.887  31.705  30.333  1.00  0.00     0.148 A 
ATOM     52  C   UNL A   1      37.806  31.385  33.123  1.00  0.00     0.002 A 
ATOM     53  C   UNL A   1      36.862  32.279  31.076  1.00  0.00     0.091 A 
ATOM     54  F   UNL A   1      37.965  31.841  29.002  1.00  0.00    -0.205 F 
ATOM     55  C   UNL A   1      36.815  32.112  32.469  1.00  0.00     0.022 A 
BRANCH  53  56
ATOM     56  S   UNL A   1      35.599  33.324  30.342  1.00  0.00     0.127 S 
ATOM     57  O   UNL A   1      34.723  32.339  29.711  1.00  0.00    -0.237 OA
ATOM     58  O   UNL A   1      35.038  33.980  31.524  1.00  0.00    -0.237 OA
ATOM     59  O   UNL A   1      36.298  34.211  29.427  1.00  0.00    -0.744 OA
ENDBRANCH  53  56
ENDBRANCH  25  49
BRANCH  37  60
ATOM     60  C   UNL A   1      45.114  33.757  29.267  1.00  0.00     0.023 A 
ATOM     61  C   UNL A   1      45.976  33.868  30.374  1.00  0.00     0.012 A 
ATOM     62  C   UNL A   1      45.010  34.824  28.354  1.00  0.00     0.148 A 
ATOM     63  C   UNL A   1      46.727  35.026  30.570  1.00  0.00     0.002 A 
ATOM     64  C   UNL A   1      45.786  35.962  28.537  1.00  0.00     0.091 A 
ATOM     65  F   UNL A   1      44.179  34.691  27.310  1.00  0.00    -0.205 F 
ATOM     66  C   UNL A   1      46.642  36.066  29.647  1.00  0.00     0.022 A 
BRANCH  64  67
ATOM     67  S   UNL A   1      45.810  37.320  27.361  1.00  0.00     0.127 S 
ATOM     68  O   UNL A   1      46.373  36.678  26.176  1.00  0.00    -0.237 OA
ATOM     69  O   UNL A   1      44.391  37.661  27.257  1.00  0.00    -0.237 OA
ATOM     70  O   UNL A   1      46.643  38.357  27.957  1.00  0.00    -0.744 OA
ENDBRANCH  64  67
ENDBRANCH  37  60
ENDBRANCH  11  12
ENDBRANCH   4   6
ENDBRANCH   1   2
BRANCH   1  71
ATOM     71  C   UNL A   1      36.080  22.043  24.234  1.00  0.00     0.042 C 
BRANCH  71  72
ATOM     72  C   UNL A   1      34.692  22.647  24.067  1.00  0.00     0.118 C 
BRANCH  72  73
ATOM     73  N   UNL A   1      34.693  23.753  23.124  1.00  0.00    -0.351 N 
ATOM     74  C   UNL A   1      33.838  24.806  22.962  1.00  0.00     0.278 C 
ATOM     75  H   UNL A   1      35.445  23.743  22.488  1.00  0.00     0.163 HD
ATOM     76  O   UNL A   1      34.029  25.545  21.991  1.00  0.00    -0.268 OA
BRANCH  74  77
ATOM     77  C   UNL A   1      32.682  25.076  23.952  1.00  0.00     0.277 C 
ATOM     78  C   UNL A   1      33.212  25.437  25.361  1.00  0.00     0.109 C 
ATOM     79  N   UNL A   1      31.711  25.995  23.311  1.00  0.00    -0.327 N 
ATOM     80  C   UNL A   1      32.589  26.690  25.871  1.00  0.00    -0.024 C 
ATOM     81  C   UNL A   1      30.653  26.495  24.224  1.00  0.00     0.243 C 
ATOM     82  H   UNL A   1      31.262  25.501  22.542  1.00  0.00     0.347 HD
ATOM     83  H   UNL A   1      32.239  26.811  23.002  1.00  0.00     0.347 HD
ATOM     84  C   UNL A   1      33.129  27.788  26.389  1.00  0.00     0.002 A 
ATOM     85  C   UNL A   1      31.106  26.838  25.691  1.00  0.00     0.196 C 
ATOM     86  C   UNL A   1      34.440  28.210  26.753  1.00  0.00     0.010 A 
ATOM     87  C   UNL A   1      31.974  28.698  26.467  1.00  0.00     0.066 A 
ATOM     88  N   UNL A   1      30.813  28.234  26.122  1.00  0.00    -0.270 NA
ATOM     89  C   UNL A   1      34.629  29.489  27.118  1.00  0.00     0.001 A 
ATOM     90  C   UNL A   1      32.257  30.087  26.884  1.00  0.00     0.028 A 
ATOM     91  C   UNL A   1      33.525  30.434  27.162  1.00  0.00     0.002 A 
BRANCH  81  92
ATOM     92  C   UNL A   1      29.869  27.605  23.528  1.00  0.00     0.012 A 
ATOM     93  C   UNL A   1      28.467  27.567  23.497  1.00  0.00     0.010 A 
ATOM     94  C   UNL A   1      30.521  28.697  22.925  1.00  0.00     0.010 A 
ATOM     95  C   UNL A   1      27.739  28.596  22.897  1.00  0.00     0.001 A 
ATOM     96  C   UNL A   1      29.793  29.724  22.325  1.00  0.00     0.001 A 
ATOM     97  C   UNL A   1      28.402  29.675  22.312  1.00  0.00     0.000 A 
ENDBRANCH  81  92
ENDBRANCH  74  77
ENDBRANCH  72  73
ENDBRANCH  71  72
ENDBRANCH   1  71
TORSDOF 14
ENDMDL
