MODEL 1
REMARK VINA RESULT:     -12.5      0.000      0.000
REMARK SMILES O=C(NCCCNC(=O)c1nccnc1C(=O)Nc1n[nH]c2ncccc12)c1ccc(-c2c3nc(c(-c4cccc(S(=O)(=O)[O-])c4F)c4ccc([nH]4)c(-c4cccc(S(=O)(=O)[O-])c4F)c4nc(c(-c5cccc(S(=O)(=O)[O-])c5F)c5ccc2[nH]5)C=C4)C=C3)cc1
REMARK SMILES IDX 4 1 3 2 1 3 2 4 28 6 29 7 90 8 30 9 89 10 31 11 32 12 33 13
REMARK SMILES IDX 83 14 34 15 88 16 82 17 84 18 35 19 87 20 81 21 80 22 36 24
REMARK SMILES IDX 68 25 48 26 67 27 49 28 52 29 66 30 85 31 50 32 51 33 65 35
REMARK SMILES IDX 86 36 53 37 37 38 38 39 46 40 39 41 41 42 47 43 40 44 42 45
REMARK SMILES IDX 43 46 44 47 45 48 69 49 70 50 78 51 71 52 73 53 79 54 72 55
REMARK SMILES IDX 74 56 75 57 76 58 77 59 54 60 55 61 63 62 56 63 58 64 64 65
REMARK SMILES IDX 57 66 59 67 60 68 61 69 62 70 5 71 6 72 7 73 8 74 9 76 10 77
REMARK SMILES IDX 11 78 15 79 12 80 14 81 13 82 16 83 17 84 18 85 19 87 20 88
REMARK SMILES IDX 27 89 21 90 22 91 26 92 23 94 25 95 24 96
REMARK H PARENT 3 5 84 23 52 34 7 75 18 86 21 93
REMARK Flexibility Score: inf
ROOT
ATOM      1  C   UNL A   1      38.481  20.931  25.769  1.00  0.00     0.118 C 
ENDROOT
BRANCH   1   2
ATOM      2  N   UNL A   1      39.467  19.872  25.777  1.00  0.00    -0.352 N 
ATOM      3  O   UNL A   1      41.506  18.986  26.193  1.00  0.00    -0.269 OA
ATOM      4  C   UNL A   1      40.790  19.973  26.177  1.00  0.00     0.251 C 
ATOM      5  H   UNL A   1      39.167  18.987  25.466  1.00  0.00     0.163 HD
BRANCH   4   6
ATOM      6  C   UNL A   1      41.340  21.303  26.546  1.00  0.00     0.039 A 
ATOM      7  C   UNL A   1      41.377  21.732  27.876  1.00  0.00     0.014 A 
ATOM      8  C   UNL A   1      41.824  22.133  25.532  1.00  0.00     0.014 A 
ATOM      9  C   UNL A   1      41.810  23.030  28.179  1.00  0.00     0.010 A 
ATOM     10  C   UNL A   1      42.289  23.417  25.843  1.00  0.00     0.010 A 
ATOM     11  C   UNL A   1      42.259  23.893  27.164  1.00  0.00    -0.014 A 
BRANCH  11  12
ATOM     12  C   UNL A   1      42.726  25.273  27.480  1.00  0.00     0.031 A 
ATOM     13  C   UNL A   1      41.808  26.270  28.141  1.00  0.00     0.074 A 
ATOM     14  C   UNL A   1      43.968  25.656  27.124  1.00  0.00     0.049 A 
ATOM     15  N   UNL A   1      42.037  27.520  28.461  1.00  0.00    -0.248 NA
ATOM     16  C   UNL A   1      40.455  25.806  28.481  1.00  0.00     0.031 C 
ATOM     17  C   UNL A   1      44.945  24.809  26.442  1.00  0.00     0.029 A 
ATOM     18  N   UNL A   1      44.612  26.861  27.266  1.00  0.00    -0.354 N 
ATOM     19  C   UNL A   1      40.849  28.005  28.999  1.00  0.00     0.074 A 
ATOM     20  C   UNL A   1      39.898  26.913  28.957  1.00  0.00     0.031 C 
ATOM     21  C   UNL A   1      46.063  25.518  26.224  1.00  0.00     0.029 A 
ATOM     22  C   UNL A   1      45.873  26.880  26.717  1.00  0.00     0.049 A 
ATOM     23  H   UNL A   1      44.210  27.638  27.717  1.00  0.00     0.167 HD
ATOM     24  C   UNL A   1      40.574  29.239  29.493  1.00  0.00     0.034 A 
ATOM     25  C   UNL A   1      46.773  27.878  26.608  1.00  0.00     0.034 A 
ATOM     26  C   UNL A   1      41.525  30.319  29.559  1.00  0.00     0.049 A 
ATOM     27  C   UNL A   1      46.449  29.232  27.175  1.00  0.00     0.074 A 
ATOM     28  C   UNL A   1      41.358  31.579  30.111  1.00  0.00     0.029 A 
ATOM     29  N   UNL A   1      42.812  30.280  29.044  1.00  0.00    -0.354 N 
ATOM     30  N   UNL A   1      45.371  29.628  27.805  1.00  0.00    -0.248 NA
ATOM     31  C   UNL A   1      47.482  30.272  27.043  1.00  0.00     0.031 C 
ATOM     32  C   UNL A   1      42.535  32.309  29.906  1.00  0.00     0.029 A 
ATOM     33  C   UNL A   1      43.446  31.494  29.254  1.00  0.00     0.049 A 
ATOM     34  H   UNL A   1      43.215  29.502  28.595  1.00  0.00     0.167 HD
ATOM     35  C   UNL A   1      45.608  30.946  28.179  1.00  0.00     0.074 A 
ATOM     36  C   UNL A   1      46.939  31.278  27.717  1.00  0.00     0.031 C 
ATOM     37  C   UNL A   1      44.791  31.806  28.837  1.00  0.00     0.034 A 
BRANCH  24  38
ATOM     38  C   UNL A   1      39.187  29.483  30.035  1.00  0.00     0.023 A 
ATOM     39  C   UNL A   1      38.871  29.081  31.350  1.00  0.00     0.012 A 
ATOM     40  C   UNL A   1      38.213  30.156  29.269  1.00  0.00     0.148 A 
ATOM     41  C   UNL A   1      37.599  29.306  31.877  1.00  0.00     0.002 A 
ATOM     42  C   UNL A   1      36.961  30.413  29.817  1.00  0.00     0.091 A 
ATOM     43  F   UNL A   1      38.522  30.517  28.016  1.00  0.00    -0.205 F 
ATOM     44  C   UNL A   1      36.648  29.978  31.114  1.00  0.00     0.022 A 
BRANCH  42  45
ATOM     45  S   UNL A   1      35.697  31.341  28.938  1.00  0.00     0.127 S 
ATOM     46  O   UNL A   1      35.131  30.314  28.067  1.00  0.00    -0.237 OA
ATOM     47  O   UNL A   1      34.816  31.772  30.024  1.00  0.00    -0.237 OA
ATOM     48  O   UNL A   1      36.398  32.425  28.265  1.00  0.00    -0.744 OA
ENDBRANCH  42  45
ENDBRANCH  24  38
BRANCH  25  49
ATOM     49  C   UNL A   1      48.100  27.605  25.987  1.00  0.00     0.023 A 
ATOM     50  C   UNL A   1      49.172  27.203  26.806  1.00  0.00     0.012 A 
ATOM     51  C   UNL A   1      48.292  27.692  24.595  1.00  0.00     0.148 A 
ATOM     52  C   UNL A   1      50.418  26.908  26.253  1.00  0.00     0.002 A 
ATOM     53  C   UNL A   1      49.519  27.342  24.044  1.00  0.00     0.091 A 
ATOM     54  F   UNL A   1      47.261  28.090  23.835  1.00  0.00    -0.205 F 
ATOM     55  C   UNL A   1      50.588  26.965  24.872  1.00  0.00     0.022 A 
BRANCH  53  56
ATOM     56  S   UNL A   1      49.795  27.259  22.271  1.00  0.00     0.127 S 
ATOM     57  O   UNL A   1      48.779  26.296  21.855  1.00  0.00    -0.237 OA
ATOM     58  O   UNL A   1      49.539  28.641  21.863  1.00  0.00    -0.237 OA
ATOM     59  O   UNL A   1      51.176  26.829  22.106  1.00  0.00    -0.744 OA
ENDBRANCH  53  56
ENDBRANCH  25  49
BRANCH  37  60
ATOM     60  C   UNL A   1      45.321  33.183  29.141  1.00  0.00     0.023 A 
ATOM     61  C   UNL A   1      46.035  33.416  30.333  1.00  0.00     0.012 A 
ATOM     62  C   UNL A   1      45.167  34.234  28.213  1.00  0.00     0.148 A 
ATOM     63  C   UNL A   1      46.557  34.680  30.612  1.00  0.00     0.002 A 
ATOM     64  C   UNL A   1      45.733  35.477  28.476  1.00  0.00     0.091 A 
ATOM     65  F   UNL A   1      44.466  34.001  27.094  1.00  0.00    -0.205 F 
ATOM     66  C   UNL A   1      46.418  35.705  29.680  1.00  0.00     0.022 A 
BRANCH  64  67
ATOM     67  S   UNL A   1      45.682  36.825  27.289  1.00  0.00     0.127 S 
ATOM     68  O   UNL A   1      46.388  37.884  28.008  1.00  0.00    -0.237 OA
ATOM     69  O   UNL A   1      46.416  36.266  26.152  1.00  0.00    -0.237 OA
ATOM     70  O   UNL A   1      44.271  37.075  27.029  1.00  0.00    -0.744 OA
ENDBRANCH  64  67
ENDBRANCH  37  60
ENDBRANCH  11  12
ENDBRANCH   4   6
ENDBRANCH   1   2
BRANCH   1  71
ATOM     71  C   UNL A   1      37.352  20.854  24.739  1.00  0.00     0.042 C 
BRANCH  71  72
ATOM     72  C   UNL A   1      35.900  20.925  25.207  1.00  0.00     0.118 C 
BRANCH  72  73
ATOM     73  N   UNL A   1      35.625  21.670  26.429  1.00  0.00    -0.351 N 
ATOM     74  C   UNL A   1      34.619  22.588  26.702  1.00  0.00     0.272 C 
ATOM     75  H   UNL A   1      36.247  21.498  27.172  1.00  0.00     0.163 HD
ATOM     76  O   UNL A   1      34.144  22.610  27.837  1.00  0.00    -0.267 OA
BRANCH  74  77
ATOM     77  C   UNL A   1      34.038  23.490  25.678  1.00  0.00     0.159 A 
ATOM     78  N   UNL A   1      34.794  24.617  25.469  1.00  0.00    -0.247 NA
ATOM     79  C   UNL A   1      32.909  23.208  24.892  1.00  0.00     0.159 A 
ATOM     80  C   UNL A   1      34.394  25.446  24.484  1.00  0.00     0.132 A 
ATOM     81  N   UNL A   1      32.531  24.083  23.899  1.00  0.00    -0.247 NA
ATOM     82  C   UNL A   1      33.283  25.186  23.715  1.00  0.00     0.132 A 
BRANCH  79  83
ATOM     83  C   UNL A   1      31.896  22.091  25.010  1.00  0.00     0.277 C 
ATOM     84  O   UNL A   1      30.782  22.334  25.478  1.00  0.00    -0.267 OA
ATOM     85  N   UNL A   1      32.133  20.887  24.402  1.00  0.00    -0.303 N 
ATOM     86  H   UNL A   1      31.927  20.792  23.443  1.00  0.00     0.172 HD
BRANCH  85  87
ATOM     87  C   UNL A   1      32.648  19.807  25.081  1.00  0.00     0.164 A 
ATOM     88  N   UNL A   1      32.669  19.809  26.418  1.00  0.00    -0.155 NA
ATOM     89  C   UNL A   1      33.092  18.572  24.540  1.00  0.00     0.063 A 
ATOM     90  N   UNL A   1      32.840  18.501  26.715  1.00  0.00    -0.259 N 
ATOM     91  C   UNL A   1      33.062  17.712  25.624  1.00  0.00     0.157 A 
ATOM     92  C   UNL A   1      33.404  18.036  23.282  1.00  0.00     0.017 A 
ATOM     93  H   UNL A   1      32.805  18.149  27.634  1.00  0.00     0.192 HD
ATOM     94  N   UNL A   1      33.192  16.372  25.608  1.00  0.00    -0.237 NA
ATOM     95  C   UNL A   1      33.598  16.660  23.215  1.00  0.00     0.021 A 
ATOM     96  C   UNL A   1      33.438  15.893  24.366  1.00  0.00     0.113 A 
ENDBRANCH  85  87
ENDBRANCH  79  83
ENDBRANCH  74  77
ENDBRANCH  72  73
ENDBRANCH  71  72
ENDBRANCH   1  71
TORSDOF 15
ENDMDL
MODEL 2
REMARK VINA RESULT:     -12.5      6.271     11.155
REMARK SMILES O=C(NCCCNC(=O)c1nccnc1C(=O)Nc1n[nH]c2ncccc12)c1ccc(-c2c3nc(c(-c4cccc(S(=O)(=O)[O-])c4F)c4ccc([nH]4)c(-c4cccc(S(=O)(=O)[O-])c4F)c4nc(c(-c5cccc(S(=O)(=O)[O-])c5F)c5ccc2[nH]5)C=C4)C=C3)cc1
REMARK SMILES IDX 4 1 3 2 1 3 2 4 28 6 29 7 90 8 30 9 89 10 31 11 32 12 33 13
REMARK SMILES IDX 83 14 34 15 88 16 82 17 84 18 35 19 87 20 81 21 80 22 36 24
REMARK SMILES IDX 68 25 48 26 67 27 49 28 52 29 66 30 85 31 50 32 51 33 65 35
REMARK SMILES IDX 86 36 53 37 37 38 38 39 46 40 39 41 41 42 47 43 40 44 42 45
REMARK SMILES IDX 43 46 44 47 45 48 69 49 70 50 78 51 71 52 73 53 79 54 72 55
REMARK SMILES IDX 74 56 75 57 76 58 77 59 54 60 55 61 63 62 56 63 58 64 64 65
REMARK SMILES IDX 57 66 59 67 60 68 61 69 62 70 5 71 6 72 7 73 8 74 9 76 10 77
REMARK SMILES IDX 11 78 15 79 12 80 14 81 13 82 16 83 17 84 18 85 19 87 20 88
REMARK SMILES IDX 27 89 21 90 22 91 26 92 23 94 25 95 24 96
REMARK H PARENT 3 5 84 23 52 34 7 75 18 86 21 93
REMARK Flexibility Score: inf
ROOT
ATOM      1  C   UNL A   1      32.630  32.695  27.202  1.00  0.00     0.118 C 
ENDROOT
BRANCH   1   2
ATOM      2  N   UNL A   1      32.439  34.050  27.675  1.00  0.00    -0.352 N 
ATOM      3  O   UNL A   1      33.010  35.904  28.840  1.00  0.00    -0.269 OA
ATOM      4  C   UNL A   1      33.247  34.738  28.566  1.00  0.00     0.251 C 
ATOM      5  H   UNL A   1      31.655  34.533  27.328  1.00  0.00     0.163 HD
BRANCH   4   6
ATOM      6  C   UNL A   1      34.380  34.032  29.218  1.00  0.00     0.039 A 
ATOM      7  C   UNL A   1      34.165  33.073  30.212  1.00  0.00     0.014 A 
ATOM      8  C   UNL A   1      35.682  34.345  28.822  1.00  0.00     0.014 A 
ATOM      9  C   UNL A   1      35.256  32.498  30.876  1.00  0.00     0.010 A 
ATOM     10  C   UNL A   1      36.772  33.742  29.463  1.00  0.00     0.010 A 
ATOM     11  C   UNL A   1      36.573  32.836  30.518  1.00  0.00    -0.014 A 
BRANCH  11  12
ATOM     12  C   UNL A   1      37.739  32.224  31.217  1.00  0.00     0.031 A 
ATOM     13  C   UNL A   1      38.497  31.074  30.602  1.00  0.00     0.074 A 
ATOM     14  C   UNL A   1      38.094  32.666  32.440  1.00  0.00     0.049 A 
ATOM     15  N   UNL A   1      39.514  30.402  31.082  1.00  0.00    -0.248 NA
ATOM     16  C   UNL A   1      38.048  30.614  29.280  1.00  0.00     0.031 C 
ATOM     17  C   UNL A   1      37.424  33.742  33.171  1.00  0.00     0.029 A 
ATOM     18  N   UNL A   1      39.087  32.252  33.293  1.00  0.00    -0.354 N 
ATOM     19  C   UNL A   1      39.802  29.415  30.145  1.00  0.00     0.074 A 
ATOM     20  C   UNL A   1      38.845  29.574  29.068  1.00  0.00     0.031 C 
ATOM     21  C   UNL A   1      38.024  33.903  34.360  1.00  0.00     0.029 A 
ATOM     22  C   UNL A   1      39.097  32.922  34.494  1.00  0.00     0.049 A 
ATOM     23  H   UNL A   1      39.732  31.543  33.067  1.00  0.00     0.167 HD
ATOM     24  C   UNL A   1      40.777  28.471  30.168  1.00  0.00     0.034 A 
ATOM     25  C   UNL A   1      39.869  32.760  35.588  1.00  0.00     0.034 A 
ATOM     26  C   UNL A   1      41.744  28.326  31.225  1.00  0.00     0.049 A 
ATOM     27  C   UNL A   1      40.950  31.716  35.584  1.00  0.00     0.074 A 
ATOM     28  C   UNL A   1      42.813  27.448  31.298  1.00  0.00     0.029 A 
ATOM     29  N   UNL A   1      41.756  29.062  32.400  1.00  0.00    -0.354 N 
ATOM     30  N   UNL A   1      41.295  30.886  34.629  1.00  0.00    -0.248 NA
ATOM     31  C   UNL A   1      41.772  31.605  36.799  1.00  0.00     0.031 C 
ATOM     32  C   UNL A   1      43.454  27.636  32.529  1.00  0.00     0.029 A 
ATOM     33  C   UNL A   1      42.803  28.652  33.209  1.00  0.00     0.049 A 
ATOM     34  H   UNL A   1      41.113  29.773  32.625  1.00  0.00     0.167 HD
ATOM     35  C   UNL A   1      42.394  30.184  35.110  1.00  0.00     0.074 A 
ATOM     36  C   UNL A   1      42.668  30.695  36.437  1.00  0.00     0.031 C 
ATOM     37  C   UNL A   1      43.105  29.198  34.509  1.00  0.00     0.034 A 
BRANCH  24  38
ATOM     38  C   UNL A   1      40.867  27.529  28.992  1.00  0.00     0.023 A 
ATOM     39  C   UNL A   1      40.004  26.415  28.923  1.00  0.00     0.012 A 
ATOM     40  C   UNL A   1      41.764  27.771  27.931  1.00  0.00     0.148 A 
ATOM     41  C   UNL A   1      40.062  25.536  27.841  1.00  0.00     0.002 A 
ATOM     42  C   UNL A   1      41.785  26.913  26.837  1.00  0.00     0.091 A 
ATOM     43  F   UNL A   1      42.589  28.824  28.018  1.00  0.00    -0.205 F 
ATOM     44  C   UNL A   1      40.945  25.790  26.796  1.00  0.00     0.022 A 
BRANCH  42  45
ATOM     45  S   UNL A   1      42.835  27.202  25.407  1.00  0.00     0.127 S 
ATOM     46  O   UNL A   1      44.135  27.425  26.037  1.00  0.00    -0.237 OA
ATOM     47  O   UNL A   1      42.722  25.939  24.677  1.00  0.00    -0.237 OA
ATOM     48  O   UNL A   1      42.261  28.349  24.719  1.00  0.00    -0.744 OA
ENDBRANCH  42  45
ENDBRANCH  24  38
BRANCH  25  49
ATOM     49  C   UNL A   1      39.683  33.664  36.758  1.00  0.00     0.023 A 
ATOM     50  C   UNL A   1      40.076  35.012  36.654  1.00  0.00     0.012 A 
ATOM     51  C   UNL A   1      39.077  33.212  37.947  1.00  0.00     0.148 A 
ATOM     52  C   UNL A   1      39.885  35.892  37.719  1.00  0.00     0.002 A 
ATOM     53  C   UNL A   1      38.839  34.108  38.983  1.00  0.00     0.091 A 
ATOM     54  F   UNL A   1      38.725  31.922  38.029  1.00  0.00    -0.205 F 
ATOM     55  C   UNL A   1      39.256  35.444  38.878  1.00  0.00     0.022 A 
BRANCH  53  56
ATOM     56  S   UNL A   1      37.920  33.656  40.459  1.00  0.00     0.127 S 
ATOM     57  O   UNL A   1      36.689  33.115  39.890  1.00  0.00    -0.237 OA
ATOM     58  O   UNL A   1      38.805  32.664  41.070  1.00  0.00    -0.237 OA
ATOM     59  O   UNL A   1      37.773  34.886  41.224  1.00  0.00    -0.744 OA
ENDBRANCH  53  56
ENDBRANCH  25  49
BRANCH  37  60
ATOM     60  C   UNL A   1      44.281  28.625  35.257  1.00  0.00     0.023 A 
ATOM     61  C   UNL A   1      45.573  29.147  35.045  1.00  0.00     0.012 A 
ATOM     62  C   UNL A   1      44.097  27.612  36.220  1.00  0.00     0.148 A 
ATOM     63  C   UNL A   1      46.666  28.647  35.754  1.00  0.00     0.002 A 
ATOM     64  C   UNL A   1      45.184  27.153  36.958  1.00  0.00     0.091 A 
ATOM     65  F   UNL A   1      42.865  27.111  36.394  1.00  0.00    -0.205 F 
ATOM     66  C   UNL A   1      46.470  27.661  36.717  1.00  0.00     0.022 A 
BRANCH  64  67
ATOM     67  S   UNL A   1      45.005  25.953  38.283  1.00  0.00     0.127 S 
ATOM     68  O   UNL A   1      44.052  26.622  39.166  1.00  0.00    -0.237 OA
ATOM     69  O   UNL A   1      44.468  24.787  37.578  1.00  0.00    -0.237 OA
ATOM     70  O   UNL A   1      46.341  25.760  38.830  1.00  0.00    -0.744 OA
ENDBRANCH  64  67
ENDBRANCH  37  60
ENDBRANCH  11  12
ENDBRANCH   4   6
ENDBRANCH   1   2
BRANCH   1  71
ATOM     71  C   UNL A   1      31.414  31.950  26.649  1.00  0.00     0.042 C 
BRANCH  71  72
ATOM     72  C   UNL A   1      31.615  30.639  25.892  1.00  0.00     0.118 C 
BRANCH  72  73
ATOM     73  N   UNL A   1      30.765  30.396  24.734  1.00  0.00    -0.351 N 
ATOM     74  C   UNL A   1      30.621  29.251  23.962  1.00  0.00     0.272 C 
ATOM     75  H   UNL A   1      30.209  31.160  24.456  1.00  0.00     0.163 HD
ATOM     76  O   UNL A   1      29.508  28.989  23.510  1.00  0.00    -0.267 OA
BRANCH  74  77
ATOM     77  C   UNL A   1      31.724  28.289  23.716  1.00  0.00     0.159 A 
ATOM     78  N   UNL A   1      32.550  28.676  22.689  1.00  0.00    -0.247 NA
ATOM     79  C   UNL A   1      32.008  27.160  24.499  1.00  0.00     0.159 A 
ATOM     80  C   UNL A   1      33.638  27.914  22.461  1.00  0.00     0.132 A 
ATOM     81  N   UNL A   1      33.126  26.404  24.230  1.00  0.00    -0.247 NA
ATOM     82  C   UNL A   1      33.920  26.797  23.215  1.00  0.00     0.132 A 
BRANCH  79  83
ATOM     83  C   UNL A   1      31.198  26.511  25.600  1.00  0.00     0.277 C 
ATOM     84  O   UNL A   1      30.963  27.146  26.630  1.00  0.00    -0.267 OA
ATOM     85  N   UNL A   1      30.551  25.327  25.364  1.00  0.00    -0.303 N 
ATOM     86  H   UNL A   1      29.675  25.347  24.916  1.00  0.00     0.172 HD
BRANCH  85  87
ATOM     87  C   UNL A   1      31.081  24.111  25.732  1.00  0.00     0.164 A 
ATOM     88  N   UNL A   1      30.978  23.696  27.000  1.00  0.00    -0.155 NA
ATOM     89  C   UNL A   1      31.666  23.129  24.892  1.00  0.00     0.063 A 
ATOM     90  N   UNL A   1      31.219  22.369  26.897  1.00  0.00    -0.259 N 
ATOM     91  C   UNL A   1      31.601  21.972  25.649  1.00  0.00     0.157 A 
ATOM     92  C   UNL A   1      32.133  23.028  23.573  1.00  0.00     0.017 A 
ATOM     93  H   UNL A   1      31.125  21.746  27.654  1.00  0.00     0.192 HD
ATOM     94  N   UNL A   1      31.832  20.711  25.237  1.00  0.00    -0.237 NA
ATOM     95  C   UNL A   1      32.437  21.751  23.110  1.00  0.00     0.021 A 
ATOM     96  C   UNL A   1      32.228  20.657  23.944  1.00  0.00     0.113 A 
ENDBRANCH  85  87
ENDBRANCH  79  83
ENDBRANCH  74  77
ENDBRANCH  72  73
ENDBRANCH  71  72
ENDBRANCH   1  71
TORSDOF 15
ENDMDL
MODEL 3
REMARK VINA RESULT:     -12.5      0.952      7.532
REMARK SMILES O=C(NCCCNC(=O)c1nccnc1C(=O)Nc1n[nH]c2ncccc12)c1ccc(-c2c3nc(c(-c4cccc(S(=O)(=O)[O-])c4F)c4ccc([nH]4)c(-c4cccc(S(=O)(=O)[O-])c4F)c4nc(c(-c5cccc(S(=O)(=O)[O-])c5F)c5ccc2[nH]5)C=C4)C=C3)cc1
REMARK SMILES IDX 4 1 3 2 1 3 2 4 28 6 29 7 90 8 30 9 89 10 31 11 32 12 33 13
REMARK SMILES IDX 83 14 34 15 88 16 82 17 84 18 35 19 87 20 81 21 80 22 36 24
REMARK SMILES IDX 68 25 48 26 67 27 49 28 52 29 66 30 85 31 50 32 51 33 65 35
REMARK SMILES IDX 86 36 53 37 37 38 38 39 46 40 39 41 41 42 47 43 40 44 42 45
REMARK SMILES IDX 43 46 44 47 45 48 69 49 70 50 78 51 71 52 73 53 79 54 72 55
REMARK SMILES IDX 74 56 75 57 76 58 77 59 54 60 55 61 63 62 56 63 58 64 64 65
REMARK SMILES IDX 57 66 59 67 60 68 61 69 62 70 5 71 6 72 7 73 8 74 9 76 10 77
REMARK SMILES IDX 11 78 15 79 12 80 14 81 13 82 16 83 17 84 18 85 19 87 20 88
REMARK SMILES IDX 27 89 21 90 22 91 26 92 23 94 25 95 24 96
REMARK H PARENT 3 5 84 23 52 34 7 75 18 86 21 93
REMARK Flexibility Score: inf
ROOT
ATOM      1  C   UNL A   1      38.440  21.086  25.455  1.00  0.00     0.118 C 
ENDROOT
BRANCH   1   2
ATOM      2  N   UNL A   1      39.394  20.160  26.027  1.00  0.00    -0.352 N 
ATOM      3  O   UNL A   1      41.163  19.591  27.318  1.00  0.00    -0.269 OA
ATOM      4  C   UNL A   1      40.464  20.475  26.849  1.00  0.00     0.251 C 
ATOM      5  H   UNL A   1      39.271  19.208  25.810  1.00  0.00     0.163 HD
BRANCH   4   6
ATOM      6  C   UNL A   1      40.779  21.901  27.122  1.00  0.00     0.039 A 
ATOM      7  C   UNL A   1      40.299  22.923  26.297  1.00  0.00     0.014 A 
ATOM      8  C   UNL A   1      41.573  22.213  28.227  1.00  0.00     0.014 A 
ATOM      9  C   UNL A   1      40.695  24.248  26.523  1.00  0.00     0.010 A 
ATOM     10  C   UNL A   1      41.938  23.543  28.473  1.00  0.00     0.010 A 
ATOM     11  C   UNL A   1      41.531  24.572  27.607  1.00  0.00    -0.014 A 
BRANCH  11  12
ATOM     12  C   UNL A   1      41.952  25.980  27.857  1.00  0.00     0.031 A 
ATOM     13  C   UNL A   1      43.331  26.457  27.480  1.00  0.00     0.074 A 
ATOM     14  C   UNL A   1      41.110  26.829  28.479  1.00  0.00     0.049 A 
ATOM     15  N   UNL A   1      43.876  27.636  27.651  1.00  0.00    -0.248 NA
ATOM     16  C   UNL A   1      44.218  25.479  26.831  1.00  0.00     0.031 C 
ATOM     17  C   UNL A   1      39.762  26.491  28.937  1.00  0.00     0.029 A 
ATOM     18  N   UNL A   1      41.269  28.141  28.852  1.00  0.00    -0.354 N 
ATOM     19  C   UNL A   1      45.178  27.534  27.174  1.00  0.00     0.074 A 
ATOM     20  C   UNL A   1      45.344  26.172  26.708  1.00  0.00     0.031 C 
ATOM     21  C   UNL A   1      39.218  27.565  29.529  1.00  0.00     0.029 A 
ATOM     22  C   UNL A   1      40.187  28.658  29.526  1.00  0.00     0.049 A 
ATOM     23  H   UNL A   1      42.080  28.663  28.656  1.00  0.00     0.167 HD
ATOM     24  C   UNL A   1      46.145  28.485  27.114  1.00  0.00     0.034 A 
ATOM     25  C   UNL A   1      39.995  29.866  30.092  1.00  0.00     0.034 A 
ATOM     26  C   UNL A   1      45.975  29.846  27.552  1.00  0.00     0.049 A 
ATOM     27  C   UNL A   1      41.077  30.907  30.002  1.00  0.00     0.074 A 
ATOM     28  C   UNL A   1      46.873  30.897  27.462  1.00  0.00     0.029 A 
ATOM     29  N   UNL A   1      44.843  30.346  28.178  1.00  0.00    -0.354 N 
ATOM     30  N   UNL A   1      42.249  30.832  29.420  1.00  0.00    -0.248 NA
ATOM     31  C   UNL A   1      40.797  32.212  30.619  1.00  0.00     0.031 C 
ATOM     32  C   UNL A   1      46.294  32.024  28.057  1.00  0.00     0.029 A 
ATOM     33  C   UNL A   1      45.023  31.684  28.490  1.00  0.00     0.049 A 
ATOM     34  H   UNL A   1      44.031  29.825  28.372  1.00  0.00     0.167 HD
ATOM     35  C   UNL A   1      42.831  32.087  29.567  1.00  0.00     0.074 A 
ATOM     36  C   UNL A   1      41.874  32.908  30.280  1.00  0.00     0.031 C 
ATOM     37  C   UNL A   1      44.050  32.514  29.156  1.00  0.00     0.034 A 
BRANCH  24  38
ATOM     38  C   UNL A   1      47.477  28.093  26.522  1.00  0.00     0.023 A 
ATOM     39  C   UNL A   1      48.567  27.825  27.376  1.00  0.00     0.012 A 
ATOM     40  C   UNL A   1      47.639  27.937  25.130  1.00  0.00     0.148 A 
ATOM     41  C   UNL A   1      49.806  27.451  26.853  1.00  0.00     0.002 A 
ATOM     42  C   UNL A   1      48.865  27.523  24.620  1.00  0.00     0.091 A 
ATOM     43  F   UNL A   1      46.599  28.211  24.330  1.00  0.00    -0.205 F 
ATOM     44  C   UNL A   1      49.951  27.292  25.478  1.00  0.00     0.022 A 
BRANCH  42  45
ATOM     45  S   UNL A   1      49.125  27.217  22.868  1.00  0.00     0.127 S 
ATOM     46  O   UNL A   1      48.608  28.448  22.275  1.00  0.00    -0.237 OA
ATOM     47  O   UNL A   1      50.580  27.069  22.791  1.00  0.00    -0.237 OA
ATOM     48  O   UNL A   1      48.380  26.005  22.563  1.00  0.00    -0.744 OA
ENDBRANCH  42  45
ENDBRANCH  24  38
BRANCH  25  49
ATOM     49  C   UNL A   1      38.689  30.176  30.739  1.00  0.00     0.023 A 
ATOM     50  C   UNL A   1      38.464  29.762  32.065  1.00  0.00     0.012 A 
ATOM     51  C   UNL A   1      37.696  30.918  30.070  1.00  0.00     0.148 A 
ATOM     52  C   UNL A   1      37.265  30.066  32.711  1.00  0.00     0.002 A 
ATOM     53  C   UNL A   1      36.527  31.265  30.738  1.00  0.00     0.091 A 
ATOM     54  F   UNL A   1      37.926  31.289  28.803  1.00  0.00    -0.205 F 
ATOM     55  C   UNL A   1      36.302  30.826  32.052  1.00  0.00     0.022 A 
BRANCH  53  56
ATOM     56  S   UNL A   1      35.289  32.350  30.019  1.00  0.00     0.127 S 
ATOM     57  O   UNL A   1      34.357  32.517  31.131  1.00  0.00    -0.237 OA
ATOM     58  O   UNL A   1      36.083  33.536  29.697  1.00  0.00    -0.237 OA
ATOM     59  O   UNL A   1      34.768  31.641  28.860  1.00  0.00    -0.744 OA
ENDBRANCH  53  56
ENDBRANCH  25  49
BRANCH  37  60
ATOM     60  C   UNL A   1      44.416  33.951  29.425  1.00  0.00     0.023 A 
ATOM     61  C   UNL A   1      45.027  34.307  30.644  1.00  0.00     0.012 A 
ATOM     62  C   UNL A   1      44.215  34.941  28.441  1.00  0.00     0.148 A 
ATOM     63  C   UNL A   1      45.399  35.628  30.892  1.00  0.00     0.002 A 
ATOM     64  C   UNL A   1      44.633  36.246  28.676  1.00  0.00     0.091 A 
ATOM     65  F   UNL A   1      43.612  34.589  27.295  1.00  0.00    -0.205 F 
ATOM     66  C   UNL A   1      45.215  36.594  29.906  1.00  0.00     0.022 A 
BRANCH  64  67
ATOM     67  S   UNL A   1      44.519  37.531  27.425  1.00  0.00     0.127 S 
ATOM     68  O   UNL A   1      44.786  38.736  28.209  1.00  0.00    -0.237 OA
ATOM     69  O   UNL A   1      45.588  37.158  26.497  1.00  0.00    -0.237 OA
ATOM     70  O   UNL A   1      43.177  37.429  26.868  1.00  0.00    -0.744 OA
ENDBRANCH  64  67
ENDBRANCH  37  60
ENDBRANCH  11  12
ENDBRANCH   4   6
ENDBRANCH   1   2
BRANCH   1  71
ATOM     71  C   UNL A   1      37.102  20.527  24.967  1.00  0.00     0.042 C 
BRANCH  71  72
ATOM     72  C   UNL A   1      35.845  21.388  25.071  1.00  0.00     0.118 C 
BRANCH  72  73
ATOM     73  N   UNL A   1      35.571  22.023  26.354  1.00  0.00    -0.351 N 
ATOM     74  C   UNL A   1      34.522  22.853  26.729  1.00  0.00     0.272 C 
ATOM     75  H   UNL A   1      36.230  21.837  27.061  1.00  0.00     0.163 HD
ATOM     76  O   UNL A   1      34.091  22.763  27.876  1.00  0.00    -0.267 OA
BRANCH  74  77
ATOM     77  C   UNL A   1      33.849  23.789  25.794  1.00  0.00     0.159 A 
ATOM     78  N   UNL A   1      34.552  24.954  25.608  1.00  0.00    -0.247 NA
ATOM     79  C   UNL A   1      32.686  23.509  25.060  1.00  0.00     0.159 A 
ATOM     80  C   UNL A   1      34.065  25.821  24.698  1.00  0.00     0.132 A 
ATOM     81  N   UNL A   1      32.218  24.423  24.144  1.00  0.00    -0.247 NA
ATOM     82  C   UNL A   1      32.919  25.562  23.981  1.00  0.00     0.132 A 
BRANCH  79  83
ATOM     83  C   UNL A   1      31.721  22.349  25.171  1.00  0.00     0.277 C 
ATOM     84  O   UNL A   1      30.624  22.526  25.702  1.00  0.00    -0.267 OA
ATOM     85  N   UNL A   1      31.973  21.184  24.495  1.00  0.00    -0.303 N 
ATOM     86  H   UNL A   1      31.725  21.126  23.544  1.00  0.00     0.172 HD
BRANCH  85  87
ATOM     87  C   UNL A   1      32.559  20.094  25.096  1.00  0.00     0.164 A 
ATOM     88  N   UNL A   1      32.704  20.065  26.426  1.00  0.00    -0.155 NA
ATOM     89  C   UNL A   1      32.965  18.880  24.485  1.00  0.00     0.063 A 
ATOM     90  N   UNL A   1      32.914  18.751  26.671  1.00  0.00    -0.259 N 
ATOM     91  C   UNL A   1      33.044  17.993  25.545  1.00  0.00     0.157 A 
ATOM     92  C   UNL A   1      33.166  18.379  23.191  1.00  0.00     0.017 A 
ATOM     93  H   UNL A   1      32.968  18.377  27.581  1.00  0.00     0.192 HD
ATOM     94  N   UNL A   1      33.185  16.655  25.483  1.00  0.00    -0.237 NA
ATOM     95  C   UNL A   1      33.367  17.007  23.071  1.00  0.00     0.021 A 
ATOM     96  C   UNL A   1      33.321  16.210  24.212  1.00  0.00     0.113 A 
ENDBRANCH  85  87
ENDBRANCH  79  83
ENDBRANCH  74  77
ENDBRANCH  72  73
ENDBRANCH  71  72
ENDBRANCH   1  71
TORSDOF 15
ENDMDL
