MODEL 1
REMARK VINA RESULT:     -12.5      0.000      0.000
REMARK SMILES COc1cccc(C(=O)N[C@H]2C=C[C@@H](C(=O)NCCCNC(=O)c3ccc(-c4c5nc(c(-c6cccc(S(=O)(=O)[O-])c6F)c6ccc([nH]6)c(-c6cccc(S(=O)(=O)[O-])c6F)c6nc(c(-c7cccc(S(=O)(=O)[O-])c7F)c7ccc4[nH]7)C=C6)C=C5)cc3)C2)c1
REMARK SMILES IDX 19 1 18 2 17 3 15 4 16 5 14 7 11 8 12 9 87 10 13 11 10 12
REMARK SMILES IDX 8 13 9 14 7 16 3 17 4 18 88 19 5 20 6 21 2 22 1 23 20 24
REMARK SMILES IDX 21 25 22 26 23 28 24 29 25 30 86 31 26 32 85 33 27 34 28 35
REMARK SMILES IDX 29 36 79 37 30 38 84 39 78 40 80 41 31 42 83 43 77 44 76 45
REMARK SMILES IDX 32 47 64 48 44 49 63 50 45 51 48 52 62 53 81 54 46 55 47 56
REMARK SMILES IDX 61 58 82 59 49 60 33 61 34 62 42 63 35 64 37 65 43 66 36 67
REMARK SMILES IDX 38 68 39 69 40 70 41 71 65 72 66 73 74 74 67 75 69 76 75 77
REMARK SMILES IDX 68 78 70 79 71 80 72 81 73 82 50 83 51 84 59 85 52 86 54 87
REMARK SMILES IDX 60 88 53 89 55 90 56 91 57 92 58 93
REMARK H PARENT 17 6 10 15 21 27 80 46 48 57
REMARK Flexibility Score: inf
ROOT
ATOM      1  C   UNL A   1      31.590  31.922  26.645  1.00  0.00     0.042 C 
ENDROOT
BRANCH   1   2
ATOM      2  C   UNL A   1      31.826  30.459  26.307  1.00  0.00     0.117 C 
BRANCH   2   3
ATOM      3  N   UNL A   1      31.429  30.126  24.951  1.00  0.00    -0.356 N 
ATOM      4  C   UNL A   1      31.398  28.926  24.309  1.00  0.00     0.227 C 
ATOM      5  O   UNL A   1      30.966  28.904  23.152  1.00  0.00    -0.274 OA
ATOM      6  H   UNL A   1      31.135  30.892  24.407  1.00  0.00     0.163 HD
BRANCH   4   7
ATOM      7  C   UNL A   1      31.894  27.639  24.967  1.00  0.00     0.103 C 
ATOM      8  C   UNL A   1      32.646  25.420  24.235  1.00  0.00     0.106 C 
ATOM      9  C   UNL A   1      33.794  26.309  24.594  1.00  0.00    -0.006 C 
ATOM     10  C   UNL A   1      31.443  26.380  24.228  1.00  0.00     0.047 C 
ATOM     11  C   UNL A   1      33.385  27.505  25.033  1.00  0.00    -0.016 C 
BRANCH   8  12
ATOM     12  N   UNL A   1      32.854  24.823  22.936  1.00  0.00    -0.346 N 
ATOM     13  C   UNL A   1      33.499  23.674  22.537  1.00  0.00     0.251 C 
ATOM     14  O   UNL A   1      33.471  23.423  21.333  1.00  0.00    -0.269 OA
ATOM     15  H   UNL A   1      32.456  25.335  22.195  1.00  0.00     0.164 HD
BRANCH  13  16
ATOM     16  C   UNL A   1      34.271  22.776  23.456  1.00  0.00     0.043 A 
ATOM     17  C   UNL A   1      36.350  21.847  24.344  1.00  0.00     0.119 A 
ATOM     18  C   UNL A   1      35.626  20.907  25.066  1.00  0.00     0.046 A 
ATOM     19  C   UNL A   1      35.661  22.794  23.588  1.00  0.00     0.060 A 
ATOM     20  C   UNL A   1      34.230  20.928  25.038  1.00  0.00     0.005 A 
ATOM     21  C   UNL A   1      33.557  21.852  24.230  1.00  0.00     0.014 A 
BRANCH  17  22
ATOM     22  O   UNL A   1      37.715  21.752  24.428  1.00  0.00    -0.497 OA
ATOM     23  C   UNL A   1      38.289  21.828  25.731  1.00  0.00     0.278 C 
ENDBRANCH  17  22
ENDBRANCH  13  16
ENDBRANCH   8  12
ENDBRANCH   4   7
ENDBRANCH   2   3
ENDBRANCH   1   2
BRANCH   1  24
ATOM     24  C   UNL A   1      32.755  32.565  27.379  1.00  0.00     0.118 C 
BRANCH  24  25
ATOM     25  N   UNL A   1      32.526  33.982  27.644  1.00  0.00    -0.352 N 
ATOM     26  C   UNL A   1      33.075  34.797  28.604  1.00  0.00     0.251 C 
ATOM     27  H   UNL A   1      31.881  34.419  27.045  1.00  0.00     0.163 HD
ATOM     28  O   UNL A   1      32.587  35.902  28.814  1.00  0.00    -0.269 OA
BRANCH  26  29
ATOM     29  C   UNL A   1      34.243  34.335  29.382  1.00  0.00     0.039 A 
ATOM     30  C   UNL A   1      34.039  33.711  30.614  1.00  0.00     0.014 A 
ATOM     31  C   UNL A   1      35.539  34.517  28.892  1.00  0.00     0.014 A 
ATOM     32  C   UNL A   1      35.132  33.208  31.321  1.00  0.00     0.010 A 
ATOM     33  C   UNL A   1      36.613  33.930  29.548  1.00  0.00     0.010 A 
ATOM     34  C   UNL A   1      36.424  33.277  30.774  1.00  0.00    -0.014 A 
BRANCH  34  35
ATOM     35  C   UNL A   1      37.590  32.663  31.456  1.00  0.00     0.031 A 
ATOM     36  C   UNL A   1      38.316  31.510  30.817  1.00  0.00     0.074 A 
ATOM     37  C   UNL A   1      37.933  33.080  32.691  1.00  0.00     0.049 A 
ATOM     38  N   UNL A   1      39.304  30.794  31.291  1.00  0.00    -0.248 NA
ATOM     39  C   UNL A   1      37.855  31.083  29.485  1.00  0.00     0.031 C 
ATOM     40  C   UNL A   1      37.255  34.136  33.446  1.00  0.00     0.029 A 
ATOM     41  N   UNL A   1      38.918  32.646  33.541  1.00  0.00    -0.354 N 
ATOM     42  C   UNL A   1      39.555  29.815  30.337  1.00  0.00     0.074 A 
ATOM     43  C   UNL A   1      38.594  30.003  29.274  1.00  0.00     0.031 C 
ATOM     44  C   UNL A   1      37.848  34.272  34.642  1.00  0.00     0.029 A 
ATOM     45  C   UNL A   1      38.920  33.290  34.757  1.00  0.00     0.049 A 
ATOM     46  H   UNL A   1      39.562  31.940  33.304  1.00  0.00     0.167 HD
ATOM     47  C   UNL A   1      40.517  28.863  30.333  1.00  0.00     0.034 A 
ATOM     48  C   UNL A   1      39.688  33.099  35.847  1.00  0.00     0.034 A 
ATOM     49  C   UNL A   1      41.493  28.703  31.377  1.00  0.00     0.049 A 
ATOM     50  C   UNL A   1      40.764  32.049  35.807  1.00  0.00     0.074 A 
ATOM     51  C   UNL A   1      42.562  27.826  31.427  1.00  0.00     0.029 A 
ATOM     52  N   UNL A   1      41.511  29.424  32.561  1.00  0.00    -0.354 N 
ATOM     53  N   UNL A   1      41.087  31.236  34.830  1.00  0.00    -0.248 NA
ATOM     54  C   UNL A   1      41.603  31.911  37.006  1.00  0.00     0.031 C 
ATOM     55  C   UNL A   1      43.206  27.994  32.657  1.00  0.00     0.029 A 
ATOM     56  C   UNL A   1      42.563  29.003  33.355  1.00  0.00     0.049 A 
ATOM     57  H   UNL A   1      40.871  30.133  32.800  1.00  0.00     0.167 HD
ATOM     58  C   UNL A   1      42.188  30.517  35.282  1.00  0.00     0.074 A 
ATOM     59  C   UNL A   1      42.488  31.005  36.612  1.00  0.00     0.031 C 
ATOM     60  C   UNL A   1      42.881  29.532  34.657  1.00  0.00     0.034 A 
BRANCH  47  61
ATOM     61  C   UNL A   1      40.591  27.944  29.141  1.00  0.00     0.023 A 
ATOM     62  C   UNL A   1      39.698  26.857  29.041  1.00  0.00     0.012 A 
ATOM     63  C   UNL A   1      41.501  28.186  28.094  1.00  0.00     0.148 A 
ATOM     64  C   UNL A   1      39.734  26.005  27.938  1.00  0.00     0.002 A 
ATOM     65  C   UNL A   1      41.498  27.363  26.975  1.00  0.00     0.091 A 
ATOM     66  F   UNL A   1      42.356  29.212  28.215  1.00  0.00    -0.205 F 
ATOM     67  C   UNL A   1      40.626  26.265  26.901  1.00  0.00     0.022 A 
BRANCH  65  68
ATOM     68  S   UNL A   1      42.549  27.659  25.549  1.00  0.00     0.127 S 
ATOM     69  O   UNL A   1      42.263  26.487  24.723  1.00  0.00    -0.237 OA
ATOM     70  O   UNL A   1      42.013  28.916  25.027  1.00  0.00    -0.237 OA
ATOM     71  O   UNL A   1      43.910  27.744  26.061  1.00  0.00    -0.744 OA
ENDBRANCH  65  68
ENDBRANCH  47  61
BRANCH  48  72
ATOM     72  C   UNL A   1      39.502  33.959  37.051  1.00  0.00     0.023 A 
ATOM     73  C   UNL A   1      39.943  35.297  37.020  1.00  0.00     0.012 A 
ATOM     74  C   UNL A   1      38.880  33.468  38.214  1.00  0.00     0.148 A 
ATOM     75  C   UNL A   1      39.799  36.120  38.137  1.00  0.00     0.002 A 
ATOM     76  C   UNL A   1      38.690  34.308  39.305  1.00  0.00     0.091 A 
ATOM     77  F   UNL A   1      38.474  32.190  38.226  1.00  0.00    -0.205 F 
ATOM     78  C   UNL A   1      39.165  35.629  39.276  1.00  0.00     0.022 A 
BRANCH  76  79
ATOM     79  S   UNL A   1      37.784  33.801  40.771  1.00  0.00     0.127 S 
ATOM     80  O   UNL A   1      38.716  32.861  41.388  1.00  0.00    -0.237 OA
ATOM     81  O   UNL A   1      37.629  35.071  41.483  1.00  0.00    -0.237 OA
ATOM     82  O   UNL A   1      36.538  33.225  40.285  1.00  0.00    -0.744 OA
ENDBRANCH  76  79
ENDBRANCH  48  72
BRANCH  60  83
ATOM     83  C   UNL A   1      44.062  28.940  35.379  1.00  0.00     0.023 A 
ATOM     84  C   UNL A   1      45.342  29.507  35.222  1.00  0.00     0.012 A 
ATOM     85  C   UNL A   1      43.885  27.868  36.279  1.00  0.00     0.148 A 
ATOM     86  C   UNL A   1      46.434  28.996  35.923  1.00  0.00     0.002 A 
ATOM     87  C   UNL A   1      44.966  27.400  37.013  1.00  0.00     0.091 A 
ATOM     88  F   UNL A   1      42.661  27.333  36.401  1.00  0.00    -0.205 F 
ATOM     89  C   UNL A   1      46.243  27.953  36.828  1.00  0.00     0.022 A 
BRANCH  87  90
ATOM     90  S   UNL A   1      44.800  26.130  38.274  1.00  0.00     0.127 S 
ATOM     91  O   UNL A   1      44.473  24.954  37.468  1.00  0.00    -0.237 OA
ATOM     92  O   UNL A   1      46.135  26.110  38.869  1.00  0.00    -0.237 OA
ATOM     93  O   UNL A   1      43.743  26.584  39.167  1.00  0.00    -0.744 OA
ENDBRANCH  87  90
ENDBRANCH  60  83
ENDBRANCH  34  35
ENDBRANCH  26  29
ENDBRANCH  24  25
ENDBRANCH   1  24
TORSDOF 16
ENDMDL
MODEL 2
REMARK VINA RESULT:     -12.1      5.925     12.243
REMARK SMILES COc1cccc(C(=O)N[C@H]2C=C[C@@H](C(=O)NCCCNC(=O)c3ccc(-c4c5nc(c(-c6cccc(S(=O)(=O)[O-])c6F)c6ccc([nH]6)c(-c6cccc(S(=O)(=O)[O-])c6F)c6nc(c(-c7cccc(S(=O)(=O)[O-])c7F)c7ccc4[nH]7)C=C6)C=C5)cc3)C2)c1
REMARK SMILES IDX 19 1 18 2 17 3 15 4 16 5 14 7 11 8 12 9 87 10 13 11 10 12
REMARK SMILES IDX 8 13 9 14 7 16 3 17 4 18 88 19 5 20 6 21 2 22 1 23 20 24
REMARK SMILES IDX 21 25 22 26 23 28 24 29 25 30 86 31 26 32 85 33 27 34 28 35
REMARK SMILES IDX 29 36 79 37 30 38 84 39 78 40 80 41 31 42 83 43 77 44 76 45
REMARK SMILES IDX 32 47 64 48 44 49 63 50 45 51 48 52 62 53 81 54 46 55 47 56
REMARK SMILES IDX 61 58 82 59 49 60 33 61 34 62 42 63 35 64 37 65 43 66 36 67
REMARK SMILES IDX 38 68 39 69 40 70 41 71 65 72 66 73 74 74 67 75 69 76 75 77
REMARK SMILES IDX 68 78 70 79 71 80 72 81 73 82 50 83 51 84 59 85 52 86 54 87
REMARK SMILES IDX 60 88 53 89 55 90 56 91 57 92 58 93
REMARK H PARENT 17 6 10 15 21 27 80 46 48 57
REMARK Flexibility Score: inf
ROOT
ATOM      1  C   UNL A   1      38.202  19.891  25.017  1.00  0.00     0.042 C 
ENDROOT
BRANCH   1   2
ATOM      2  C   UNL A   1      37.049  20.879  25.079  1.00  0.00     0.117 C 
BRANCH   2   3
ATOM      3  N   UNL A   1      35.756  20.226  25.184  1.00  0.00    -0.356 N 
ATOM      4  C   UNL A   1      34.506  20.693  24.910  1.00  0.00     0.227 C 
ATOM      5  O   UNL A   1      33.560  19.909  25.037  1.00  0.00    -0.274 OA
ATOM      6  H   UNL A   1      35.788  19.296  25.505  1.00  0.00     0.163 HD
BRANCH   4   7
ATOM      7  C   UNL A   1      34.254  22.137  24.480  1.00  0.00     0.103 C 
ATOM      8  C   UNL A   1      32.562  23.866  24.895  1.00  0.00     0.106 C 
ATOM      9  C   UNL A   1      33.799  24.090  25.703  1.00  0.00    -0.006 C 
ATOM     10  C   UNL A   1      32.770  22.457  24.311  1.00  0.00     0.047 C 
ATOM     11  C   UNL A   1      34.739  23.172  25.448  1.00  0.00    -0.016 C 
BRANCH   8  12
ATOM     12  N   UNL A   1      31.388  23.923  25.735  1.00  0.00    -0.346 N 
ATOM     13  C   UNL A   1      30.542  24.954  26.076  1.00  0.00     0.251 C 
ATOM     14  O   UNL A   1      29.594  24.663  26.804  1.00  0.00    -0.269 OA
ATOM     15  H   UNL A   1      31.147  23.059  26.140  1.00  0.00     0.164 HD
BRANCH  13  16
ATOM     16  C   UNL A   1      30.748  26.384  25.676  1.00  0.00     0.043 A 
ATOM     17  C   UNL A   1      30.758  28.202  24.042  1.00  0.00     0.119 A 
ATOM     18  C   UNL A   1      31.365  29.038  24.970  1.00  0.00     0.046 A 
ATOM     19  C   UNL A   1      30.418  26.904  24.423  1.00  0.00     0.060 A 
ATOM     20  C   UNL A   1      31.613  28.580  26.265  1.00  0.00     0.005 A 
ATOM     21  C   UNL A   1      31.314  27.258  26.613  1.00  0.00     0.014 A 
BRANCH  17  22
ATOM     22  O   UNL A   1      30.554  28.732  22.795  1.00  0.00    -0.497 OA
ATOM     23  C   UNL A   1      29.345  29.462  22.594  1.00  0.00     0.278 C 
ENDBRANCH  17  22
ENDBRANCH  13  16
ENDBRANCH   8  12
ENDBRANCH   4   7
ENDBRANCH   2   3
ENDBRANCH   1   2
BRANCH   1  24
ATOM     24  C   UNL A   1      39.404  20.317  25.843  1.00  0.00     0.118 C 
BRANCH  24  25
ATOM     25  N   UNL A   1      40.375  19.239  26.001  1.00  0.00    -0.352 N 
ATOM     26  C   UNL A   1      41.739  19.299  26.149  1.00  0.00     0.251 C 
ATOM     27  H   UNL A   1      39.995  18.332  26.001  1.00  0.00     0.163 HD
ATOM     28  O   UNL A   1      42.408  18.277  26.036  1.00  0.00    -0.269 OA
BRANCH  26  29
ATOM     29  C   UNL A   1      42.393  20.593  26.432  1.00  0.00     0.039 A 
ATOM     30  C   UNL A   1      42.911  21.343  25.374  1.00  0.00     0.014 A 
ATOM     31  C   UNL A   1      42.493  21.065  27.743  1.00  0.00     0.014 A 
ATOM     32  C   UNL A   1      43.465  22.598  25.626  1.00  0.00     0.010 A 
ATOM     33  C   UNL A   1      42.954  22.354  27.979  1.00  0.00     0.010 A 
ATOM     34  C   UNL A   1      43.454  23.131  26.926  1.00  0.00    -0.014 A 
BRANCH  34  35
ATOM     35  C   UNL A   1      43.945  24.503  27.207  1.00  0.00     0.031 A 
ATOM     36  C   UNL A   1      42.994  25.558  27.704  1.00  0.00     0.074 A 
ATOM     37  C   UNL A   1      45.223  24.822  26.923  1.00  0.00     0.049 A 
ATOM     38  N   UNL A   1      43.217  26.827  27.931  1.00  0.00    -0.248 NA
ATOM     39  C   UNL A   1      41.602  25.143  27.950  1.00  0.00     0.031 C 
ATOM     40  C   UNL A   1      46.220  23.906  26.363  1.00  0.00     0.029 A 
ATOM     41  N   UNL A   1      45.896  26.012  27.038  1.00  0.00    -0.354 N 
ATOM     42  C   UNL A   1      41.992  27.366  28.307  1.00  0.00     0.074 A 
ATOM     43  C   UNL A   1      41.021  26.297  28.243  1.00  0.00     0.031 C 
ATOM     44  C   UNL A   1      47.376  24.565  26.190  1.00  0.00     0.029 A 
ATOM     45  C   UNL A   1      47.195  25.956  26.588  1.00  0.00     0.049 A 
ATOM     46  H   UNL A   1      45.488  26.829  27.406  1.00  0.00     0.167 HD
ATOM     47  C   UNL A   1      41.707  28.631  28.699  1.00  0.00     0.034 A 
ATOM     48  C   UNL A   1      48.130  26.922  26.491  1.00  0.00     0.034 A 
ATOM     49  C   UNL A   1      42.684  29.681  28.794  1.00  0.00     0.049 A 
ATOM     50  C   UNL A   1      47.792  28.313  26.954  1.00  0.00     0.074 A 
ATOM     51  C   UNL A   1      42.515  30.972  29.263  1.00  0.00     0.029 A 
ATOM     52  N   UNL A   1      44.009  29.568  28.402  1.00  0.00    -0.354 N 
ATOM     53  N   UNL A   1      46.668  28.766  27.455  1.00  0.00    -0.248 NA
ATOM     54  C   UNL A   1      48.860  29.319  26.868  1.00  0.00     0.031 C 
ATOM     55  C   UNL A   1      43.730  31.649  29.121  1.00  0.00     0.029 A 
ATOM     56  C   UNL A   1      44.666  30.769  28.602  1.00  0.00     0.049 A 
ATOM     57  H   UNL A   1      44.422  28.752  28.036  1.00  0.00     0.167 HD
ATOM     58  C   UNL A   1      46.905  30.098  27.779  1.00  0.00     0.074 A 
ATOM     59  C   UNL A   1      48.285  30.371  27.435  1.00  0.00     0.031 C 
ATOM     60  C   UNL A   1      46.053  31.014  28.302  1.00  0.00     0.034 A 
BRANCH  47  61
ATOM     61  C   UNL A   1      40.286  28.939  29.095  1.00  0.00     0.023 A 
ATOM     62  C   UNL A   1      39.332  29.236  28.100  1.00  0.00     0.012 A 
ATOM     63  C   UNL A   1      39.881  28.881  30.442  1.00  0.00     0.148 A 
ATOM     64  C   UNL A   1      38.007  29.505  28.441  1.00  0.00     0.002 A 
ATOM     65  C   UNL A   1      38.549  29.101  30.771  1.00  0.00     0.091 A 
ATOM     66  F   UNL A   1      40.805  28.617  31.377  1.00  0.00    -0.205 F 
ATOM     67  C   UNL A   1      37.614  29.427  29.775  1.00  0.00     0.022 A 
BRANCH  65  68
ATOM     68  S   UNL A   1      37.924  28.944  32.448  1.00  0.00     0.127 S 
ATOM     69  O   UNL A   1      38.797  29.863  33.176  1.00  0.00    -0.237 OA
ATOM     70  O   UNL A   1      36.542  29.403  32.304  1.00  0.00    -0.237 OA
ATOM     71  O   UNL A   1      38.064  27.538  32.801  1.00  0.00    -0.744 OA
ENDBRANCH  65  68
ENDBRANCH  47  61
BRANCH  48  72
ATOM     72  C   UNL A   1      49.492  26.594  25.983  1.00  0.00     0.023 A 
ATOM     73  C   UNL A   1      50.362  25.826  26.782  1.00  0.00     0.012 A 
ATOM     74  C   UNL A   1      49.923  27.021  24.712  1.00  0.00     0.148 A 
ATOM     75  C   UNL A   1      51.649  25.519  26.340  1.00  0.00     0.002 A 
ATOM     76  C   UNL A   1      51.187  26.666  24.255  1.00  0.00     0.091 A 
ATOM     77  F   UNL A   1      49.084  27.757  23.970  1.00  0.00    -0.205 F 
ATOM     78  C   UNL A   1      52.059  25.930  25.074  1.00  0.00     0.022 A 
BRANCH  76  79
ATOM     79  S   UNL A   1      51.760  27.051  22.597  1.00  0.00     0.127 S 
ATOM     80  O   UNL A   1      50.587  26.723  21.791  1.00  0.00    -0.237 OA
ATOM     81  O   UNL A   1      52.053  28.481  22.705  1.00  0.00    -0.237 OA
ATOM     82  O   UNL A   1      52.929  26.210  22.378  1.00  0.00    -0.744 OA
ENDBRANCH  76  79
ENDBRANCH  48  72
BRANCH  60  83
ATOM     83  C   UNL A   1      46.592  32.393  28.579  1.00  0.00     0.023 A 
ATOM     84  C   UNL A   1      47.116  32.703  29.850  1.00  0.00     0.012 A 
ATOM     85  C   UNL A   1      46.652  33.356  27.552  1.00  0.00     0.148 A 
ATOM     86  C   UNL A   1      47.662  33.961  30.103  1.00  0.00     0.002 A 
ATOM     87  C   UNL A   1      47.245  34.588  27.796  1.00  0.00     0.091 A 
ATOM     88  F   UNL A   1      46.133  33.046  26.355  1.00  0.00    -0.205 F 
ATOM     89  C   UNL A   1      47.738  34.897  29.074  1.00  0.00     0.022 A 
BRANCH  87  90
ATOM     90  S   UNL A   1      47.479  35.819  26.509  1.00  0.00     0.127 S 
ATOM     91  O   UNL A   1      46.111  36.290  26.296  1.00  0.00    -0.237 OA
ATOM     92  O   UNL A   1      48.362  36.785  27.162  1.00  0.00    -0.237 OA
ATOM     93  O   UNL A   1      48.077  35.116  25.382  1.00  0.00    -0.744 OA
ENDBRANCH  87  90
ENDBRANCH  60  83
ENDBRANCH  34  35
ENDBRANCH  26  29
ENDBRANCH  24  25
ENDBRANCH   1  24
TORSDOF 16
ENDMDL
MODEL 3
REMARK VINA RESULT:     -12.0      0.638      7.833
REMARK SMILES COc1cccc(C(=O)N[C@H]2C=C[C@@H](C(=O)NCCCNC(=O)c3ccc(-c4c5nc(c(-c6cccc(S(=O)(=O)[O-])c6F)c6ccc([nH]6)c(-c6cccc(S(=O)(=O)[O-])c6F)c6nc(c(-c7cccc(S(=O)(=O)[O-])c7F)c7ccc4[nH]7)C=C6)C=C5)cc3)C2)c1
REMARK SMILES IDX 19 1 18 2 17 3 15 4 16 5 14 7 11 8 12 9 87 10 13 11 10 12
REMARK SMILES IDX 8 13 9 14 7 16 3 17 4 18 88 19 5 20 6 21 2 22 1 23 20 24
REMARK SMILES IDX 21 25 22 26 23 28 24 29 25 30 86 31 26 32 85 33 27 34 28 35
REMARK SMILES IDX 29 36 79 37 30 38 84 39 78 40 80 41 31 42 83 43 77 44 76 45
REMARK SMILES IDX 32 47 64 48 44 49 63 50 45 51 48 52 62 53 81 54 46 55 47 56
REMARK SMILES IDX 61 58 82 59 49 60 33 61 34 62 42 63 35 64 37 65 43 66 36 67
REMARK SMILES IDX 38 68 39 69 40 70 41 71 65 72 66 73 74 74 67 75 69 76 75 77
REMARK SMILES IDX 68 78 70 79 71 80 72 81 73 82 50 83 51 84 59 85 52 86 54 87
REMARK SMILES IDX 60 88 53 89 55 90 56 91 57 92 58 93
REMARK H PARENT 17 6 10 15 21 27 80 46 48 57
REMARK Flexibility Score: inf
ROOT
ATOM      1  C   UNL A   1      31.609  32.434  26.566  1.00  0.00     0.042 C 
ENDROOT
BRANCH   1   2
ATOM      2  C   UNL A   1      31.634  30.930  26.356  1.00  0.00     0.117 C 
BRANCH   2   3
ATOM      3  N   UNL A   1      31.066  30.532  25.080  1.00  0.00    -0.356 N 
ATOM      4  C   UNL A   1      31.096  29.333  24.434  1.00  0.00     0.227 C 
ATOM      5  O   UNL A   1      30.484  29.240  23.366  1.00  0.00    -0.274 OA
ATOM      6  H   UNL A   1      30.580  31.244  24.604  1.00  0.00     0.163 HD
BRANCH   4   7
ATOM      7  C   UNL A   1      31.870  28.135  24.981  1.00  0.00     0.103 C 
ATOM      8  C   UNL A   1      32.879  26.085  24.083  1.00  0.00     0.106 C 
ATOM      9  C   UNL A   1      33.902  27.145  24.340  1.00  0.00    -0.006 C 
ATOM     10  C   UNL A   1      31.544  26.833  24.253  1.00  0.00     0.047 C 
ATOM     11  C   UNL A   1      33.360  28.248  24.868  1.00  0.00    -0.016 C 
BRANCH   8  12
ATOM     12  N   UNL A   1      33.021  25.554  22.747  1.00  0.00    -0.346 N 
ATOM     13  C   UNL A   1      33.192  24.272  22.274  1.00  0.00     0.251 C 
ATOM     14  O   UNL A   1      33.250  24.147  21.051  1.00  0.00    -0.269 OA
ATOM     15  H   UNL A   1      32.989  26.239  22.042  1.00  0.00     0.164 HD
BRANCH  13  16
ATOM     16  C   UNL A   1      33.375  23.067  23.145  1.00  0.00     0.043 A 
ATOM     17  C   UNL A   1      34.662  21.684  24.697  1.00  0.00     0.119 A 
ATOM     18  C   UNL A   1      33.717  20.672  24.585  1.00  0.00     0.046 A 
ATOM     19  C   UNL A   1      34.454  22.881  24.013  1.00  0.00     0.060 A 
ATOM     20  C   UNL A   1      32.574  20.867  23.808  1.00  0.00     0.005 A 
ATOM     21  C   UNL A   1      32.408  22.055  23.085  1.00  0.00     0.014 A 
BRANCH  17  22
ATOM     22  O   UNL A   1      35.753  21.407  25.479  1.00  0.00    -0.497 OA
ATOM     23  C   UNL A   1      36.640  20.392  25.013  1.00  0.00     0.278 C 
ENDBRANCH  17  22
ENDBRANCH  13  16
ENDBRANCH   8  12
ENDBRANCH   4   7
ENDBRANCH   2   3
ENDBRANCH   1   2
BRANCH   1  24
ATOM     24  C   UNL A   1      32.717  32.932  27.480  1.00  0.00     0.118 C 
BRANCH  24  25
ATOM     25  N   UNL A   1      32.509  34.315  27.896  1.00  0.00    -0.352 N 
ATOM     26  C   UNL A   1      33.053  35.008  28.949  1.00  0.00     0.251 C 
ATOM     27  H   UNL A   1      31.884  34.830  27.337  1.00  0.00     0.163 HD
ATOM     28  O   UNL A   1      32.582  36.093  29.272  1.00  0.00    -0.269 OA
BRANCH  26  29
ATOM     29  C   UNL A   1      34.197  34.439  29.693  1.00  0.00     0.039 A 
ATOM     30  C   UNL A   1      33.966  33.795  30.910  1.00  0.00     0.014 A 
ATOM     31  C   UNL A   1      35.494  34.540  29.185  1.00  0.00     0.014 A 
ATOM     32  C   UNL A   1      35.030  33.192  31.583  1.00  0.00     0.010 A 
ATOM     33  C   UNL A   1      36.532  33.857  29.804  1.00  0.00     0.010 A 
ATOM     34  C   UNL A   1      36.315  33.183  31.014  1.00  0.00    -0.014 A 
BRANCH  34  35
ATOM     35  C   UNL A   1      37.444  32.466  31.657  1.00  0.00     0.031 A 
ATOM     36  C   UNL A   1      37.975  32.931  32.986  1.00  0.00     0.074 A 
ATOM     37  C   UNL A   1      38.052  31.459  30.999  1.00  0.00     0.049 A 
ATOM     38  N   UNL A   1      39.000  32.485  33.666  1.00  0.00    -0.248 NA
ATOM     39  C   UNL A   1      37.285  34.066  33.622  1.00  0.00     0.031 C 
ATOM     40  C   UNL A   1      37.678  30.968  29.670  1.00  0.00     0.029 A 
ATOM     41  N   UNL A   1      39.131  30.686  31.345  1.00  0.00    -0.354 N 
ATOM     42  C   UNL A   1      39.099  33.304  34.784  1.00  0.00     0.074 A 
ATOM     43  C   UNL A   1      38.055  34.297  34.675  1.00  0.00     0.031 C 
ATOM     44  C   UNL A   1      38.509  29.975  29.317  1.00  0.00     0.029 A 
ATOM     45  C   UNL A   1      39.496  29.783  30.373  1.00  0.00     0.049 A 
ATOM     46  H   UNL A   1      39.599  30.769  32.207  1.00  0.00     0.167 HD
ATOM     47  C   UNL A   1      39.964  33.219  35.823  1.00  0.00     0.034 A 
ATOM     48  C   UNL A   1      40.522  28.910  30.331  1.00  0.00     0.034 A 
ATOM     49  C   UNL A   1      40.977  32.207  35.943  1.00  0.00     0.049 A 
ATOM     50  C   UNL A   1      41.454  28.821  31.508  1.00  0.00     0.074 A 
ATOM     51  C   UNL A   1      41.846  31.980  36.996  1.00  0.00     0.029 A 
ATOM     52  N   UNL A   1      41.270  31.260  34.973  1.00  0.00    -0.354 N 
ATOM     53  N   UNL A   1      41.435  29.502  32.629  1.00  0.00    -0.248 NA
ATOM     54  C   UNL A   1      42.530  27.823  31.431  1.00  0.00     0.031 C 
ATOM     55  C   UNL A   1      42.686  30.919  36.647  1.00  0.00     0.029 A 
ATOM     56  C   UNL A   1      42.315  30.458  35.394  1.00  0.00     0.049 A 
ATOM     57  H   UNL A   1      40.801  31.171  34.111  1.00  0.00     0.167 HD
ATOM     58  C   UNL A   1      42.470  28.990  33.403  1.00  0.00     0.074 A 
ATOM     59  C   UNL A   1      43.082  27.929  32.631  1.00  0.00     0.031 C 
ATOM     60  C   UNL A   1      42.884  29.372  34.637  1.00  0.00     0.034 A 
BRANCH  47  61
ATOM     61  C   UNL A   1      39.824  34.224  36.937  1.00  0.00     0.023 A 
ATOM     62  C   UNL A   1      40.181  35.570  36.712  1.00  0.00     0.012 A 
ATOM     63  C   UNL A   1      39.287  33.853  38.184  1.00  0.00     0.148 A 
ATOM     64  C   UNL A   1      40.042  36.522  37.721  1.00  0.00     0.002 A 
ATOM     65  C   UNL A   1      39.105  34.816  39.169  1.00  0.00     0.091 A 
ATOM     66  F   UNL A   1      38.971  32.566  38.388  1.00  0.00    -0.205 F 
ATOM     67  C   UNL A   1      39.494  36.147  38.945  1.00  0.00     0.022 A 
BRANCH  65  68
ATOM     68  S   UNL A   1      38.332  34.455  40.750  1.00  0.00     0.127 S 
ATOM     69  O   UNL A   1      37.210  33.608  40.343  1.00  0.00    -0.237 OA
ATOM     70  O   UNL A   1      39.399  33.751  41.460  1.00  0.00    -0.237 OA
ATOM     71  O   UNL A   1      37.965  35.742  41.324  1.00  0.00    -0.744 OA
ENDBRANCH  65  68
ENDBRANCH  47  61
BRANCH  48  72
ATOM     72  C   UNL A   1      40.689  28.012  29.153  1.00  0.00     0.023 A 
ATOM     73  C   UNL A   1      39.967  26.803  29.097  1.00  0.00     0.012 A 
ATOM     74  C   UNL A   1      41.541  28.352  28.085  1.00  0.00     0.148 A 
ATOM     75  C   UNL A   1      40.117  25.934  28.016  1.00  0.00     0.002 A 
ATOM     76  C   UNL A   1      41.645  27.508  26.986  1.00  0.00     0.091 A 
ATOM     77  F   UNL A   1      42.225  29.503  28.161  1.00  0.00    -0.205 F 
ATOM     78  C   UNL A   1      40.948  26.289  26.957  1.00  0.00     0.022 A 
BRANCH  76  79
ATOM     79  S   UNL A   1      42.601  27.934  25.526  1.00  0.00     0.127 S 
ATOM     80  O   UNL A   1      42.451  26.733  24.709  1.00  0.00    -0.237 OA
ATOM     81  O   UNL A   1      41.883  29.110  25.030  1.00  0.00    -0.237 OA
ATOM     82  O   UNL A   1      43.950  28.206  26.002  1.00  0.00    -0.744 OA
ENDBRANCH  76  79
ENDBRANCH  48  72
BRANCH  60  83
ATOM     83  C   UNL A   1      44.028  28.615  35.258  1.00  0.00     0.023 A 
ATOM     84  C   UNL A   1      45.356  28.946  34.925  1.00  0.00     0.012 A 
ATOM     85  C   UNL A   1      43.784  27.628  36.235  1.00  0.00     0.148 A 
ATOM     86  C   UNL A   1      46.424  28.284  35.530  1.00  0.00     0.002 A 
ATOM     87  C   UNL A   1      44.852  27.011  36.872  1.00  0.00     0.091 A 
ATOM     88  F   UNL A   1      42.512  27.317  36.525  1.00  0.00    -0.205 F 
ATOM     89  C   UNL A   1      46.172  27.327  36.511  1.00  0.00     0.022 A 
BRANCH  87  90
ATOM     90  S   UNL A   1      44.629  25.842  38.217  1.00  0.00     0.127 S 
ATOM     91  O   UNL A   1      43.919  24.752  37.549  1.00  0.00    -0.237 OA
ATOM     92  O   UNL A   1      46.010  25.532  38.589  1.00  0.00    -0.237 OA
ATOM     93  O   UNL A   1      43.869  26.544  39.241  1.00  0.00    -0.744 OA
ENDBRANCH  87  90
ENDBRANCH  60  83
ENDBRANCH  34  35
ENDBRANCH  26  29
ENDBRANCH  24  25
ENDBRANCH   1  24
TORSDOF 16
ENDMDL
