MODEL 1
REMARK VINA RESULT:     -12.4      0.000      0.000
REMARK SMILES Cc1nn([C@H]2CCS(=O)(=O)C2)c(C)c1[C@@H]([NH3+])C(=O)NCCCNC(=O)c1ccc(-c2c3nc(c(-c4cccc(S(=O)(=O)[O-])c4F)c4ccc([nH]4)c(-c4cccc(S(=O)(=O)[O-])c4F)c4nc(c(-c5cccc(S(=O)(=O)[O-])c5F)c5ccc2[nH]5)C=C4)C=C3)cc1
REMARK SMILES IDX 21 1 20 2 19 3 17 4 18 5 15 7 14 8 1 9 2 10 3 11 4 12 12 13
REMARK SMILES IDX 13 14 5 15 6 16 11 17 7 18 8 19 9 20 10 21 16 22 22 26 23 27
REMARK SMILES IDX 24 28 25 30 26 31 27 32 88 33 28 34 87 35 29 36 30 37 31 38
REMARK SMILES IDX 81 39 32 40 86 41 80 42 82 43 33 44 85 45 79 46 78 47 34 49
REMARK SMILES IDX 66 50 46 51 65 52 47 53 50 54 64 55 83 56 48 57 49 58 63 60
REMARK SMILES IDX 84 61 51 62 35 63 36 64 44 65 37 66 39 67 45 68 38 69 40 70
REMARK SMILES IDX 41 71 42 72 43 73 67 74 68 75 76 76 69 77 71 78 77 79 70 80
REMARK SMILES IDX 72 81 73 82 74 83 75 84 52 85 53 86 61 87 54 88 56 89 62 90
REMARK SMILES IDX 55 91 57 92 58 93 59 94 60 95
REMARK H PARENT 19 6 16 23 16 24 16 25 23 29 82 48 50 59
REMARK Flexibility Score: inf
ROOT
ATOM      1  C   UNL A   1      37.703  19.991  24.994  1.00  0.00     0.042 C 
ENDROOT
BRANCH   1   2
ATOM      2  C   UNL A   1      36.550  20.981  25.149  1.00  0.00     0.118 C 
BRANCH   2   3
ATOM      3  N   UNL A   1      35.258  20.335  25.045  1.00  0.00    -0.351 N 
ATOM      4  C   UNL A   1      34.069  20.687  25.621  1.00  0.00     0.283 C 
ATOM      5  O   UNL A   1      33.070  20.034  25.298  1.00  0.00    -0.268 OA
ATOM      6  H   UNL A   1      35.231  19.529  24.480  1.00  0.00     0.163 HD
BRANCH   4   7
ATOM      7  C   UNL A   1      33.910  21.915  26.561  1.00  0.00     0.306 C 
BRANCH   7   8
ATOM      8  C   UNL A   1      33.279  23.128  25.926  1.00  0.00     0.063 A 
ATOM      9  C   UNL A   1      30.777  22.336  25.949  1.00  0.00     0.069 C 
ATOM     10  C   UNL A   1      31.870  23.331  25.766  1.00  0.00     0.069 A 
ATOM     11  N   UNL A   1      31.588  24.561  25.318  1.00  0.00    -0.177 NA
ATOM     12  N   UNL A   1      32.787  25.132  25.141  1.00  0.00    -0.265 N 
ATOM     13  C   UNL A   1      33.816  24.212  25.229  1.00  0.00     0.046 A 
ATOM     14  C   UNL A   1      35.172  24.461  24.666  1.00  0.00     0.067 C 
BRANCH  12  15
ATOM     15  C   UNL A   1      32.879  26.513  24.699  1.00  0.00     0.123 C 
ATOM     16  C   UNL A   1      32.742  26.787  23.184  1.00  0.00     0.044 C 
ATOM     17  C   UNL A   1      31.808  27.423  25.300  1.00  0.00     0.164 C 
ATOM     18  C   UNL A   1      32.803  28.311  23.023  1.00  0.00     0.139 C 
ATOM     19  S   UNL A   1      32.144  28.983  24.539  1.00  0.00     0.152 S 
ATOM     20  O   UNL A   1      33.222  29.600  25.279  1.00  0.00    -0.229 OA
ATOM     21  O   UNL A   1      30.892  29.668  24.280  1.00  0.00    -0.229 OA
ENDBRANCH  12  15
ENDBRANCH   7   8
BRANCH   7  22
ATOM     22  N   UNL A   1      33.233  21.524  27.811  1.00  0.00    -0.343 N 
ATOM     23  H   UNL A   1      33.655  20.669  28.174  1.00  0.00     0.345 HD
ATOM     24  H   UNL A   1      32.242  21.363  27.626  1.00  0.00     0.345 HD
ATOM     25  H   UNL A   1      33.333  22.271  28.499  1.00  0.00     0.345 HD
ENDBRANCH   7  22
ENDBRANCH   4   7
ENDBRANCH   2   3
ENDBRANCH   1   2
BRANCH   1  26
ATOM     26  C   UNL A   1      38.963  20.424  25.696  1.00  0.00     0.118 C 
BRANCH  26  27
ATOM     27  N   UNL A   1      39.973  19.351  25.814  1.00  0.00    -0.352 N 
ATOM     28  C   UNL A   1      41.354  19.468  25.975  1.00  0.00     0.251 C 
ATOM     29  H   UNL A   1      39.624  18.431  25.771  1.00  0.00     0.163 HD
ATOM     30  O   UNL A   1      42.095  18.518  25.746  1.00  0.00    -0.269 OA
BRANCH  28  31
ATOM     31  C   UNL A   1      41.903  20.758  26.441  1.00  0.00     0.039 A 
ATOM     32  C   UNL A   1      42.436  21.766  25.632  1.00  0.00     0.014 A 
ATOM     33  C   UNL A   1      41.789  20.989  27.786  1.00  0.00     0.014 A 
ATOM     34  C   UNL A   1      42.766  22.982  26.245  1.00  0.00     0.010 A 
ATOM     35  C   UNL A   1      41.493  22.264  28.109  1.00  0.00     0.010 A 
ATOM     36  C   UNL A   1      42.294  23.210  27.539  1.00  0.00    -0.014 A 
BRANCH  36  37
ATOM     37  C   UNL A   1      42.405  24.437  28.305  1.00  0.00     0.031 A 
ATOM     38  C   UNL A   1      41.226  25.304  28.150  1.00  0.00     0.074 A 
ATOM     39  C   UNL A   1      43.322  24.624  29.286  1.00  0.00     0.049 A 
ATOM     40  N   UNL A   1      41.100  26.297  27.338  1.00  0.00    -0.248 NA
ATOM     41  C   UNL A   1      39.964  24.868  28.770  1.00  0.00     0.031 C 
ATOM     42  C   UNL A   1      44.303  23.669  29.833  1.00  0.00     0.029 A 
ATOM     43  N   UNL A   1      43.487  25.699  30.101  1.00  0.00    -0.354 N 
ATOM     44  C   UNL A   1      39.832  26.799  27.597  1.00  0.00     0.074 A 
ATOM     45  C   UNL A   1      39.105  25.718  28.202  1.00  0.00     0.031 C 
ATOM     46  C   UNL A   1      44.792  24.136  31.007  1.00  0.00     0.029 A 
ATOM     47  C   UNL A   1      44.295  25.481  31.216  1.00  0.00     0.049 A 
ATOM     48  H   UNL A   1      43.066  26.570  29.916  1.00  0.00     0.167 HD
ATOM     49  C   UNL A   1      39.616  28.143  27.626  1.00  0.00     0.034 A 
ATOM     50  C   UNL A   1      44.499  26.347  32.241  1.00  0.00     0.034 A 
ATOM     51  C   UNL A   1      40.767  28.853  27.103  1.00  0.00     0.049 A 
ATOM     52  C   UNL A   1      44.124  27.691  31.740  1.00  0.00     0.074 A 
ATOM     53  C   UNL A   1      41.488  28.821  25.925  1.00  0.00     0.029 A 
ATOM     54  N   UNL A   1      41.591  29.444  28.033  1.00  0.00    -0.354 N 
ATOM     55  N   UNL A   1      44.778  28.319  30.803  1.00  0.00    -0.248 NA
ATOM     56  C   UNL A   1      42.762  28.145  31.966  1.00  0.00     0.031 C 
ATOM     57  C   UNL A   1      42.852  28.965  26.321  1.00  0.00     0.029 A 
ATOM     58  C   UNL A   1      42.890  29.165  27.703  1.00  0.00     0.049 A 
ATOM     59  H   UNL A   1      41.297  29.977  28.806  1.00  0.00     0.167 HD
ATOM     60  C   UNL A   1      43.785  28.888  30.018  1.00  0.00     0.074 A 
ATOM     61  C   UNL A   1      42.582  28.855  30.849  1.00  0.00     0.031 C 
ATOM     62  C   UNL A   1      43.961  29.046  28.672  1.00  0.00     0.034 A 
BRANCH  49  63
ATOM     63  C   UNL A   1      38.593  28.853  28.494  1.00  0.00     0.023 A 
ATOM     64  C   UNL A   1      37.759  29.787  27.838  1.00  0.00     0.012 A 
ATOM     65  C   UNL A   1      38.561  28.863  29.909  1.00  0.00     0.148 A 
ATOM     66  C   UNL A   1      37.005  30.729  28.544  1.00  0.00     0.002 A 
ATOM     67  C   UNL A   1      37.751  29.750  30.608  1.00  0.00     0.091 A 
ATOM     68  F   UNL A   1      39.401  28.106  30.614  1.00  0.00    -0.205 F 
ATOM     69  C   UNL A   1      36.999  30.710  29.932  1.00  0.00     0.022 A 
BRANCH  67  70
ATOM     70  S   UNL A   1      37.670  29.739  32.406  1.00  0.00     0.127 S 
ATOM     71  O   UNL A   1      38.967  30.309  32.759  1.00  0.00    -0.237 OA
ATOM     72  O   UNL A   1      36.520  30.607  32.656  1.00  0.00    -0.237 OA
ATOM     73  O   UNL A   1      37.460  28.347  32.786  1.00  0.00    -0.744 OA
ENDBRANCH  67  70
ENDBRANCH  49  63
BRANCH  50  74
ATOM     74  C   UNL A   1      44.769  26.125  33.683  1.00  0.00     0.023 A 
ATOM     75  C   UNL A   1      46.077  26.323  34.178  1.00  0.00     0.012 A 
ATOM     76  C   UNL A   1      43.712  26.051  34.616  1.00  0.00     0.148 A 
ATOM     77  C   UNL A   1      46.317  26.507  35.545  1.00  0.00     0.002 A 
ATOM     78  C   UNL A   1      43.956  26.237  35.975  1.00  0.00     0.091 A 
ATOM     79  F   UNL A   1      42.461  25.899  34.161  1.00  0.00    -0.205 F 
ATOM     80  C   UNL A   1      45.254  26.481  36.442  1.00  0.00     0.022 A 
BRANCH  78  81
ATOM     81  S   UNL A   1      42.631  26.266  37.191  1.00  0.00     0.127 S 
ATOM     82  O   UNL A   1      43.374  26.368  38.449  1.00  0.00    -0.237 OA
ATOM     83  O   UNL A   1      41.902  27.473  36.813  1.00  0.00    -0.237 OA
ATOM     84  O   UNL A   1      41.912  25.010  37.019  1.00  0.00    -0.744 OA
ENDBRANCH  78  81
ENDBRANCH  50  74
BRANCH  62  85
ATOM     85  C   UNL A   1      45.354  28.856  28.116  1.00  0.00     0.023 A 
ATOM     86  C   UNL A   1      46.358  29.844  28.205  1.00  0.00     0.012 A 
ATOM     87  C   UNL A   1      45.699  27.587  27.622  1.00  0.00     0.148 A 
ATOM     88  C   UNL A   1      47.667  29.578  27.787  1.00  0.00     0.002 A 
ATOM     89  C   UNL A   1      47.009  27.312  27.252  1.00  0.00     0.091 A 
ATOM     90  F   UNL A   1      44.736  26.656  27.542  1.00  0.00    -0.205 F 
ATOM     91  C   UNL A   1      47.995  28.307  27.322  1.00  0.00     0.022 A 
BRANCH  89  92
ATOM     92  S   UNL A   1      47.512  25.661  26.761  1.00  0.00     0.127 S 
ATOM     93  O   UNL A   1      46.793  25.484  25.502  1.00  0.00    -0.237 OA
ATOM     94  O   UNL A   1      48.963  25.802  26.623  1.00  0.00    -0.237 OA
ATOM     95  O   UNL A   1      47.104  24.780  27.848  1.00  0.00    -0.744 OA
ENDBRANCH  89  92
ENDBRANCH  62  85
ENDBRANCH  36  37
ENDBRANCH  28  31
ENDBRANCH  26  27
ENDBRANCH   1  26
TORSDOF 16
ENDMDL
MODEL 2
REMARK VINA RESULT:     -12.3      4.200      9.657
REMARK SMILES Cc1nn([C@H]2CCS(=O)(=O)C2)c(C)c1[C@@H]([NH3+])C(=O)NCCCNC(=O)c1ccc(-c2c3nc(c(-c4cccc(S(=O)(=O)[O-])c4F)c4ccc([nH]4)c(-c4cccc(S(=O)(=O)[O-])c4F)c4nc(c(-c5cccc(S(=O)(=O)[O-])c5F)c5ccc2[nH]5)C=C4)C=C3)cc1
REMARK SMILES IDX 21 1 20 2 19 3 17 4 18 5 15 7 14 8 1 9 2 10 3 11 4 12 12 13
REMARK SMILES IDX 13 14 5 15 6 16 11 17 7 18 8 19 9 20 10 21 16 22 22 26 23 27
REMARK SMILES IDX 24 28 25 30 26 31 27 32 88 33 28 34 87 35 29 36 30 37 31 38
REMARK SMILES IDX 81 39 32 40 86 41 80 42 82 43 33 44 85 45 79 46 78 47 34 49
REMARK SMILES IDX 66 50 46 51 65 52 47 53 50 54 64 55 83 56 48 57 49 58 63 60
REMARK SMILES IDX 84 61 51 62 35 63 36 64 44 65 37 66 39 67 45 68 38 69 40 70
REMARK SMILES IDX 41 71 42 72 43 73 67 74 68 75 76 76 69 77 71 78 77 79 70 80
REMARK SMILES IDX 72 81 73 82 74 83 75 84 52 85 53 86 61 87 54 88 56 89 62 90
REMARK SMILES IDX 55 91 57 92 58 93 59 94 60 95
REMARK H PARENT 19 6 16 23 16 24 16 25 23 29 82 48 50 59
REMARK Flexibility Score: inf
ROOT
ATOM      1  C   UNL A   1      31.536  31.795  26.536  1.00  0.00     0.042 C 
ENDROOT
BRANCH   1   2
ATOM      2  C   UNL A   1      31.825  30.385  26.025  1.00  0.00     0.118 C 
BRANCH   2   3
ATOM      3  N   UNL A   1      30.931  29.999  24.952  1.00  0.00    -0.351 N 
ATOM      4  C   UNL A   1      31.218  29.354  23.782  1.00  0.00     0.283 C 
ATOM      5  O   UNL A   1      30.263  29.038  23.063  1.00  0.00    -0.268 OA
ATOM      6  H   UNL A   1      29.985  30.236  25.083  1.00  0.00     0.163 HD
BRANCH   4   7
ATOM      7  C   UNL A   1      32.655  28.916  23.382  1.00  0.00     0.306 C 
BRANCH   7   8
ATOM      8  C   UNL A   1      33.008  27.492  23.730  1.00  0.00     0.063 A 
ATOM      9  C   UNL A   1      31.713  26.274  21.800  1.00  0.00     0.069 C 
ATOM     10  C   UNL A   1      32.664  26.345  22.944  1.00  0.00     0.069 A 
ATOM     11  N   UNL A   1      33.241  25.229  23.405  1.00  0.00    -0.177 NA
ATOM     12  N   UNL A   1      33.908  25.627  24.497  1.00  0.00    -0.265 N 
ATOM     13  C   UNL A   1      33.562  26.912  24.873  1.00  0.00     0.046 A 
ATOM     14  C   UNL A   1      33.802  27.445  26.243  1.00  0.00     0.067 C 
BRANCH  12  15
ATOM     15  C   UNL A   1      34.709  24.677  25.250  1.00  0.00     0.123 C 
ATOM     16  C   UNL A   1      33.967  23.726  26.215  1.00  0.00     0.044 C 
ATOM     17  C   UNL A   1      35.500  23.709  24.371  1.00  0.00     0.164 C 
ATOM     18  C   UNL A   1      35.039  22.801  26.805  1.00  0.00     0.139 C 
ATOM     19  S   UNL A   1      36.304  22.669  25.554  1.00  0.00     0.152 S 
ATOM     20  O   UNL A   1      37.483  23.370  26.013  1.00  0.00    -0.229 OA
ATOM     21  O   UNL A   1      36.360  21.314  25.040  1.00  0.00    -0.229 OA
ENDBRANCH  12  15
ENDBRANCH   7   8
BRANCH   7  22
ATOM     22  N   UNL A   1      32.913  29.223  21.963  1.00  0.00    -0.343 N 
ATOM     23  H   UNL A   1      32.029  29.247  21.454  1.00  0.00     0.345 HD
ATOM     24  H   UNL A   1      33.516  28.504  21.563  1.00  0.00     0.345 HD
ATOM     25  H   UNL A   1      33.373  30.131  21.890  1.00  0.00     0.345 HD
ENDBRANCH   7  22
ENDBRANCH   4   7
ENDBRANCH   2   3
ENDBRANCH   1   2
BRANCH   1  26
ATOM     26  C   UNL A   1      32.707  32.429  27.240  1.00  0.00     0.118 C 
BRANCH  26  27
ATOM     27  N   UNL A   1      32.483  33.844  27.604  1.00  0.00    -0.352 N 
ATOM     28  C   UNL A   1      33.072  34.584  28.631  1.00  0.00     0.251 C 
ATOM     29  H   UNL A   1      31.829  34.328  27.050  1.00  0.00     0.163 HD
ATOM     30  O   UNL A   1      32.572  35.636  29.012  1.00  0.00    -0.269 OA
BRANCH  28  31
ATOM     31  C   UNL A   1      34.320  34.077  29.237  1.00  0.00     0.039 A 
ATOM     32  C   UNL A   1      34.414  33.277  30.380  1.00  0.00     0.014 A 
ATOM     33  C   UNL A   1      35.466  34.368  28.546  1.00  0.00     0.014 A 
ATOM     34  C   UNL A   1      35.676  32.770  30.714  1.00  0.00     0.010 A 
ATOM     35  C   UNL A   1      36.377  33.375  28.534  1.00  0.00     0.010 A 
ATOM     36  C   UNL A   1      36.689  32.855  29.756  1.00  0.00    -0.014 A 
BRANCH  36  37
ATOM     37  C   UNL A   1      38.020  32.284  29.840  1.00  0.00     0.031 A 
ATOM     38  C   UNL A   1      38.081  30.920  29.292  1.00  0.00     0.074 A 
ATOM     39  C   UNL A   1      39.133  33.019  30.090  1.00  0.00     0.049 A 
ATOM     40  N   UNL A   1      38.004  29.818  29.957  1.00  0.00    -0.248 NA
ATOM     41  C   UNL A   1      37.950  30.755  27.836  1.00  0.00     0.031 C 
ATOM     42  C   UNL A   1      39.266  34.478  30.243  1.00  0.00     0.029 A 
ATOM     43  N   UNL A   1      40.427  32.608  30.138  1.00  0.00    -0.354 N 
ATOM     44  C   UNL A   1      38.143  28.824  29.000  1.00  0.00     0.074 A 
ATOM     45  C   UNL A   1      37.773  29.434  27.752  1.00  0.00     0.031 C 
ATOM     46  C   UNL A   1      40.570  34.833  30.150  1.00  0.00     0.029 A 
ATOM     47  C   UNL A   1      41.376  33.630  30.098  1.00  0.00     0.049 A 
ATOM     48  H   UNL A   1      40.677  31.658  30.198  1.00  0.00     0.167 HD
ATOM     49  C   UNL A   1      38.889  27.715  29.261  1.00  0.00     0.034 A 
ATOM     50  C   UNL A   1      42.721  33.473  29.995  1.00  0.00     0.034 A 
ATOM     51  C   UNL A   1      39.222  27.649  30.670  1.00  0.00     0.049 A 
ATOM     52  C   UNL A   1      43.017  32.082  30.417  1.00  0.00     0.074 A 
ATOM     53  C   UNL A   1      38.504  27.653  31.850  1.00  0.00     0.029 A 
ATOM     54  N   UNL A   1      40.505  28.012  31.010  1.00  0.00    -0.354 N 
ATOM     55  N   UNL A   1      42.848  31.647  31.634  1.00  0.00    -0.248 NA
ATOM     56  C   UNL A   1      43.076  31.059  29.387  1.00  0.00     0.031 C 
ATOM     57  C   UNL A   1      39.268  28.460  32.746  1.00  0.00     0.029 A 
ATOM     58  C   UNL A   1      40.450  28.833  32.104  1.00  0.00     0.049 A 
ATOM     59  H   UNL A   1      41.325  27.730  30.544  1.00  0.00     0.167 HD
ATOM     60  C   UNL A   1      42.305  30.380  31.470  1.00  0.00     0.074 A 
ATOM     61  C   UNL A   1      42.587  30.026  30.079  1.00  0.00     0.031 C 
ATOM     62  C   UNL A   1      41.417  29.876  32.379  1.00  0.00     0.034 A 
BRANCH  49  63
ATOM     63  C   UNL A   1      39.682  26.924  28.236  1.00  0.00     0.023 A 
ATOM     64  C   UNL A   1      39.530  25.520  28.278  1.00  0.00     0.012 A 
ATOM     65  C   UNL A   1      40.732  27.422  27.429  1.00  0.00     0.148 A 
ATOM     66  C   UNL A   1      40.418  24.660  27.626  1.00  0.00     0.002 A 
ATOM     67  C   UNL A   1      41.567  26.566  26.719  1.00  0.00     0.091 A 
ATOM     68  F   UNL A   1      41.031  28.720  27.423  1.00  0.00    -0.205 F 
ATOM     69  C   UNL A   1      41.438  25.183  26.843  1.00  0.00     0.022 A 
BRANCH  67  70
ATOM     70  S   UNL A   1      42.876  27.191  25.654  1.00  0.00     0.127 S 
ATOM     71  O   UNL A   1      43.791  27.775  26.630  1.00  0.00    -0.237 OA
ATOM     72  O   UNL A   1      43.348  25.964  25.014  1.00  0.00    -0.237 OA
ATOM     73  O   UNL A   1      42.232  28.129  24.742  1.00  0.00    -0.744 OA
ENDBRANCH  67  70
ENDBRANCH  49  63
BRANCH  50  74
ATOM     74  C   UNL A   1      43.767  34.311  29.360  1.00  0.00     0.023 A 
ATOM     75  C   UNL A   1      44.570  35.143  30.172  1.00  0.00     0.012 A 
ATOM     76  C   UNL A   1      44.200  34.056  28.041  1.00  0.00     0.148 A 
ATOM     77  C   UNL A   1      45.791  35.648  29.711  1.00  0.00     0.002 A 
ATOM     78  C   UNL A   1      45.417  34.560  27.588  1.00  0.00     0.091 A 
ATOM     79  F   UNL A   1      43.467  33.241  27.270  1.00  0.00    -0.205 F 
ATOM     80  C   UNL A   1      46.223  35.342  28.425  1.00  0.00     0.022 A 
BRANCH  78  81
ATOM     81  S   UNL A   1      46.067  34.170  25.957  1.00  0.00     0.127 S 
ATOM     82  O   UNL A   1      46.219  32.716  26.029  1.00  0.00    -0.237 OA
ATOM     83  O   UNL A   1      44.990  34.630  25.085  1.00  0.00    -0.237 OA
ATOM     84  O   UNL A   1      47.325  34.900  25.851  1.00  0.00    -0.744 OA
ENDBRANCH  78  81
ENDBRANCH  50  74
BRANCH  62  85
ATOM     85  C   UNL A   1      41.268  30.602  33.696  1.00  0.00     0.023 A 
ATOM     86  C   UNL A   1      42.191  30.470  34.756  1.00  0.00     0.012 A 
ATOM     87  C   UNL A   1      40.246  31.559  33.809  1.00  0.00     0.148 A 
ATOM     88  C   UNL A   1      42.079  31.254  35.909  1.00  0.00     0.002 A 
ATOM     89  C   UNL A   1      40.165  32.369  34.934  1.00  0.00     0.091 A 
ATOM     90  F   UNL A   1      39.375  31.676  32.795  1.00  0.00    -0.205 F 
ATOM     91  C   UNL A   1      41.074  32.213  35.992  1.00  0.00     0.022 A 
BRANCH  89  92
ATOM     92  S   UNL A   1      38.967  33.699  35.042  1.00  0.00     0.127 S 
ATOM     93  O   UNL A   1      37.700  32.972  35.022  1.00  0.00    -0.237 OA
ATOM     94  O   UNL A   1      39.297  34.318  36.327  1.00  0.00    -0.237 OA
ATOM     95  O   UNL A   1      39.218  34.557  33.890  1.00  0.00    -0.744 OA
ENDBRANCH  89  92
ENDBRANCH  62  85
ENDBRANCH  36  37
ENDBRANCH  28  31
ENDBRANCH  26  27
ENDBRANCH   1  26
TORSDOF 16
ENDMDL
MODEL 3
REMARK VINA RESULT:     -11.9      4.527      9.743
REMARK SMILES Cc1nn([C@H]2CCS(=O)(=O)C2)c(C)c1[C@@H]([NH3+])C(=O)NCCCNC(=O)c1ccc(-c2c3nc(c(-c4cccc(S(=O)(=O)[O-])c4F)c4ccc([nH]4)c(-c4cccc(S(=O)(=O)[O-])c4F)c4nc(c(-c5cccc(S(=O)(=O)[O-])c5F)c5ccc2[nH]5)C=C4)C=C3)cc1
REMARK SMILES IDX 21 1 20 2 19 3 17 4 18 5 15 7 14 8 1 9 2 10 3 11 4 12 12 13
REMARK SMILES IDX 13 14 5 15 6 16 11 17 7 18 8 19 9 20 10 21 16 22 22 26 23 27
REMARK SMILES IDX 24 28 25 30 26 31 27 32 88 33 28 34 87 35 29 36 30 37 31 38
REMARK SMILES IDX 81 39 32 40 86 41 80 42 82 43 33 44 85 45 79 46 78 47 34 49
REMARK SMILES IDX 66 50 46 51 65 52 47 53 50 54 64 55 83 56 48 57 49 58 63 60
REMARK SMILES IDX 84 61 51 62 35 63 36 64 44 65 37 66 39 67 45 68 38 69 40 70
REMARK SMILES IDX 41 71 42 72 43 73 67 74 68 75 76 76 69 77 71 78 77 79 70 80
REMARK SMILES IDX 72 81 73 82 74 83 75 84 52 85 53 86 61 87 54 88 56 89 62 90
REMARK SMILES IDX 55 91 57 92 58 93 59 94 60 95
REMARK H PARENT 19 6 16 23 16 24 16 25 23 29 82 48 50 59
REMARK Flexibility Score: inf
ROOT
ATOM      1  C   UNL A   1      31.498  31.787  26.539  1.00  0.00     0.042 C 
ENDROOT
BRANCH   1   2
ATOM      2  C   UNL A   1      31.721  30.315  26.194  1.00  0.00     0.118 C 
BRANCH   2   3
ATOM      3  N   UNL A   1      31.306  30.002  24.842  1.00  0.00    -0.351 N 
ATOM      4  C   UNL A   1      31.893  29.168  23.932  1.00  0.00     0.283 C 
ATOM      5  O   UNL A   1      31.291  28.981  22.868  1.00  0.00    -0.268 OA
ATOM      6  H   UNL A   1      30.488  30.455  24.534  1.00  0.00     0.163 HD
BRANCH   4   7
ATOM      7  C   UNL A   1      33.201  28.379  24.220  1.00  0.00     0.306 C 
BRANCH   7   8
ATOM      8  C   UNL A   1      33.080  26.880  24.111  1.00  0.00     0.063 A 
ATOM      9  C   UNL A   1      33.336  26.647  21.509  1.00  0.00     0.069 C 
ATOM     10  C   UNL A   1      33.253  26.129  22.904  1.00  0.00     0.069 A 
ATOM     11  N   UNL A   1      33.247  24.809  23.128  1.00  0.00    -0.177 NA
ATOM     12  N   UNL A   1      33.026  24.698  24.445  1.00  0.00    -0.265 N 
ATOM     13  C   UNL A   1      32.645  25.902  25.008  1.00  0.00     0.046 A 
ATOM     14  C   UNL A   1      31.938  25.995  26.315  1.00  0.00     0.067 C 
BRANCH  12  15
ATOM     15  C   UNL A   1      33.000  23.388  25.072  1.00  0.00     0.123 C 
ATOM     16  C   UNL A   1      31.941  22.379  24.574  1.00  0.00     0.044 C 
ATOM     17  C   UNL A   1      34.304  22.606  24.916  1.00  0.00     0.164 C 
ATOM     18  C   UNL A   1      32.196  21.081  25.350  1.00  0.00     0.139 C 
ATOM     19  S   UNL A   1      33.942  21.071  25.714  1.00  0.00     0.152 S 
ATOM     20  O   UNL A   1      34.119  21.272  27.136  1.00  0.00    -0.229 OA
ATOM     21  O   UNL A   1      34.597  19.994  24.998  1.00  0.00    -0.229 OA
ENDBRANCH  12  15
ENDBRANCH   7   8
BRANCH   7  22
ATOM     22  N   UNL A   1      34.313  28.909  23.411  1.00  0.00    -0.343 N 
ATOM     23  H   UNL A   1      33.943  29.520  22.683  1.00  0.00     0.345 HD
ATOM     24  H   UNL A   1      34.820  28.135  22.981  1.00  0.00     0.345 HD
ATOM     25  H   UNL A   1      34.947  29.439  24.010  1.00  0.00     0.345 HD
ENDBRANCH   7  22
ENDBRANCH   4   7
ENDBRANCH   2   3
ENDBRANCH   1   2
BRANCH   1  26
ATOM     26  C   UNL A   1      32.649  32.408  27.286  1.00  0.00     0.118 C 
BRANCH  26  27
ATOM     27  N   UNL A   1      32.425  33.824  27.646  1.00  0.00    -0.352 N 
ATOM     28  C   UNL A   1      33.031  34.574  28.655  1.00  0.00     0.251 C 
ATOM     29  H   UNL A   1      31.758  34.302  27.101  1.00  0.00     0.163 HD
ATOM     30  O   UNL A   1      32.534  35.626  29.039  1.00  0.00    -0.269 OA
BRANCH  28  31
ATOM     31  C   UNL A   1      34.294  34.078  29.239  1.00  0.00     0.039 A 
ATOM     32  C   UNL A   1      34.414  33.274  30.377  1.00  0.00     0.014 A 
ATOM     33  C   UNL A   1      35.426  34.384  28.531  1.00  0.00     0.014 A 
ATOM     34  C   UNL A   1      35.687  32.778  30.688  1.00  0.00     0.010 A 
ATOM     35  C   UNL A   1      36.346  33.401  28.500  1.00  0.00     0.010 A 
ATOM     36  C   UNL A   1      36.683  32.879  29.715  1.00  0.00    -0.014 A 
BRANCH  36  37
ATOM     37  C   UNL A   1      38.021  32.321  29.775  1.00  0.00     0.031 A 
ATOM     38  C   UNL A   1      38.079  30.943  29.262  1.00  0.00     0.074 A 
ATOM     39  C   UNL A   1      39.134  33.071  29.973  1.00  0.00     0.049 A 
ATOM     40  N   UNL A   1      38.032  29.859  29.958  1.00  0.00    -0.248 NA
ATOM     41  C   UNL A   1      37.908  30.738  27.815  1.00  0.00     0.031 C 
ATOM     42  C   UNL A   1      39.258  34.535  30.084  1.00  0.00     0.029 A 
ATOM     43  N   UNL A   1      40.433  32.673  29.994  1.00  0.00    -0.354 N 
ATOM     44  C   UNL A   1      38.152  28.841  29.023  1.00  0.00     0.074 A 
ATOM     45  C   UNL A   1      37.740  29.414  27.771  1.00  0.00     0.031 C 
ATOM     46  C   UNL A   1      40.556  34.898  29.944  1.00  0.00     0.029 A 
ATOM     47  C   UNL A   1      41.371  33.701  29.900  1.00  0.00     0.049 A 
ATOM     48  H   UNL A   1      40.694  31.727  30.072  1.00  0.00     0.167 HD
ATOM     49  C   UNL A   1      38.916  27.746  29.291  1.00  0.00     0.034 A 
ATOM     50  C   UNL A   1      42.713  33.553  29.762  1.00  0.00     0.034 A 
ATOM     51  C   UNL A   1      39.290  27.720  30.692  1.00  0.00     0.049 A 
ATOM     52  C   UNL A   1      43.034  32.177  30.211  1.00  0.00     0.074 A 
ATOM     53  C   UNL A   1      38.606  27.750  31.892  1.00  0.00     0.029 A 
ATOM     54  N   UNL A   1      40.579  28.102  30.984  1.00  0.00    -0.354 N 
ATOM     55  N   UNL A   1      42.905  31.773  31.444  1.00  0.00    -0.248 NA
ATOM     56  C   UNL A   1      43.074  31.127  29.208  1.00  0.00     0.031 C 
ATOM     57  C   UNL A   1      39.388  28.587  32.743  1.00  0.00     0.029 A 
ATOM     58  C   UNL A   1      40.547  28.952  32.057  1.00  0.00     0.049 A 
ATOM     59  H   UNL A   1      41.387  27.815  30.503  1.00  0.00     0.167 HD
ATOM     60  C   UNL A   1      42.369  30.497  31.329  1.00  0.00     0.074 A 
ATOM     61  C   UNL A   1      42.614  30.109  29.940  1.00  0.00     0.031 C 
ATOM     62  C   UNL A   1      41.513  30.010  32.277  1.00  0.00     0.034 A 
BRANCH  49  63
ATOM     63  C   UNL A   1      39.685  26.935  28.265  1.00  0.00     0.023 A 
ATOM     64  C   UNL A   1      39.532  25.531  28.336  1.00  0.00     0.012 A 
ATOM     65  C   UNL A   1      40.720  27.415  27.428  1.00  0.00     0.148 A 
ATOM     66  C   UNL A   1      40.405  24.658  27.682  1.00  0.00     0.002 A 
ATOM     67  C   UNL A   1      41.539  26.544  26.717  1.00  0.00     0.091 A 
ATOM     68  F   UNL A   1      41.021  28.712  27.392  1.00  0.00    -0.205 F 
ATOM     69  C   UNL A   1      41.410  25.164  26.869  1.00  0.00     0.022 A 
BRANCH  67  70
ATOM     70  S   UNL A   1      42.827  27.147  25.613  1.00  0.00     0.127 S 
ATOM     71  O   UNL A   1      43.766  27.741  26.560  1.00  0.00    -0.237 OA
ATOM     72  O   UNL A   1      43.279  25.908  24.982  1.00  0.00    -0.237 OA
ATOM     73  O   UNL A   1      42.167  28.074  24.702  1.00  0.00    -0.744 OA
ENDBRANCH  67  70
ENDBRANCH  49  63
BRANCH  50  74
ATOM     74  C   UNL A   1      43.733  34.383  29.075  1.00  0.00     0.023 A 
ATOM     75  C   UNL A   1      44.051  34.108  27.726  1.00  0.00     0.012 A 
ATOM     76  C   UNL A   1      44.141  35.623  29.613  1.00  0.00     0.148 A 
ATOM     77  C   UNL A   1      44.691  35.059  26.923  1.00  0.00     0.002 A 
ATOM     78  C   UNL A   1      44.777  36.566  28.807  1.00  0.00     0.091 A 
ATOM     79  F   UNL A   1      43.817  35.913  30.880  1.00  0.00    -0.205 F 
ATOM     80  C   UNL A   1      45.039  36.294  27.459  1.00  0.00     0.022 A 
BRANCH  78  81
ATOM     81  S   UNL A   1      45.214  38.203  29.412  1.00  0.00     0.127 S 
ATOM     82  O   UNL A   1      43.912  38.735  29.817  1.00  0.00    -0.237 OA
ATOM     83  O   UNL A   1      46.115  37.885  30.516  1.00  0.00    -0.237 OA
ATOM     84  O   UNL A   1      45.817  38.891  28.278  1.00  0.00    -0.744 OA
ENDBRANCH  78  81
ENDBRANCH  50  74
BRANCH  62  85
ATOM     85  C   UNL A   1      41.395  30.770  33.578  1.00  0.00     0.023 A 
ATOM     86  C   UNL A   1      42.343  30.664  34.618  1.00  0.00     0.012 A 
ATOM     87  C   UNL A   1      40.375  31.729  33.691  1.00  0.00     0.148 A 
ATOM     88  C   UNL A   1      42.259  31.478  35.753  1.00  0.00     0.002 A 
ATOM     89  C   UNL A   1      40.322  32.568  34.796  1.00  0.00     0.091 A 
ATOM     90  F   UNL A   1      39.480  31.820  32.696  1.00  0.00    -0.205 F 
ATOM     91  C   UNL A   1      41.255  32.439  35.836  1.00  0.00     0.022 A 
BRANCH  89  92
ATOM     92  S   UNL A   1      39.125  33.901  34.899  1.00  0.00     0.127 S 
ATOM     93  O   UNL A   1      37.885  33.178  35.169  1.00  0.00    -0.237 OA
ATOM     94  O   UNL A   1      39.630  34.692  36.023  1.00  0.00    -0.237 OA
ATOM     95  O   UNL A   1      39.185  34.590  33.616  1.00  0.00    -0.744 OA
ENDBRANCH  89  92
ENDBRANCH  62  85
ENDBRANCH  36  37
ENDBRANCH  28  31
ENDBRANCH  26  27
ENDBRANCH   1  26
TORSDOF 16
ENDMDL
