MODEL 1
REMARK VINA RESULT:     -13.1      0.000      0.000
REMARK SMILES O=C(NCCCNC(=O)[C@@H]1[C@@H](C(=O)N2CC[NH+](C/C=C/c3ccccc3)CC2)[C@@H]2C=C[C@H]1C2)c1ccc(-c2c3nc(c(-c4cccc(S(=O)(=O)[O-])c4F)c4ccc([nH]4)c(-c4cccc(S(=O)(=O)[O-])c4F)c4nc(c(-c5cccc(S(=O)(=O)[O-])c5F)c5ccc2[nH]5)C=C4)C=C3)cc1
REMARK SMILES IDX 5 1 4 2 3 3 1 4 2 5 34 7 35 8 96 9 36 10 95 11 37 12 38 13
REMARK SMILES IDX 39 14 89 15 40 16 94 17 88 18 90 19 41 20 93 21 87 22 86 23
REMARK SMILES IDX 42 25 74 26 54 27 73 28 55 29 58 30 72 31 91 32 56 33 57 34
REMARK SMILES IDX 71 36 92 37 59 38 43 39 44 40 52 41 45 42 47 43 53 44 46 45
REMARK SMILES IDX 48 46 49 47 50 48 51 49 75 50 76 51 84 52 77 53 79 54 85 55
REMARK SMILES IDX 78 56 80 57 81 58 82 59 83 60 60 61 61 62 69 63 62 64 64 65
REMARK SMILES IDX 70 66 63 67 65 68 66 69 67 70 68 71 6 72 7 73 8 74 9 76
REMARK SMILES IDX 10 77 11 78 32 79 29 80 31 81 33 82 30 83 12 84 13 85 14 86
REMARK SMILES IDX 15 87 28 88 16 89 27 90 17 91 18 93 19 94 20 95 21 96 22 97
REMARK SMILES IDX 26 98 23 99 25 100 24 101
REMARK H PARENT 3 6 90 24 58 35 7 75 17 92
REMARK Flexibility Score: inf
ROOT
ATOM      1  C   UNL A   1      32.132  28.173  26.912  1.00  0.00     0.042 C 
ENDROOT
BRANCH   1   2
ATOM      2  C   UNL A   1      33.220  29.053  26.317  1.00  0.00     0.118 C 
BRANCH   2   3
ATOM      3  N   UNL A   1      32.990  30.475  26.549  1.00  0.00    -0.352 N 
ATOM      4  O   UNL A   1      33.128  32.492  27.521  1.00  0.00    -0.269 OA
ATOM      5  C   UNL A   1      33.646  31.391  27.340  1.00  0.00     0.251 C 
ATOM      6  H   UNL A   1      32.228  30.846  26.050  1.00  0.00     0.163 HD
BRANCH   5   7
ATOM      7  C   UNL A   1      34.929  31.058  28.004  1.00  0.00     0.039 A 
ATOM      8  C   UNL A   1      35.144  29.798  28.552  1.00  0.00     0.014 A 
ATOM      9  C   UNL A   1      35.962  32.002  28.043  1.00  0.00     0.014 A 
ATOM     10  C   UNL A   1      36.271  29.552  29.321  1.00  0.00     0.010 A 
ATOM     11  C   UNL A   1      37.172  31.695  28.683  1.00  0.00     0.010 A 
ATOM     12  C   UNL A   1      37.325  30.475  29.358  1.00  0.00    -0.014 A 
BRANCH  12  13
ATOM     13  C   UNL A   1      38.596  30.063  30.010  1.00  0.00     0.031 A 
ATOM     14  C   UNL A   1      38.981  30.553  31.378  1.00  0.00     0.074 A 
ATOM     15  C   UNL A   1      39.392  29.192  29.353  1.00  0.00     0.049 A 
ATOM     16  N   UNL A   1      40.034  30.239  32.091  1.00  0.00    -0.248 NA
ATOM     17  C   UNL A   1      38.088  31.523  32.031  1.00  0.00     0.031 C 
ATOM     18  C   UNL A   1      39.145  28.687  27.997  1.00  0.00     0.029 A 
ATOM     19  N   UNL A   1      40.549  28.560  29.728  1.00  0.00    -0.354 N 
ATOM     20  C   UNL A   1      39.959  31.009  33.245  1.00  0.00     0.074 A 
ATOM     21  C   UNL A   1      38.753  31.802  33.145  1.00  0.00     0.031 C 
ATOM     22  C   UNL A   1      40.079  27.781  27.681  1.00  0.00     0.029 A 
ATOM     23  C   UNL A   1      41.043  27.703  28.770  1.00  0.00     0.049 A 
ATOM     24  H   UNL A   1      40.985  28.704  30.599  1.00  0.00     0.167 HD
ATOM     25  C   UNL A   1      40.816  31.041  34.295  1.00  0.00     0.034 A 
ATOM     26  C   UNL A   1      42.160  26.953  28.750  1.00  0.00     0.034 A 
ATOM     27  C   UNL A   1      41.986  30.209  34.407  1.00  0.00     0.049 A 
ATOM     28  C   UNL A   1      43.062  26.983  29.946  1.00  0.00     0.074 A 
ATOM     29  C   UNL A   1      42.877  30.120  35.463  1.00  0.00     0.029 A 
ATOM     30  N   UNL A   1      42.433  29.330  33.433  1.00  0.00    -0.354 N 
ATOM     31  N   UNL A   1      42.907  27.627  31.077  1.00  0.00    -0.248 NA
ATOM     32  C   UNL A   1      44.285  26.173  29.875  1.00  0.00     0.031 C 
ATOM     33  C   UNL A   1      43.874  29.202  35.117  1.00  0.00     0.029 A 
ATOM     34  C   UNL A   1      43.592  28.702  33.856  1.00  0.00     0.049 A 
ATOM     35  H   UNL A   1      41.990  29.174  32.566  1.00  0.00     0.167 HD
ATOM     36  C   UNL A   1      44.003  27.291  31.858  1.00  0.00     0.074 A 
ATOM     37  C   UNL A   1      44.794  26.354  31.086  1.00  0.00     0.031 C 
ATOM     38  C   UNL A   1      44.340  27.738  33.092  1.00  0.00     0.034 A 
BRANCH  25  39
ATOM     39  C   UNL A   1      40.515  31.981  35.433  1.00  0.00     0.023 A 
ATOM     40  C   UNL A   1      41.241  33.182  35.559  1.00  0.00     0.012 A 
ATOM     41  C   UNL A   1      39.443  31.725  36.314  1.00  0.00     0.148 A 
ATOM     42  C   UNL A   1      40.917  34.106  36.552  1.00  0.00     0.002 A 
ATOM     43  C   UNL A   1      39.102  32.669  37.276  1.00  0.00     0.091 A 
ATOM     44  F   UNL A   1      38.776  30.569  36.188  1.00  0.00    -0.205 F 
ATOM     45  C   UNL A   1      39.842  33.855  37.401  1.00  0.00     0.022 A 
BRANCH  43  46
ATOM     46  S   UNL A   1      37.688  32.475  38.368  1.00  0.00     0.127 S 
ATOM     47  O   UNL A   1      38.043  33.367  39.471  1.00  0.00    -0.237 OA
ATOM     48  O   UNL A   1      36.586  32.950  37.531  1.00  0.00    -0.237 OA
ATOM     49  O   UNL A   1      37.630  31.060  38.706  1.00  0.00    -0.744 OA
ENDBRANCH  43  46
ENDBRANCH  25  39
BRANCH  26  50
ATOM     50  C   UNL A   1      42.468  26.107  27.563  1.00  0.00     0.023 A 
ATOM     51  C   UNL A   1      43.280  26.617  26.532  1.00  0.00     0.012 A 
ATOM     52  C   UNL A   1      41.997  24.782  27.472  1.00  0.00     0.148 A 
ATOM     53  C   UNL A   1      43.597  25.831  25.423  1.00  0.00     0.002 A 
ATOM     54  C   UNL A   1      42.373  23.983  26.399  1.00  0.00     0.091 A 
ATOM     55  F   UNL A   1      41.206  24.318  28.449  1.00  0.00    -0.205 F 
ATOM     56  C   UNL A   1      43.157  24.511  25.362  1.00  0.00     0.022 A 
BRANCH  54  57
ATOM     57  S   UNL A   1      41.978  22.232  26.344  1.00  0.00     0.127 S 
ATOM     58  O   UNL A   1      42.685  21.802  25.142  1.00  0.00    -0.237 OA
ATOM     59  O   UNL A   1      42.547  21.747  27.602  1.00  0.00    -0.237 OA
ATOM     60  O   UNL A   1      40.523  22.170  26.291  1.00  0.00    -0.744 OA
ENDBRANCH  54  57
ENDBRANCH  26  50
BRANCH  38  61
ATOM     61  C   UNL A   1      45.610  27.201  33.691  1.00  0.00     0.023 A 
ATOM     62  C   UNL A   1      46.832  27.856  33.434  1.00  0.00     0.012 A 
ATOM     63  C   UNL A   1      45.587  26.085  34.547  1.00  0.00     0.148 A 
ATOM     64  C   UNL A   1      48.018  27.385  33.995  1.00  0.00     0.002 A 
ATOM     65  C   UNL A   1      46.766  25.650  35.140  1.00  0.00     0.091 A 
ATOM     66  F   UNL A   1      44.417  25.464  34.759  1.00  0.00    -0.205 F 
ATOM     67  C   UNL A   1      47.983  26.290  34.855  1.00  0.00     0.022 A 
BRANCH  65  68
ATOM     68  S   UNL A   1      46.801  24.307  36.331  1.00  0.00     0.127 S 
ATOM     69  O   UNL A   1      45.883  24.795  37.358  1.00  0.00    -0.237 OA
ATOM     70  O   UNL A   1      46.296  23.180  35.547  1.00  0.00    -0.237 OA
ATOM     71  O   UNL A   1      48.192  24.176  36.745  1.00  0.00    -0.744 OA
ENDBRANCH  65  68
ENDBRANCH  38  61
ENDBRANCH  12  13
ENDBRANCH   5   7
ENDBRANCH   2   3
ENDBRANCH   1   2
BRANCH   1  72
ATOM     72  C   UNL A   1      31.932  26.882  26.141  1.00  0.00     0.117 C 
BRANCH  72  73
ATOM     73  N   UNL A   1      30.620  26.767  25.534  1.00  0.00    -0.356 N 
ATOM     74  C   UNL A   1      30.227  26.206  24.367  1.00  0.00     0.224 C 
ATOM     75  H   UNL A   1      29.891  27.166  26.061  1.00  0.00     0.163 HD
ATOM     76  O   UNL A   1      29.006  26.047  24.229  1.00  0.00    -0.275 OA
BRANCH  74  77
ATOM     77  C   UNL A   1      31.159  25.883  23.206  1.00  0.00     0.098 C 
ATOM     78  C   UNL A   1      32.608  25.682  23.779  1.00  0.00     0.098 C 
ATOM     79  C   UNL A   1      31.415  26.854  22.028  1.00  0.00     0.025 C 
ATOM     80  C   UNL A   1      33.482  26.502  22.794  1.00  0.00     0.025 C 
ATOM     81  C   UNL A   1      31.952  28.179  22.520  1.00  0.00    -0.027 C 
ATOM     82  C   UNL A   1      32.730  26.300  21.472  1.00  0.00     0.017 C 
ATOM     83  C   UNL A   1      33.182  27.963  23.003  1.00  0.00    -0.027 C 
BRANCH  78  84
ATOM     84  C   UNL A   1      33.107  24.253  23.693  1.00  0.00     0.227 C 
ATOM     85  O   UNL A   1      32.446  23.354  23.176  1.00  0.00    -0.275 OA
ATOM     86  N   UNL A   1      34.452  24.091  24.019  1.00  0.00    -0.331 N 
ATOM     87  C   UNL A   1      35.175  23.089  23.244  1.00  0.00     0.181 C 
ATOM     88  C   UNL A   1      34.871  24.296  25.408  1.00  0.00     0.181 C 
ATOM     89  C   UNL A   1      36.685  23.074  23.511  1.00  0.00     0.284 C 
ATOM     90  C   UNL A   1      36.389  24.149  25.649  1.00  0.00     0.284 C 
ATOM     91  N   UNL A   1      37.074  23.066  24.929  1.00  0.00    -0.329 N 
ATOM     92  H   UNL A   1      38.071  23.273  24.984  1.00  0.00     0.348 HD
BRANCH  91  93
ATOM     93  C   UNL A   1      37.034  21.744  25.565  1.00  0.00     0.291 C 
BRANCH  93  94
ATOM     94  C   UNL A   1      36.243  20.680  24.863  1.00  0.00     0.034 C 
ATOM     95  C   UNL A   1      34.950  20.406  25.106  1.00  0.00     0.009 C 
BRANCH  95  96
ATOM     96  C   UNL A   1      34.263  19.214  24.584  1.00  0.00    -0.026 A 
ATOM     97  C   UNL A   1      34.955  18.005  24.462  1.00  0.00     0.008 A 
ATOM     98  C   UNL A   1      32.967  19.297  24.054  1.00  0.00     0.008 A 
ATOM     99  C   UNL A   1      34.359  16.905  23.835  1.00  0.00     0.001 A 
ATOM    100  C   UNL A   1      32.375  18.206  23.416  1.00  0.00     0.001 A 
ATOM    101  C   UNL A   1      33.072  17.009  23.306  1.00  0.00     0.000 A 
ENDBRANCH  95  96
ENDBRANCH  93  94
ENDBRANCH  91  93
ENDBRANCH  78  84
ENDBRANCH  74  77
ENDBRANCH  72  73
ENDBRANCH   1  72
TORSDOF 17
ENDMDL
MODEL 2
REMARK VINA RESULT:     -13.0      2.505      8.097
REMARK SMILES O=C(NCCCNC(=O)[C@@H]1[C@@H](C(=O)N2CC[NH+](C/C=C/c3ccccc3)CC2)[C@@H]2C=C[C@H]1C2)c1ccc(-c2c3nc(c(-c4cccc(S(=O)(=O)[O-])c4F)c4ccc([nH]4)c(-c4cccc(S(=O)(=O)[O-])c4F)c4nc(c(-c5cccc(S(=O)(=O)[O-])c5F)c5ccc2[nH]5)C=C4)C=C3)cc1
REMARK SMILES IDX 5 1 4 2 3 3 1 4 2 5 34 7 35 8 96 9 36 10 95 11 37 12 38 13
REMARK SMILES IDX 39 14 89 15 40 16 94 17 88 18 90 19 41 20 93 21 87 22 86 23
REMARK SMILES IDX 42 25 74 26 54 27 73 28 55 29 58 30 72 31 91 32 56 33 57 34
REMARK SMILES IDX 71 36 92 37 59 38 43 39 44 40 52 41 45 42 47 43 53 44 46 45
REMARK SMILES IDX 48 46 49 47 50 48 51 49 75 50 76 51 84 52 77 53 79 54 85 55
REMARK SMILES IDX 78 56 80 57 81 58 82 59 83 60 60 61 61 62 69 63 62 64 64 65
REMARK SMILES IDX 70 66 63 67 65 68 66 69 67 70 68 71 6 72 7 73 8 74 9 76
REMARK SMILES IDX 10 77 11 78 32 79 29 80 31 81 33 82 30 83 12 84 13 85 14 86
REMARK SMILES IDX 15 87 28 88 16 89 27 90 17 91 18 93 19 94 20 95 21 96 22 97
REMARK SMILES IDX 26 98 23 99 25 100 24 101
REMARK H PARENT 3 6 90 24 58 35 7 75 17 92
REMARK Flexibility Score: inf
ROOT
ATOM      1  C   UNL A   1      31.410  32.541  26.502  1.00  0.00     0.042 C 
ENDROOT
BRANCH   1   2
ATOM      2  C   UNL A   1      32.687  33.034  27.163  1.00  0.00     0.118 C 
BRANCH   2   3
ATOM      3  N   UNL A   1      32.530  34.338  27.799  1.00  0.00    -0.352 N 
ATOM      4  O   UNL A   1      32.679  35.946  29.356  1.00  0.00    -0.269 OA
ATOM      5  C   UNL A   1      33.136  34.899  28.900  1.00  0.00     0.251 C 
ATOM      6  H   UNL A   1      31.871  34.923  27.361  1.00  0.00     0.163 HD
BRANCH   5   7
ATOM      7  C   UNL A   1      34.291  34.244  29.561  1.00  0.00     0.039 A 
ATOM      8  C   UNL A   1      34.102  33.341  30.600  1.00  0.00     0.014 A 
ATOM      9  C   UNL A   1      35.592  34.498  29.109  1.00  0.00     0.014 A 
ATOM     10  C   UNL A   1      35.184  32.870  31.326  1.00  0.00     0.010 A 
ATOM     11  C   UNL A   1      36.687  33.891  29.741  1.00  0.00     0.010 A 
ATOM     12  C   UNL A   1      36.494  33.095  30.880  1.00  0.00    -0.014 A 
BRANCH  12  13
ATOM     13  C   UNL A   1      37.602  32.380  31.567  1.00  0.00     0.031 A 
ATOM     14  C   UNL A   1      38.372  31.278  30.895  1.00  0.00     0.074 A 
ATOM     15  C   UNL A   1      37.934  32.776  32.816  1.00  0.00     0.049 A 
ATOM     16  N   UNL A   1      39.395  30.600  31.353  1.00  0.00    -0.248 NA
ATOM     17  C   UNL A   1      37.945  30.872  29.547  1.00  0.00     0.031 C 
ATOM     18  C   UNL A   1      37.223  33.802  33.587  1.00  0.00     0.029 A 
ATOM     19  N   UNL A   1      38.952  32.391  33.648  1.00  0.00    -0.354 N 
ATOM     20  C   UNL A   1      39.697  29.657  30.380  1.00  0.00     0.074 A 
ATOM     21  C   UNL A   1      38.755  29.850  29.298  1.00  0.00     0.031 C 
ATOM     22  C   UNL A   1      37.860  34.009  34.746  1.00  0.00     0.029 A 
ATOM     23  C   UNL A   1      38.971  33.073  34.844  1.00  0.00     0.049 A 
ATOM     24  H   UNL A   1      39.608  31.695  33.414  1.00  0.00     0.167 HD
ATOM     25  C   UNL A   1      40.677  28.721  30.387  1.00  0.00     0.034 A 
ATOM     26  C   UNL A   1      39.773  32.947  35.917  1.00  0.00     0.034 A 
ATOM     27  C   UNL A   1      41.641  28.570  31.447  1.00  0.00     0.049 A 
ATOM     28  C   UNL A   1      40.872  31.929  35.873  1.00  0.00     0.074 A 
ATOM     29  C   UNL A   1      42.714  27.698  31.513  1.00  0.00     0.029 A 
ATOM     30  N   UNL A   1      41.648  29.301  32.624  1.00  0.00    -0.354 N 
ATOM     31  N   UNL A   1      41.213  31.131  34.891  1.00  0.00    -0.248 NA
ATOM     32  C   UNL A   1      41.709  31.803  37.073  1.00  0.00     0.031 C 
ATOM     33  C   UNL A   1      43.356  27.887  32.741  1.00  0.00     0.029 A 
ATOM     34  C   UNL A   1      42.699  28.893  33.429  1.00  0.00     0.049 A 
ATOM     35  H   UNL A   1      41.002  30.008  32.855  1.00  0.00     0.167 HD
ATOM     36  C   UNL A   1      42.312  30.416  35.348  1.00  0.00     0.074 A 
ATOM     37  C   UNL A   1      42.602  30.906  36.681  1.00  0.00     0.031 C 
ATOM     38  C   UNL A   1      43.001  29.425  34.733  1.00  0.00     0.034 A 
BRANCH  25  39
ATOM     39  C   UNL A   1      40.791  27.797  29.202  1.00  0.00     0.023 A 
ATOM     40  C   UNL A   1      39.977  26.649  29.130  1.00  0.00     0.012 A 
ATOM     41  C   UNL A   1      41.626  28.122  28.113  1.00  0.00     0.148 A 
ATOM     42  C   UNL A   1      40.004  25.831  28.001  1.00  0.00     0.002 A 
ATOM     43  C   UNL A   1      41.618  27.323  26.976  1.00  0.00     0.091 A 
ATOM     44  F   UNL A   1      42.405  29.209  28.209  1.00  0.00    -0.205 F 
ATOM     45  C   UNL A   1      40.813  26.174  26.921  1.00  0.00     0.022 A 
BRANCH  43  46
ATOM     46  S   UNL A   1      42.567  27.719  25.503  1.00  0.00     0.127 S 
ATOM     47  O   UNL A   1      42.307  26.552  24.661  1.00  0.00    -0.237 OA
ATOM     48  O   UNL A   1      41.925  28.953  25.048  1.00  0.00    -0.237 OA
ATOM     49  O   UNL A   1      43.946  27.876  25.941  1.00  0.00    -0.744 OA
ENDBRANCH  43  46
ENDBRANCH  25  39
BRANCH  26  50
ATOM     50  C   UNL A   1      39.566  33.819  37.108  1.00  0.00     0.023 A 
ATOM     51  C   UNL A   1      39.988  35.161  37.073  1.00  0.00     0.012 A 
ATOM     52  C   UNL A   1      38.911  33.335  38.258  1.00  0.00     0.148 A 
ATOM     53  C   UNL A   1      39.782  35.998  38.171  1.00  0.00     0.002 A 
ATOM     54  C   UNL A   1      38.649  34.192  39.320  1.00  0.00     0.091 A 
ATOM     55  F   UNL A   1      38.537  32.049  38.286  1.00  0.00    -0.205 F 
ATOM     56  C   UNL A   1      39.101  35.520  39.288  1.00  0.00     0.022 A 
BRANCH  54  57
ATOM     57  S   UNL A   1      37.635  33.685  40.713  1.00  0.00     0.127 S 
ATOM     58  O   UNL A   1      36.453  33.150  40.043  1.00  0.00    -0.237 OA
ATOM     59  O   UNL A   1      38.481  32.684  41.364  1.00  0.00    -0.237 OA
ATOM     60  O   UNL A   1      37.436  34.894  41.500  1.00  0.00    -0.744 OA
ENDBRANCH  54  57
ENDBRANCH  26  50
BRANCH  38  61
ATOM     61  C   UNL A   1      44.150  28.819  35.489  1.00  0.00     0.023 A 
ATOM     62  C   UNL A   1      45.450  29.334  35.309  1.00  0.00     0.012 A 
ATOM     63  C   UNL A   1      43.936  27.779  36.412  1.00  0.00     0.148 A 
ATOM     64  C   UNL A   1      46.526  28.798  36.015  1.00  0.00     0.002 A 
ATOM     65  C   UNL A   1      45.006  27.282  37.147  1.00  0.00     0.091 A 
ATOM     66  F   UNL A   1      42.695  27.290  36.550  1.00  0.00    -0.205 F 
ATOM     67  C   UNL A   1      46.302  27.781  36.940  1.00  0.00     0.022 A 
BRANCH  65  68
ATOM     68  S   UNL A   1      44.795  26.038  38.424  1.00  0.00     0.127 S 
ATOM     69  O   UNL A   1      43.863  26.700  39.334  1.00  0.00    -0.237 OA
ATOM     70  O   UNL A   1      44.226  24.917  37.677  1.00  0.00    -0.237 OA
ATOM     71  O   UNL A   1      46.126  25.788  38.962  1.00  0.00    -0.744 OA
ENDBRANCH  65  68
ENDBRANCH  38  61
ENDBRANCH  12  13
ENDBRANCH   5   7
ENDBRANCH   2   3
ENDBRANCH   1   2
BRANCH   1  72
ATOM     72  C   UNL A   1      31.288  31.029  26.511  1.00  0.00     0.117 C 
BRANCH  72  73
ATOM     73  N   UNL A   1      32.438  30.352  25.946  1.00  0.00    -0.356 N 
ATOM     74  C   UNL A   1      32.523  29.291  25.110  1.00  0.00     0.224 C 
ATOM     75  H   UNL A   1      33.307  30.727  26.218  1.00  0.00     0.163 HD
ATOM     76  O   UNL A   1      33.637  29.088  24.607  1.00  0.00    -0.275 OA
BRANCH  74  77
ATOM     77  C   UNL A   1      31.396  28.298  24.856  1.00  0.00     0.098 C 
ATOM     78  C   UNL A   1      32.001  27.037  24.141  1.00  0.00     0.098 C 
ATOM     79  C   UNL A   1      30.172  28.614  23.962  1.00  0.00     0.025 C 
ATOM     80  C   UNL A   1      30.989  26.775  22.996  1.00  0.00     0.025 C 
ATOM     81  C   UNL A   1      30.602  28.986  22.561  1.00  0.00    -0.027 C 
ATOM     82  C   UNL A   1      29.668  27.203  23.648  1.00  0.00     0.017 C 
ATOM     83  C   UNL A   1      31.116  27.889  21.990  1.00  0.00    -0.027 C 
BRANCH  78  84
ATOM     84  C   UNL A   1      31.999  25.787  24.998  1.00  0.00     0.227 C 
ATOM     85  O   UNL A   1      31.517  25.765  26.129  1.00  0.00    -0.275 OA
ATOM     86  N   UNL A   1      32.358  24.623  24.322  1.00  0.00    -0.331 N 
ATOM     87  C   UNL A   1      31.650  23.413  24.724  1.00  0.00     0.181 C 
ATOM     88  C   UNL A   1      33.742  24.471  23.866  1.00  0.00     0.181 C 
ATOM     89  C   UNL A   1      31.946  22.201  23.833  1.00  0.00     0.284 C 
ATOM     90  C   UNL A   1      34.020  23.173  23.078  1.00  0.00     0.284 C 
ATOM     91  N   UNL A   1      33.370  21.947  23.566  1.00  0.00    -0.329 N 
ATOM     92  H   UNL A   1      33.432  21.269  22.807  1.00  0.00     0.348 HD
BRANCH  91  93
ATOM     93  C   UNL A   1      34.072  21.228  24.635  1.00  0.00     0.291 C 
BRANCH  93  94
ATOM     94  C   UNL A   1      35.558  21.415  24.711  1.00  0.00     0.034 C 
ATOM     95  C   UNL A   1      36.429  20.462  25.087  1.00  0.00     0.009 C 
BRANCH  95  96
ATOM     96  C   UNL A   1      37.845  20.730  25.384  1.00  0.00    -0.026 A 
ATOM     97  C   UNL A   1      38.768  19.681  25.398  1.00  0.00     0.008 A 
ATOM     98  C   UNL A   1      38.269  21.999  25.808  1.00  0.00     0.008 A 
ATOM     99  C   UNL A   1      40.086  19.898  25.819  1.00  0.00     0.001 A 
ATOM    100  C   UNL A   1      39.578  22.216  26.242  1.00  0.00     0.001 A 
ATOM    101  C   UNL A   1      40.487  21.164  26.246  1.00  0.00     0.000 A 
ENDBRANCH  95  96
ENDBRANCH  93  94
ENDBRANCH  91  93
ENDBRANCH  78  84
ENDBRANCH  74  77
ENDBRANCH  72  73
ENDBRANCH   1  72
TORSDOF 17
ENDMDL
MODEL 3
REMARK VINA RESULT:     -13.0      5.378     10.916
REMARK SMILES O=C(NCCCNC(=O)[C@@H]1[C@@H](C(=O)N2CC[NH+](C/C=C/c3ccccc3)CC2)[C@@H]2C=C[C@H]1C2)c1ccc(-c2c3nc(c(-c4cccc(S(=O)(=O)[O-])c4F)c4ccc([nH]4)c(-c4cccc(S(=O)(=O)[O-])c4F)c4nc(c(-c5cccc(S(=O)(=O)[O-])c5F)c5ccc2[nH]5)C=C4)C=C3)cc1
REMARK SMILES IDX 5 1 4 2 3 3 1 4 2 5 34 7 35 8 96 9 36 10 95 11 37 12 38 13
REMARK SMILES IDX 39 14 89 15 40 16 94 17 88 18 90 19 41 20 93 21 87 22 86 23
REMARK SMILES IDX 42 25 74 26 54 27 73 28 55 29 58 30 72 31 91 32 56 33 57 34
REMARK SMILES IDX 71 36 92 37 59 38 43 39 44 40 52 41 45 42 47 43 53 44 46 45
REMARK SMILES IDX 48 46 49 47 50 48 51 49 75 50 76 51 84 52 77 53 79 54 85 55
REMARK SMILES IDX 78 56 80 57 81 58 82 59 83 60 60 61 61 62 69 63 62 64 64 65
REMARK SMILES IDX 70 66 63 67 65 68 66 69 67 70 68 71 6 72 7 73 8 74 9 76
REMARK SMILES IDX 10 77 11 78 32 79 29 80 31 81 33 82 30 83 12 84 13 85 14 86
REMARK SMILES IDX 15 87 28 88 16 89 27 90 17 91 18 93 19 94 20 95 21 96 22 97
REMARK SMILES IDX 26 98 23 99 25 100 24 101
REMARK H PARENT 3 6 90 24 58 35 7 75 17 92
REMARK Flexibility Score: inf
ROOT
ATOM      1  C   UNL A   1      37.950  19.988  24.693  1.00  0.00     0.042 C 
ENDROOT
BRANCH   1   2
ATOM      2  C   UNL A   1      38.912  20.321  25.821  1.00  0.00     0.118 C 
BRANCH   2   3
ATOM      3  N   UNL A   1      40.042  19.400  25.895  1.00  0.00    -0.352 N 
ATOM      4  O   UNL A   1      42.167  18.682  25.908  1.00  0.00    -0.269 OA
ATOM      5  C   UNL A   1      41.387  19.615  26.092  1.00  0.00     0.251 C 
ATOM      6  H   UNL A   1      39.798  18.454  25.783  1.00  0.00     0.163 HD
BRANCH   5   7
ATOM      7  C   UNL A   1      41.906  20.950  26.475  1.00  0.00     0.039 A 
ATOM      8  C   UNL A   1      41.934  21.996  25.560  1.00  0.00     0.014 A 
ATOM      9  C   UNL A   1      42.334  21.184  27.787  1.00  0.00     0.014 A 
ATOM     10  C   UNL A   1      42.579  23.183  25.870  1.00  0.00     0.010 A 
ATOM     11  C   UNL A   1      42.839  22.442  28.150  1.00  0.00     0.010 A 
ATOM     12  C   UNL A   1      42.997  23.445  27.182  1.00  0.00    -0.014 A 
BRANCH  12  13
ATOM     13  C   UNL A   1      43.475  24.815  27.506  1.00  0.00     0.031 A 
ATOM     14  C   UNL A   1      44.910  25.220  27.317  1.00  0.00     0.074 A 
ATOM     15  C   UNL A   1      42.568  25.716  27.943  1.00  0.00     0.049 A 
ATOM     16  N   UNL A   1      45.459  26.393  27.510  1.00  0.00    -0.248 NA
ATOM     17  C   UNL A   1      45.856  24.188  26.865  1.00  0.00     0.031 C 
ATOM     18  C   UNL A   1      41.155  25.422  28.213  1.00  0.00     0.029 A 
ATOM     19  N   UNL A   1      42.679  27.054  28.218  1.00  0.00    -0.354 N 
ATOM     20  C   UNL A   1      46.816  26.228  27.259  1.00  0.00     0.074 A 
ATOM     21  C   UNL A   1      47.011  24.842  26.891  1.00  0.00     0.031 C 
ATOM     22  C   UNL A   1      40.522  26.552  28.551  1.00  0.00     0.029 A 
ATOM     23  C   UNL A   1      41.493  27.635  28.610  1.00  0.00     0.049 A 
ATOM     24  H   UNL A   1      43.525  27.553  28.142  1.00  0.00     0.167 HD
ATOM     25  C   UNL A   1      47.805  27.153  27.322  1.00  0.00     0.034 A 
ATOM     26  C   UNL A   1      41.215  28.892  29.001  1.00  0.00     0.034 A 
ATOM     27  C   UNL A   1      47.591  28.541  27.639  1.00  0.00     0.049 A 
ATOM     28  C   UNL A   1      42.326  29.898  29.019  1.00  0.00     0.074 A 
ATOM     29  C   UNL A   1      48.519  29.569  27.660  1.00  0.00     0.029 A 
ATOM     30  N   UNL A   1      46.373  29.097  27.996  1.00  0.00    -0.354 N 
ATOM     31  N   UNL A   1      43.578  29.746  28.660  1.00  0.00    -0.248 NA
ATOM     32  C   UNL A   1      41.988  31.251  29.477  1.00  0.00     0.031 C 
ATOM     33  C   UNL A   1      47.864  30.742  28.050  1.00  0.00     0.029 A 
ATOM     34  C   UNL A   1      46.525  30.450  28.250  1.00  0.00     0.049 A 
ATOM     35  H   UNL A   1      45.523  28.603  28.059  1.00  0.00     0.167 HD
ATOM     36  C   UNL A   1      44.175  30.986  28.836  1.00  0.00     0.074 A 
ATOM     37  C   UNL A   1      43.137  31.887  29.296  1.00  0.00     0.031 C 
ATOM     38  C   UNL A   1      45.471  31.341  28.661  1.00  0.00     0.034 A 
BRANCH  25  39
ATOM     39  C   UNL A   1      49.212  26.715  27.011  1.00  0.00     0.023 A 
ATOM     40  C   UNL A   1      49.877  25.830  27.883  1.00  0.00     0.012 A 
ATOM     41  C   UNL A   1      49.835  27.095  25.805  1.00  0.00     0.148 A 
ATOM     42  C   UNL A   1      51.145  25.344  27.568  1.00  0.00     0.002 A 
ATOM     43  C   UNL A   1      51.083  26.576  25.479  1.00  0.00     0.091 A 
ATOM     44  F   UNL A   1      49.193  27.952  24.997  1.00  0.00    -0.205 F 
ATOM     45  C   UNL A   1      51.742  25.706  26.362  1.00  0.00     0.022 A 
BRANCH  43  46
ATOM     46  S   UNL A   1      51.902  26.921  23.918  1.00  0.00     0.127 S 
ATOM     47  O   UNL A   1      52.401  28.277  24.140  1.00  0.00    -0.237 OA
ATOM     48  O   UNL A   1      52.939  25.888  23.881  1.00  0.00    -0.237 OA
ATOM     49  O   UNL A   1      50.880  26.794  22.889  1.00  0.00    -0.744 OA
ENDBRANCH  43  46
ENDBRANCH  25  39
BRANCH  26  50
ATOM     50  C   UNL A   1      39.825  29.260  29.390  1.00  0.00     0.023 A 
ATOM     51  C   UNL A   1      38.842  29.432  28.396  1.00  0.00     0.012 A 
ATOM     52  C   UNL A   1      39.460  29.394  30.745  1.00  0.00     0.148 A 
ATOM     53  C   UNL A   1      37.530  29.755  28.744  1.00  0.00     0.002 A 
ATOM     54  C   UNL A   1      38.137  29.649  31.086  1.00  0.00     0.091 A 
ATOM     55  F   UNL A   1      40.411  29.251  31.679  1.00  0.00    -0.205 F 
ATOM     56  C   UNL A   1      37.173  29.849  30.087  1.00  0.00     0.022 A 
BRANCH  54  57
ATOM     57  S   UNL A   1      37.582  29.618  32.794  1.00  0.00     0.127 S 
ATOM     58  O   UNL A   1      36.307  30.322  32.708  1.00  0.00    -0.237 OA
ATOM     59  O   UNL A   1      37.478  28.182  33.059  1.00  0.00    -0.237 OA
ATOM     60  O   UNL A   1      38.635  30.284  33.549  1.00  0.00    -0.744 OA
ENDBRANCH  54  57
ENDBRANCH  26  50
BRANCH  38  61
ATOM     61  C   UNL A   1      45.833  32.771  28.948  1.00  0.00     0.023 A 
ATOM     62  C   UNL A   1      46.394  33.111  30.196  1.00  0.00     0.012 A 
ATOM     63  C   UNL A   1      45.668  33.766  27.967  1.00  0.00     0.148 A 
ATOM     64  C   UNL A   1      46.753  34.428  30.474  1.00  0.00     0.002 A 
ATOM     65  C   UNL A   1      46.073  35.069  28.234  1.00  0.00     0.091 A 
ATOM     66  F   UNL A   1      45.112  33.425  26.795  1.00  0.00    -0.205 F 
ATOM     67  C   UNL A   1      46.604  35.403  29.491  1.00  0.00     0.022 A 
BRANCH  65  68
ATOM     68  S   UNL A   1      46.002  36.368  26.997  1.00  0.00     0.127 S 
ATOM     69  O   UNL A   1      44.561  36.531  26.819  1.00  0.00    -0.237 OA
ATOM     70  O   UNL A   1      46.664  37.482  27.675  1.00  0.00    -0.237 OA
ATOM     71  O   UNL A   1      46.723  35.855  25.838  1.00  0.00    -0.744 OA
ENDBRANCH  65  68
ENDBRANCH  38  61
ENDBRANCH  12  13
ENDBRANCH   5   7
ENDBRANCH   2   3
ENDBRANCH   1   2
BRANCH   1  72
ATOM     72  C   UNL A   1      36.510  20.326  25.028  1.00  0.00     0.117 C 
BRANCH  72  73
ATOM     73  N   UNL A   1      36.367  21.531  25.822  1.00  0.00    -0.356 N 
ATOM     74  C   UNL A   1      35.425  22.502  25.801  1.00  0.00     0.224 C 
ATOM     75  H   UNL A   1      37.077  21.666  26.490  1.00  0.00     0.163 HD
ATOM     76  O   UNL A   1      35.436  23.285  26.762  1.00  0.00    -0.275 OA
BRANCH  74  77
ATOM     77  C   UNL A   1      34.467  22.752  24.644  1.00  0.00     0.098 C 
ATOM     78  C   UNL A   1      33.391  23.798  25.112  1.00  0.00     0.098 C 
ATOM     79  C   UNL A   1      33.583  21.645  24.020  1.00  0.00     0.025 C 
ATOM     80  C   UNL A   1      32.063  23.169  24.614  1.00  0.00     0.025 C 
ATOM     81  C   UNL A   1      32.684  21.013  25.060  1.00  0.00    -0.027 C 
ATOM     82  C   UNL A   1      32.514  22.485  23.316  1.00  0.00     0.017 C 
ATOM     83  C   UNL A   1      31.789  21.936  25.435  1.00  0.00    -0.027 C 
BRANCH  78  84
ATOM     84  C   UNL A   1      33.504  25.143  24.421  1.00  0.00     0.227 C 
ATOM     85  O   UNL A   1      33.907  25.258  23.266  1.00  0.00    -0.275 OA
ATOM     86  N   UNL A   1      32.892  26.193  25.102  1.00  0.00    -0.331 N 
ATOM     87  C   UNL A   1      32.249  27.200  24.265  1.00  0.00     0.181 C 
ATOM     88  C   UNL A   1      33.471  26.645  26.370  1.00  0.00     0.181 C 
ATOM     89  C   UNL A   1      31.438  28.232  25.056  1.00  0.00     0.284 C 
ATOM     90  C   UNL A   1      32.684  27.773  27.069  1.00  0.00     0.284 C 
ATOM     91  N   UNL A   1      32.130  28.829  26.208  1.00  0.00    -0.329 N 
ATOM     92  H   UNL A   1      31.438  29.323  26.771  1.00  0.00     0.348 HD
BRANCH  91  93
ATOM     93  C   UNL A   1      33.041  29.928  25.870  1.00  0.00     0.291 C 
BRANCH  93  94
ATOM     94  C   UNL A   1      33.904  30.456  26.978  1.00  0.00     0.034 C 
ATOM     95  C   UNL A   1      33.765  31.669  27.540  1.00  0.00     0.009 C 
BRANCH  95  96
ATOM     96  C   UNL A   1      34.760  32.257  28.452  1.00  0.00    -0.026 A 
ATOM     97  C   UNL A   1      34.468  32.394  29.812  1.00  0.00     0.008 A 
ATOM     98  C   UNL A   1      35.942  32.832  27.961  1.00  0.00     0.008 A 
ATOM     99  C   UNL A   1      35.344  33.080  30.661  1.00  0.00     0.001 A 
ATOM    100  C   UNL A   1      36.810  33.530  28.803  1.00  0.00     0.001 A 
ATOM    101  C   UNL A   1      36.510  33.653  30.155  1.00  0.00     0.000 A 
ENDBRANCH  95  96
ENDBRANCH  93  94
ENDBRANCH  91  93
ENDBRANCH  78  84
ENDBRANCH  74  77
ENDBRANCH  72  73
ENDBRANCH   1  72
TORSDOF 17
ENDMDL
