MODEL 1
REMARK VINA RESULT:     -12.7      0.000      0.000
REMARK SMILES CC[C@@H](C)[C@H](NC(=O)[C@H](C)N1C(=O)N2CCC3=c4cc(OC)ccc4=NC3[C@@]2(C)C1=O)C(=O)NCCCNC(=O)c1ccc(-c2c3nc(c(-c4cccc(S(=O)(=O)[O-])c4F)c4ccc([nH]4)c(-c4cccc(S(=O)(=O)[O-])c4F)c4nc(c(-c5cccc(S(=O)(=O)[O-])c5F)c5ccc2[nH]5)C=C4)C=C3)cc1
REMARK SMILES IDX 35 1 34 2 32 3 33 4 5 6 3 7 4 8 2 9 1 10 6 11 7 12 8 14 9 15
REMARK SMILES IDX 10 16 11 17 12 18 30 19 14 20 13 21 28 22 31 23 15 24 27 25
REMARK SMILES IDX 29 26 16 27 17 28 26 29 18 30 25 31 19 32 24 33 20 34 23 35
REMARK SMILES IDX 21 36 22 37 36 38 37 39 38 40 39 41 40 43 41 44 42 45 103 46
REMARK SMILES IDX 43 47 102 48 44 49 45 50 46 51 96 52 47 53 101 54 95 55
REMARK SMILES IDX 97 56 48 57 100 58 94 59 93 60 49 62 81 63 61 64 80 65 62 66
REMARK SMILES IDX 65 67 79 68 98 69 63 70 64 71 78 73 99 74 66 75 50 76 51 77
REMARK SMILES IDX 59 78 52 79 54 80 60 81 53 82 55 83 56 84 57 85 58 86 82 87
REMARK SMILES IDX 83 88 91 89 84 90 86 91 92 92 85 93 87 94 88 95 89 96 90 97
REMARK SMILES IDX 67 98 68 99 76 100 69 101 71 102 77 103 70 104 72 105 73 106
REMARK SMILES IDX 74 107 75 108
REMARK H PARENT 34 5 6 13 38 42 97 61 65 72
REMARK Flexibility Score: inf
ROOT
ATOM      1  C   UNL A   1      35.470  22.537  25.480  1.00  0.00     0.117 C 
ENDROOT
BRANCH   1   2
ATOM      2  N   UNL A   1      35.501  22.873  24.069  1.00  0.00    -0.354 N 
ATOM      3  C   UNL A   1      34.505  22.947  23.146  1.00  0.00     0.242 C 
ATOM      4  O   UNL A   1      34.776  23.480  22.063  1.00  0.00    -0.273 OA
ATOM      5  H   UNL A   1      36.397  23.083  23.720  1.00  0.00     0.163 HD
BRANCH   3   6
ATOM      6  C   UNL A   1      33.051  22.527  23.456  1.00  0.00     0.174 C 
BRANCH   6   7
ATOM      7  C   UNL A   1      32.952  20.936  23.457  1.00  0.00     0.018 C 
ATOM      8  C   UNL A   1      32.090  20.296  22.362  1.00  0.00     0.010 C 
BRANCH   7   9
ATOM      9  C   UNL A   1      32.621  20.348  24.852  1.00  0.00     0.002 C 
ATOM     10  C   UNL A   1      32.634  18.816  24.921  1.00  0.00     0.004 C 
ENDBRANCH   7   9
ENDBRANCH   6   7
BRANCH   6  11
ATOM     11  N   UNL A   1      32.114  23.297  22.592  1.00  0.00    -0.342 N 
ATOM     12  C   UNL A   1      31.463  24.505  22.833  1.00  0.00     0.243 C 
ATOM     13  H   UNL A   1      31.927  22.890  21.715  1.00  0.00     0.164 HD
ATOM     14  O   UNL A   1      31.517  25.306  21.897  1.00  0.00    -0.273 OA
BRANCH  12  15
ATOM     15  C   UNL A   1      30.788  24.845  24.210  1.00  0.00     0.181 C 
ATOM     16  C   UNL A   1      29.486  25.607  23.783  1.00  0.00     0.042 C 
BRANCH  15  17
ATOM     17  N   UNL A   1      31.589  25.714  25.193  1.00  0.00    -0.250 N 
ATOM     18  C   UNL A   1      32.951  26.136  25.257  1.00  0.00     0.328 C 
ATOM     19  C   UNL A   1      30.930  26.321  26.224  1.00  0.00     0.259 C 
ATOM     20  N   UNL A   1      33.027  27.251  26.261  1.00  0.00    -0.307 N 
ATOM     21  O   UNL A   1      33.896  25.738  24.597  1.00  0.00    -0.248 OA
ATOM     22  C   UNL A   1      31.659  27.578  26.484  1.00  0.00     0.147 C 
ATOM     23  O   UNL A   1      29.892  26.028  26.778  1.00  0.00    -0.271 OA
ATOM     24  C   UNL A   1      33.877  28.595  26.251  1.00  0.00     0.127 C 
ATOM     25  C   UNL A   1      31.435  28.471  25.229  1.00  0.00     0.168 C 
ATOM     26  C   UNL A   1      31.480  28.028  27.943  1.00  0.00     0.048 C 
ATOM     27  C   UNL A   1      32.888  30.075  26.084  1.00  0.00     0.055 C 
ATOM     28  C   UNL A   1      31.464  29.925  25.356  1.00  0.00    -0.032 C 
ATOM     29  N   UNL A   1      31.205  28.039  23.826  1.00  0.00    -0.274 NA
ATOM     30  C   UNL A   1      30.880  30.354  24.189  1.00  0.00     0.005 A 
ATOM     31  C   UNL A   1      31.351  29.228  23.274  1.00  0.00     0.066 A 
ATOM     32  C   UNL A   1      29.364  30.156  23.934  1.00  0.00     0.056 A 
ATOM     33  C   UNL A   1      31.219  29.498  21.847  1.00  0.00     0.032 A 
ATOM     34  C   UNL A   1      28.972  29.582  22.746  1.00  0.00     0.119 A 
ATOM     35  C   UNL A   1      29.906  29.615  21.602  1.00  0.00     0.048 A 
BRANCH  34  36
ATOM     36  O   UNL A   1      28.039  28.554  22.813  1.00  0.00    -0.497 OA
ATOM     37  C   UNL A   1      26.824  28.686  23.547  1.00  0.00     0.278 C 
ENDBRANCH  34  36
ENDBRANCH  15  17
ENDBRANCH  12  15
ENDBRANCH   6  11
ENDBRANCH   3   6
ENDBRANCH   1   2
BRANCH   1  38
ATOM     38  C   UNL A   1      36.372  21.389  25.854  1.00  0.00     0.042 C 
BRANCH  38  39
ATOM     39  C   UNL A   1      37.680  21.436  25.094  1.00  0.00     0.118 C 
BRANCH  39  40
ATOM     40  N   UNL A   1      38.649  20.453  25.582  1.00  0.00    -0.352 N 
ATOM     41  C   UNL A   1      39.810  20.623  26.302  1.00  0.00     0.251 C 
ATOM     42  H   UNL A   1      38.434  19.517  25.361  1.00  0.00     0.163 HD
ATOM     43  O   UNL A   1      40.589  19.684  26.438  1.00  0.00    -0.269 OA
BRANCH  41  44
ATOM     44  C   UNL A   1      40.125  21.954  26.856  1.00  0.00     0.039 A 
ATOM     45  C   UNL A   1      39.584  23.090  26.262  1.00  0.00     0.014 A 
ATOM     46  C   UNL A   1      41.024  22.076  27.917  1.00  0.00     0.014 A 
ATOM     47  C   UNL A   1      40.146  24.327  26.524  1.00  0.00     0.010 A 
ATOM     48  C   UNL A   1      41.474  23.345  28.290  1.00  0.00     0.010 A 
ATOM     49  C   UNL A   1      41.090  24.475  27.550  1.00  0.00    -0.014 A 
BRANCH  49  50
ATOM     50  C   UNL A   1      41.635  25.823  27.844  1.00  0.00     0.031 A 
ATOM     51  C   UNL A   1      40.823  26.839  28.605  1.00  0.00     0.074 A 
ATOM     52  C   UNL A   1      42.891  26.114  27.446  1.00  0.00     0.049 A 
ATOM     53  N   UNL A   1      41.123  28.081  28.884  1.00  0.00    -0.248 NA
ATOM     54  C   UNL A   1      39.506  26.418  29.119  1.00  0.00     0.031 C 
ATOM     55  C   UNL A   1      43.783  25.201  26.721  1.00  0.00     0.029 A 
ATOM     56  N   UNL A   1      43.643  27.248  27.602  1.00  0.00    -0.354 N 
ATOM     57  C   UNL A   1      40.025  28.601  29.556  1.00  0.00     0.074 A 
ATOM     58  C   UNL A   1      39.046  27.542  29.656  1.00  0.00     0.031 C 
ATOM     59  C   UNL A   1      44.969  25.795  26.536  1.00  0.00     0.029 A 
ATOM     60  C   UNL A   1      44.896  27.156  27.046  1.00  0.00     0.049 A 
ATOM     61  H   UNL A   1      43.316  28.053  28.068  1.00  0.00     0.167 HD
ATOM     62  C   UNL A   1      39.859  29.847  30.055  1.00  0.00     0.034 A 
ATOM     63  C   UNL A   1      45.873  28.072  26.926  1.00  0.00     0.034 A 
ATOM     64  C   UNL A   1      40.861  30.878  30.002  1.00  0.00     0.049 A 
ATOM     65  C   UNL A   1      45.644  29.450  27.467  1.00  0.00     0.074 A 
ATOM     66  C   UNL A   1      40.788  32.166  30.502  1.00  0.00     0.029 A 
ATOM     67  N   UNL A   1      42.113  30.739  29.428  1.00  0.00    -0.354 N 
ATOM     68  N   UNL A   1      44.603  29.914  28.111  1.00  0.00    -0.248 NA
ATOM     69  C   UNL A   1      46.725  30.426  27.277  1.00  0.00     0.031 C 
ATOM     70  C   UNL A   1      41.993  32.813  30.219  1.00  0.00     0.029 A 
ATOM     71  C   UNL A   1      42.825  31.916  29.567  1.00  0.00     0.049 A 
ATOM     72  H   UNL A   1      42.448  29.924  28.989  1.00  0.00     0.167 HD
ATOM     73  C   UNL A   1      44.919  31.224  28.440  1.00  0.00     0.074 A 
ATOM     74  C   UNL A   1      46.247  31.481  27.924  1.00  0.00     0.031 C 
ATOM     75  C   UNL A   1      44.169  32.133  29.106  1.00  0.00     0.034 A 
BRANCH  62  76
ATOM     76  C   UNL A   1      38.571  30.195  30.750  1.00  0.00     0.023 A 
ATOM     77  C   UNL A   1      38.451  29.964  32.133  1.00  0.00     0.012 A 
ATOM     78  C   UNL A   1      37.570  30.922  30.074  1.00  0.00     0.148 A 
ATOM     79  C   UNL A   1      37.358  30.466  32.840  1.00  0.00     0.002 A 
ATOM     80  C   UNL A   1      36.500  31.443  30.790  1.00  0.00     0.091 A 
ATOM     81  F   UNL A   1      37.710  31.124  28.757  1.00  0.00    -0.205 F 
ATOM     82  C   UNL A   1      36.392  31.217  32.173  1.00  0.00     0.022 A 
BRANCH  80  83
ATOM     83  S   UNL A   1      35.234  32.475  30.041  1.00  0.00     0.127 S 
ATOM     84  O   UNL A   1      34.288  32.629  31.147  1.00  0.00    -0.237 OA
ATOM     85  O   UNL A   1      35.984  33.684  29.705  1.00  0.00    -0.237 OA
ATOM     86  O   UNL A   1      34.724  31.726  28.901  1.00  0.00    -0.744 OA
ENDBRANCH  80  83
ENDBRANCH  62  76
BRANCH  63  87
ATOM     87  C   UNL A   1      47.163  27.696  26.289  1.00  0.00     0.023 A 
ATOM     88  C   UNL A   1      48.201  27.186  27.091  1.00  0.00     0.012 A 
ATOM     89  C   UNL A   1      47.348  27.796  24.897  1.00  0.00     0.148 A 
ATOM     90  C   UNL A   1      49.412  26.800  26.517  1.00  0.00     0.002 A 
ATOM     91  C   UNL A   1      48.541  27.371  24.328  1.00  0.00     0.091 A 
ATOM     92  F   UNL A   1      46.342  28.286  24.158  1.00  0.00    -0.205 F 
ATOM     93  C   UNL A   1      49.578  26.883  25.137  1.00  0.00     0.022 A 
BRANCH  91  94
ATOM     94  S   UNL A   1      48.812  27.354  22.552  1.00  0.00     0.127 S 
ATOM     95  O   UNL A   1      47.938  28.437  22.109  1.00  0.00    -0.237 OA
ATOM     96  O   UNL A   1      50.245  27.642  22.465  1.00  0.00    -0.237 OA
ATOM     97  O   UNL A   1      48.438  26.019  22.107  1.00  0.00    -0.744 OA
ENDBRANCH  91  94
ENDBRANCH  63  87
BRANCH  75  98
ATOM     98  C   UNL A   1      44.777  33.475  29.387  1.00  0.00     0.023 A 
ATOM     99  C   UNL A   1      45.510  33.681  30.569  1.00  0.00     0.012 A 
ATOM    100  C   UNL A   1      44.718  34.491  28.413  1.00  0.00     0.148 A 
ATOM    101  C   UNL A   1      46.170  34.890  30.784  1.00  0.00     0.002 A 
ATOM    102  C   UNL A   1      45.407  35.678  28.617  1.00  0.00     0.091 A 
ATOM    103  F   UNL A   1      44.004  34.266  27.300  1.00  0.00    -0.205 F 
ATOM    104  C   UNL A   1      46.130  35.881  29.805  1.00  0.00     0.022 A 
BRANCH 102 105
ATOM    105  S   UNL A   1      45.475  36.979  27.383  1.00  0.00     0.127 S 
ATOM    106  O   UNL A   1      46.092  36.285  26.254  1.00  0.00    -0.237 OA
ATOM    107  O   UNL A   1      44.060  37.305  27.201  1.00  0.00    -0.237 OA
ATOM    108  O   UNL A   1      46.275  38.049  27.964  1.00  0.00    -0.744 OA
ENDBRANCH 102 105
ENDBRANCH  75  98
ENDBRANCH  49  50
ENDBRANCH  41  44
ENDBRANCH  39  40
ENDBRANCH  38  39
ENDBRANCH   1  38
TORSDOF 19
ENDMDL
MODEL 2
REMARK VINA RESULT:     -12.5      0.662      7.022
REMARK SMILES CC[C@@H](C)[C@H](NC(=O)[C@H](C)N1C(=O)N2CCC3=c4cc(OC)ccc4=NC3[C@@]2(C)C1=O)C(=O)NCCCNC(=O)c1ccc(-c2c3nc(c(-c4cccc(S(=O)(=O)[O-])c4F)c4ccc([nH]4)c(-c4cccc(S(=O)(=O)[O-])c4F)c4nc(c(-c5cccc(S(=O)(=O)[O-])c5F)c5ccc2[nH]5)C=C4)C=C3)cc1
REMARK SMILES IDX 35 1 34 2 32 3 33 4 5 6 3 7 4 8 2 9 1 10 6 11 7 12 8 14 9 15
REMARK SMILES IDX 10 16 11 17 12 18 30 19 14 20 13 21 28 22 31 23 15 24 27 25
REMARK SMILES IDX 29 26 16 27 17 28 26 29 18 30 25 31 19 32 24 33 20 34 23 35
REMARK SMILES IDX 21 36 22 37 36 38 37 39 38 40 39 41 40 43 41 44 42 45 103 46
REMARK SMILES IDX 43 47 102 48 44 49 45 50 46 51 96 52 47 53 101 54 95 55
REMARK SMILES IDX 97 56 48 57 100 58 94 59 93 60 49 62 81 63 61 64 80 65 62 66
REMARK SMILES IDX 65 67 79 68 98 69 63 70 64 71 78 73 99 74 66 75 50 76 51 77
REMARK SMILES IDX 59 78 52 79 54 80 60 81 53 82 55 83 56 84 57 85 58 86 82 87
REMARK SMILES IDX 83 88 91 89 84 90 86 91 92 92 85 93 87 94 88 95 89 96 90 97
REMARK SMILES IDX 67 98 68 99 76 100 69 101 71 102 77 103 70 104 72 105 73 106
REMARK SMILES IDX 74 107 75 108
REMARK H PARENT 34 5 6 13 38 42 97 61 65 72
REMARK Flexibility Score: inf
ROOT
ATOM      1  C   UNL A   1      35.456  22.016  24.245  1.00  0.00     0.117 C 
ENDROOT
BRANCH   1   2
ATOM      2  N   UNL A   1      34.582  22.464  25.313  1.00  0.00    -0.354 N 
ATOM      3  C   UNL A   1      33.250  22.279  25.516  1.00  0.00     0.242 C 
ATOM      4  O   UNL A   1      32.801  22.577  26.629  1.00  0.00    -0.273 OA
ATOM      5  H   UNL A   1      35.032  22.992  26.011  1.00  0.00     0.163 HD
BRANCH   3   6
ATOM      6  C   UNL A   1      32.338  21.593  24.475  1.00  0.00     0.174 C 
BRANCH   6   7
ATOM      7  C   UNL A   1      32.834  20.095  24.248  1.00  0.00     0.018 C 
ATOM      8  C   UNL A   1      32.207  19.329  23.076  1.00  0.00     0.010 C 
BRANCH   7   9
ATOM      9  C   UNL A   1      32.825  19.248  25.545  1.00  0.00     0.002 C 
ATOM     10  C   UNL A   1      32.949  17.736  25.325  1.00  0.00     0.004 C 
ENDBRANCH   7   9
ENDBRANCH   6   7
BRANCH   6  11
ATOM     11  N   UNL A   1      32.184  22.479  23.287  1.00  0.00    -0.342 N 
ATOM     12  C   UNL A   1      32.044  23.863  23.217  1.00  0.00     0.243 C 
ATOM     13  H   UNL A   1      32.179  22.014  22.419  1.00  0.00     0.164 HD
ATOM     14  O   UNL A   1      32.758  24.402  22.367  1.00  0.00    -0.273 OA
BRANCH  12  15
ATOM     15  C   UNL A   1      31.117  24.674  24.191  1.00  0.00     0.181 C 
ATOM     16  C   UNL A   1      30.302  25.592  23.217  1.00  0.00     0.042 C 
BRANCH  15  17
ATOM     17  N   UNL A   1      31.804  25.544  25.257  1.00  0.00    -0.250 N 
ATOM     18  C   UNL A   1      33.141  26.007  25.446  1.00  0.00     0.328 C 
ATOM     19  C   UNL A   1      31.041  26.105  26.242  1.00  0.00     0.259 C 
ATOM     20  N   UNL A   1      33.094  27.099  26.477  1.00  0.00    -0.307 N 
ATOM     21  O   UNL A   1      34.151  25.654  24.860  1.00  0.00    -0.248 OA
ATOM     22  C   UNL A   1      31.703  27.378  26.589  1.00  0.00     0.147 C 
ATOM     23  O   UNL A   1      29.969  25.766  26.699  1.00  0.00    -0.271 OA
ATOM     24  C   UNL A   1      33.897  28.468  26.567  1.00  0.00     0.127 C 
ATOM     25  C   UNL A   1      31.555  28.293  25.339  1.00  0.00     0.168 C 
ATOM     26  C   UNL A   1      31.386  27.786  28.037  1.00  0.00     0.048 C 
ATOM     27  C   UNL A   1      32.878  29.921  26.348  1.00  0.00     0.055 C 
ATOM     28  C   UNL A   1      31.526  29.744  25.499  1.00  0.00    -0.032 C 
ATOM     29  N   UNL A   1      31.459  27.888  23.913  1.00  0.00    -0.274 NA
ATOM     30  C   UNL A   1      31.028  30.182  24.296  1.00  0.00     0.005 A 
ATOM     31  C   UNL A   1      31.612  29.094  23.400  1.00  0.00     0.066 A 
ATOM     32  C   UNL A   1      29.547  29.944  23.909  1.00  0.00     0.056 A 
ATOM     33  C   UNL A   1      31.592  29.394  21.974  1.00  0.00     0.032 A 
ATOM     34  C   UNL A   1      29.276  29.386  22.680  1.00  0.00     0.119 A 
ATOM     35  C   UNL A   1      30.301  29.476  21.620  1.00  0.00     0.048 A 
BRANCH  34  36
ATOM     36  O   UNL A   1      28.374  28.328  22.645  1.00  0.00    -0.497 OA
ATOM     37  C   UNL A   1      27.215  28.298  23.473  1.00  0.00     0.278 C 
ENDBRANCH  34  36
ENDBRANCH  15  17
ENDBRANCH  12  15
ENDBRANCH   6  11
ENDBRANCH   3   6
ENDBRANCH   1   2
BRANCH   1  38
ATOM     38  C   UNL A   1      36.460  20.976  24.672  1.00  0.00     0.042 C 
BRANCH  38  39
ATOM     39  C   UNL A   1      37.712  21.610  25.239  1.00  0.00     0.118 C 
BRANCH  39  40
ATOM     40  N   UNL A   1      38.681  20.617  25.708  1.00  0.00    -0.352 N 
ATOM     41  C   UNL A   1      39.853  20.774  26.412  1.00  0.00     0.251 C 
ATOM     42  H   UNL A   1      38.456  19.684  25.485  1.00  0.00     0.163 HD
ATOM     43  O   UNL A   1      40.627  19.829  26.532  1.00  0.00    -0.269 OA
BRANCH  41  44
ATOM     44  C   UNL A   1      40.186  22.100  26.969  1.00  0.00     0.039 A 
ATOM     45  C   UNL A   1      39.569  23.235  26.452  1.00  0.00     0.014 A 
ATOM     46  C   UNL A   1      41.172  22.220  27.950  1.00  0.00     0.014 A 
ATOM     47  C   UNL A   1      40.125  24.479  26.695  1.00  0.00     0.010 A 
ATOM     48  C   UNL A   1      41.624  23.491  28.314  1.00  0.00     0.010 A 
ATOM     49  C   UNL A   1      41.152  24.627  27.637  1.00  0.00    -0.014 A 
BRANCH  49  50
ATOM     50  C   UNL A   1      41.690  25.981  27.916  1.00  0.00     0.031 A 
ATOM     51  C   UNL A   1      43.069  26.378  27.455  1.00  0.00     0.074 A 
ATOM     52  C   UNL A   1      40.907  26.868  28.562  1.00  0.00     0.049 A 
ATOM     53  N   UNL A   1      43.714  27.494  27.675  1.00  0.00    -0.248 NA
ATOM     54  C   UNL A   1      43.828  25.405  26.646  1.00  0.00     0.031 C 
ATOM     55  C   UNL A   1      39.543  26.606  29.038  1.00  0.00     0.029 A 
ATOM     56  N   UNL A   1      41.132  28.171  28.922  1.00  0.00    -0.354 N 
ATOM     57  C   UNL A   1      44.961  27.342  27.081  1.00  0.00     0.074 A 
ATOM     58  C   UNL A   1      44.988  26.028  26.480  1.00  0.00     0.031 C 
ATOM     59  C   UNL A   1      39.042  27.721  29.584  1.00  0.00     0.029 A 
ATOM     60  C   UNL A   1      40.072  28.749  29.580  1.00  0.00     0.049 A 
ATOM     61  H   UNL A   1      41.972  28.648  28.728  1.00  0.00     0.167 HD
ATOM     62  C   UNL A   1      45.982  28.228  27.035  1.00  0.00     0.034 A 
ATOM     63  C   UNL A   1      39.948  29.960  30.151  1.00  0.00     0.034 A 
ATOM     64  C   UNL A   1      45.925  29.555  27.587  1.00  0.00     0.049 A 
ATOM     65  C   UNL A   1      41.109  30.906  30.102  1.00  0.00     0.074 A 
ATOM     66  C   UNL A   1      46.905  30.531  27.566  1.00  0.00     0.029 A 
ATOM     67  N   UNL A   1      44.833  30.095  28.244  1.00  0.00    -0.354 N 
ATOM     68  N   UNL A   1      42.272  30.745  29.523  1.00  0.00    -0.248 NA
ATOM     69  C   UNL A   1      40.939  32.201  30.773  1.00  0.00     0.031 C 
ATOM     70  C   UNL A   1      46.412  31.659  28.225  1.00  0.00     0.029 A 
ATOM     71  C   UNL A   1      45.114  31.393  28.629  1.00  0.00     0.049 A 
ATOM     72  H   UNL A   1      43.983  29.626  28.412  1.00  0.00     0.167 HD
ATOM     73  C   UNL A   1      42.958  31.934  29.723  1.00  0.00     0.074 A 
ATOM     74  C   UNL A   1      42.082  32.805  30.477  1.00  0.00     0.031 C 
ATOM     75  C   UNL A   1      44.206  32.268  29.321  1.00  0.00     0.034 A 
BRANCH  62  76
ATOM     76  C   UNL A   1      47.255  27.844  26.333  1.00  0.00     0.023 A 
ATOM     77  C   UNL A   1      48.240  27.125  27.036  1.00  0.00     0.012 A 
ATOM     78  C   UNL A   1      47.384  28.024  24.940  1.00  0.00     0.148 A 
ATOM     79  C   UNL A   1      49.330  26.575  26.361  1.00  0.00     0.002 A 
ATOM     80  C   UNL A   1      48.457  27.449  24.271  1.00  0.00     0.091 A 
ATOM     81  F   UNL A   1      46.432  28.715  24.297  1.00  0.00    -0.205 F 
ATOM     82  C   UNL A   1      49.430  26.724  24.979  1.00  0.00     0.022 A 
BRANCH  80  83
ATOM     83  S   UNL A   1      48.650  27.528  22.486  1.00  0.00     0.127 S 
ATOM     84  O   UNL A   1      48.661  26.109  22.129  1.00  0.00    -0.237 OA
ATOM     85  O   UNL A   1      47.445  28.250  22.080  1.00  0.00    -0.237 OA
ATOM     86  O   UNL A   1      49.902  28.230  22.244  1.00  0.00    -0.744 OA
ENDBRANCH  80  83
ENDBRANCH  62  76
BRANCH  63  87
ATOM     87  C   UNL A   1      38.662  30.347  30.789  1.00  0.00     0.023 A 
ATOM     88  C   UNL A   1      38.445  30.027  32.142  1.00  0.00     0.012 A 
ATOM     89  C   UNL A   1      37.681  31.066  30.081  1.00  0.00     0.148 A 
ATOM     90  C   UNL A   1      37.259  30.401  32.775  1.00  0.00     0.002 A 
ATOM     91  C   UNL A   1      36.522  31.472  30.728  1.00  0.00     0.091 A 
ATOM     92  F   UNL A   1      37.915  31.357  28.793  1.00  0.00    -0.205 F 
ATOM     93  C   UNL A   1      36.304  31.131  32.072  1.00  0.00     0.022 A 
BRANCH  91  94
ATOM     94  S   UNL A   1      35.277  32.492  29.932  1.00  0.00     0.127 S 
ATOM     95  O   UNL A   1      34.812  31.612  28.862  1.00  0.00    -0.237 OA
ATOM     96  O   UNL A   1      34.319  32.701  31.019  1.00  0.00    -0.237 OA
ATOM     97  O   UNL A   1      35.970  33.698  29.499  1.00  0.00    -0.744 OA
ENDBRANCH  91  94
ENDBRANCH  63  87
BRANCH  75  98
ATOM     98  C   UNL A   1      44.693  33.656  29.618  1.00  0.00     0.023 A 
ATOM     99  C   UNL A   1      45.363  33.921  30.825  1.00  0.00     0.012 A 
ATOM    100  C   UNL A   1      44.587  34.663  28.639  1.00  0.00     0.148 A 
ATOM    101  C   UNL A   1      45.915  35.180  31.060  1.00  0.00     0.002 A 
ATOM    102  C   UNL A   1      45.170  35.902  28.864  1.00  0.00     0.091 A 
ATOM    103  F   UNL A   1      43.935  34.380  27.502  1.00  0.00    -0.205 F 
ATOM    104  C   UNL A   1      45.830  36.164  30.076  1.00  0.00     0.022 A 
BRANCH 102 105
ATOM    105  S   UNL A   1      45.177  37.203  27.628  1.00  0.00     0.127 S 
ATOM    106  O   UNL A   1      43.752  37.334  27.326  1.00  0.00    -0.237 OA
ATOM    107  O   UNL A   1      45.750  38.328  28.368  1.00  0.00    -0.237 OA
ATOM    108  O   UNL A   1      45.999  36.716  26.528  1.00  0.00    -0.744 OA
ENDBRANCH 102 105
ENDBRANCH  75  98
ENDBRANCH  49  50
ENDBRANCH  41  44
ENDBRANCH  39  40
ENDBRANCH  38  39
ENDBRANCH   1  38
TORSDOF 19
ENDMDL
MODEL 3
REMARK VINA RESULT:     -11.8      2.403      7.304
REMARK SMILES CC[C@@H](C)[C@H](NC(=O)[C@H](C)N1C(=O)N2CCC3=c4cc(OC)ccc4=NC3[C@@]2(C)C1=O)C(=O)NCCCNC(=O)c1ccc(-c2c3nc(c(-c4cccc(S(=O)(=O)[O-])c4F)c4ccc([nH]4)c(-c4cccc(S(=O)(=O)[O-])c4F)c4nc(c(-c5cccc(S(=O)(=O)[O-])c5F)c5ccc2[nH]5)C=C4)C=C3)cc1
REMARK SMILES IDX 35 1 34 2 32 3 33 4 5 6 3 7 4 8 2 9 1 10 6 11 7 12 8 14 9 15
REMARK SMILES IDX 10 16 11 17 12 18 30 19 14 20 13 21 28 22 31 23 15 24 27 25
REMARK SMILES IDX 29 26 16 27 17 28 26 29 18 30 25 31 19 32 24 33 20 34 23 35
REMARK SMILES IDX 21 36 22 37 36 38 37 39 38 40 39 41 40 43 41 44 42 45 103 46
REMARK SMILES IDX 43 47 102 48 44 49 45 50 46 51 96 52 47 53 101 54 95 55
REMARK SMILES IDX 97 56 48 57 100 58 94 59 93 60 49 62 81 63 61 64 80 65 62 66
REMARK SMILES IDX 65 67 79 68 98 69 63 70 64 71 78 73 99 74 66 75 50 76 51 77
REMARK SMILES IDX 59 78 52 79 54 80 60 81 53 82 55 83 56 84 57 85 58 86 82 87
REMARK SMILES IDX 83 88 91 89 84 90 86 91 92 92 85 93 87 94 88 95 89 96 90 97
REMARK SMILES IDX 67 98 68 99 76 100 69 101 71 102 77 103 70 104 72 105 73 106
REMARK SMILES IDX 74 107 75 108
REMARK H PARENT 34 5 6 13 38 42 97 61 65 72
REMARK Flexibility Score: inf
ROOT
ATOM      1  C   UNL A   1      34.945  22.659  25.073  1.00  0.00     0.117 C 
ENDROOT
BRANCH   1   2
ATOM      2  N   UNL A   1      33.750  22.869  25.867  1.00  0.00    -0.354 N 
ATOM      3  C   UNL A   1      32.473  22.434  25.694  1.00  0.00     0.242 C 
ATOM      4  O   UNL A   1      31.695  22.570  26.646  1.00  0.00    -0.273 OA
ATOM      5  H   UNL A   1      33.887  23.422  26.670  1.00  0.00     0.163 HD
BRANCH   3   6
ATOM      6  C   UNL A   1      32.020  21.666  24.432  1.00  0.00     0.174 C 
BRANCH   6   7
ATOM      7  C   UNL A   1      32.833  20.299  24.330  1.00  0.00     0.018 C 
ATOM      8  C   UNL A   1      32.437  19.342  23.198  1.00  0.00     0.010 C 
BRANCH   7   9
ATOM      9  C   UNL A   1      32.945  19.555  25.684  1.00  0.00     0.002 C 
ATOM     10  C   UNL A   1      32.672  18.048  25.613  1.00  0.00     0.004 C 
ENDBRANCH   7   9
ENDBRANCH   6   7
BRANCH   6  11
ATOM     11  N   UNL A   1      32.025  22.586  23.261  1.00  0.00    -0.342 N 
ATOM     12  C   UNL A   1      32.014  23.978  23.217  1.00  0.00     0.243 C 
ATOM     13  H   UNL A   1      32.037  22.141  22.383  1.00  0.00     0.164 HD
ATOM     14  O   UNL A   1      32.829  24.467  22.430  1.00  0.00    -0.273 OA
BRANCH  12  15
ATOM     15  C   UNL A   1      31.101  24.850  24.151  1.00  0.00     0.181 C 
ATOM     16  C   UNL A   1      30.306  25.738  23.133  1.00  0.00     0.042 C 
BRANCH  15  17
ATOM     17  N   UNL A   1      31.801  25.754  25.179  1.00  0.00    -0.250 N 
ATOM     18  C   UNL A   1      33.123  26.279  25.297  1.00  0.00     0.328 C 
ATOM     19  C   UNL A   1      31.065  26.283  26.201  1.00  0.00     0.259 C 
ATOM     20  N   UNL A   1      33.080  27.371  26.329  1.00  0.00    -0.307 N 
ATOM     21  O   UNL A   1      34.117  25.971  24.660  1.00  0.00    -0.248 OA
ATOM     22  C   UNL A   1      31.685  27.585  26.513  1.00  0.00     0.147 C 
ATOM     23  O   UNL A   1      30.035  25.896  26.714  1.00  0.00    -0.271 OA
ATOM     24  C   UNL A   1      33.823  28.776  26.376  1.00  0.00     0.127 C 
ATOM     25  C   UNL A   1      31.430  28.489  25.272  1.00  0.00     0.168 C 
ATOM     26  C   UNL A   1      31.425  27.983  27.975  1.00  0.00     0.048 C 
ATOM     27  C   UNL A   1      32.727  30.179  26.209  1.00  0.00     0.055 C 
ATOM     28  C   UNL A   1      31.342  29.937  25.432  1.00  0.00    -0.032 C 
ATOM     29  N   UNL A   1      31.279  28.075  23.852  1.00  0.00    -0.274 NA
ATOM     30  C   UNL A   1      30.763  30.348  24.256  1.00  0.00     0.005 A 
ATOM     31  C   UNL A   1      31.349  29.286  23.332  1.00  0.00     0.066 A 
ATOM     32  C   UNL A   1      29.276  30.041  23.947  1.00  0.00     0.056 A 
ATOM     33  C   UNL A   1      31.241  29.580  21.908  1.00  0.00     0.032 A 
ATOM     34  C   UNL A   1      28.968  29.467  22.734  1.00  0.00     0.119 A 
ATOM     35  C   UNL A   1      29.931  29.601  21.622  1.00  0.00     0.048 A 
BRANCH  34  36
ATOM     36  O   UNL A   1      28.115  28.369  22.747  1.00  0.00    -0.497 OA
ATOM     37  C   UNL A   1      26.894  28.372  23.480  1.00  0.00     0.278 C 
ENDBRANCH  34  36
ENDBRANCH  15  17
ENDBRANCH  12  15
ENDBRANCH   6  11
ENDBRANCH   3   6
ENDBRANCH   1   2
BRANCH   1  38
ATOM     38  C   UNL A   1      36.117  23.508  25.495  1.00  0.00     0.042 C 
BRANCH  38  39
ATOM     39  C   UNL A   1      37.363  23.172  24.704  1.00  0.00     0.118 C 
BRANCH  39  40
ATOM     40  N   UNL A   1      38.289  22.320  25.452  1.00  0.00    -0.352 N 
ATOM     41  C   UNL A   1      39.303  22.650  26.323  1.00  0.00     0.251 C 
ATOM     42  H   UNL A   1      38.165  21.353  25.311  1.00  0.00     0.163 HD
ATOM     43  O   UNL A   1      40.098  21.791  26.690  1.00  0.00    -0.269 OA
BRANCH  41  44
ATOM     44  C   UNL A   1      39.448  24.052  26.761  1.00  0.00     0.039 A 
ATOM     45  C   UNL A   1      40.038  24.980  25.908  1.00  0.00     0.014 A 
ATOM     46  C   UNL A   1      39.068  24.425  28.052  1.00  0.00     0.014 A 
ATOM     47  C   UNL A   1      40.508  26.174  26.425  1.00  0.00     0.010 A 
ATOM     48  C   UNL A   1      39.404  25.697  28.522  1.00  0.00     0.010 A 
ATOM     49  C   UNL A   1      40.188  26.556  27.735  1.00  0.00    -0.014 A 
BRANCH  49  50
ATOM     50  C   UNL A   1      40.661  27.867  28.244  1.00  0.00     0.031 A 
ATOM     51  C   UNL A   1      42.122  28.234  28.204  1.00  0.00     0.074 A 
ATOM     52  C   UNL A   1      39.751  28.744  28.713  1.00  0.00     0.049 A 
ATOM     53  N   UNL A   1      42.707  29.306  28.669  1.00  0.00    -0.248 NA
ATOM     54  C   UNL A   1      43.050  27.282  27.566  1.00  0.00     0.031 C 
ATOM     55  C   UNL A   1      38.303  28.510  28.781  1.00  0.00     0.029 A 
ATOM     56  N   UNL A   1      39.898  30.012  29.212  1.00  0.00    -0.354 N 
ATOM     57  C   UNL A   1      44.065  29.140  28.428  1.00  0.00     0.074 A 
ATOM     58  C   UNL A   1      44.226  27.866  27.765  1.00  0.00     0.031 C 
ATOM     59  C   UNL A   1      37.697  29.609  29.247  1.00  0.00     0.029 A 
ATOM     60  C   UNL A   1      38.713  30.592  29.596  1.00  0.00     0.049 A 
ATOM     61  H   UNL A   1      40.770  30.465  29.287  1.00  0.00     0.167 HD
ATOM     62  C   UNL A   1      45.080  29.984  28.722  1.00  0.00     0.034 A 
ATOM     63  C   UNL A   1      38.465  31.770  30.195  1.00  0.00     0.034 A 
ATOM     64  C   UNL A   1      44.904  31.277  29.330  1.00  0.00     0.049 A 
ATOM     65  C   UNL A   1      39.616  32.668  30.530  1.00  0.00     0.074 A 
ATOM     66  C   UNL A   1      45.875  32.211  29.645  1.00  0.00     0.029 A 
ATOM     67  N   UNL A   1      43.686  31.820  29.702  1.00  0.00    -0.354 N 
ATOM     68  N   UNL A   1      40.889  32.495  30.279  1.00  0.00    -0.248 NA
ATOM     69  C   UNL A   1      39.298  33.926  31.218  1.00  0.00     0.031 C 
ATOM     70  C   UNL A   1      45.246  33.315  30.222  1.00  0.00     0.029 A 
ATOM     71  C   UNL A   1      43.881  33.079  30.239  1.00  0.00     0.049 A 
ATOM     72  H   UNL A   1      42.813  31.377  29.599  1.00  0.00     0.167 HD
ATOM     73  C   UNL A   1      41.521  33.640  30.741  1.00  0.00     0.074 A 
ATOM     74  C   UNL A   1      40.492  34.499  31.287  1.00  0.00     0.031 C 
ATOM     75  C   UNL A   1      42.839  33.947  30.717  1.00  0.00     0.034 A 
BRANCH  62  76
ATOM     76  C   UNL A   1      46.488  29.592  28.368  1.00  0.00     0.023 A 
ATOM     77  C   UNL A   1      47.076  30.115  27.201  1.00  0.00     0.012 A 
ATOM     78  C   UNL A   1      47.280  28.872  29.286  1.00  0.00     0.148 A 
ATOM     79  C   UNL A   1      48.439  29.941  26.958  1.00  0.00     0.002 A 
ATOM     80  C   UNL A   1      48.641  28.727  29.051  1.00  0.00     0.091 A 
ATOM     81  F   UNL A   1      46.692  28.384  30.387  1.00  0.00    -0.205 F 
ATOM     82  C   UNL A   1      49.223  29.262  27.889  1.00  0.00     0.022 A 
BRANCH  80  83
ATOM     83  S   UNL A   1      49.752  27.925  30.213  1.00  0.00     0.127 S 
ATOM     84  O   UNL A   1      50.990  27.854  29.435  1.00  0.00    -0.237 OA
ATOM     85  O   UNL A   1      49.781  28.881  31.319  1.00  0.00    -0.237 OA
ATOM     86  O   UNL A   1      49.151  26.636  30.524  1.00  0.00    -0.744 OA
ENDBRANCH  80  83
ENDBRANCH  62  76
BRANCH  63  87
ATOM     87  C   UNL A   1      37.063  32.170  30.485  1.00  0.00     0.023 A 
ATOM     88  C   UNL A   1      36.533  31.933  31.767  1.00  0.00     0.012 A 
ATOM     89  C   UNL A   1      36.272  32.821  29.518  1.00  0.00     0.148 A 
ATOM     90  C   UNL A   1      35.230  32.322  32.076  1.00  0.00     0.002 A 
ATOM     91  C   UNL A   1      34.991  33.242  29.846  1.00  0.00     0.091 A 
ATOM     92  F   UNL A   1      36.803  33.033  28.305  1.00  0.00    -0.205 F 
ATOM     93  C   UNL A   1      34.463  32.984  31.120  1.00  0.00     0.022 A 
BRANCH  91  94
ATOM     94  S   UNL A   1      33.964  34.183  28.712  1.00  0.00     0.127 S 
ATOM     95  O   UNL A   1      34.870  35.256  28.312  1.00  0.00    -0.237 OA
ATOM     96  O   UNL A   1      33.682  33.193  27.671  1.00  0.00    -0.237 OA
ATOM     97  O   UNL A   1      32.798  34.596  29.482  1.00  0.00    -0.744 OA
ENDBRANCH  91  94
ENDBRANCH  63  87
BRANCH  75  98
ATOM     98  C   UNL A   1      43.257  35.292  31.233  1.00  0.00     0.023 A 
ATOM     99  C   UNL A   1      43.563  35.459  32.595  1.00  0.00     0.012 A 
ATOM    100  C   UNL A   1      43.461  36.357  30.333  1.00  0.00     0.148 A 
ATOM    101  C   UNL A   1      44.058  36.676  33.059  1.00  0.00     0.002 A 
ATOM    102  C   UNL A   1      43.988  37.554  30.796  1.00  0.00     0.091 A 
ATOM    103  F   UNL A   1      43.152  36.168  29.041  1.00  0.00    -0.205 F 
ATOM    104  C   UNL A   1      44.283  37.717  32.160  1.00  0.00     0.022 A 
BRANCH 102 105
ATOM    105  S   UNL A   1      44.381  38.922  29.702  1.00  0.00     0.127 S 
ATOM    106  O   UNL A   1      45.224  38.270  28.701  1.00  0.00    -0.237 OA
ATOM    107  O   UNL A   1      43.058  39.321  29.220  1.00  0.00    -0.237 OA
ATOM    108  O   UNL A   1      45.055  39.919  30.523  1.00  0.00    -0.744 OA
ENDBRANCH 102 105
ENDBRANCH  75  98
ENDBRANCH  49  50
ENDBRANCH  41  44
ENDBRANCH  39  40
ENDBRANCH  38  39
ENDBRANCH   1  38
TORSDOF 19
ENDMDL
