MODEL 1
REMARK VINA RESULT:     -11.8      0.000      0.000
REMARK SMILES CCN(CC)c1ccc(NS(=O)(=O)c2ccc(Cl)s2)cc1C(=O)NCCCNC(=O)c1ccc(-c2c3nc(c(-c4cccc(S(=O)(=O)[O-])c4F)c4ccc([nH]4)c(-c4cccc(S(=O)(=O)[O-])c4F)c4nc(c(-c5cccc(S(=O)(=O)[O-])c5F)c5ccc2[nH]5)C=C4)C=C3)cc1
REMARK SMILES IDX 26 1 25 2 24 3 22 4 23 5 21 7 6 8 7 9 8 10 20 11 9 12 3 13
REMARK SMILES IDX 2 14 1 15 4 16 5 17 10 18 11 20 12 21 13 22 14 23 15 24
REMARK SMILES IDX 19 25 16 26 17 27 18 28 27 29 28 30 29 31 30 33 31 34 32 35
REMARK SMILES IDX 93 36 33 37 92 38 34 39 35 40 36 41 86 42 37 43 91 44 85 45
REMARK SMILES IDX 87 46 38 47 90 48 84 49 83 50 39 52 71 53 51 54 70 55 52 56
REMARK SMILES IDX 55 57 69 58 88 59 53 60 54 61 68 63 89 64 56 65 40 66 41 67
REMARK SMILES IDX 49 68 42 69 44 70 50 71 43 72 45 73 46 74 47 75 48 76 72 77
REMARK SMILES IDX 73 78 81 79 74 80 76 81 82 82 75 83 77 84 78 85 79 86 80 87
REMARK SMILES IDX 57 88 58 89 66 90 59 91 61 92 67 93 60 94 62 95 63 96 64 97
REMARK SMILES IDX 65 98
REMARK H PARENT 24 6 10 19 28 32 87 51 55 62
REMARK Flexibility Score: inf
ROOT
ATOM      1  C   UNL A   1      31.982  30.632  26.721  1.00  0.00     0.042 C 
ENDROOT
BRANCH   1   2
ATOM      2  C   UNL A   1      32.521  29.320  26.202  1.00  0.00     0.118 C 
BRANCH   2   3
ATOM      3  N   UNL A   1      33.177  29.337  24.921  1.00  0.00    -0.352 N 
ATOM      4  C   UNL A   1      32.622  28.973  23.713  1.00  0.00     0.253 C 
ATOM      5  O   UNL A   1      33.283  29.147  22.688  1.00  0.00    -0.269 OA
ATOM      6  H   UNL A   1      34.115  29.635  24.906  1.00  0.00     0.163 HD
BRANCH   4   7
ATOM      7  C   UNL A   1      31.312  28.251  23.617  1.00  0.00     0.065 A 
ATOM      8  C   UNL A   1      30.039  28.811  23.343  1.00  0.00     0.050 A 
ATOM      9  C   UNL A   1      28.952  27.958  23.516  1.00  0.00     0.029 A 
ATOM     10  C   UNL A   1      29.092  26.649  23.947  1.00  0.00     0.029 A 
ATOM     11  C   UNL A   1      31.439  26.856  23.903  1.00  0.00     0.042 A 
ATOM     12  C   UNL A   1      30.322  26.035  24.023  1.00  0.00     0.050 A 
BRANCH   8  13
ATOM     13  N   UNL A   1      29.752  30.116  22.953  1.00  0.00    -0.371 N 
BRANCH  13  14
ATOM     14  C   UNL A   1      29.556  30.433  21.531  1.00  0.00     0.113 C 
ATOM     15  C   UNL A   1      28.101  30.431  21.093  1.00  0.00     0.027 C 
ENDBRANCH  13  14
BRANCH  13  16
ATOM     16  C   UNL A   1      29.199  31.071  23.952  1.00  0.00     0.113 C 
ATOM     17  C   UNL A   1      27.728  31.420  23.798  1.00  0.00     0.027 C 
ENDBRANCH  13  16
ENDBRANCH   8  13
BRANCH  12  18
ATOM     18  N   UNL A   1      30.439  24.662  24.436  1.00  0.00    -0.279 N 
ATOM     19  H   UNL A   1      30.062  23.942  23.882  1.00  0.00     0.180 HD
BRANCH  18  20
ATOM     20  S   UNL A   1      31.243  24.294  25.905  1.00  0.00     0.271 S 
ATOM     21  O   UNL A   1      31.122  25.439  26.780  1.00  0.00    -0.200 OA
ATOM     22  O   UNL A   1      30.760  22.991  26.316  1.00  0.00    -0.200 OA
BRANCH  20  23
ATOM     23  C   UNL A   1      32.986  24.031  25.593  1.00  0.00     0.141 A 
ATOM     24  C   UNL A   1      34.069  24.899  25.633  1.00  0.00     0.036 A 
ATOM     25  S   UNL A   1      33.508  22.407  25.349  1.00  0.00    -0.110 S 
ATOM     26  C   UNL A   1      35.316  24.200  25.692  1.00  0.00     0.034 A 
ATOM     27  C   UNL A   1      35.124  22.845  25.607  1.00  0.00     0.094 A 
ATOM     28  Cl  UNL A   1      36.321  21.626  25.773  1.00  0.00    -0.072 Cl
ENDBRANCH  20  23
ENDBRANCH  18  20
ENDBRANCH  12  18
ENDBRANCH   4   7
ENDBRANCH   2   3
ENDBRANCH   1   2
BRANCH   1  29
ATOM     29  C   UNL A   1      33.064  31.554  27.269  1.00  0.00     0.118 C 
BRANCH  29  30
ATOM     30  N   UNL A   1      32.673  32.959  27.438  1.00  0.00    -0.352 N 
ATOM     31  C   UNL A   1      33.140  33.981  28.239  1.00  0.00     0.251 C 
ATOM     32  H   UNL A   1      31.922  33.228  26.861  1.00  0.00     0.163 HD
ATOM     33  O   UNL A   1      32.597  35.082  28.182  1.00  0.00    -0.269 OA
BRANCH  31  34
ATOM     34  C   UNL A   1      34.235  33.754  29.210  1.00  0.00     0.039 A 
ATOM     35  C   UNL A   1      34.032  32.895  30.296  1.00  0.00     0.014 A 
ATOM     36  C   UNL A   1      35.483  34.333  29.028  1.00  0.00     0.014 A 
ATOM     37  C   UNL A   1      35.119  32.509  31.091  1.00  0.00     0.010 A 
ATOM     38  C   UNL A   1      36.582  33.812  29.692  1.00  0.00     0.010 A 
ATOM     39  C   UNL A   1      36.421  32.896  30.741  1.00  0.00    -0.014 A 
BRANCH  39  40
ATOM     40  C   UNL A   1      37.639  32.374  31.424  1.00  0.00     0.031 A 
ATOM     41  C   UNL A   1      38.452  31.278  30.775  1.00  0.00     0.074 A 
ATOM     42  C   UNL A   1      37.925  32.759  32.685  1.00  0.00     0.049 A 
ATOM     43  N   UNL A   1      39.411  30.549  31.283  1.00  0.00    -0.248 NA
ATOM     44  C   UNL A   1      38.094  30.907  29.394  1.00  0.00     0.031 C 
ATOM     45  C   UNL A   1      37.164  33.729  33.478  1.00  0.00     0.029 A 
ATOM     46  N   UNL A   1      38.921  32.353  33.540  1.00  0.00    -0.354 N 
ATOM     47  C   UNL A   1      39.701  29.584  30.324  1.00  0.00     0.074 A 
ATOM     48  C   UNL A   1      38.786  29.791  29.226  1.00  0.00     0.031 C 
ATOM     49  C   UNL A   1      37.737  33.866  34.683  1.00  0.00     0.029 A 
ATOM     50  C   UNL A   1      38.879  32.963  34.773  1.00  0.00     0.049 A 
ATOM     51  H   UNL A   1      39.603  31.686  33.292  1.00  0.00     0.167 HD
ATOM     52  C   UNL A   1      40.668  28.634  30.332  1.00  0.00     0.034 A 
ATOM     53  C   UNL A   1      39.668  32.812  35.855  1.00  0.00     0.034 A 
ATOM     54  C   UNL A   1      41.655  28.514  31.368  1.00  0.00     0.049 A 
ATOM     55  C   UNL A   1      40.817  31.841  35.790  1.00  0.00     0.074 A 
ATOM     56  C   UNL A   1      42.763  27.688  31.408  1.00  0.00     0.029 A 
ATOM     57  N   UNL A   1      41.664  29.256  32.538  1.00  0.00    -0.354 N 
ATOM     58  N   UNL A   1      41.171  31.048  34.809  1.00  0.00    -0.248 NA
ATOM     59  C   UNL A   1      41.696  31.772  36.965  1.00  0.00     0.031 C 
ATOM     60  C   UNL A   1      43.442  27.929  32.608  1.00  0.00     0.029 A 
ATOM     61  C   UNL A   1      42.763  28.914  33.306  1.00  0.00     0.049 A 
ATOM     62  H   UNL A   1      40.988  29.927  32.786  1.00  0.00     0.167 HD
ATOM     63  C   UNL A   1      42.338  30.421  35.227  1.00  0.00     0.074 A 
ATOM     64  C   UNL A   1      42.638  30.937  36.547  1.00  0.00     0.031 C 
ATOM     65  C   UNL A   1      43.087  29.491  34.584  1.00  0.00     0.034 A 
BRANCH  52  66
ATOM     66  C   UNL A   1      40.749  27.706  29.146  1.00  0.00     0.023 A 
ATOM     67  C   UNL A   1      39.932  26.557  29.100  1.00  0.00     0.012 A 
ATOM     68  C   UNL A   1      41.607  27.985  28.065  1.00  0.00     0.148 A 
ATOM     69  C   UNL A   1      40.007  25.674  28.025  1.00  0.00     0.002 A 
ATOM     70  C   UNL A   1      41.638  27.125  26.973  1.00  0.00     0.091 A 
ATOM     71  F   UNL A   1      42.394  29.069  28.132  1.00  0.00    -0.205 F 
ATOM     72  C   UNL A   1      40.851  25.962  26.957  1.00  0.00     0.022 A 
BRANCH  70  73
ATOM     73  S   UNL A   1      42.628  27.460  25.511  1.00  0.00     0.127 S 
ATOM     74  O   UNL A   1      43.977  27.508  26.072  1.00  0.00    -0.237 OA
ATOM     75  O   UNL A   1      42.356  26.287  24.677  1.00  0.00    -0.237 OA
ATOM     76  O   UNL A   1      42.126  28.715  24.969  1.00  0.00    -0.744 OA
ENDBRANCH  70  73
ENDBRANCH  52  66
BRANCH  53  77
ATOM     77  C   UNL A   1      39.472  33.683  37.049  1.00  0.00     0.023 A 
ATOM     78  C   UNL A   1      39.927  35.016  36.998  1.00  0.00     0.012 A 
ATOM     79  C   UNL A   1      38.817  33.227  38.210  1.00  0.00     0.148 A 
ATOM     80  C   UNL A   1      39.765  35.868  38.091  1.00  0.00     0.002 A 
ATOM     81  C   UNL A   1      38.612  34.097  39.275  1.00  0.00     0.091 A 
ATOM     82  F   UNL A   1      38.395  31.955  38.242  1.00  0.00    -0.205 F 
ATOM     83  C   UNL A   1      39.101  35.412  39.225  1.00  0.00     0.022 A 
BRANCH  81  84
ATOM     84  S   UNL A   1      37.656  33.641  40.727  1.00  0.00     0.127 S 
ATOM     85  O   UNL A   1      36.494  32.991  40.128  1.00  0.00    -0.237 OA
ATOM     86  O   UNL A   1      38.574  32.740  41.423  1.00  0.00    -0.237 OA
ATOM     87  O   UNL A   1      37.392  34.889  41.431  1.00  0.00    -0.744 OA
ENDBRANCH  81  84
ENDBRANCH  53  77
BRANCH  65  88
ATOM     88  C   UNL A   1      44.340  29.007  35.262  1.00  0.00     0.023 A 
ATOM     89  C   UNL A   1      45.570  29.640  35.001  1.00  0.00     0.012 A 
ATOM     90  C   UNL A   1      44.279  27.981  36.225  1.00  0.00     0.148 A 
ATOM     91  C   UNL A   1      46.727  29.242  35.670  1.00  0.00     0.002 A 
ATOM     92  C   UNL A   1      45.425  27.622  36.922  1.00  0.00     0.091 A 
ATOM     93  F   UNL A   1      43.102  27.375  36.443  1.00  0.00    -0.205 F 
ATOM     94  C   UNL A   1      46.651  28.244  36.639  1.00  0.00     0.022 A 
BRANCH  92  95
ATOM     95  S   UNL A   1      45.395  26.419  38.257  1.00  0.00     0.127 S 
ATOM     96  O   UNL A   1      46.777  26.465  38.730  1.00  0.00    -0.237 OA
ATOM     97  O   UNL A   1      44.414  26.996  39.177  1.00  0.00    -0.237 OA
ATOM     98  O   UNL A   1      44.981  25.161  37.648  1.00  0.00    -0.744 OA
ENDBRANCH  92  95
ENDBRANCH  65  88
ENDBRANCH  39  40
ENDBRANCH  31  34
ENDBRANCH  29  30
ENDBRANCH   1  29
TORSDOF 19
ENDMDL
MODEL 2
REMARK VINA RESULT:     -11.8      2.926      8.206
REMARK SMILES CCN(CC)c1ccc(NS(=O)(=O)c2ccc(Cl)s2)cc1C(=O)NCCCNC(=O)c1ccc(-c2c3nc(c(-c4cccc(S(=O)(=O)[O-])c4F)c4ccc([nH]4)c(-c4cccc(S(=O)(=O)[O-])c4F)c4nc(c(-c5cccc(S(=O)(=O)[O-])c5F)c5ccc2[nH]5)C=C4)C=C3)cc1
REMARK SMILES IDX 26 1 25 2 24 3 22 4 23 5 21 7 6 8 7 9 8 10 20 11 9 12 3 13
REMARK SMILES IDX 2 14 1 15 4 16 5 17 10 18 11 20 12 21 13 22 14 23 15 24
REMARK SMILES IDX 19 25 16 26 17 27 18 28 27 29 28 30 29 31 30 33 31 34 32 35
REMARK SMILES IDX 93 36 33 37 92 38 34 39 35 40 36 41 86 42 37 43 91 44 85 45
REMARK SMILES IDX 87 46 38 47 90 48 84 49 83 50 39 52 71 53 51 54 70 55 52 56
REMARK SMILES IDX 55 57 69 58 88 59 53 60 54 61 68 63 89 64 56 65 40 66 41 67
REMARK SMILES IDX 49 68 42 69 44 70 50 71 43 72 45 73 46 74 47 75 48 76 72 77
REMARK SMILES IDX 73 78 81 79 74 80 76 81 82 82 75 83 77 84 78 85 79 86 80 87
REMARK SMILES IDX 57 88 58 89 66 90 59 91 61 92 67 93 60 94 62 95 63 96 64 97
REMARK SMILES IDX 65 98
REMARK H PARENT 24 6 10 19 28 32 87 51 55 62
REMARK Flexibility Score: inf
ROOT
ATOM      1  C   UNL A   1      31.862  29.058  26.696  1.00  0.00     0.042 C 
ENDROOT
BRANCH   1   2
ATOM      2  C   UNL A   1      31.611  30.000  25.543  1.00  0.00     0.118 C 
BRANCH   2   3
ATOM      3  N   UNL A   1      32.329  29.753  24.320  1.00  0.00    -0.352 N 
ATOM      4  C   UNL A   1      31.872  29.041  23.232  1.00  0.00     0.253 C 
ATOM      5  O   UNL A   1      32.569  29.011  22.216  1.00  0.00    -0.269 OA
ATOM      6  H   UNL A   1      33.237  30.128  24.255  1.00  0.00     0.163 HD
BRANCH   4   7
ATOM      7  C   UNL A   1      30.637  28.194  23.289  1.00  0.00     0.065 A 
ATOM      8  C   UNL A   1      29.293  28.622  23.144  1.00  0.00     0.050 A 
ATOM      9  C   UNL A   1      28.320  27.672  23.447  1.00  0.00     0.029 A 
ATOM     10  C   UNL A   1      28.632  26.395  23.881  1.00  0.00     0.029 A 
ATOM     11  C   UNL A   1      30.930  26.825  23.582  1.00  0.00     0.042 A 
ATOM     12  C   UNL A   1      29.918  25.905  23.834  1.00  0.00     0.050 A 
BRANCH   8  13
ATOM     13  N   UNL A   1      28.839  29.882  22.767  1.00  0.00    -0.371 N 
BRANCH  13  14
ATOM     14  C   UNL A   1      28.013  30.037  21.561  1.00  0.00     0.113 C 
ATOM     15  C   UNL A   1      28.444  31.182  20.661  1.00  0.00     0.027 C 
ENDBRANCH  13  14
BRANCH  13  16
ATOM     16  C   UNL A   1      28.787  30.972  23.780  1.00  0.00     0.113 C 
ATOM     17  C   UNL A   1      27.481  31.744  23.860  1.00  0.00     0.027 C 
ENDBRANCH  13  16
ENDBRANCH   8  13
BRANCH  12  18
ATOM     18  N   UNL A   1      30.213  24.561  24.254  1.00  0.00    -0.279 N 
ATOM     19  H   UNL A   1      29.968  23.796  23.684  1.00  0.00     0.180 HD
BRANCH  18  20
ATOM     20  S   UNL A   1      30.994  24.304  25.759  1.00  0.00     0.271 S 
ATOM     21  O   UNL A   1      30.735  25.452  26.599  1.00  0.00    -0.200 OA
ATOM     22  O   UNL A   1      30.621  22.971  26.188  1.00  0.00    -0.200 OA
BRANCH  20  23
ATOM     23  C   UNL A   1      32.764  24.200  25.513  1.00  0.00     0.141 A 
ATOM     24  C   UNL A   1      33.813  24.087  26.416  1.00  0.00     0.036 A 
ATOM     25  S   UNL A   1      33.328  24.049  23.892  1.00  0.00    -0.110 S 
ATOM     26  C   UNL A   1      35.021  23.653  25.783  1.00  0.00     0.034 A 
ATOM     27  C   UNL A   1      34.853  23.542  24.427  1.00  0.00     0.094 A 
ATOM     28  Cl  UNL A   1      35.991  22.926  23.299  1.00  0.00    -0.072 Cl
ENDBRANCH  20  23
ENDBRANCH  18  20
ENDBRANCH  12  18
ENDBRANCH   4   7
ENDBRANCH   2   3
ENDBRANCH   1   2
BRANCH   1  29
ATOM     29  C   UNL A   1      33.147  29.364  27.456  1.00  0.00     0.118 C 
BRANCH  29  30
ATOM     30  N   UNL A   1      33.344  30.771  27.827  1.00  0.00    -0.352 N 
ATOM     31  C   UNL A   1      34.451  31.505  28.196  1.00  0.00     0.251 C 
ATOM     32  H   UNL A   1      32.513  31.300  27.809  1.00  0.00     0.163 HD
ATOM     33  O   UNL A   1      34.316  32.695  28.476  1.00  0.00    -0.269 OA
BRANCH  31  34
ATOM     34  C   UNL A   1      35.783  30.869  28.328  1.00  0.00     0.039 A 
ATOM     35  C   UNL A   1      36.935  31.663  28.313  1.00  0.00     0.014 A 
ATOM     36  C   UNL A   1      35.904  29.502  28.527  1.00  0.00     0.014 A 
ATOM     37  C   UNL A   1      38.173  31.101  28.651  1.00  0.00     0.010 A 
ATOM     38  C   UNL A   1      37.085  28.988  29.038  1.00  0.00     0.010 A 
ATOM     39  C   UNL A   1      38.244  29.774  29.103  1.00  0.00    -0.014 A 
BRANCH  39  40
ATOM     40  C   UNL A   1      39.488  29.167  29.655  1.00  0.00     0.031 A 
ATOM     41  C   UNL A   1      40.162  29.794  30.853  1.00  0.00     0.074 A 
ATOM     42  C   UNL A   1      40.100  28.160  28.997  1.00  0.00     0.049 A 
ATOM     43  N   UNL A   1      41.345  29.554  31.357  1.00  0.00    -0.248 NA
ATOM     44  C   UNL A   1      39.440  30.885  31.532  1.00  0.00     0.031 C 
ATOM     45  C   UNL A   1      39.620  27.526  27.766  1.00  0.00     0.029 A 
ATOM     46  N   UNL A   1      41.284  27.512  29.255  1.00  0.00    -0.354 N 
ATOM     47  C   UNL A   1      41.540  30.517  32.341  1.00  0.00     0.074 A 
ATOM     48  C   UNL A   1      40.376  31.372  32.332  1.00  0.00     0.031 C 
ATOM     49  C   UNL A   1      40.480  26.564  27.397  1.00  0.00     0.029 A 
ATOM     50  C   UNL A   1      41.597  26.539  28.333  1.00  0.00     0.049 A 
ATOM     51  H   UNL A   1      41.855  27.725  30.029  1.00  0.00     0.167 HD
ATOM     52  C   UNL A   1      42.572  30.656  33.207  1.00  0.00     0.034 A 
ATOM     53  C   UNL A   1      42.664  25.719  28.251  1.00  0.00     0.034 A 
ATOM     54  C   UNL A   1      43.665  29.729  33.298  1.00  0.00     0.049 A 
ATOM     55  C   UNL A   1      43.736  25.809  29.303  1.00  0.00     0.074 A 
ATOM     56  C   UNL A   1      44.686  29.691  34.230  1.00  0.00     0.029 A 
ATOM     57  N   UNL A   1      43.868  28.664  32.435  1.00  0.00    -0.354 N 
ATOM     58  N   UNL A   1      43.822  26.626  30.324  1.00  0.00    -0.248 NA
ATOM     59  C   UNL A   1      44.837  24.839  29.215  1.00  0.00     0.031 C 
ATOM     60  C   UNL A   1      45.510  28.601  33.927  1.00  0.00     0.029 A 
ATOM     61  C   UNL A   1      44.994  27.955  32.816  1.00  0.00     0.049 A 
ATOM     62  H   UNL A   1      43.296  28.444  31.665  1.00  0.00     0.167 HD
ATOM     63  C   UNL A   1      44.959  26.241  31.026  1.00  0.00     0.074 A 
ATOM     64  C   UNL A   1      45.521  25.109  30.320  1.00  0.00     0.031 C 
ATOM     65  C   UNL A   1      45.497  26.785  32.145  1.00  0.00     0.034 A 
BRANCH  52  66
ATOM     66  C   UNL A   1      42.523  31.810  34.176  1.00  0.00     0.023 A 
ATOM     67  C   UNL A   1      43.016  33.073  33.786  1.00  0.00     0.012 A 
ATOM     68  C   UNL A   1      41.963  31.657  35.460  1.00  0.00     0.148 A 
ATOM     69  C   UNL A   1      43.002  34.148  34.673  1.00  0.00     0.002 A 
ATOM     70  C   UNL A   1      41.906  32.748  36.320  1.00  0.00     0.091 A 
ATOM     71  F   UNL A   1      41.518  30.445  35.825  1.00  0.00    -0.205 F 
ATOM     72  C   UNL A   1      42.438  33.989  35.935  1.00  0.00     0.022 A 
BRANCH  70  73
ATOM     73  S   UNL A   1      41.117  32.663  37.932  1.00  0.00     0.127 S 
ATOM     74  O   UNL A   1      41.144  34.064  38.348  1.00  0.00    -0.237 OA
ATOM     75  O   UNL A   1      39.786  32.152  37.599  1.00  0.00    -0.237 OA
ATOM     76  O   UNL A   1      41.931  31.753  38.726  1.00  0.00    -0.744 OA
ENDBRANCH  70  73
ENDBRANCH  52  66
BRANCH  53  77
ATOM     77  C   UNL A   1      42.713  24.663  27.199  1.00  0.00     0.023 A 
ATOM     78  C   UNL A   1      43.430  24.921  26.013  1.00  0.00     0.012 A 
ATOM     79  C   UNL A   1      42.097  23.408  27.367  1.00  0.00     0.148 A 
ATOM     80  C   UNL A   1      43.504  23.965  25.001  1.00  0.00     0.002 A 
ATOM     81  C   UNL A   1      42.219  22.440  26.376  1.00  0.00     0.091 A 
ATOM     82  F   UNL A   1      41.415  23.182  28.499  1.00  0.00    -0.205 F 
ATOM     83  C   UNL A   1      42.907  22.722  25.185  1.00  0.00     0.022 A 
BRANCH  81  84
ATOM     84  S   UNL A   1      41.594  20.767  26.576  1.00  0.00     0.127 S 
ATOM     85  O   UNL A   1      40.151  20.973  26.488  1.00  0.00    -0.237 OA
ATOM     86  O   UNL A   1      42.190  20.082  25.428  1.00  0.00    -0.237 OA
ATOM     87  O   UNL A   1      42.092  20.314  27.868  1.00  0.00    -0.744 OA
ENDBRANCH  81  84
ENDBRANCH  53  77
BRANCH  65  88
ATOM     88  C   UNL A   1      46.725  26.135  32.721  1.00  0.00     0.023 A 
ATOM     89  C   UNL A   1      48.002  26.609  32.368  1.00  0.00     0.012 A 
ATOM     90  C   UNL A   1      46.607  25.111  33.682  1.00  0.00     0.148 A 
ATOM     91  C   UNL A   1      49.147  26.057  32.942  1.00  0.00     0.002 A 
ATOM     92  C   UNL A   1      47.748  24.599  34.286  1.00  0.00     0.091 A 
ATOM     93  F   UNL A   1      45.382  24.658  33.989  1.00  0.00    -0.205 F 
ATOM     94  C   UNL A   1      49.018  25.062  33.910  1.00  0.00     0.022 A 
BRANCH  92  95
ATOM     95  S   UNL A   1      47.666  23.390  35.614  1.00  0.00     0.127 S 
ATOM     96  O   UNL A   1      47.069  22.242  34.934  1.00  0.00    -0.237 OA
ATOM     97  O   UNL A   1      49.075  23.223  35.972  1.00  0.00    -0.237 OA
ATOM     98  O   UNL A   1      46.849  23.999  36.655  1.00  0.00    -0.744 OA
ENDBRANCH  92  95
ENDBRANCH  65  88
ENDBRANCH  39  40
ENDBRANCH  31  34
ENDBRANCH  29  30
ENDBRANCH   1  29
TORSDOF 19
ENDMDL
MODEL 3
REMARK VINA RESULT:     -11.8      5.964      9.200
REMARK SMILES CCN(CC)c1ccc(NS(=O)(=O)c2ccc(Cl)s2)cc1C(=O)NCCCNC(=O)c1ccc(-c2c3nc(c(-c4cccc(S(=O)(=O)[O-])c4F)c4ccc([nH]4)c(-c4cccc(S(=O)(=O)[O-])c4F)c4nc(c(-c5cccc(S(=O)(=O)[O-])c5F)c5ccc2[nH]5)C=C4)C=C3)cc1
REMARK SMILES IDX 26 1 25 2 24 3 22 4 23 5 21 7 6 8 7 9 8 10 20 11 9 12 3 13
REMARK SMILES IDX 2 14 1 15 4 16 5 17 10 18 11 20 12 21 13 22 14 23 15 24
REMARK SMILES IDX 19 25 16 26 17 27 18 28 27 29 28 30 29 31 30 33 31 34 32 35
REMARK SMILES IDX 93 36 33 37 92 38 34 39 35 40 36 41 86 42 37 43 91 44 85 45
REMARK SMILES IDX 87 46 38 47 90 48 84 49 83 50 39 52 71 53 51 54 70 55 52 56
REMARK SMILES IDX 55 57 69 58 88 59 53 60 54 61 68 63 89 64 56 65 40 66 41 67
REMARK SMILES IDX 49 68 42 69 44 70 50 71 43 72 45 73 46 74 47 75 48 76 72 77
REMARK SMILES IDX 73 78 81 79 74 80 76 81 82 82 75 83 77 84 78 85 79 86 80 87
REMARK SMILES IDX 57 88 58 89 66 90 59 91 61 92 67 93 60 94 62 95 63 96 64 97
REMARK SMILES IDX 65 98
REMARK H PARENT 24 6 10 19 28 32 87 51 55 62
REMARK Flexibility Score: inf
ROOT
ATOM      1  C   UNL A   1      36.482  21.065  25.713  1.00  0.00     0.042 C 
ENDROOT
BRANCH   1   2
ATOM      2  C   UNL A   1      35.628  22.309  25.780  1.00  0.00     0.118 C 
BRANCH   2   3
ATOM      3  N   UNL A   1      34.576  22.336  26.763  1.00  0.00    -0.352 N 
ATOM      4  C   UNL A   1      33.263  21.965  26.566  1.00  0.00     0.253 C 
ATOM      5  O   UNL A   1      32.509  21.943  27.539  1.00  0.00    -0.269 OA
ATOM      6  H   UNL A   1      34.818  22.651  27.663  1.00  0.00     0.163 HD
BRANCH   4   7
ATOM      7  C   UNL A   1      32.693  21.727  25.201  1.00  0.00     0.065 A 
ATOM      8  C   UNL A   1      32.758  20.534  24.437  1.00  0.00     0.050 A 
ATOM      9  C   UNL A   1      32.332  20.637  23.115  1.00  0.00     0.029 A 
ATOM     10  C   UNL A   1      31.889  21.829  22.565  1.00  0.00     0.029 A 
ATOM     11  C   UNL A   1      32.083  22.899  24.655  1.00  0.00     0.042 A 
ATOM     12  C   UNL A   1      31.632  22.937  23.339  1.00  0.00     0.050 A 
BRANCH   8  13
ATOM     13  N   UNL A   1      33.225  19.288  24.847  1.00  0.00    -0.371 N 
BRANCH  13  14
ATOM     14  C   UNL A   1      32.546  18.569  25.934  1.00  0.00     0.113 C 
ATOM     15  C   UNL A   1      32.524  17.060  25.757  1.00  0.00     0.027 C 
ENDBRANCH  13  14
BRANCH  13  16
ATOM     16  C   UNL A   1      34.081  18.492  23.927  1.00  0.00     0.113 C 
ATOM     17  C   UNL A   1      35.155  17.642  24.585  1.00  0.00     0.027 C 
ENDBRANCH  13  16
ENDBRANCH   8  13
BRANCH  12  18
ATOM     18  N   UNL A   1      31.136  24.152  22.751  1.00  0.00    -0.279 N 
ATOM     19  H   UNL A   1      30.202  24.212  22.446  1.00  0.00     0.180 HD
BRANCH  18  20
ATOM     20  S   UNL A   1      32.189  25.496  22.584  1.00  0.00     0.271 S 
ATOM     21  O   UNL A   1      33.449  25.014  22.063  1.00  0.00    -0.200 OA
ATOM     22  O   UNL A   1      31.436  26.517  21.882  1.00  0.00    -0.200 OA
BRANCH  20  23
ATOM     23  C   UNL A   1      32.507  26.220  24.190  1.00  0.00     0.141 A 
ATOM     24  C   UNL A   1      33.668  26.306  24.946  1.00  0.00     0.036 A 
ATOM     25  S   UNL A   1      31.231  27.122  24.915  1.00  0.00    -0.110 S 
ATOM     26  C   UNL A   1      33.563  27.290  25.979  1.00  0.00     0.034 A 
ATOM     27  C   UNL A   1      32.306  27.837  26.012  1.00  0.00     0.094 A 
ATOM     28  Cl  UNL A   1      31.779  29.141  26.995  1.00  0.00    -0.072 Cl
ENDBRANCH  20  23
ENDBRANCH  18  20
ENDBRANCH  12  18
ENDBRANCH   4   7
ENDBRANCH   2   3
ENDBRANCH   1   2
BRANCH   1  29
ATOM     29  C   UNL A   1      37.784  21.267  24.948  1.00  0.00     0.118 C 
BRANCH  29  30
ATOM     30  N   UNL A   1      38.923  20.467  25.414  1.00  0.00    -0.352 N 
ATOM     31  C   UNL A   1      39.997  20.739  26.234  1.00  0.00     0.251 C 
ATOM     32  H   UNL A   1      38.920  19.545  25.069  1.00  0.00     0.163 HD
ATOM     33  O   UNL A   1      40.831  19.859  26.443  1.00  0.00    -0.269 OA
BRANCH  31  34
ATOM     34  C   UNL A   1      40.200  22.089  26.809  1.00  0.00     0.039 A 
ATOM     35  C   UNL A   1      41.122  22.272  27.845  1.00  0.00     0.014 A 
ATOM     36  C   UNL A   1      39.532  23.191  26.294  1.00  0.00     0.014 A 
ATOM     37  C   UNL A   1      41.476  23.567  28.243  1.00  0.00     0.010 A 
ATOM     38  C   UNL A   1      40.012  24.465  26.556  1.00  0.00     0.010 A 
ATOM     39  C   UNL A   1      40.987  24.679  27.539  1.00  0.00    -0.014 A 
BRANCH  39  40
ATOM     40  C   UNL A   1      41.461  26.071  27.783  1.00  0.00     0.031 A 
ATOM     41  C   UNL A   1      42.871  26.461  27.405  1.00  0.00     0.074 A 
ATOM     42  C   UNL A   1      40.696  26.935  28.482  1.00  0.00     0.049 A 
ATOM     43  N   UNL A   1      43.542  27.540  27.713  1.00  0.00    -0.248 NA
ATOM     44  C   UNL A   1      43.655  25.476  26.637  1.00  0.00     0.031 C 
ATOM     45  C   UNL A   1      39.355  26.659  29.005  1.00  0.00     0.029 A 
ATOM     46  N   UNL A   1      40.952  28.217  28.904  1.00  0.00    -0.354 N 
ATOM     47  C   UNL A   1      44.839  27.322  27.260  1.00  0.00     0.074 A 
ATOM     48  C   UNL A   1      44.873  25.991  26.698  1.00  0.00     0.031 C 
ATOM     49  C   UNL A   1      38.896  27.745  29.647  1.00  0.00     0.029 A 
ATOM     50  C   UNL A   1      39.922  28.781  29.624  1.00  0.00     0.049 A 
ATOM     51  H   UNL A   1      41.794  28.688  28.710  1.00  0.00     0.167 HD
ATOM     52  C   UNL A   1      45.900  28.164  27.269  1.00  0.00     0.034 A 
ATOM     53  C   UNL A   1      39.817  29.994  30.202  1.00  0.00     0.034 A 
ATOM     54  C   UNL A   1      45.829  29.529  27.711  1.00  0.00     0.049 A 
ATOM     55  C   UNL A   1      40.965  30.960  30.084  1.00  0.00     0.074 A 
ATOM     56  C   UNL A   1      46.798  30.512  27.630  1.00  0.00     0.029 A 
ATOM     57  N   UNL A   1      44.716  30.108  28.301  1.00  0.00    -0.354 N 
ATOM     58  N   UNL A   1      42.131  30.789  29.509  1.00  0.00    -0.248 NA
ATOM     59  C   UNL A   1      40.770  32.298  30.660  1.00  0.00     0.031 C 
ATOM     60  C   UNL A   1      46.271  31.688  28.175  1.00  0.00     0.029 A 
ATOM     61  C   UNL A   1      44.971  31.439  28.583  1.00  0.00     0.049 A 
ATOM     62  H   UNL A   1      43.871  29.642  28.491  1.00  0.00     0.167 HD
ATOM     63  C   UNL A   1      42.789  32.008  29.612  1.00  0.00     0.074 A 
ATOM     64  C   UNL A   1      41.887  32.913  30.294  1.00  0.00     0.031 C 
ATOM     65  C   UNL A   1      44.034  32.345  29.193  1.00  0.00     0.034 A 
BRANCH  52  66
ATOM     66  C   UNL A   1      47.205  27.655  26.710  1.00  0.00     0.023 A 
ATOM     67  C   UNL A   1      48.190  27.151  27.584  1.00  0.00     0.012 A 
ATOM     68  C   UNL A   1      47.445  27.644  25.322  1.00  0.00     0.148 A 
ATOM     69  C   UNL A   1      49.412  26.695  27.092  1.00  0.00     0.002 A 
ATOM     70  C   UNL A   1      48.646  27.141  24.836  1.00  0.00     0.091 A 
ATOM     71  F   UNL A   1      46.508  28.147  24.505  1.00  0.00    -0.205 F 
ATOM     72  C   UNL A   1      49.636  26.680  25.719  1.00  0.00     0.022 A 
BRANCH  70  73
ATOM     73  S   UNL A   1      48.990  26.998  23.078  1.00  0.00     0.127 S 
ATOM     74  O   UNL A   1      50.447  26.880  23.071  1.00  0.00    -0.237 OA
ATOM     75  O   UNL A   1      48.278  25.769  22.722  1.00  0.00    -0.237 OA
ATOM     76  O   UNL A   1      48.452  28.206  22.468  1.00  0.00    -0.744 OA
ENDBRANCH  70  73
ENDBRANCH  52  66
BRANCH  53  77
ATOM     77  C   UNL A   1      38.535  30.406  30.842  1.00  0.00     0.023 A 
ATOM     78  C   UNL A   1      38.331  30.108  32.205  1.00  0.00     0.012 A 
ATOM     79  C   UNL A   1      37.539  31.112  30.139  1.00  0.00     0.148 A 
ATOM     80  C   UNL A   1      37.148  30.473  32.846  1.00  0.00     0.002 A 
ATOM     81  C   UNL A   1      36.384  31.519  30.798  1.00  0.00     0.091 A 
ATOM     82  F   UNL A   1      37.748  31.382  28.842  1.00  0.00    -0.205 F 
ATOM     83  C   UNL A   1      36.179  31.186  32.147  1.00  0.00     0.022 A 
BRANCH  81  84
ATOM     84  S   UNL A   1      35.137  32.551  30.017  1.00  0.00     0.127 S 
ATOM     85  O   UNL A   1      35.920  33.717  29.618  1.00  0.00    -0.237 OA
ATOM     86  O   UNL A   1      34.690  31.701  28.913  1.00  0.00    -0.237 OA
ATOM     87  O   UNL A   1      34.126  32.786  31.040  1.00  0.00    -0.744 OA
ENDBRANCH  81  84
ENDBRANCH  53  77
BRANCH  65  88
ATOM     88  C   UNL A   1      44.484  33.765  29.401  1.00  0.00     0.023 A 
ATOM     89  C   UNL A   1      45.050  34.151  30.631  1.00  0.00     0.012 A 
ATOM     90  C   UNL A   1      44.427  34.694  28.344  1.00  0.00     0.148 A 
ATOM     91  C   UNL A   1      45.528  35.448  30.816  1.00  0.00     0.002 A 
ATOM     92  C   UNL A   1      44.950  35.969  28.518  1.00  0.00     0.091 A 
ATOM     93  F   UNL A   1      43.865  34.314  27.186  1.00  0.00    -0.205 F 
ATOM     94  C   UNL A   1      45.490  36.351  29.756  1.00  0.00     0.022 A 
BRANCH  92  95
ATOM     95  S   UNL A   1      45.034  37.160  27.174  1.00  0.00     0.127 S 
ATOM     96  O   UNL A   1      45.747  36.402  26.149  1.00  0.00    -0.237 OA
ATOM     97  O   UNL A   1      43.621  37.403  26.882  1.00  0.00    -0.237 OA
ATOM     98  O   UNL A   1      45.744  38.314  27.710  1.00  0.00    -0.744 OA
ENDBRANCH  92  95
ENDBRANCH  65  88
ENDBRANCH  39  40
ENDBRANCH  31  34
ENDBRANCH  29  30
ENDBRANCH   1  29
TORSDOF 19
ENDMDL
