MODEL 1
REMARK VINA RESULT:     -12.1      0.000      0.000
REMARK SMILES O=C(NCCCNC(=O)c1cncc(C(=O)c2ccsc2)c1)c1ccc(-c2c3nc(c(-c4cccc(S(=O)(=O)[O-])c4F)c4ccc([nH]4)c(-c4cccc(S(=O)(=O)[O-])c4F)c4nc(c(-c5cccc(S(=O)(=O)[O-])c5F)c5ccc2[nH]5)C=C4)C=C3)cc1
REMARK SMILES IDX 4 1 3 2 1 3 2 4 23 6 24 7 85 8 25 9 84 10 26 11 27 12 28 13
REMARK SMILES IDX 78 14 29 15 83 16 77 17 79 18 30 19 82 20 76 21 75 22 31 24
REMARK SMILES IDX 63 25 43 26 62 27 44 28 47 29 61 30 80 31 45 32 46 33 60 35
REMARK SMILES IDX 81 36 48 37 32 38 33 39 41 40 34 41 36 42 42 43 35 44 37 45
REMARK SMILES IDX 38 46 39 47 40 48 64 49 65 50 73 51 66 52 68 53 74 54 67 55
REMARK SMILES IDX 69 56 70 57 71 58 72 59 49 60 50 61 58 62 51 63 53 64 59 65
REMARK SMILES IDX 52 66 54 67 55 68 56 69 57 70 5 71 6 72 7 73 8 74 9 76 10 77
REMARK SMILES IDX 11 78 22 79 12 80 14 81 13 82 15 83 16 84 17 85 18 86 21 87
REMARK SMILES IDX 19 88 20 89
REMARK H PARENT 3 5 79 23 47 34 7 75
REMARK Flexibility Score: inf
ROOT
ATOM      1  C   UNL A   1      32.871  32.043  27.262  1.00  0.00     0.118 C 
ENDROOT
BRANCH   1   2
ATOM      2  N   UNL A   1      32.691  33.456  27.563  1.00  0.00    -0.352 N 
ATOM      3  O   UNL A   1      32.832  35.344  28.768  1.00  0.00    -0.269 OA
ATOM      4  C   UNL A   1      33.294  34.235  28.520  1.00  0.00     0.251 C 
ATOM      5  H   UNL A   1      32.036  33.924  26.995  1.00  0.00     0.163 HD
BRANCH   4   6
ATOM      6  C   UNL A   1      34.480  33.733  29.249  1.00  0.00     0.039 A 
ATOM      7  C   UNL A   1      34.335  32.841  30.314  1.00  0.00     0.014 A 
ATOM      8  C   UNL A   1      35.757  34.119  28.832  1.00  0.00     0.014 A 
ATOM      9  C   UNL A   1      35.444  32.447  31.050  1.00  0.00     0.010 A 
ATOM     10  C   UNL A   1      36.883  33.640  29.509  1.00  0.00     0.010 A 
ATOM     11  C   UNL A   1      36.732  32.812  30.632  1.00  0.00    -0.014 A 
BRANCH  11  12
ATOM     12  C   UNL A   1      37.905  32.190  31.295  1.00  0.00     0.031 A 
ATOM     13  C   UNL A   1      38.661  31.059  30.663  1.00  0.00     0.074 A 
ATOM     14  C   UNL A   1      38.258  32.655  32.511  1.00  0.00     0.049 A 
ATOM     15  N   UNL A   1      39.700  30.414  31.126  1.00  0.00    -0.248 NA
ATOM     16  C   UNL A   1      38.195  30.581  29.351  1.00  0.00     0.031 C 
ATOM     17  C   UNL A   1      37.552  33.713  33.244  1.00  0.00     0.029 A 
ATOM     18  N   UNL A   1      39.275  32.294  33.355  1.00  0.00    -0.354 N 
ATOM     19  C   UNL A   1      39.986  29.426  30.192  1.00  0.00     0.074 A 
ATOM     20  C   UNL A   1      39.017  29.561  29.126  1.00  0.00     0.031 C 
ATOM     21  C   UNL A   1      38.159  33.918  34.419  1.00  0.00     0.029 A 
ATOM     22  C   UNL A   1      39.258  32.970  34.553  1.00  0.00     0.049 A 
ATOM     23  H   UNL A   1      39.952  31.616  33.127  1.00  0.00     0.167 HD
ATOM     24  C   UNL A   1      40.975  28.502  30.224  1.00  0.00     0.034 A 
ATOM     25  C   UNL A   1      40.015  32.823  35.655  1.00  0.00     0.034 A 
ATOM     26  C   UNL A   1      41.962  28.410  31.268  1.00  0.00     0.049 A 
ATOM     27  C   UNL A   1      41.110  31.797  35.645  1.00  0.00     0.074 A 
ATOM     28  C   UNL A   1      43.075  27.591  31.325  1.00  0.00     0.029 A 
ATOM     29  N   UNL A   1      41.942  29.141  32.445  1.00  0.00    -0.354 N 
ATOM     30  N   UNL A   1      41.480  31.001  34.673  1.00  0.00    -0.248 NA
ATOM     31  C   UNL A   1      41.903  31.661  36.874  1.00  0.00     0.031 C 
ATOM     32  C   UNL A   1      43.711  27.803  32.552  1.00  0.00     0.029 A 
ATOM     33  C   UNL A   1      43.003  28.767  33.252  1.00  0.00     0.049 A 
ATOM     34  H   UNL A   1      41.272  29.826  32.674  1.00  0.00     0.167 HD
ATOM     35  C   UNL A   1      42.555  30.273  35.167  1.00  0.00     0.074 A 
ATOM     36  C   UNL A   1      42.801  30.754  36.512  1.00  0.00     0.031 C 
ATOM     37  C   UNL A   1      43.256  29.279  34.573  1.00  0.00     0.034 A 
BRANCH  24  38
ATOM     38  C   UNL A   1      41.080  27.524  29.084  1.00  0.00     0.023 A 
ATOM     39  C   UNL A   1      40.241  26.394  29.056  1.00  0.00     0.012 A 
ATOM     40  C   UNL A   1      41.919  27.794  27.983  1.00  0.00     0.148 A 
ATOM     41  C   UNL A   1      40.238  25.541  27.954  1.00  0.00     0.002 A 
ATOM     42  C   UNL A   1      41.886  26.958  26.873  1.00  0.00     0.091 A 
ATOM     43  F   UNL A   1      42.722  28.865  28.041  1.00  0.00    -0.205 F 
ATOM     44  C   UNL A   1      41.051  25.829  26.859  1.00  0.00     0.022 A 
BRANCH  42  45
ATOM     45  S   UNL A   1      42.839  27.280  25.385  1.00  0.00     0.127 S 
ATOM     46  O   UNL A   1      44.175  27.505  25.935  1.00  0.00    -0.237 OA
ATOM     47  O   UNL A   1      42.689  26.026  24.647  1.00  0.00    -0.237 OA
ATOM     48  O   UNL A   1      42.223  28.438  24.754  1.00  0.00    -0.744 OA
ENDBRANCH  42  45
ENDBRANCH  24  38
BRANCH  25  49
ATOM     49  C   UNL A   1      39.758  33.674  36.850  1.00  0.00     0.023 A 
ATOM     50  C   UNL A   1      40.169  35.019  36.849  1.00  0.00     0.012 A 
ATOM     51  C   UNL A   1      39.070  33.166  37.969  1.00  0.00     0.148 A 
ATOM     52  C   UNL A   1      39.920  35.837  37.952  1.00  0.00     0.002 A 
ATOM     53  C   UNL A   1      38.772  34.002  39.038  1.00  0.00     0.091 A 
ATOM     54  F   UNL A   1      38.706  31.875  37.965  1.00  0.00    -0.205 F 
ATOM     55  C   UNL A   1      39.211  35.333  39.040  1.00  0.00     0.022 A 
BRANCH  53  56
ATOM     56  S   UNL A   1      37.729  33.456  40.395  1.00  0.00     0.127 S 
ATOM     57  O   UNL A   1      36.521  33.031  39.693  1.00  0.00    -0.237 OA
ATOM     58  O   UNL A   1      38.518  32.369  40.977  1.00  0.00    -0.237 OA
ATOM     59  O   UNL A   1      37.595  34.620  41.261  1.00  0.00    -0.744 OA
ENDBRANCH  53  56
ENDBRANCH  25  49
BRANCH  37  60
ATOM     60  C   UNL A   1      44.353  28.635  35.374  1.00  0.00     0.023 A 
ATOM     61  C   UNL A   1      45.675  29.100  35.231  1.00  0.00     0.012 A 
ATOM     62  C   UNL A   1      44.070  27.625  36.312  1.00  0.00     0.148 A 
ATOM     63  C   UNL A   1      46.705  28.551  35.992  1.00  0.00     0.002 A 
ATOM     64  C   UNL A   1      45.094  27.113  37.100  1.00  0.00     0.091 A 
ATOM     65  F   UNL A   1      42.807  27.186  36.419  1.00  0.00    -0.205 F 
ATOM     66  C   UNL A   1      46.413  27.567  36.932  1.00  0.00     0.022 A 
BRANCH  64  67
ATOM     67  S   UNL A   1      44.802  25.907  38.398  1.00  0.00     0.127 S 
ATOM     68  O   UNL A   1      43.856  26.617  39.256  1.00  0.00    -0.237 OA
ATOM     69  O   UNL A   1      44.229  24.784  37.656  1.00  0.00    -0.237 OA
ATOM     70  O   UNL A   1      46.103  25.637  38.996  1.00  0.00    -0.744 OA
ENDBRANCH  64  67
ENDBRANCH  37  60
ENDBRANCH  11  12
ENDBRANCH   4   6
ENDBRANCH   1   2
BRANCH   1  71
ATOM     71  C   UNL A   1      31.678  31.456  26.531  1.00  0.00     0.042 C 
BRANCH  71  72
ATOM     72  C   UNL A   1      31.791  29.959  26.297  1.00  0.00     0.118 C 
BRANCH  72  73
ATOM     73  N   UNL A   1      32.699  29.634  25.200  1.00  0.00    -0.352 N 
ATOM     74  C   UNL A   1      32.543  28.750  24.161  1.00  0.00     0.252 C 
ATOM     75  H   UNL A   1      33.553  30.124  25.205  1.00  0.00     0.163 HD
ATOM     76  O   UNL A   1      33.489  28.458  23.437  1.00  0.00    -0.269 OA
BRANCH  74  77
ATOM     77  C   UNL A   1      31.225  28.152  23.904  1.00  0.00     0.058 A 
ATOM     78  C   UNL A   1      30.993  26.823  24.205  1.00  0.00     0.124 A 
ATOM     79  C   UNL A   1      30.184  28.913  23.372  1.00  0.00     0.029 A 
ATOM     80  N   UNL A   1      29.775  26.242  24.076  1.00  0.00    -0.263 NA
ATOM     81  C   UNL A   1      28.905  28.370  23.286  1.00  0.00     0.042 A 
ATOM     82  C   UNL A   1      28.755  27.035  23.648  1.00  0.00     0.123 A 
BRANCH  81  83
ATOM     83  C   UNL A   1      27.700  29.181  22.963  1.00  0.00     0.195 C 
ATOM     84  O   UNL A   1      26.595  28.778  23.314  1.00  0.00    -0.289 OA
BRANCH  83  85
ATOM     85  C   UNL A   1      27.869  30.492  22.336  1.00  0.00     0.033 A 
ATOM     86  C   UNL A   1      27.981  31.766  22.991  1.00  0.00     0.024 A 
ATOM     87  C   UNL A   1      27.956  30.641  20.963  1.00  0.00     0.077 A 
ATOM     88  C   UNL A   1      28.072  32.813  22.100  1.00  0.00     0.065 A 
ATOM     89  S   UNL A   1      28.076  32.277  20.479  1.00  0.00    -0.152 S 
ENDBRANCH  83  85
ENDBRANCH  81  83
ENDBRANCH  74  77
ENDBRANCH  72  73
ENDBRANCH  71  72
ENDBRANCH   1  71
TORSDOF 15
ENDMDL
MODEL 2
REMARK VINA RESULT:     -11.9      6.811     11.663
REMARK SMILES O=C(NCCCNC(=O)c1cncc(C(=O)c2ccsc2)c1)c1ccc(-c2c3nc(c(-c4cccc(S(=O)(=O)[O-])c4F)c4ccc([nH]4)c(-c4cccc(S(=O)(=O)[O-])c4F)c4nc(c(-c5cccc(S(=O)(=O)[O-])c5F)c5ccc2[nH]5)C=C4)C=C3)cc1
REMARK SMILES IDX 4 1 3 2 1 3 2 4 23 6 24 7 85 8 25 9 84 10 26 11 27 12 28 13
REMARK SMILES IDX 78 14 29 15 83 16 77 17 79 18 30 19 82 20 76 21 75 22 31 24
REMARK SMILES IDX 63 25 43 26 62 27 44 28 47 29 61 30 80 31 45 32 46 33 60 35
REMARK SMILES IDX 81 36 48 37 32 38 33 39 41 40 34 41 36 42 42 43 35 44 37 45
REMARK SMILES IDX 38 46 39 47 40 48 64 49 65 50 73 51 66 52 68 53 74 54 67 55
REMARK SMILES IDX 69 56 70 57 71 58 72 59 49 60 50 61 58 62 51 63 53 64 59 65
REMARK SMILES IDX 52 66 54 67 55 68 56 69 57 70 5 71 6 72 7 73 8 74 9 76 10 77
REMARK SMILES IDX 11 78 22 79 12 80 14 81 13 82 15 83 16 84 17 85 18 86 21 87
REMARK SMILES IDX 19 88 20 89
REMARK H PARENT 3 5 79 23 47 34 7 75
REMARK Flexibility Score: inf
ROOT
ATOM      1  C   UNL A   1      38.551  20.421  25.655  1.00  0.00     0.118 C 
ENDROOT
BRANCH   1   2
ATOM      2  N   UNL A   1      39.609  19.442  25.858  1.00  0.00    -0.352 N 
ATOM      3  O   UNL A   1      41.715  18.680  26.009  1.00  0.00    -0.269 OA
ATOM      4  C   UNL A   1      40.947  19.633  26.105  1.00  0.00     0.251 C 
ATOM      5  H   UNL A   1      39.324  18.501  25.811  1.00  0.00     0.163 HD
BRANCH   4   6
ATOM      6  C   UNL A   1      41.453  20.975  26.468  1.00  0.00     0.039 A 
ATOM      7  C   UNL A   1      41.768  21.908  25.478  1.00  0.00     0.014 A 
ATOM      8  C   UNL A   1      41.568  21.324  27.817  1.00  0.00     0.014 A 
ATOM      9  C   UNL A   1      42.329  23.131  25.824  1.00  0.00     0.010 A 
ATOM     10  C   UNL A   1      42.035  22.594  28.168  1.00  0.00     0.010 A 
ATOM     11  C   UNL A   1      42.432  23.501  27.173  1.00  0.00    -0.014 A 
BRANCH  11  12
ATOM     12  C   UNL A   1      42.814  24.895  27.508  1.00  0.00     0.031 A 
ATOM     13  C   UNL A   1      41.835  25.859  28.111  1.00  0.00     0.074 A 
ATOM     14  C   UNL A   1      44.073  25.286  27.221  1.00  0.00     0.049 A 
ATOM     15  N   UNL A   1      42.024  27.107  28.450  1.00  0.00    -0.248 NA
ATOM     16  C   UNL A   1      40.470  25.370  28.361  1.00  0.00     0.031 C 
ATOM     17  C   UNL A   1      45.089  24.445  26.578  1.00  0.00     0.029 A 
ATOM     18  N   UNL A   1      44.710  26.484  27.411  1.00  0.00    -0.354 N 
ATOM     19  C   UNL A   1      40.798  27.570  28.909  1.00  0.00     0.074 A 
ATOM     20  C   UNL A   1      39.868  26.465  28.815  1.00  0.00     0.031 C 
ATOM     21  C   UNL A   1      46.218  25.148  26.432  1.00  0.00     0.029 A 
ATOM     22  C   UNL A   1      45.994  26.505  26.915  1.00  0.00     0.049 A 
ATOM     23  H   UNL A   1      44.291  27.255  27.858  1.00  0.00     0.167 HD
ATOM     24  C   UNL A   1      40.486  28.803  29.373  1.00  0.00     0.034 A 
ATOM     25  C   UNL A   1      46.883  27.511  26.822  1.00  0.00     0.034 A 
ATOM     26  C   UNL A   1      41.433  29.880  29.505  1.00  0.00     0.049 A 
ATOM     27  C   UNL A   1      46.504  28.858  27.361  1.00  0.00     0.074 A 
ATOM     28  C   UNL A   1      41.242  31.122  30.081  1.00  0.00     0.029 A 
ATOM     29  N   UNL A   1      42.736  29.852  29.035  1.00  0.00    -0.354 N 
ATOM     30  N   UNL A   1      45.399  29.221  27.963  1.00  0.00    -0.248 NA
ATOM     31  C   UNL A   1      47.500  29.930  27.226  1.00  0.00     0.031 C 
ATOM     32  C   UNL A   1      42.421  31.860  29.930  1.00  0.00     0.029 A 
ATOM     33  C   UNL A   1      43.351  31.069  29.276  1.00  0.00     0.049 A 
ATOM     34  H   UNL A   1      43.163  29.081  28.595  1.00  0.00     0.167 HD
ATOM     35  C   UNL A   1      45.566  30.561  28.287  1.00  0.00     0.074 A 
ATOM     36  C   UNL A   1      46.897  30.933  27.850  1.00  0.00     0.031 C 
ATOM     37  C   UNL A   1      44.688  31.414  28.868  1.00  0.00     0.034 A 
BRANCH  24  38
ATOM     38  C   UNL A   1      39.072  29.068  29.813  1.00  0.00     0.023 A 
ATOM     39  C   UNL A   1      38.675  28.733  31.122  1.00  0.00     0.012 A 
ATOM     40  C   UNL A   1      38.178  29.764  28.974  1.00  0.00     0.148 A 
ATOM     41  C   UNL A   1      37.408  29.078  31.589  1.00  0.00     0.002 A 
ATOM     42  C   UNL A   1      36.928  30.135  29.457  1.00  0.00     0.091 A 
ATOM     43  F   UNL A   1      38.571  30.056  27.726  1.00  0.00    -0.205 F 
ATOM     44  C   UNL A   1      36.540  29.788  30.762  1.00  0.00     0.022 A 
BRANCH  42  45
ATOM     45  S   UNL A   1      35.765  31.112  28.498  1.00  0.00     0.127 S 
ATOM     46  O   UNL A   1      34.795  31.502  29.521  1.00  0.00    -0.237 OA
ATOM     47  O   UNL A   1      36.609  32.204  28.012  1.00  0.00    -0.237 OA
ATOM     48  O   UNL A   1      35.254  30.228  27.461  1.00  0.00    -0.744 OA
ENDBRANCH  42  45
ENDBRANCH  24  38
BRANCH  25  49
ATOM     49  C   UNL A   1      48.212  27.269  26.196  1.00  0.00     0.023 A 
ATOM     50  C   UNL A   1      49.271  26.774  26.978  1.00  0.00     0.012 A 
ATOM     51  C   UNL A   1      48.417  27.486  24.820  1.00  0.00     0.148 A 
ATOM     52  C   UNL A   1      50.519  26.524  26.406  1.00  0.00     0.002 A 
ATOM     53  C   UNL A   1      49.643  27.177  24.244  1.00  0.00     0.091 A 
ATOM     54  F   UNL A   1      47.404  27.980  24.092  1.00  0.00    -0.205 F 
ATOM     55  C   UNL A   1      50.701  26.712  25.038  1.00  0.00     0.022 A 
BRANCH  53  56
ATOM     56  S   UNL A   1      49.891  27.248  22.466  1.00  0.00     0.127 S 
ATOM     57  O   UNL A   1      48.832  26.370  21.979  1.00  0.00    -0.237 OA
ATOM     58  O   UNL A   1      49.692  28.671  22.181  1.00  0.00    -0.237 OA
ATOM     59  O   UNL A   1      51.258  26.788  22.256  1.00  0.00    -0.744 OA
ENDBRANCH  53  56
ENDBRANCH  25  49
BRANCH  37  60
ATOM     60  C   UNL A   1      45.133  32.837  29.059  1.00  0.00     0.023 A 
ATOM     61  C   UNL A   1      45.794  33.199  30.249  1.00  0.00     0.012 A 
ATOM     62  C   UNL A   1      44.960  33.794  28.041  1.00  0.00     0.148 A 
ATOM     63  C   UNL A   1      46.255  34.500  30.435  1.00  0.00     0.002 A 
ATOM     64  C   UNL A   1      45.462  35.079  28.215  1.00  0.00     0.091 A 
ATOM     65  F   UNL A   1      44.312  33.432  26.924  1.00  0.00    -0.205 F 
ATOM     66  C   UNL A   1      46.099  35.435  29.415  1.00  0.00     0.022 A 
BRANCH  64  67
ATOM     67  S   UNL A   1      45.387  36.326  26.926  1.00  0.00     0.127 S 
ATOM     68  O   UNL A   1      43.946  36.496  26.758  1.00  0.00    -0.237 OA
ATOM     69  O   UNL A   1      46.068  37.460  27.552  1.00  0.00    -0.237 OA
ATOM     70  O   UNL A   1      46.085  35.761  25.779  1.00  0.00    -0.744 OA
ENDBRANCH  64  67
ENDBRANCH  37  60
ENDBRANCH  11  12
ENDBRANCH   4   6
ENDBRANCH   1   2
BRANCH   1  71
ATOM     71  C   UNL A   1      37.442  19.889  24.766  1.00  0.00     0.042 C 
BRANCH  71  72
ATOM     72  C   UNL A   1      36.090  20.523  25.045  1.00  0.00     0.118 C 
BRANCH  72  73
ATOM     73  N   UNL A   1      35.015  19.535  25.109  1.00  0.00    -0.352 N 
ATOM     74  C   UNL A   1      33.654  19.713  25.084  1.00  0.00     0.252 C 
ATOM     75  H   UNL A   1      35.311  18.599  25.181  1.00  0.00     0.163 HD
ATOM     76  O   UNL A   1      32.894  18.787  25.345  1.00  0.00    -0.269 OA
BRANCH  74  77
ATOM     77  C   UNL A   1      33.096  21.026  24.727  1.00  0.00     0.058 A 
ATOM     78  C   UNL A   1      32.666  21.271  23.435  1.00  0.00     0.124 A 
ATOM     79  C   UNL A   1      32.974  22.036  25.681  1.00  0.00     0.029 A 
ATOM     80  N   UNL A   1      32.061  22.428  23.070  1.00  0.00    -0.263 NA
ATOM     81  C   UNL A   1      32.299  23.211  25.360  1.00  0.00     0.042 A 
ATOM     82  C   UNL A   1      31.866  23.357  24.046  1.00  0.00     0.123 A 
BRANCH  81  83
ATOM     83  C   UNL A   1      31.913  24.228  26.375  1.00  0.00     0.195 C 
ATOM     84  O   UNL A   1      31.322  23.868  27.389  1.00  0.00    -0.289 OA
BRANCH  83  85
ATOM     85  C   UNL A   1      32.345  25.614  26.196  1.00  0.00     0.033 A 
ATOM     86  C   UNL A   1      33.645  26.080  25.801  1.00  0.00     0.024 A 
ATOM     87  C   UNL A   1      31.485  26.679  26.391  1.00  0.00     0.077 A 
ATOM     88  C   UNL A   1      33.734  27.455  25.785  1.00  0.00     0.065 A 
ATOM     89  S   UNL A   1      32.250  28.196  26.193  1.00  0.00    -0.152 S 
ENDBRANCH  83  85
ENDBRANCH  81  83
ENDBRANCH  74  77
ENDBRANCH  72  73
ENDBRANCH  71  72
ENDBRANCH   1  71
TORSDOF 15
ENDMDL
MODEL 3
REMARK VINA RESULT:     -11.9      1.782      2.258
REMARK SMILES O=C(NCCCNC(=O)c1cncc(C(=O)c2ccsc2)c1)c1ccc(-c2c3nc(c(-c4cccc(S(=O)(=O)[O-])c4F)c4ccc([nH]4)c(-c4cccc(S(=O)(=O)[O-])c4F)c4nc(c(-c5cccc(S(=O)(=O)[O-])c5F)c5ccc2[nH]5)C=C4)C=C3)cc1
REMARK SMILES IDX 4 1 3 2 1 3 2 4 23 6 24 7 85 8 25 9 84 10 26 11 27 12 28 13
REMARK SMILES IDX 78 14 29 15 83 16 77 17 79 18 30 19 82 20 76 21 75 22 31 24
REMARK SMILES IDX 63 25 43 26 62 27 44 28 47 29 61 30 80 31 45 32 46 33 60 35
REMARK SMILES IDX 81 36 48 37 32 38 33 39 41 40 34 41 36 42 42 43 35 44 37 45
REMARK SMILES IDX 38 46 39 47 40 48 64 49 65 50 73 51 66 52 68 53 74 54 67 55
REMARK SMILES IDX 69 56 70 57 71 58 72 59 49 60 50 61 58 62 51 63 53 64 59 65
REMARK SMILES IDX 52 66 54 67 55 68 56 69 57 70 5 71 6 72 7 73 8 74 9 76 10 77
REMARK SMILES IDX 11 78 22 79 12 80 14 81 13 82 15 83 16 84 17 85 18 86 21 87
REMARK SMILES IDX 19 88 20 89
REMARK H PARENT 3 5 79 23 47 34 7 75
REMARK Flexibility Score: inf
ROOT
ATOM      1  C   UNL A   1      32.098  31.296  27.198  1.00  0.00     0.118 C 
ENDROOT
BRANCH   1   2
ATOM      2  N   UNL A   1      32.319  32.735  27.157  1.00  0.00    -0.352 N 
ATOM      3  O   UNL A   1      33.195  34.707  27.771  1.00  0.00    -0.269 OA
ATOM      4  C   UNL A   1      33.320  33.487  27.721  1.00  0.00     0.251 C 
ATOM      5  H   UNL A   1      31.648  33.246  26.648  1.00  0.00     0.163 HD
BRANCH   4   6
ATOM      6  C   UNL A   1      34.525  32.829  28.272  1.00  0.00     0.039 A 
ATOM      7  C   UNL A   1      35.779  33.434  28.161  1.00  0.00     0.014 A 
ATOM      8  C   UNL A   1      34.396  31.615  28.952  1.00  0.00     0.014 A 
ATOM      9  C   UNL A   1      36.916  32.768  28.597  1.00  0.00     0.010 A 
ATOM     10  C   UNL A   1      35.528  30.992  29.484  1.00  0.00     0.010 A 
ATOM     11  C   UNL A   1      36.798  31.559  29.298  1.00  0.00    -0.014 A 
BRANCH  11  12
ATOM     12  C   UNL A   1      38.001  30.989  29.954  1.00  0.00     0.031 A 
ATOM     13  C   UNL A   1      38.865  29.970  29.271  1.00  0.00     0.074 A 
ATOM     14  C   UNL A   1      38.281  31.393  31.210  1.00  0.00     0.049 A 
ATOM     15  N   UNL A   1      39.941  29.380  29.721  1.00  0.00    -0.248 NA
ATOM     16  C   UNL A   1      38.475  29.550  27.915  1.00  0.00     0.031 C 
ATOM     17  C   UNL A   1      37.471  32.336  31.990  1.00  0.00     0.029 A 
ATOM     18  N   UNL A   1      39.303  31.057  32.059  1.00  0.00    -0.354 N 
ATOM     19  C   UNL A   1      40.333  28.488  28.732  1.00  0.00     0.074 A 
ATOM     20  C   UNL A   1      39.384  28.618  27.647  1.00  0.00     0.031 C 
ATOM     21  C   UNL A   1      38.028  32.506  33.196  1.00  0.00     0.029 A 
ATOM     22  C   UNL A   1      39.198  31.643  33.300  1.00  0.00     0.049 A 
ATOM     23  H   UNL A   1      40.039  30.454  31.807  1.00  0.00     0.167 HD
ATOM     24  C   UNL A   1      41.393  27.647  28.732  1.00  0.00     0.034 A 
ATOM     25  C   UNL A   1      39.936  31.480  34.413  1.00  0.00     0.034 A 
ATOM     26  C   UNL A   1      42.357  27.561  29.798  1.00  0.00     0.049 A 
ATOM     27  C   UNL A   1      41.112  30.550  34.367  1.00  0.00     0.074 A 
ATOM     28  C   UNL A   1      43.532  26.833  29.835  1.00  0.00     0.029 A 
ATOM     29  N   UNL A   1      42.245  28.203  31.021  1.00  0.00    -0.354 N 
ATOM     30  N   UNL A   1      41.572  29.857  33.356  1.00  0.00    -0.248 NA
ATOM     31  C   UNL A   1      41.881  30.392  35.609  1.00  0.00     0.031 C 
ATOM     32  C   UNL A   1      44.116  27.008  31.094  1.00  0.00     0.029 A 
ATOM     33  C   UNL A   1      43.312  27.860  31.834  1.00  0.00     0.049 A 
ATOM     34  H   UNL A   1      41.515  28.813  31.275  1.00  0.00     0.167 HD
ATOM     35  C   UNL A   1      42.690  29.186  33.833  1.00  0.00     0.074 A 
ATOM     36  C   UNL A   1      42.860  29.589  35.215  1.00  0.00     0.031 C 
ATOM     37  C   UNL A   1      43.488  28.296  33.195  1.00  0.00     0.034 A 
BRANCH  24  38
ATOM     38  C   UNL A   1      41.610  26.764  27.532  1.00  0.00     0.023 A 
ATOM     39  C   UNL A   1      42.279  27.274  26.404  1.00  0.00     0.012 A 
ATOM     40  C   UNL A   1      41.264  25.397  27.576  1.00  0.00     0.148 A 
ATOM     41  C   UNL A   1      42.595  26.441  25.331  1.00  0.00     0.002 A 
ATOM     42  C   UNL A   1      41.613  24.566  26.518  1.00  0.00     0.091 A 
ATOM     43  F   UNL A   1      40.611  24.939  28.653  1.00  0.00    -0.205 F 
ATOM     44  C   UNL A   1      42.273  25.087  25.393  1.00  0.00     0.022 A 
BRANCH  42  45
ATOM     45  S   UNL A   1      41.308  22.796  26.531  1.00  0.00     0.127 S 
ATOM     46  O   UNL A   1      42.100  22.353  25.384  1.00  0.00    -0.237 OA
ATOM     47  O   UNL A   1      41.847  22.401  27.832  1.00  0.00    -0.237 OA
ATOM     48  O   UNL A   1      39.868  22.633  26.391  1.00  0.00    -0.744 OA
ENDBRANCH  42  45
ENDBRANCH  24  38
BRANCH  25  49
ATOM     49  C   UNL A   1      39.578  32.220  35.654  1.00  0.00     0.023 A 
ATOM     50  C   UNL A   1      40.050  33.531  35.844  1.00  0.00     0.012 A 
ATOM     51  C   UNL A   1      38.736  31.645  36.626  1.00  0.00     0.148 A 
ATOM     52  C   UNL A   1      39.710  34.248  36.992  1.00  0.00     0.002 A 
ATOM     53  C   UNL A   1      38.351  32.386  37.736  1.00  0.00     0.091 A 
ATOM     54  F   UNL A   1      38.312  30.386  36.441  1.00  0.00    -0.205 F 
ATOM     55  C   UNL A   1      38.851  33.682  37.931  1.00  0.00     0.022 A 
BRANCH  53  56
ATOM     56  S   UNL A   1      37.126  31.772  38.898  1.00  0.00     0.127 S 
ATOM     57  O   UNL A   1      37.788  31.996  40.179  1.00  0.00    -0.237 OA
ATOM     58  O   UNL A   1      35.981  32.646  38.634  1.00  0.00    -0.237 OA
ATOM     59  O   UNL A   1      36.908  30.382  38.518  1.00  0.00    -0.744 OA
ENDBRANCH  53  56
ENDBRANCH  25  49
BRANCH  37  60
ATOM     60  C   UNL A   1      44.613  27.688  33.985  1.00  0.00     0.023 A 
ATOM     61  C   UNL A   1      45.860  28.342  34.023  1.00  0.00     0.012 A 
ATOM     62  C   UNL A   1      44.419  26.515  34.739  1.00  0.00     0.148 A 
ATOM     63  C   UNL A   1      46.907  27.824  34.781  1.00  0.00     0.002 A 
ATOM     64  C   UNL A   1      45.455  26.029  35.529  1.00  0.00     0.091 A 
ATOM     65  F   UNL A   1      43.230  25.901  34.673  1.00  0.00    -0.205 F 
ATOM     66  C   UNL A   1      46.702  26.676  35.542  1.00  0.00     0.022 A 
BRANCH  64  67
ATOM     67  S   UNL A   1      45.258  24.608  36.609  1.00  0.00     0.127 S 
ATOM     68  O   UNL A   1      44.292  25.108  37.585  1.00  0.00    -0.237 OA
ATOM     69  O   UNL A   1      44.734  23.593  35.695  1.00  0.00    -0.237 OA
ATOM     70  O   UNL A   1      46.584  24.319  37.138  1.00  0.00    -0.744 OA
ENDBRANCH  64  67
ENDBRANCH  37  60
ENDBRANCH  11  12
ENDBRANCH   4   6
ENDBRANCH   1   2
BRANCH   1  71
ATOM     71  C   UNL A   1      32.099  30.676  25.813  1.00  0.00     0.042 C 
BRANCH  71  72
ATOM     72  C   UNL A   1      33.033  29.485  25.686  1.00  0.00     0.118 C 
BRANCH  72  73
ATOM     73  N   UNL A   1      33.561  29.334  24.332  1.00  0.00    -0.352 N 
ATOM     74  C   UNL A   1      33.089  28.586  23.282  1.00  0.00     0.252 C 
ATOM     75  H   UNL A   1      34.380  29.846  24.143  1.00  0.00     0.163 HD
ATOM     76  O   UNL A   1      33.767  28.420  22.273  1.00  0.00    -0.269 OA
BRANCH  74  77
ATOM     77  C   UNL A   1      31.750  27.984  23.359  1.00  0.00     0.058 A 
ATOM     78  C   UNL A   1      31.587  26.718  23.890  1.00  0.00     0.124 A 
ATOM     79  C   UNL A   1      30.625  28.680  22.918  1.00  0.00     0.029 A 
ATOM     80  N   UNL A   1      30.369  26.149  24.071  1.00  0.00    -0.263 NA
ATOM     81  C   UNL A   1      29.355  28.156  23.147  1.00  0.00     0.042 A 
ATOM     82  C   UNL A   1      29.283  26.892  23.723  1.00  0.00     0.123 A 
BRANCH  81  83
ATOM     83  C   UNL A   1      28.106  28.935  22.932  1.00  0.00     0.195 C 
ATOM     84  O   UNL A   1      27.024  28.417  23.193  1.00  0.00    -0.289 OA
BRANCH  83  85
ATOM     85  C   UNL A   1      28.201  30.336  22.524  1.00  0.00     0.033 A 
ATOM     86  C   UNL A   1      28.441  31.477  23.364  1.00  0.00     0.024 A 
ATOM     87  C   UNL A   1      28.072  30.724  21.202  1.00  0.00     0.077 A 
ATOM     88  C   UNL A   1      28.411  32.665  22.666  1.00  0.00     0.065 A 
ATOM     89  S   UNL A   1      28.146  32.420  20.997  1.00  0.00    -0.152 S 
ENDBRANCH  83  85
ENDBRANCH  81  83
ENDBRANCH  74  77
ENDBRANCH  72  73
ENDBRANCH  71  72
ENDBRANCH   1  71
TORSDOF 15
ENDMDL
