MODEL 1
REMARK VINA RESULT:     -11.4      0.000      0.000
REMARK SMILES Cc1cc(SCC(=O)NCCCNC(=O)c2ccc(-c3c4nc(c(-c5cccc(S(=O)(=O)[O-])c5F)c5ccc([nH]5)c(-c5cccc(S(=O)(=O)[O-])c5F)c5nc(c(-c6cccc(S(=O)(=O)[O-])c6F)c6ccc3[nH]6)C=C5)C=C4)cc2)c2cc(I)ccc2n1
REMARK SMILES IDX 11 1 10 2 9 3 7 4 8 5 6 7 5 8 4 9 1 10 2 11 3 12 86 13 85 14
REMARK SMILES IDX 79 15 84 16 80 17 83 18 81 19 82 20 12 21 13 22 14 23 15 25
REMARK SMILES IDX 16 26 17 27 78 28 18 29 77 30 19 31 20 32 21 33 71 34 22 35
REMARK SMILES IDX 76 36 70 37 72 38 23 39 75 40 69 41 68 42 24 44 56 45 36 46
REMARK SMILES IDX 55 47 37 48 40 49 54 50 73 51 38 52 39 53 53 55 74 56 41 57
REMARK SMILES IDX 25 58 26 59 34 60 27 61 29 62 35 63 28 64 30 65 31 66 32 67
REMARK SMILES IDX 33 68 57 69 58 70 66 71 59 72 61 73 67 74 60 75 62 76 63 77
REMARK SMILES IDX 64 78 65 79 42 80 43 81 51 82 44 83 46 84 52 85 45 86 47 87
REMARK SMILES IDX 48 88 49 89 50 90
REMARK H PARENT 9 6 13 24 72 43 40 54
REMARK Flexibility Score: inf
ROOT
ATOM      1  C   UNL A   1      32.128  28.217  27.455  1.00  0.00     0.042 C 
ENDROOT
BRANCH   1   2
ATOM      2  C   UNL A   1      31.563  27.494  26.235  1.00  0.00     0.117 C 
BRANCH   2   3
ATOM      3  N   UNL A   1      30.895  26.256  26.596  1.00  0.00    -0.355 N 
ATOM      4  C   UNL A   1      31.340  24.971  26.535  1.00  0.00     0.230 C 
ATOM      5  O   UNL A   1      30.560  24.077  26.876  1.00  0.00    -0.274 OA
ATOM      6  H   UNL A   1      29.978  26.363  26.936  1.00  0.00     0.163 HD
BRANCH   4   7
ATOM      7  C   UNL A   1      32.773  24.647  26.159  1.00  0.00     0.174 C 
BRANCH   7   8
ATOM      8  S   UNL A   1      32.964  23.256  25.002  1.00  0.00    -0.115 SA
BRANCH   8   9
ATOM      9  C   UNL A   1      34.660  22.662  25.182  1.00  0.00     0.019 A 
ATOM     10  C   UNL A   1      38.126  23.907  26.033  1.00  0.00     0.067 C 
ATOM     11  C   UNL A   1      36.994  23.016  25.615  1.00  0.00     0.039 A 
ATOM     12  C   UNL A   1      35.714  23.527  25.476  1.00  0.00     0.039 A 
ATOM     13  N   UNL A   1      37.277  21.708  25.452  1.00  0.00    -0.253 NA
ATOM     14  C   UNL A   1      36.284  20.864  25.140  1.00  0.00     0.072 A 
ATOM     15  C   UNL A   1      34.941  21.274  24.992  1.00  0.00     0.015 A 
ATOM     16  C   UNL A   1      36.616  19.527  24.961  1.00  0.00     0.030 A 
ATOM     17  C   UNL A   1      33.976  20.279  24.664  1.00  0.00     0.026 A 
ATOM     18  C   UNL A   1      35.660  18.561  24.639  1.00  0.00     0.017 A 
ATOM     19  C   UNL A   1      34.337  18.943  24.494  1.00  0.00     0.014 A 
ATOM     20  I   UNL A   1      32.892  17.526  24.027  1.00  0.00    -0.044 I 
ENDBRANCH   8   9
ENDBRANCH   7   8
ENDBRANCH   4   7
ENDBRANCH   2   3
ENDBRANCH   1   2
BRANCH   1  21
ATOM     21  C   UNL A   1      33.531  28.783  27.255  1.00  0.00     0.118 C 
BRANCH  21  22
ATOM     22  N   UNL A   1      33.626  30.204  27.567  1.00  0.00    -0.352 N 
ATOM     23  C   UNL A   1      34.648  30.901  28.168  1.00  0.00     0.251 C 
ATOM     24  H   UNL A   1      32.844  30.743  27.311  1.00  0.00     0.163 HD
ATOM     25  O   UNL A   1      34.482  32.079  28.476  1.00  0.00    -0.269 OA
BRANCH  23  26
ATOM     26  C   UNL A   1      35.925  30.220  28.474  1.00  0.00     0.039 A 
ATOM     27  C   UNL A   1      36.090  29.520  29.672  1.00  0.00     0.014 A 
ATOM     28  C   UNL A   1      36.980  30.311  27.563  1.00  0.00     0.014 A 
ATOM     29  C   UNL A   1      37.355  29.067  30.036  1.00  0.00     0.010 A 
ATOM     30  C   UNL A   1      38.233  29.789  27.900  1.00  0.00     0.010 A 
ATOM     31  C   UNL A   1      38.444  29.213  29.162  1.00  0.00    -0.014 A 
BRANCH  31  32
ATOM     32  C   UNL A   1      39.798  28.780  29.593  1.00  0.00     0.031 A 
ATOM     33  C   UNL A   1      40.491  27.634  28.904  1.00  0.00     0.074 A 
ATOM     34  C   UNL A   1      40.423  29.444  30.584  1.00  0.00     0.049 A 
ATOM     35  N   UNL A   1      41.668  27.120  29.151  1.00  0.00    -0.248 NA
ATOM     36  C   UNL A   1      39.774  26.978  27.797  1.00  0.00     0.031 C 
ATOM     37  C   UNL A   1      39.855  30.567  31.333  1.00  0.00     0.029 A 
ATOM     38  N   UNL A   1      41.673  29.280  31.125  1.00  0.00    -0.354 N 
ATOM     39  C   UNL A   1      41.816  26.058  28.266  1.00  0.00     0.074 A 
ATOM     40  C   UNL A   1      40.609  25.999  27.472  1.00  0.00     0.031 C 
ATOM     41  C   UNL A   1      40.766  31.015  32.209  1.00  0.00     0.029 A 
ATOM     42  C   UNL A   1      41.964  30.185  32.118  1.00  0.00     0.049 A 
ATOM     43  H   UNL A   1      42.302  28.582  30.829  1.00  0.00     0.167 HD
ATOM     44  C   UNL A   1      42.869  25.221  28.116  1.00  0.00     0.034 A 
ATOM     45  C   UNL A   1      43.069  30.331  32.876  1.00  0.00     0.034 A 
ATOM     46  C   UNL A   1      44.095  25.316  28.859  1.00  0.00     0.049 A 
ATOM     47  C   UNL A   1      44.232  29.406  32.671  1.00  0.00     0.074 A 
ATOM     48  C   UNL A   1      45.228  24.528  28.749  1.00  0.00     0.029 A 
ATOM     49  N   UNL A   1      44.356  26.260  29.839  1.00  0.00    -0.354 N 
ATOM     50  N   UNL A   1      44.369  28.444  31.791  1.00  0.00    -0.248 NA
ATOM     51  C   UNL A   1      45.396  29.593  33.548  1.00  0.00     0.031 C 
ATOM     52  C   UNL A   1      46.178  25.002  29.659  1.00  0.00     0.029 A 
ATOM     53  C   UNL A   1      45.636  26.082  30.335  1.00  0.00     0.049 A 
ATOM     54  H   UNL A   1      43.725  26.955  30.138  1.00  0.00     0.167 HD
ATOM     55  C   UNL A   1      45.637  27.918  32.001  1.00  0.00     0.074 A 
ATOM     56  C   UNL A   1      46.237  28.679  33.077  1.00  0.00     0.031 C 
ATOM     57  C   UNL A   1      46.238  26.881  31.369  1.00  0.00     0.034 A 
BRANCH  44  58
ATOM     58  C   UNL A   1      42.776  24.152  27.063  1.00  0.00     0.023 A 
ATOM     59  C   UNL A   1      43.389  24.365  25.812  1.00  0.00     0.012 A 
ATOM     60  C   UNL A   1      42.177  22.909  27.342  1.00  0.00     0.148 A 
ATOM     61  C   UNL A   1      43.401  23.356  24.851  1.00  0.00     0.002 A 
ATOM     62  C   UNL A   1      42.216  21.899  26.388  1.00  0.00     0.091 A 
ATOM     63  F   UNL A   1      41.586  22.738  28.534  1.00  0.00    -0.205 F 
ATOM     64  C   UNL A   1      42.826  22.122  25.142  1.00  0.00     0.022 A 
BRANCH  62  65
ATOM     65  S   UNL A   1      41.550  20.256  26.681  1.00  0.00     0.127 S 
ATOM     66  O   UNL A   1      40.130  20.546  26.877  1.00  0.00    -0.237 OA
ATOM     67  O   UNL A   1      41.865  19.567  25.429  1.00  0.00    -0.237 OA
ATOM     68  O   UNL A   1      42.246  19.741  27.852  1.00  0.00    -0.744 OA
ENDBRANCH  62  65
ENDBRANCH  44  58
BRANCH  45  69
ATOM     69  C   UNL A   1      43.129  31.449  33.855  1.00  0.00     0.023 A 
ATOM     70  C   UNL A   1      43.604  32.704  33.432  1.00  0.00     0.012 A 
ATOM     71  C   UNL A   1      42.635  31.301  35.164  1.00  0.00     0.148 A 
ATOM     72  C   UNL A   1      43.587  33.796  34.300  1.00  0.00     0.002 A 
ATOM     73  C   UNL A   1      42.577  32.403  36.008  1.00  0.00     0.091 A 
ATOM     74  F   UNL A   1      42.197  30.092  35.543  1.00  0.00    -0.205 F 
ATOM     75  C   UNL A   1      43.062  33.649  35.582  1.00  0.00     0.022 A 
BRANCH  73  76
ATOM     76  S   UNL A   1      41.808  32.341  37.630  1.00  0.00     0.127 S 
ATOM     77  O   UNL A   1      42.021  33.702  38.115  1.00  0.00    -0.237 OA
ATOM     78  O   UNL A   1      40.421  32.016  37.292  1.00  0.00    -0.237 OA
ATOM     79  O   UNL A   1      42.511  31.295  38.361  1.00  0.00    -0.744 OA
ENDBRANCH  73  76
ENDBRANCH  45  69
BRANCH  57  80
ATOM     80  C   UNL A   1      47.623  26.497  31.808  1.00  0.00     0.023 A 
ATOM     81  C   UNL A   1      47.778  25.553  32.841  1.00  0.00     0.012 A 
ATOM     82  C   UNL A   1      48.756  26.974  31.122  1.00  0.00     0.148 A 
ATOM     83  C   UNL A   1      49.045  25.091  33.190  1.00  0.00     0.002 A 
ATOM     84  C   UNL A   1      50.014  26.488  31.456  1.00  0.00     0.091 A 
ATOM     85  F   UNL A   1      48.580  27.882  30.151  1.00  0.00    -0.205 F 
ATOM     86  C   UNL A   1      50.161  25.549  32.491  1.00  0.00     0.022 A 
BRANCH  84  87
ATOM     87  S   UNL A   1      51.502  26.963  30.568  1.00  0.00     0.127 S 
ATOM     88  O   UNL A   1      52.504  26.091  31.181  1.00  0.00    -0.237 OA
ATOM     89  O   UNL A   1      51.160  26.623  29.187  1.00  0.00    -0.237 OA
ATOM     90  O   UNL A   1      51.683  28.386  30.815  1.00  0.00    -0.744 OA
ENDBRANCH  84  87
ENDBRANCH  57  80
ENDBRANCH  31  32
ENDBRANCH  23  26
ENDBRANCH  21  22
ENDBRANCH   1  21
TORSDOF 15
ENDMDL
MODEL 2
REMARK VINA RESULT:     -11.4      1.268      7.758
REMARK SMILES Cc1cc(SCC(=O)NCCCNC(=O)c2ccc(-c3c4nc(c(-c5cccc(S(=O)(=O)[O-])c5F)c5ccc([nH]5)c(-c5cccc(S(=O)(=O)[O-])c5F)c5nc(c(-c6cccc(S(=O)(=O)[O-])c6F)c6ccc3[nH]6)C=C5)C=C4)cc2)c2cc(I)ccc2n1
REMARK SMILES IDX 11 1 10 2 9 3 7 4 8 5 6 7 5 8 4 9 1 10 2 11 3 12 86 13 85 14
REMARK SMILES IDX 79 15 84 16 80 17 83 18 81 19 82 20 12 21 13 22 14 23 15 25
REMARK SMILES IDX 16 26 17 27 78 28 18 29 77 30 19 31 20 32 21 33 71 34 22 35
REMARK SMILES IDX 76 36 70 37 72 38 23 39 75 40 69 41 68 42 24 44 56 45 36 46
REMARK SMILES IDX 55 47 37 48 40 49 54 50 73 51 38 52 39 53 53 55 74 56 41 57
REMARK SMILES IDX 25 58 26 59 34 60 27 61 29 62 35 63 28 64 30 65 31 66 32 67
REMARK SMILES IDX 33 68 57 69 58 70 66 71 59 72 61 73 67 74 60 75 62 76 63 77
REMARK SMILES IDX 64 78 65 79 42 80 43 81 51 82 44 83 46 84 52 85 45 86 47 87
REMARK SMILES IDX 48 88 49 89 50 90
REMARK H PARENT 9 6 13 24 72 43 40 54
REMARK Flexibility Score: inf
ROOT
ATOM      1  C   UNL A   1      32.213  28.240  27.547  1.00  0.00     0.042 C 
ENDROOT
BRANCH   1   2
ATOM      2  C   UNL A   1      31.612  27.441  26.394  1.00  0.00     0.117 C 
BRANCH   2   3
ATOM      3  N   UNL A   1      31.048  26.179  26.839  1.00  0.00    -0.355 N 
ATOM      4  C   UNL A   1      31.476  24.905  26.627  1.00  0.00     0.230 C 
ATOM      5  O   UNL A   1      30.796  23.986  27.094  1.00  0.00    -0.274 OA
ATOM      6  H   UNL A   1      30.228  26.258  27.378  1.00  0.00     0.163 HD
BRANCH   4   7
ATOM      7  C   UNL A   1      32.793  24.618  25.931  1.00  0.00     0.174 C 
BRANCH   7   8
ATOM      8  S   UNL A   1      32.920  22.962  25.190  1.00  0.00    -0.115 SA
BRANCH   8   9
ATOM      9  C   UNL A   1      34.656  22.473  25.309  1.00  0.00     0.019 A 
ATOM     10  C   UNL A   1      38.057  23.916  26.104  1.00  0.00     0.067 C 
ATOM     11  C   UNL A   1      36.973  22.965  25.691  1.00  0.00     0.039 A 
ATOM     12  C   UNL A   1      35.659  23.397  25.599  1.00  0.00     0.039 A 
ATOM     13  N   UNL A   1      37.334  21.683  25.484  1.00  0.00    -0.253 NA
ATOM     14  C   UNL A   1      36.389  20.785  25.175  1.00  0.00     0.072 A 
ATOM     15  C   UNL A   1      35.018  21.112  25.073  1.00  0.00     0.015 A 
ATOM     16  C   UNL A   1      36.799  19.477  24.949  1.00  0.00     0.030 A 
ATOM     17  C   UNL A   1      34.110  20.066  24.743  1.00  0.00     0.026 A 
ATOM     18  C   UNL A   1      35.899  18.460  24.627  1.00  0.00     0.017 A 
ATOM     19  C   UNL A   1      34.551  18.760  24.526  1.00  0.00     0.014 A 
ATOM     20  I   UNL A   1      33.186  17.266  24.058  1.00  0.00    -0.044 I 
ENDBRANCH   8   9
ENDBRANCH   7   8
ENDBRANCH   4   7
ENDBRANCH   2   3
ENDBRANCH   1   2
BRANCH   1  21
ATOM     21  C   UNL A   1      33.566  28.872  27.234  1.00  0.00     0.118 C 
BRANCH  21  22
ATOM     22  N   UNL A   1      33.648  30.274  27.625  1.00  0.00    -0.352 N 
ATOM     23  C   UNL A   1      34.677  30.955  28.232  1.00  0.00     0.251 C 
ATOM     24  H   UNL A   1      32.849  30.813  27.425  1.00  0.00     0.163 HD
ATOM     25  O   UNL A   1      34.501  32.110  28.612  1.00  0.00    -0.269 OA
BRANCH  23  26
ATOM     26  C   UNL A   1      35.974  30.282  28.458  1.00  0.00     0.039 A 
ATOM     27  C   UNL A   1      36.213  29.569  29.636  1.00  0.00     0.014 A 
ATOM     28  C   UNL A   1      36.976  30.392  27.489  1.00  0.00     0.014 A 
ATOM     29  C   UNL A   1      37.500  29.123  29.922  1.00  0.00     0.010 A 
ATOM     30  C   UNL A   1      38.250  29.877  27.748  1.00  0.00     0.010 A 
ATOM     31  C   UNL A   1      38.536  29.288  28.990  1.00  0.00    -0.014 A 
BRANCH  31  32
ATOM     32  C   UNL A   1      39.916  28.862  29.338  1.00  0.00     0.031 A 
ATOM     33  C   UNL A   1      40.670  29.541  30.452  1.00  0.00     0.074 A 
ATOM     34  C   UNL A   1      40.481  27.835  28.675  1.00  0.00     0.049 A 
ATOM     35  N   UNL A   1      41.880  29.303  30.887  1.00  0.00    -0.248 NA
ATOM     36  C   UNL A   1      39.981  30.627  31.169  1.00  0.00     0.031 C 
ATOM     37  C   UNL A   1      39.856  27.100  27.574  1.00  0.00     0.029 A 
ATOM     38  N   UNL A   1      41.699  27.225  28.835  1.00  0.00    -0.354 N 
ATOM     39  C   UNL A   1      42.114  30.232  31.894  1.00  0.00     0.074 A 
ATOM     40  C   UNL A   1      40.921  31.040  32.010  1.00  0.00     0.031 C 
ATOM     41  C   UNL A   1      40.678  26.115  27.182  1.00  0.00     0.029 A 
ATOM     42  C   UNL A   1      41.905  26.176  27.971  1.00  0.00     0.049 A 
ATOM     43  H   UNL A   1      42.362  27.510  29.505  1.00  0.00     0.167 HD
ATOM     44  C   UNL A   1      43.216  30.385  32.666  1.00  0.00     0.034 A 
ATOM     45  C   UNL A   1      42.964  25.355  27.822  1.00  0.00     0.034 A 
ATOM     46  C   UNL A   1      44.379  29.544  32.596  1.00  0.00     0.049 A 
ATOM     47  C   UNL A   1      44.162  25.530  28.708  1.00  0.00     0.074 A 
ATOM     48  C   UNL A   1      45.530  29.608  33.363  1.00  0.00     0.029 A 
ATOM     49  N   UNL A   1      44.537  28.481  31.723  1.00  0.00    -0.354 N 
ATOM     50  N   UNL A   1      44.339  26.382  29.689  1.00  0.00    -0.248 NA
ATOM     51  C   UNL A   1      45.299  24.627  28.479  1.00  0.00     0.031 C 
ATOM     52  C   UNL A   1      46.382  28.576  32.957  1.00  0.00     0.029 A 
ATOM     53  C   UNL A   1      45.762  27.873  31.938  1.00  0.00     0.049 A 
ATOM     54  H   UNL A   1      43.876  28.199  31.049  1.00  0.00     0.167 HD
ATOM     55  C   UNL A   1      45.601  26.110  30.203  1.00  0.00     0.074 A 
ATOM     56  C   UNL A   1      46.137  25.003  29.438  1.00  0.00     0.031 C 
ATOM     57  C   UNL A   1      46.260  26.740  31.205  1.00  0.00     0.034 A 
BRANCH  44  58
ATOM     58  C   UNL A   1      43.205  31.473  33.703  1.00  0.00     0.023 A 
ATOM     59  C   UNL A   1      43.724  32.741  33.373  1.00  0.00     0.012 A 
ATOM     60  C   UNL A   1      42.596  31.275  34.957  1.00  0.00     0.148 A 
ATOM     61  C   UNL A   1      43.642  33.795  34.280  1.00  0.00     0.002 A 
ATOM     62  C   UNL A   1      42.494  32.339  35.845  1.00  0.00     0.091 A 
ATOM     63  F   UNL A   1      42.125  30.054  35.251  1.00  0.00    -0.205 F 
ATOM     64  C   UNL A   1      43.018  33.598  35.509  1.00  0.00     0.022 A 
BRANCH  62  65
ATOM     65  S   UNL A   1      41.664  32.204  37.433  1.00  0.00     0.127 S 
ATOM     66  O   UNL A   1      42.458  31.168  38.093  1.00  0.00    -0.237 OA
ATOM     67  O   UNL A   1      41.835  33.548  37.986  1.00  0.00    -0.237 OA
ATOM     68  O   UNL A   1      40.286  31.836  37.139  1.00  0.00    -0.744 OA
ENDBRANCH  62  65
ENDBRANCH  44  58
BRANCH  45  69
ATOM     69  C   UNL A   1      42.890  24.255  26.825  1.00  0.00     0.023 A 
ATOM     70  C   UNL A   1      43.572  24.392  25.602  1.00  0.00     0.012 A 
ATOM     71  C   UNL A   1      42.231  23.046  27.119  1.00  0.00     0.148 A 
ATOM     72  C   UNL A   1      43.598  23.341  24.685  1.00  0.00     0.002 A 
ATOM     73  C   UNL A   1      42.300  21.987  26.222  1.00  0.00     0.091 A 
ATOM     74  F   UNL A   1      41.582  22.946  28.288  1.00  0.00    -0.205 F 
ATOM     75  C   UNL A   1      42.975  22.136  25.000  1.00  0.00     0.022 A 
BRANCH  73  76
ATOM     76  S   UNL A   1      41.634  20.361  26.591  1.00  0.00     0.127 S 
ATOM     77  O   UNL A   1      40.209  20.647  26.733  1.00  0.00    -0.237 OA
ATOM     78  O   UNL A   1      41.997  19.609  25.389  1.00  0.00    -0.237 OA
ATOM     79  O   UNL A   1      42.312  19.922  27.804  1.00  0.00    -0.744 OA
ENDBRANCH  73  76
ENDBRANCH  45  69
BRANCH  57  80
ATOM     80  C   UNL A   1      47.639  26.254  31.552  1.00  0.00     0.023 A 
ATOM     81  C   UNL A   1      48.741  26.736  30.820  1.00  0.00     0.012 A 
ATOM     82  C   UNL A   1      47.853  25.427  32.671  1.00  0.00     0.148 A 
ATOM     83  C   UNL A   1      50.039  26.396  31.193  1.00  0.00     0.002 A 
ATOM     84  C   UNL A   1      49.151  25.114  33.055  1.00  0.00     0.091 A 
ATOM     85  F   UNL A   1      46.784  24.973  33.343  1.00  0.00    -0.205 F 
ATOM     86  C   UNL A   1      50.245  25.595  32.316  1.00  0.00     0.022 A 
BRANCH  84  87
ATOM     87  S   UNL A   1      49.520  24.151  34.526  1.00  0.00     0.127 S 
ATOM     88  O   UNL A   1      50.975  24.025  34.441  1.00  0.00    -0.237 OA
ATOM     89  O   UNL A   1      49.045  25.026  35.597  1.00  0.00    -0.237 OA
ATOM     90  O   UNL A   1      48.780  22.904  34.388  1.00  0.00    -0.744 OA
ENDBRANCH  84  87
ENDBRANCH  57  80
ENDBRANCH  31  32
ENDBRANCH  23  26
ENDBRANCH  21  22
ENDBRANCH   1  21
TORSDOF 15
ENDMDL
MODEL 3
REMARK VINA RESULT:     -11.3      2.949      8.398
REMARK SMILES Cc1cc(SCC(=O)NCCCNC(=O)c2ccc(-c3c4nc(c(-c5cccc(S(=O)(=O)[O-])c5F)c5ccc([nH]5)c(-c5cccc(S(=O)(=O)[O-])c5F)c5nc(c(-c6cccc(S(=O)(=O)[O-])c6F)c6ccc3[nH]6)C=C5)C=C4)cc2)c2cc(I)ccc2n1
REMARK SMILES IDX 11 1 10 2 9 3 7 4 8 5 6 7 5 8 4 9 1 10 2 11 3 12 86 13 85 14
REMARK SMILES IDX 79 15 84 16 80 17 83 18 81 19 82 20 12 21 13 22 14 23 15 25
REMARK SMILES IDX 16 26 17 27 78 28 18 29 77 30 19 31 20 32 21 33 71 34 22 35
REMARK SMILES IDX 76 36 70 37 72 38 23 39 75 40 69 41 68 42 24 44 56 45 36 46
REMARK SMILES IDX 55 47 37 48 40 49 54 50 73 51 38 52 39 53 53 55 74 56 41 57
REMARK SMILES IDX 25 58 26 59 34 60 27 61 29 62 35 63 28 64 30 65 31 66 32 67
REMARK SMILES IDX 33 68 57 69 58 70 66 71 59 72 61 73 67 74 60 75 62 76 63 77
REMARK SMILES IDX 64 78 65 79 42 80 43 81 51 82 44 83 46 84 52 85 45 86 47 87
REMARK SMILES IDX 48 88 49 89 50 90
REMARK H PARENT 9 6 13 24 72 43 40 54
REMARK Flexibility Score: inf
ROOT
ATOM      1  C   UNL A   1      31.652  29.062  26.611  1.00  0.00     0.042 C 
ENDROOT
BRANCH   1   2
ATOM      2  C   UNL A   1      32.269  27.805  27.217  1.00  0.00     0.117 C 
BRANCH   2   3
ATOM      3  N   UNL A   1      31.366  26.669  27.154  1.00  0.00    -0.355 N 
ATOM      4  C   UNL A   1      31.475  25.502  26.461  1.00  0.00     0.230 C 
ATOM      5  O   UNL A   1      30.546  24.694  26.550  1.00  0.00    -0.274 OA
ATOM      6  H   UNL A   1      30.549  26.757  27.695  1.00  0.00     0.163 HD
BRANCH   4   7
ATOM      7  C   UNL A   1      32.732  25.156  25.686  1.00  0.00     0.174 C 
BRANCH   7   8
ATOM      8  S   UNL A   1      32.771  23.469  25.008  1.00  0.00    -0.115 SA
BRANCH   8   9
ATOM      9  C   UNL A   1      34.460  22.864  25.223  1.00  0.00     0.019 A 
ATOM     10  C   UNL A   1      37.907  24.079  26.185  1.00  0.00     0.067 C 
ATOM     11  C   UNL A   1      36.783  23.200  25.723  1.00  0.00     0.039 A 
ATOM     12  C   UNL A   1      35.509  23.719  25.559  1.00  0.00     0.039 A 
ATOM     13  N   UNL A   1      37.065  21.894  25.546  1.00  0.00    -0.253 NA
ATOM     14  C   UNL A   1      36.077  21.059  25.195  1.00  0.00     0.072 A 
ATOM     15  C   UNL A   1      34.740  21.478  25.018  1.00  0.00     0.015 A 
ATOM     16  C   UNL A   1      36.408  19.723  25.002  1.00  0.00     0.030 A 
ATOM     17  C   UNL A   1      33.780  20.493  24.649  1.00  0.00     0.026 A 
ATOM     18  C   UNL A   1      35.457  18.767  24.640  1.00  0.00     0.017 A 
ATOM     19  C   UNL A   1      34.140  19.157  24.466  1.00  0.00     0.014 A 
ATOM     20  I   UNL A   1      32.701  17.755  23.939  1.00  0.00    -0.044 I 
ENDBRANCH   8   9
ENDBRANCH   7   8
ENDBRANCH   4   7
ENDBRANCH   2   3
ENDBRANCH   1   2
BRANCH   1  21
ATOM     21  C   UNL A   1      32.666  30.031  26.010  1.00  0.00     0.118 C 
BRANCH  21  22
ATOM     22  N   UNL A   1      32.476  31.407  26.452  1.00  0.00    -0.352 N 
ATOM     23  C   UNL A   1      33.252  32.172  27.291  1.00  0.00     0.251 C 
ATOM     24  H   UNL A   1      31.673  31.854  26.099  1.00  0.00     0.163 HD
ATOM     25  O   UNL A   1      32.847  33.272  27.660  1.00  0.00    -0.269 OA
BRANCH  23  26
ATOM     26  C   UNL A   1      34.549  31.651  27.775  1.00  0.00     0.039 A 
ATOM     27  C   UNL A   1      34.709  30.293  28.063  1.00  0.00     0.014 A 
ATOM     28  C   UNL A   1      35.608  32.540  27.974  1.00  0.00     0.014 A 
ATOM     29  C   UNL A   1      35.861  29.858  28.712  1.00  0.00     0.010 A 
ATOM     30  C   UNL A   1      36.794  32.085  28.558  1.00  0.00     0.010 A 
ATOM     31  C   UNL A   1      36.908  30.753  28.983  1.00  0.00    -0.014 A 
BRANCH  31  32
ATOM     32  C   UNL A   1      38.103  30.284  29.731  1.00  0.00     0.031 A 
ATOM     33  C   UNL A   1      38.343  30.731  31.149  1.00  0.00     0.074 A 
ATOM     34  C   UNL A   1      38.958  29.423  29.146  1.00  0.00     0.049 A 
ATOM     35  N   UNL A   1      39.332  30.427  31.949  1.00  0.00    -0.248 NA
ATOM     36  C   UNL A   1      37.349  31.637  31.749  1.00  0.00     0.031 C 
ATOM     37  C   UNL A   1      38.837  28.920  27.776  1.00  0.00     0.029 A 
ATOM     38  N   UNL A   1      40.086  28.811  29.628  1.00  0.00    -0.354 N 
ATOM     39  C   UNL A   1      39.106  31.133  33.124  1.00  0.00     0.074 A 
ATOM     40  C   UNL A   1      37.883  31.882  32.939  1.00  0.00     0.031 C 
ATOM     41  C   UNL A   1      39.829  28.049  27.541  1.00  0.00     0.029 A 
ATOM     42  C   UNL A   1      40.681  27.965  28.724  1.00  0.00     0.049 A 
ATOM     43  H   UNL A   1      40.436  28.962  30.536  1.00  0.00     0.167 HD
ATOM     44  C   UNL A   1      39.839  31.140  34.263  1.00  0.00     0.034 A 
ATOM     45  C   UNL A   1      41.791  27.207  28.828  1.00  0.00     0.034 A 
ATOM     46  C   UNL A   1      41.019  30.348  34.474  1.00  0.00     0.049 A 
ATOM     47  C   UNL A   1      42.570  27.214  30.110  1.00  0.00     0.074 A 
ATOM     48  C   UNL A   1      41.807  30.270  35.609  1.00  0.00     0.029 A 
ATOM     49  N   UNL A   1      41.574  29.489  33.540  1.00  0.00    -0.354 N 
ATOM     50  N   UNL A   1      42.307  27.849  31.226  1.00  0.00    -0.248 NA
ATOM     51  C   UNL A   1      43.789  26.394  30.154  1.00  0.00     0.031 C 
ATOM     52  C   UNL A   1      42.837  29.356  35.363  1.00  0.00     0.029 A 
ATOM     53  C   UNL A   1      42.689  28.868  34.076  1.00  0.00     0.049 A 
ATOM     54  H   UNL A   1      41.227  29.341  32.630  1.00  0.00     0.167 HD
ATOM     55  C   UNL A   1      43.319  27.496  32.110  1.00  0.00     0.074 A 
ATOM     56  C   UNL A   1      44.190  26.577  31.407  1.00  0.00     0.031 C 
ATOM     57  C   UNL A   1      43.516  27.916  33.382  1.00  0.00     0.034 A 
BRANCH  44  58
ATOM     58  C   UNL A   1      39.360  31.992  35.405  1.00  0.00     0.023 A 
ATOM     59  C   UNL A   1      38.478  31.436  36.352  1.00  0.00     0.012 A 
ATOM     60  C   UNL A   1      39.857  33.296  35.597  1.00  0.00     0.148 A 
ATOM     61  C   UNL A   1      38.091  32.170  37.473  1.00  0.00     0.002 A 
ATOM     62  C   UNL A   1      39.487  34.011  36.730  1.00  0.00     0.091 A 
ATOM     63  F   UNL A   1      40.682  33.806  34.671  1.00  0.00    -0.205 F 
ATOM     64  C   UNL A   1      38.603  33.450  37.666  1.00  0.00     0.022 A 
BRANCH  62  65
ATOM     65  S   UNL A   1      40.131  35.647  37.101  1.00  0.00     0.127 S 
ATOM     66  O   UNL A   1      39.653  36.417  35.953  1.00  0.00    -0.237 OA
ATOM     67  O   UNL A   1      39.464  35.960  38.365  1.00  0.00    -0.237 OA
ATOM     68  O   UNL A   1      41.576  35.501  37.193  1.00  0.00    -0.744 OA
ENDBRANCH  62  65
ENDBRANCH  44  58
BRANCH  45  69
ATOM     69  C   UNL A   1      42.178  26.333  27.689  1.00  0.00     0.023 A 
ATOM     70  C   UNL A   1      43.042  26.839  26.700  1.00  0.00     0.012 A 
ATOM     71  C   UNL A   1      41.773  24.986  27.631  1.00  0.00     0.148 A 
ATOM     72  C   UNL A   1      43.497  26.016  25.670  1.00  0.00     0.002 A 
ATOM     73  C   UNL A   1      42.267  24.160  26.628  1.00  0.00     0.091 A 
ATOM     74  F   UNL A   1      40.943  24.533  28.581  1.00  0.00    -0.205 F 
ATOM     75  C   UNL A   1      43.121  24.676  25.641  1.00  0.00     0.022 A 
BRANCH  73  76
ATOM     76  S   UNL A   1      41.937  22.396  26.579  1.00  0.00     0.127 S 
ATOM     77  O   UNL A   1      42.662  21.990  25.377  1.00  0.00    -0.237 OA
ATOM     78  O   UNL A   1      42.529  21.945  27.839  1.00  0.00    -0.237 OA
ATOM     79  O   UNL A   1      40.488  22.266  26.513  1.00  0.00    -0.744 OA
ENDBRANCH  73  76
ENDBRANCH  45  69
BRANCH  57  80
ATOM     80  C   UNL A   1      44.715  27.390  34.119  1.00  0.00     0.023 A 
ATOM     81  C   UNL A   1      45.929  28.101  34.051  1.00  0.00     0.012 A 
ATOM     82  C   UNL A   1      44.608  26.272  34.968  1.00  0.00     0.148 A 
ATOM     83  C   UNL A   1      47.023  27.703  34.815  1.00  0.00     0.002 A 
ATOM     84  C   UNL A   1      45.695  25.897  35.748  1.00  0.00     0.091 A 
ATOM     85  F   UNL A   1      43.444  25.606  35.003  1.00  0.00    -0.205 F 
ATOM     86  C   UNL A   1      46.903  26.610  35.671  1.00  0.00     0.022 A 
BRANCH  84  87
ATOM     87  S   UNL A   1      45.617  24.548  36.933  1.00  0.00     0.127 S 
ATOM     88  O   UNL A   1      44.555  25.004  37.830  1.00  0.00    -0.237 OA
ATOM     89  O   UNL A   1      45.256  23.412  36.086  1.00  0.00    -0.237 OA
ATOM     90  O   UNL A   1      46.941  24.462  37.533  1.00  0.00    -0.744 OA
ENDBRANCH  84  87
ENDBRANCH  57  80
ENDBRANCH  31  32
ENDBRANCH  23  26
ENDBRANCH  21  22
ENDBRANCH   1  21
TORSDOF 15
ENDMDL
