MODEL 1
REMARK VINA RESULT:     -12.2      0.000      0.000
REMARK SMILES O=C(NCCCNC(=O)c1cccnc1SCC(=O)c1ccccc1Cl)c1ccc(-c2c3nc(c(-c4cccc(S(=O)(=O)[O-])c4F)c4ccc([nH]4)c(-c4cccc(S(=O)(=O)[O-])c4F)c4nc(c(-c5cccc(S(=O)(=O)[O-])c5F)c5ccc2[nH]5)C=C4)C=C3)cc1
REMARK SMILES IDX 5 1 4 2 3 3 1 4 2 5 27 7 28 8 89 9 29 10 88 11 30 12 31 13
REMARK SMILES IDX 32 14 82 15 33 16 87 17 81 18 83 19 34 20 86 21 80 22 79 23
REMARK SMILES IDX 35 25 67 26 47 27 66 28 48 29 51 30 65 31 84 32 49 33 50 34
REMARK SMILES IDX 64 36 85 37 52 38 36 39 37 40 45 41 38 42 40 43 46 44 39 45
REMARK SMILES IDX 41 46 42 47 43 48 44 49 68 50 69 51 77 52 70 53 72 54 78 55
REMARK SMILES IDX 71 56 73 57 74 58 75 59 76 60 53 61 54 62 62 63 55 64 57 65
REMARK SMILES IDX 63 66 56 67 58 68 59 69 60 70 61 71 6 72 7 73 8 74 9 76
REMARK SMILES IDX 10 77 11 78 15 79 12 80 14 81 13 82 16 83 17 84 18 85 19 86
REMARK SMILES IDX 20 87 21 88 25 89 22 90 24 91 26 92 23 93
REMARK H PARENT 3 6 83 24 51 35 7 75
REMARK Flexibility Score: inf
ROOT
ATOM      1  C   UNL A   1      31.791  28.693  26.311  1.00  0.00     0.042 C 
ENDROOT
BRANCH   1   2
ATOM      2  C   UNL A   1      32.581  29.786  25.598  1.00  0.00     0.118 C 
BRANCH   2   3
ATOM      3  N   UNL A   1      32.345  31.120  26.136  1.00  0.00    -0.352 N 
ATOM      4  O   UNL A   1      32.469  32.923  27.449  1.00  0.00    -0.269 OA
ATOM      5  C   UNL A   1      32.996  31.874  27.082  1.00  0.00     0.251 C 
ATOM      6  H   UNL A   1      31.563  31.571  25.742  1.00  0.00     0.163 HD
BRANCH   5   7
ATOM      7  C   UNL A   1      34.280  31.450  27.694  1.00  0.00     0.039 A 
ATOM      8  C   UNL A   1      34.520  30.135  28.089  1.00  0.00     0.014 A 
ATOM      9  C   UNL A   1      35.309  32.394  27.814  1.00  0.00     0.014 A 
ATOM     10  C   UNL A   1      35.701  29.808  28.756  1.00  0.00     0.010 A 
ATOM     11  C   UNL A   1      36.531  32.042  28.401  1.00  0.00     0.010 A 
ATOM     12  C   UNL A   1      36.721  30.759  28.928  1.00  0.00    -0.014 A 
BRANCH  12  13
ATOM     13  C   UNL A   1      37.970  30.376  29.643  1.00  0.00     0.031 A 
ATOM     14  C   UNL A   1      38.223  30.818  31.062  1.00  0.00     0.074 A 
ATOM     15  C   UNL A   1      38.876  29.594  29.020  1.00  0.00     0.049 A 
ATOM     16  N   UNL A   1      39.204  30.488  31.862  1.00  0.00    -0.248 NA
ATOM     17  C   UNL A   1      37.259  31.759  31.657  1.00  0.00     0.031 C 
ATOM     18  C   UNL A   1      38.785  29.146  27.629  1.00  0.00     0.029 A 
ATOM     19  N   UNL A   1      40.039  29.025  29.477  1.00  0.00    -0.354 N 
ATOM     20  C   UNL A   1      39.003  31.209  33.034  1.00  0.00     0.074 A 
ATOM     21  C   UNL A   1      37.811  32.005  32.839  1.00  0.00     0.031 C 
ATOM     22  C   UNL A   1      39.818  28.332  27.362  1.00  0.00     0.029 A 
ATOM     23  C   UNL A   1      40.660  28.223  28.548  1.00  0.00     0.049 A 
ATOM     24  H   UNL A   1      40.394  29.176  30.382  1.00  0.00     0.167 HD
ATOM     25  C   UNL A   1      39.727  31.193  34.179  1.00  0.00     0.034 A 
ATOM     26  C   UNL A   1      41.772  27.467  28.643  1.00  0.00     0.034 A 
ATOM     27  C   UNL A   1      40.872  30.352  34.404  1.00  0.00     0.049 A 
ATOM     28  C   UNL A   1      42.512  27.408  29.951  1.00  0.00     0.074 A 
ATOM     29  C   UNL A   1      41.620  30.210  35.560  1.00  0.00     0.029 A 
ATOM     30  N   UNL A   1      41.432  29.509  33.459  1.00  0.00    -0.354 N 
ATOM     31  N   UNL A   1      42.215  27.981  31.091  1.00  0.00    -0.248 NA
ATOM     32  C   UNL A   1      43.721  26.572  29.993  1.00  0.00     0.031 C 
ATOM     33  C   UNL A   1      42.634  29.276  35.313  1.00  0.00     0.029 A 
ATOM     34  C   UNL A   1      42.517  28.841  34.003  1.00  0.00     0.049 A 
ATOM     35  H   UNL A   1      41.108  29.400  32.536  1.00  0.00     0.167 HD
ATOM     36  C   UNL A   1      43.184  27.558  31.993  1.00  0.00     0.074 A 
ATOM     37  C   UNL A   1      44.063  26.659  31.272  1.00  0.00     0.031 C 
ATOM     38  C   UNL A   1      43.344  27.900  33.294  1.00  0.00     0.034 A 
BRANCH  25  39
ATOM     39  C   UNL A   1      39.262  32.069  35.312  1.00  0.00     0.023 A 
ATOM     40  C   UNL A   1      38.341  31.554  36.247  1.00  0.00     0.012 A 
ATOM     41  C   UNL A   1      39.777  33.366  35.491  1.00  0.00     0.148 A 
ATOM     42  C   UNL A   1      37.923  32.327  37.329  1.00  0.00     0.002 A 
ATOM     43  C   UNL A   1      39.379  34.119  36.591  1.00  0.00     0.091 A 
ATOM     44  F   UNL A   1      40.631  33.852  34.577  1.00  0.00    -0.205 F 
ATOM     45  C   UNL A   1      38.449  33.604  37.508  1.00  0.00     0.022 A 
BRANCH  43  46
ATOM     46  S   UNL A   1      40.063  35.748  36.925  1.00  0.00     0.127 S 
ATOM     47  O   UNL A   1      39.633  36.497  35.746  1.00  0.00    -0.237 OA
ATOM     48  O   UNL A   1      39.388  36.128  38.167  1.00  0.00    -0.237 OA
ATOM     49  O   UNL A   1      41.498  35.544  37.063  1.00  0.00    -0.744 OA
ENDBRANCH  43  46
ENDBRANCH  25  39
BRANCH  26  50
ATOM     50  C   UNL A   1      42.188  26.622  27.488  1.00  0.00     0.023 A 
ATOM     51  C   UNL A   1      42.992  27.189  26.480  1.00  0.00     0.012 A 
ATOM     52  C   UNL A   1      41.850  25.258  27.412  1.00  0.00     0.148 A 
ATOM     53  C   UNL A   1      43.440  26.415  25.409  1.00  0.00     0.002 A 
ATOM     54  C   UNL A   1      42.344  24.480  26.370  1.00  0.00     0.091 A 
ATOM     55  F   UNL A   1      41.063  24.741  28.367  1.00  0.00    -0.205 F 
ATOM     56  C   UNL A   1      43.127  25.059  25.361  1.00  0.00     0.022 A 
BRANCH  54  57
ATOM     57  S   UNL A   1      42.102  22.701  26.325  1.00  0.00     0.127 S 
ATOM     58  O   UNL A   1      40.645  22.595  26.354  1.00  0.00    -0.237 OA
ATOM     59  O   UNL A   1      42.720  22.334  25.049  1.00  0.00    -0.237 OA
ATOM     60  O   UNL A   1      42.807  22.191  27.492  1.00  0.00    -0.744 OA
ENDBRANCH  54  57
ENDBRANCH  26  50
BRANCH  38  61
ATOM     61  C   UNL A   1      44.504  27.294  34.036  1.00  0.00     0.023 A 
ATOM     62  C   UNL A   1      45.764  27.919  33.976  1.00  0.00     0.012 A 
ATOM     63  C   UNL A   1      44.335  26.155  34.845  1.00  0.00     0.148 A 
ATOM     64  C   UNL A   1      46.846  27.407  34.691  1.00  0.00     0.002 A 
ATOM     65  C   UNL A   1      45.408  25.669  35.585  1.00  0.00     0.091 A 
ATOM     66  F   UNL A   1      43.135  25.556  34.872  1.00  0.00    -0.205 F 
ATOM     67  C   UNL A   1      46.665  26.290  35.504  1.00  0.00     0.022 A 
BRANCH  65  68
ATOM     68  S   UNL A   1      45.219  24.284  36.713  1.00  0.00     0.127 S 
ATOM     69  O   UNL A   1      44.800  23.214  35.811  1.00  0.00    -0.237 OA
ATOM     70  O   UNL A   1      46.568  24.126  37.259  1.00  0.00    -0.237 OA
ATOM     71  O   UNL A   1      44.229  24.718  37.691  1.00  0.00    -0.744 OA
ENDBRANCH  65  68
ENDBRANCH  38  61
ENDBRANCH  12  13
ENDBRANCH   5   7
ENDBRANCH   2   3
ENDBRANCH   1   2
BRANCH   1  72
ATOM     72  C   UNL A   1      32.504  27.352  26.417  1.00  0.00     0.118 C 
BRANCH  72  73
ATOM     73  N   UNL A   1      31.672  26.269  26.924  1.00  0.00    -0.352 N 
ATOM     74  C   UNL A   1      31.567  24.988  26.448  1.00  0.00     0.254 C 
ATOM     75  H   UNL A   1      31.117  26.483  27.708  1.00  0.00     0.163 HD
ATOM     76  O   UNL A   1      31.196  24.053  27.150  1.00  0.00    -0.269 OA
BRANCH  74  77
ATOM     77  C   UNL A   1      32.013  24.674  25.102  1.00  0.00     0.072 A 
ATOM     78  C   UNL A   1      31.112  25.069  24.095  1.00  0.00     0.018 A 
ATOM     79  C   UNL A   1      33.260  24.162  24.764  1.00  0.00     0.109 A 
ATOM     80  C   UNL A   1      31.446  24.907  22.763  1.00  0.00     0.021 A 
ATOM     81  N   UNL A   1      33.561  23.987  23.442  1.00  0.00    -0.249 NA
ATOM     82  C   UNL A   1      32.677  24.358  22.488  1.00  0.00     0.112 A 
BRANCH  79  83
ATOM     83  S   UNL A   1      34.688  23.694  25.716  1.00  0.00    -0.097 SA
BRANCH  83  84
ATOM     84  C   UNL A   1      34.667  21.976  26.206  1.00  0.00     0.157 C 
BRANCH  84  85
ATOM     85  C   UNL A   1      35.153  20.830  25.354  1.00  0.00     0.174 C 
ATOM     86  O   UNL A   1      36.382  20.632  25.349  1.00  0.00    -0.293 OA
BRANCH  85  87
ATOM     87  C   UNL A   1      34.313  19.706  24.808  1.00  0.00     0.037 A 
ATOM     88  C   UNL A   1      35.066  18.547  24.493  1.00  0.00     0.013 A 
ATOM     89  C   UNL A   1      32.951  19.682  24.481  1.00  0.00     0.051 A 
ATOM     90  C   UNL A   1      34.495  17.417  23.899  1.00  0.00     0.001 A 
ATOM     91  C   UNL A   1      32.374  18.524  23.918  1.00  0.00     0.021 A 
ATOM     92  Cl  UNL A   1      31.863  21.007  24.563  1.00  0.00    -0.084 Cl
ATOM     93  C   UNL A   1      33.139  17.401  23.622  1.00  0.00     0.002 A 
ENDBRANCH  85  87
ENDBRANCH  84  85
ENDBRANCH  83  84
ENDBRANCH  79  83
ENDBRANCH  74  77
ENDBRANCH  72  73
ENDBRANCH   1  72
TORSDOF 17
ENDMDL
MODEL 2
REMARK VINA RESULT:     -12.1      5.259     10.422
REMARK SMILES O=C(NCCCNC(=O)c1cccnc1SCC(=O)c1ccccc1Cl)c1ccc(-c2c3nc(c(-c4cccc(S(=O)(=O)[O-])c4F)c4ccc([nH]4)c(-c4cccc(S(=O)(=O)[O-])c4F)c4nc(c(-c5cccc(S(=O)(=O)[O-])c5F)c5ccc2[nH]5)C=C4)C=C3)cc1
REMARK SMILES IDX 5 1 4 2 3 3 1 4 2 5 27 7 28 8 89 9 29 10 88 11 30 12 31 13
REMARK SMILES IDX 32 14 82 15 33 16 87 17 81 18 83 19 34 20 86 21 80 22 79 23
REMARK SMILES IDX 35 25 67 26 47 27 66 28 48 29 51 30 65 31 84 32 49 33 50 34
REMARK SMILES IDX 64 36 85 37 52 38 36 39 37 40 45 41 38 42 40 43 46 44 39 45
REMARK SMILES IDX 41 46 42 47 43 48 44 49 68 50 69 51 77 52 70 53 72 54 78 55
REMARK SMILES IDX 71 56 73 57 74 58 75 59 76 60 53 61 54 62 62 63 55 64 57 65
REMARK SMILES IDX 63 66 56 67 58 68 59 69 60 70 61 71 6 72 7 73 8 74 9 76
REMARK SMILES IDX 10 77 11 78 15 79 12 80 14 81 13 82 16 83 17 84 18 85 19 86
REMARK SMILES IDX 20 87 21 88 25 89 22 90 24 91 26 92 23 93
REMARK H PARENT 3 6 83 24 51 35 7 75
REMARK Flexibility Score: inf
ROOT
ATOM      1  C   UNL A   1      35.495  23.139  24.936  1.00  0.00     0.042 C 
ENDROOT
BRANCH   1   2
ATOM      2  C   UNL A   1      35.863  22.223  26.100  1.00  0.00     0.118 C 
BRANCH   2   3
ATOM      3  N   UNL A   1      36.975  21.328  25.807  1.00  0.00    -0.352 N 
ATOM      4  O   UNL A   1      39.042  20.587  25.397  1.00  0.00    -0.269 OA
ATOM      5  C   UNL A   1      38.339  21.485  25.858  1.00  0.00     0.251 C 
ATOM      6  H   UNL A   1      36.692  20.431  25.514  1.00  0.00     0.163 HD
BRANCH   5   7
ATOM      7  C   UNL A   1      38.981  22.703  26.412  1.00  0.00     0.039 A 
ATOM      8  C   UNL A   1      38.518  23.986  26.125  1.00  0.00     0.014 A 
ATOM      9  C   UNL A   1      40.047  22.550  27.308  1.00  0.00     0.014 A 
ATOM     10  C   UNL A   1      39.219  25.103  26.582  1.00  0.00     0.010 A 
ATOM     11  C   UNL A   1      40.693  23.673  27.842  1.00  0.00     0.010 A 
ATOM     12  C   UNL A   1      40.321  24.962  27.442  1.00  0.00    -0.014 A 
BRANCH  12  13
ATOM     13  C   UNL A   1      41.045  26.175  27.913  1.00  0.00     0.031 A 
ATOM     14  C   UNL A   1      42.467  26.446  27.494  1.00  0.00     0.074 A 
ATOM     15  C   UNL A   1      40.406  27.062  28.705  1.00  0.00     0.049 A 
ATOM     16  N   UNL A   1      43.205  27.501  27.727  1.00  0.00    -0.248 NA
ATOM     17  C   UNL A   1      43.155  25.397  26.723  1.00  0.00     0.031 C 
ATOM     18  C   UNL A   1      39.052  26.893  29.234  1.00  0.00     0.029 A 
ATOM     19  N   UNL A   1      40.801  28.285  29.187  1.00  0.00    -0.354 N 
ATOM     20  C   UNL A   1      44.452  27.228  27.174  1.00  0.00     0.074 A 
ATOM     21  C   UNL A   1      44.376  25.902  26.601  1.00  0.00     0.031 C 
ATOM     22  C   UNL A   1      38.710  27.991  29.925  1.00  0.00     0.029 A 
ATOM     23  C   UNL A   1      39.827  28.930  29.914  1.00  0.00     0.049 A 
ATOM     24  H   UNL A   1      41.695  28.664  29.029  1.00  0.00     0.167 HD
ATOM     25  C   UNL A   1      45.552  28.017  27.122  1.00  0.00     0.034 A 
ATOM     26  C   UNL A   1      39.822  30.148  30.490  1.00  0.00     0.034 A 
ATOM     27  C   UNL A   1      45.612  29.362  27.628  1.00  0.00     0.049 A 
ATOM     28  C   UNL A   1      41.030  31.033  30.350  1.00  0.00     0.074 A 
ATOM     29  C   UNL A   1      46.658  30.265  27.549  1.00  0.00     0.029 A 
ATOM     30  N   UNL A   1      44.583  30.000  28.302  1.00  0.00    -0.354 N 
ATOM     31  N   UNL A   1      42.140  30.811  29.691  1.00  0.00    -0.248 NA
ATOM     32  C   UNL A   1      40.970  32.348  31.005  1.00  0.00     0.031 C 
ATOM     33  C   UNL A   1      46.259  31.452  28.175  1.00  0.00     0.029 A 
ATOM     34  C   UNL A   1      44.968  31.286  28.645  1.00  0.00     0.049 A 
ATOM     35  H   UNL A   1      43.708  29.599  28.507  1.00  0.00     0.167 HD
ATOM     36  C   UNL A   1      42.902  31.965  29.831  1.00  0.00     0.074 A 
ATOM     37  C   UNL A   1      42.114  32.894  30.616  1.00  0.00     0.031 C 
ATOM     38  C   UNL A   1      44.150  32.223  29.370  1.00  0.00     0.034 A 
BRANCH  25  39
ATOM     39  C   UNL A   1      46.773  27.469  26.433  1.00  0.00     0.023 A 
ATOM     40  C   UNL A   1      47.616  26.581  27.132  1.00  0.00     0.012 A 
ATOM     41  C   UNL A   1      47.053  27.775  25.088  1.00  0.00     0.148 A 
ATOM     42  C   UNL A   1      48.733  26.025  26.509  1.00  0.00     0.002 A 
ATOM     43  C   UNL A   1      48.151  27.191  24.463  1.00  0.00     0.091 A 
ATOM     44  F   UNL A   1      46.258  28.644  24.446  1.00  0.00    -0.205 F 
ATOM     45  C   UNL A   1      48.995  26.321  25.173  1.00  0.00     0.022 A 
BRANCH  43  46
ATOM     46  S   UNL A   1      48.515  27.473  22.726  1.00  0.00     0.127 S 
ATOM     47  O   UNL A   1      49.780  28.201  22.802  1.00  0.00    -0.237 OA
ATOM     48  O   UNL A   1      48.628  26.111  22.200  1.00  0.00    -0.237 OA
ATOM     49  O   UNL A   1      47.378  28.220  22.209  1.00  0.00    -0.744 OA
ENDBRANCH  43  46
ENDBRANCH  25  39
BRANCH  26  50
ATOM     50  C   UNL A   1      38.587  30.638  31.162  1.00  0.00     0.023 A 
ATOM     51  C   UNL A   1      38.465  30.499  32.559  1.00  0.00     0.012 A 
ATOM     52  C   UNL A   1      37.567  31.292  30.446  1.00  0.00     0.148 A 
ATOM     53  C   UNL A   1      37.344  30.989  33.228  1.00  0.00     0.002 A 
ATOM     54  C   UNL A   1      36.477  31.827  31.127  1.00  0.00     0.091 A 
ATOM     55  F   UNL A   1      37.686  31.395  29.115  1.00  0.00    -0.205 F 
ATOM     56  C   UNL A   1      36.357  31.665  32.515  1.00  0.00     0.022 A 
BRANCH  54  57
ATOM     57  S   UNL A   1      35.244  32.833  30.292  1.00  0.00     0.127 S 
ATOM     58  O   UNL A   1      34.748  31.913  29.271  1.00  0.00    -0.237 OA
ATOM     59  O   UNL A   1      34.298  33.125  31.370  1.00  0.00    -0.237 OA
ATOM     60  O   UNL A   1      35.969  33.998  29.808  1.00  0.00    -0.744 OA
ENDBRANCH  54  57
ENDBRANCH  26  50
BRANCH  38  61
ATOM     61  C   UNL A   1      44.745  33.568  29.686  1.00  0.00     0.023 A 
ATOM     62  C   UNL A   1      45.511  33.726  30.856  1.00  0.00     0.012 A 
ATOM     63  C   UNL A   1      44.608  34.651  28.797  1.00  0.00     0.148 A 
ATOM     64  C   UNL A   1      46.114  34.949  31.151  1.00  0.00     0.002 A 
ATOM     65  C   UNL A   1      45.241  35.857  29.078  1.00  0.00     0.091 A 
ATOM     66  F   UNL A   1      43.853  34.493  27.699  1.00  0.00    -0.205 F 
ATOM     67  C   UNL A   1      45.988  36.010  30.257  1.00  0.00     0.022 A 
BRANCH  65  68
ATOM     68  S   UNL A   1      45.186  37.235  27.927  1.00  0.00     0.127 S 
ATOM     69  O   UNL A   1      43.790  37.656  28.025  1.00  0.00    -0.237 OA
ATOM     70  O   UNL A   1      46.147  38.177  28.504  1.00  0.00    -0.237 OA
ATOM     71  O   UNL A   1      45.597  36.680  26.643  1.00  0.00    -0.744 OA
ENDBRANCH  65  68
ENDBRANCH  38  61
ENDBRANCH  12  13
ENDBRANCH   5   7
ENDBRANCH   2   3
ENDBRANCH   1   2
BRANCH   1  72
ATOM     72  C   UNL A   1      34.383  24.136  25.232  1.00  0.00     0.118 C 
BRANCH  72  73
ATOM     73  N   UNL A   1      34.030  24.992  24.108  1.00  0.00    -0.352 N 
ATOM     74  C   UNL A   1      33.540  26.272  24.139  1.00  0.00     0.254 C 
ATOM     75  H   UNL A   1      34.161  24.603  23.213  1.00  0.00     0.163 HD
ATOM     76  O   UNL A   1      33.668  27.048  23.198  1.00  0.00    -0.269 OA
BRANCH  74  77
ATOM     77  C   UNL A   1      32.945  26.792  25.356  1.00  0.00     0.072 A 
ATOM     78  C   UNL A   1      33.760  27.711  26.044  1.00  0.00     0.018 A 
ATOM     79  C   UNL A   1      31.644  26.553  25.785  1.00  0.00     0.109 A 
ATOM     80  C   UNL A   1      33.285  28.349  27.175  1.00  0.00     0.021 A 
ATOM     81  N   UNL A   1      31.202  27.175  26.920  1.00  0.00    -0.249 NA
ATOM     82  C   UNL A   1      32.005  28.044  27.575  1.00  0.00     0.112 A 
BRANCH  79  83
ATOM     83  S   UNL A   1      30.295  25.599  25.124  1.00  0.00    -0.097 SA
BRANCH  83  84
ATOM     84  C   UNL A   1      29.464  26.415  23.768  1.00  0.00     0.157 C 
BRANCH  84  85
ATOM     85  C   UNL A   1      29.952  27.670  23.088  1.00  0.00     0.174 C 
ATOM     86  O   UNL A   1      30.691  27.508  22.101  1.00  0.00    -0.293 OA
BRANCH  85  87
ATOM     87  C   UNL A   1      29.370  29.051  23.244  1.00  0.00     0.037 A 
ATOM     88  C   UNL A   1      28.239  29.278  22.420  1.00  0.00     0.013 A 
ATOM     89  C   UNL A   1      29.838  30.142  23.989  1.00  0.00     0.051 A 
ATOM     90  C   UNL A   1      27.597  30.518  22.350  1.00  0.00     0.001 A 
ATOM     91  C   UNL A   1      29.162  31.379  23.942  1.00  0.00     0.021 A 
ATOM     92  Cl  UNL A   1      31.292  30.201  24.899  1.00  0.00    -0.084 Cl
ATOM     93  C   UNL A   1      28.053  31.570  23.124  1.00  0.00     0.002 A 
ENDBRANCH  85  87
ENDBRANCH  84  85
ENDBRANCH  83  84
ENDBRANCH  79  83
ENDBRANCH  74  77
ENDBRANCH  72  73
ENDBRANCH   1  72
TORSDOF 17
ENDMDL
MODEL 3
REMARK VINA RESULT:     -12.0      1.703      3.294
REMARK SMILES O=C(NCCCNC(=O)c1cccnc1SCC(=O)c1ccccc1Cl)c1ccc(-c2c3nc(c(-c4cccc(S(=O)(=O)[O-])c4F)c4ccc([nH]4)c(-c4cccc(S(=O)(=O)[O-])c4F)c4nc(c(-c5cccc(S(=O)(=O)[O-])c5F)c5ccc2[nH]5)C=C4)C=C3)cc1
REMARK SMILES IDX 5 1 4 2 3 3 1 4 2 5 27 7 28 8 89 9 29 10 88 11 30 12 31 13
REMARK SMILES IDX 32 14 82 15 33 16 87 17 81 18 83 19 34 20 86 21 80 22 79 23
REMARK SMILES IDX 35 25 67 26 47 27 66 28 48 29 51 30 65 31 84 32 49 33 50 34
REMARK SMILES IDX 64 36 85 37 52 38 36 39 37 40 45 41 38 42 40 43 46 44 39 45
REMARK SMILES IDX 41 46 42 47 43 48 44 49 68 50 69 51 77 52 70 53 72 54 78 55
REMARK SMILES IDX 71 56 73 57 74 58 75 59 76 60 53 61 54 62 62 63 55 64 57 65
REMARK SMILES IDX 63 66 56 67 58 68 59 69 60 70 61 71 6 72 7 73 8 74 9 76
REMARK SMILES IDX 10 77 11 78 15 79 12 80 14 81 13 82 16 83 17 84 18 85 19 86
REMARK SMILES IDX 20 87 21 88 25 89 22 90 24 91 26 92 23 93
REMARK H PARENT 3 6 83 24 51 35 7 75
REMARK Flexibility Score: inf
ROOT
ATOM      1  C   UNL A   1      31.555  27.699  26.153  1.00  0.00     0.042 C 
ENDROOT
BRANCH   1   2
ATOM      2  C   UNL A   1      31.804  28.650  27.320  1.00  0.00     0.118 C 
BRANCH   2   3
ATOM      3  N   UNL A   1      31.871  30.051  26.926  1.00  0.00    -0.352 N 
ATOM      4  O   UNL A   1      32.530  32.181  26.793  1.00  0.00    -0.269 OA
ATOM      5  C   UNL A   1      32.820  31.027  27.107  1.00  0.00     0.251 C 
ATOM      6  H   UNL A   1      31.077  30.359  26.429  1.00  0.00     0.163 HD
BRANCH   5   7
ATOM      7  C   UNL A   1      34.152  30.745  27.697  1.00  0.00     0.039 A 
ATOM      8  C   UNL A   1      34.684  29.457  27.756  1.00  0.00     0.014 A 
ATOM      9  C   UNL A   1      34.929  31.822  28.144  1.00  0.00     0.014 A 
ATOM     10  C   UNL A   1      35.892  29.228  28.415  1.00  0.00     0.010 A 
ATOM     11  C   UNL A   1      36.186  31.600  28.722  1.00  0.00     0.010 A 
ATOM     12  C   UNL A   1      36.658  30.295  28.914  1.00  0.00    -0.014 A 
BRANCH  12  13
ATOM     13  C   UNL A   1      37.944  30.015  29.609  1.00  0.00     0.031 A 
ATOM     14  C   UNL A   1      38.196  30.510  31.011  1.00  0.00     0.074 A 
ATOM     15  C   UNL A   1      38.888  29.280  28.985  1.00  0.00     0.049 A 
ATOM     16  N   UNL A   1      39.214  30.267  31.797  1.00  0.00    -0.248 NA
ATOM     17  C   UNL A   1      37.184  31.399  31.605  1.00  0.00     0.031 C 
ATOM     18  C   UNL A   1      38.799  28.791  27.608  1.00  0.00     0.029 A 
ATOM     19  N   UNL A   1      40.096  28.802  29.429  1.00  0.00    -0.354 N 
ATOM     20  C   UNL A   1      38.990  31.002  32.955  1.00  0.00     0.074 A 
ATOM     21  C   UNL A   1      37.742  31.711  32.768  1.00  0.00     0.031 C 
ATOM     22  C   UNL A   1      39.878  28.043  27.337  1.00  0.00     0.029 A 
ATOM     23  C   UNL A   1      40.750  28.020  28.506  1.00  0.00     0.049 A 
ATOM     24  H   UNL A   1      40.458  28.999  30.322  1.00  0.00     0.167 HD
ATOM     25  C   UNL A   1      39.736  31.064  34.084  1.00  0.00     0.034 A 
ATOM     26  C   UNL A   1      41.912  27.343  28.594  1.00  0.00     0.034 A 
ATOM     27  C   UNL A   1      40.940  30.308  34.303  1.00  0.00     0.049 A 
ATOM     28  C   UNL A   1      42.682  27.367  29.886  1.00  0.00     0.074 A 
ATOM     29  C   UNL A   1      41.721  30.245  35.445  1.00  0.00     0.029 A 
ATOM     30  N   UNL A   1      41.536  29.480  33.366  1.00  0.00    -0.354 N 
ATOM     31  N   UNL A   1      42.371  27.948  31.018  1.00  0.00    -0.248 NA
ATOM     32  C   UNL A   1      43.945  26.616  29.921  1.00  0.00     0.031 C 
ATOM     33  C   UNL A   1      42.789  29.375  35.197  1.00  0.00     0.029 A 
ATOM     34  C   UNL A   1      42.675  28.901  33.901  1.00  0.00     0.049 A 
ATOM     35  H   UNL A   1      41.201  29.326  32.453  1.00  0.00     0.167 HD
ATOM     36  C   UNL A   1      43.385  27.614  31.908  1.00  0.00     0.074 A 
ATOM     37  C   UNL A   1      44.307  26.757  31.189  1.00  0.00     0.031 C 
ATOM     38  C   UNL A   1      43.549  28.000  33.197  1.00  0.00     0.034 A 
BRANCH  25  39
ATOM     39  C   UNL A   1      39.238  31.935  35.205  1.00  0.00     0.023 A 
ATOM     40  C   UNL A   1      38.293  31.415  36.113  1.00  0.00     0.012 A 
ATOM     41  C   UNL A   1      39.743  33.234  35.401  1.00  0.00     0.148 A 
ATOM     42  C   UNL A   1      37.842  32.184  37.185  1.00  0.00     0.002 A 
ATOM     43  C   UNL A   1      39.312  33.983  36.492  1.00  0.00     0.091 A 
ATOM     44  F   UNL A   1      40.620  33.726  34.513  1.00  0.00    -0.205 F 
ATOM     45  C   UNL A   1      38.358  33.462  37.381  1.00  0.00     0.022 A 
BRANCH  43  46
ATOM     46  S   UNL A   1      39.980  35.613  36.848  1.00  0.00     0.127 S 
ATOM     47  O   UNL A   1      41.412  35.335  36.934  1.00  0.00    -0.237 OA
ATOM     48  O   UNL A   1      39.580  36.386  35.671  1.00  0.00    -0.237 OA
ATOM     49  O   UNL A   1      39.336  36.033  38.085  1.00  0.00    -0.744 OA
ENDBRANCH  43  46
ENDBRANCH  25  39
BRANCH  26  50
ATOM     50  C   UNL A   1      42.360  26.499  27.451  1.00  0.00     0.023 A 
ATOM     51  C   UNL A   1      43.219  27.056  26.483  1.00  0.00     0.012 A 
ATOM     52  C   UNL A   1      41.996  25.143  27.348  1.00  0.00     0.148 A 
ATOM     53  C   UNL A   1      43.696  26.282  25.426  1.00  0.00     0.002 A 
ATOM     54  C   UNL A   1      42.519  24.363  26.321  1.00  0.00     0.091 A 
ATOM     55  F   UNL A   1      41.159  24.636  28.263  1.00  0.00    -0.205 F 
ATOM     56  C   UNL A   1      43.358  24.933  25.352  1.00  0.00     0.022 A 
BRANCH  54  57
ATOM     57  S   UNL A   1      42.242  22.589  26.249  1.00  0.00     0.127 S 
ATOM     58  O   UNL A   1      42.791  22.148  27.530  1.00  0.00    -0.237 OA
ATOM     59  O   UNL A   1      40.783  22.506  26.144  1.00  0.00    -0.237 OA
ATOM     60  O   UNL A   1      42.948  22.142  25.058  1.00  0.00    -0.744 OA
ENDBRANCH  54  57
ENDBRANCH  26  50
BRANCH  38  61
ATOM     61  C   UNL A   1      44.762  27.492  33.927  1.00  0.00     0.023 A 
ATOM     62  C   UNL A   1      45.942  28.260  33.921  1.00  0.00     0.012 A 
ATOM     63  C   UNL A   1      44.716  26.298  34.673  1.00  0.00     0.148 A 
ATOM     64  C   UNL A   1      47.067  27.837  34.628  1.00  0.00     0.002 A 
ATOM     65  C   UNL A   1      45.829  25.901  35.405  1.00  0.00     0.091 A 
ATOM     66  F   UNL A   1      43.593  25.565  34.647  1.00  0.00    -0.205 F 
ATOM     67  C   UNL A   1      47.008  26.664  35.378  1.00  0.00     0.022 A 
BRANCH  65  68
ATOM     68  S   UNL A   1      45.789  24.445  36.456  1.00  0.00     0.127 S 
ATOM     69  O   UNL A   1      45.515  23.382  35.491  1.00  0.00    -0.237 OA
ATOM     70  O   UNL A   1      47.138  24.418  37.023  1.00  0.00    -0.237 OA
ATOM     71  O   UNL A   1      44.739  24.706  37.433  1.00  0.00    -0.744 OA
ENDBRANCH  65  68
ENDBRANCH  38  61
ENDBRANCH  12  13
ENDBRANCH   5   7
ENDBRANCH   2   3
ENDBRANCH   1   2
BRANCH   1  72
ATOM     72  C   UNL A   1      32.025  26.269  26.379  1.00  0.00     0.118 C 
BRANCH  72  73
ATOM     73  N   UNL A   1      30.947  25.301  26.534  1.00  0.00    -0.352 N 
ATOM     74  C   UNL A   1      31.045  23.959  26.797  1.00  0.00     0.254 C 
ATOM     75  H   UNL A   1      30.033  25.655  26.440  1.00  0.00     0.163 HD
ATOM     76  O   UNL A   1      30.135  23.322  27.318  1.00  0.00    -0.269 OA
BRANCH  74  77
ATOM     77  C   UNL A   1      32.298  23.264  26.566  1.00  0.00     0.072 A 
ATOM     78  C   UNL A   1      32.860  22.699  27.727  1.00  0.00     0.018 A 
ATOM     79  C   UNL A   1      32.871  23.023  25.323  1.00  0.00     0.109 A 
ATOM     80  C   UNL A   1      34.011  21.937  27.641  1.00  0.00     0.021 A 
ATOM     81  N   UNL A   1      34.023  22.288  25.262  1.00  0.00    -0.249 NA
ATOM     82  C   UNL A   1      34.556  21.765  26.389  1.00  0.00     0.112 A 
BRANCH  79  83
ATOM     83  S   UNL A   1      32.394  23.430  23.658  1.00  0.00    -0.097 SA
BRANCH  83  84
ATOM     84  C   UNL A   1      33.542  24.541  22.857  1.00  0.00     0.157 C 
BRANCH  84  85
ATOM     85  C   UNL A   1      33.147  25.689  21.961  1.00  0.00     0.174 C 
ATOM     86  O   UNL A   1      33.178  25.467  20.737  1.00  0.00    -0.293 OA
BRANCH  85  87
ATOM     87  C   UNL A   1      32.394  26.926  22.377  1.00  0.00     0.037 A 
ATOM     88  C   UNL A   1      30.986  26.759  22.348  1.00  0.00     0.013 A 
ATOM     89  C   UNL A   1      32.873  28.208  22.678  1.00  0.00     0.051 A 
ATOM     90  C   UNL A   1      30.100  27.806  22.619  1.00  0.00     0.001 A 
ATOM     91  C   UNL A   1      31.973  29.249  22.988  1.00  0.00     0.021 A 
ATOM     92  Cl  UNL A   1      34.504  28.732  22.581  1.00  0.00    -0.084 Cl
ATOM     93  C   UNL A   1      30.596  29.054  22.953  1.00  0.00     0.002 A 
ENDBRANCH  85  87
ENDBRANCH  84  85
ENDBRANCH  83  84
ENDBRANCH  79  83
ENDBRANCH  74  77
ENDBRANCH  72  73
ENDBRANCH   1  72
TORSDOF 17
ENDMDL
