MODEL 1
REMARK VINA RESULT:     -12.9      0.000      0.000
REMARK SMILES CS(=O)(=O)c1ccc(-c2cc(Cl)cc3c2O[C@H](C(F)(F)F)C(C(=O)NCCCNC(=O)c2ccc(-c4c5nc(c(-c6cccc(S(=O)(=O)[O-])c6F)c6ccc([nH]6)c(-c6cccc(S(=O)(=O)[O-])c6F)c6nc(c(-c7cccc(S(=O)(=O)[O-])c7F)c7ccc4[nH]7)C=C6)C=C5)cc2)=C3)cc1
REMARK SMILES IDX 27 1 26 2 25 3 23 4 24 5 22 7 9 8 10 9 15 10 11 11 14 12
REMARK SMILES IDX 16 13 12 14 13 15 95 16 17 17 8 18 5 19 6 20 97 21 7 22
REMARK SMILES IDX 96 23 2 24 1 25 3 26 4 27 18 28 19 29 20 30 21 31 28 32
REMARK SMILES IDX 29 33 30 34 31 36 32 37 33 38 94 39 34 40 93 41 35 42 36 43
REMARK SMILES IDX 37 44 87 45 38 46 92 47 86 48 88 49 39 50 91 51 85 52 84 53
REMARK SMILES IDX 40 55 72 56 52 57 71 58 53 59 56 60 70 61 89 62 54 63 55 64
REMARK SMILES IDX 69 66 90 67 57 68 41 69 42 70 50 71 43 72 45 73 51 74 44 75
REMARK SMILES IDX 46 76 47 77 48 78 49 79 73 80 74 81 82 82 75 83 77 84 83 85
REMARK SMILES IDX 76 86 78 87 79 88 80 89 81 90 58 91 59 92 67 93 60 94 62 95
REMARK SMILES IDX 68 96 61 97 63 98 64 99 65 100 66 101
REMARK H PARENT 25 6 29 35 88 54 56 65
REMARK Flexibility Score: inf
ROOT
ATOM      1  C   UNL A   1      31.776  29.391  26.378  1.00  0.00     0.042 C 
ENDROOT
BRANCH   1   2
ATOM      2  C   UNL A   1      31.523  28.638  25.070  1.00  0.00     0.118 C 
BRANCH   2   3
ATOM      3  N   UNL A   1      31.054  27.295  25.349  1.00  0.00    -0.352 N 
ATOM      4  C   UNL A   1      31.038  26.236  24.506  1.00  0.00     0.251 C 
ATOM      5  O   UNL A   1      30.103  25.445  24.542  1.00  0.00    -0.270 OA
ATOM      6  H   UNL A   1      30.707  27.134  26.257  1.00  0.00     0.163 HD
BRANCH   4   7
ATOM      7  C   UNL A   1      32.257  26.004  23.676  1.00  0.00     0.067 C 
ATOM      8  C   UNL A   1      33.157  22.205  24.848  1.00  0.00     0.026 A 
ATOM      9  C   UNL A   1      33.022  22.177  26.261  1.00  0.00     0.033 A 
ATOM     10  C   UNL A   1      33.173  23.481  24.253  1.00  0.00     0.135 A 
ATOM     11  C   UNL A   1      33.088  23.325  27.046  1.00  0.00     0.042 A 
ATOM     12  C   UNL A   1      33.362  24.623  25.073  1.00  0.00     0.019 A 
ATOM     13  O   UNL A   1      32.956  23.700  22.898  1.00  0.00    -0.475 OA
ATOM     14  Cl  UNL A   1      32.904  23.204  28.751  1.00  0.00    -0.084 Cl
ATOM     15  C   UNL A   1      33.337  24.550  26.461  1.00  0.00     0.032 A 
ATOM     16  C   UNL A   1      33.380  25.951  24.419  1.00  0.00     0.025 C 
ATOM     17  C   UNL A   1      32.128  24.919  22.615  1.00  0.00     0.314 C 
BRANCH   8  18
ATOM     18  C   UNL A   1      33.513  20.892  24.236  1.00  0.00    -0.015 A 
ATOM     19  C   UNL A   1      33.777  18.067  24.078  1.00  0.00     0.067 A 
ATOM     20  C   UNL A   1      32.644  18.685  23.552  1.00  0.00     0.021 A 
ATOM     21  C   UNL A   1      34.822  18.849  24.581  1.00  0.00     0.021 A 
ATOM     22  C   UNL A   1      32.528  20.087  23.618  1.00  0.00     0.010 A 
ATOM     23  C   UNL A   1      34.695  20.248  24.645  1.00  0.00     0.010 A 
BRANCH  19  24
ATOM     24  S   UNL A   1      33.907  16.290  24.176  1.00  0.00     0.175 S 
ATOM     25  C   UNL A   1      35.174  15.905  25.356  1.00  0.00     0.163 C 
ATOM     26  O   UNL A   1      34.403  15.828  22.887  1.00  0.00    -0.224 OA
ATOM     27  O   UNL A   1      32.647  15.809  24.702  1.00  0.00    -0.224 OA
ENDBRANCH  19  24
ENDBRANCH   8  18
BRANCH  17  28
ATOM     28  C   UNL A   1      32.476  25.553  21.247  1.00  0.00     0.429 C 
ATOM     29  F   UNL A   1      33.438  26.500  21.340  1.00  0.00    -0.167 F 
ATOM     30  F   UNL A   1      32.902  24.620  20.364  1.00  0.00    -0.167 F 
ATOM     31  F   UNL A   1      31.404  26.160  20.667  1.00  0.00    -0.167 F 
ENDBRANCH  17  28
ENDBRANCH   4   7
ENDBRANCH   2   3
ENDBRANCH   1   2
BRANCH   1  32
ATOM     32  C   UNL A   1      33.122  30.105  26.455  1.00  0.00     0.118 C 
BRANCH  32  33
ATOM     33  N   UNL A   1      33.002  31.534  26.694  1.00  0.00    -0.352 N 
ATOM     34  C   UNL A   1      33.742  32.334  27.531  1.00  0.00     0.251 C 
ATOM     35  H   UNL A   1      32.292  31.992  26.187  1.00  0.00     0.163 HD
ATOM     36  O   UNL A   1      33.404  33.498  27.721  1.00  0.00    -0.269 OA
BRANCH  34  37
ATOM     37  C   UNL A   1      34.932  31.780  28.216  1.00  0.00     0.039 A 
ATOM     38  C   UNL A   1      34.853  30.510  28.792  1.00  0.00     0.014 A 
ATOM     39  C   UNL A   1      36.121  32.510  28.286  1.00  0.00     0.014 A 
ATOM     40  C   UNL A   1      35.980  29.958  29.404  1.00  0.00     0.010 A 
ATOM     41  C   UNL A   1      37.266  31.920  28.809  1.00  0.00     0.010 A 
ATOM     42  C   UNL A   1      37.204  30.649  29.400  1.00  0.00    -0.014 A 
BRANCH  42  43
ATOM     43  C   UNL A   1      38.414  30.081  30.049  1.00  0.00     0.031 A 
ATOM     44  C   UNL A   1      38.811  30.539  31.430  1.00  0.00     0.074 A 
ATOM     45  C   UNL A   1      39.194  29.209  29.380  1.00  0.00     0.049 A 
ATOM     46  N   UNL A   1      39.849  30.197  32.148  1.00  0.00    -0.248 NA
ATOM     47  C   UNL A   1      37.945  31.539  32.077  1.00  0.00     0.031 C 
ATOM     48  C   UNL A   1      38.967  28.748  28.008  1.00  0.00     0.029 A 
ATOM     49  N   UNL A   1      40.347  28.567  29.757  1.00  0.00    -0.354 N 
ATOM     50  C   UNL A   1      39.784  30.968  33.303  1.00  0.00     0.074 A 
ATOM     51  C   UNL A   1      38.633  31.830  33.170  1.00  0.00     0.031 C 
ATOM     52  C   UNL A   1      39.941  27.890  27.664  1.00  0.00     0.029 A 
ATOM     53  C   UNL A   1      40.876  27.759  28.777  1.00  0.00     0.049 A 
ATOM     54  H   UNL A   1      40.758  28.677  30.645  1.00  0.00     0.167 HD
ATOM     55  C   UNL A   1      40.585  30.937  34.394  1.00  0.00     0.034 A 
ATOM     56  C   UNL A   1      41.988  26.999  28.778  1.00  0.00     0.034 A 
ATOM     57  C   UNL A   1      41.700  30.043  34.545  1.00  0.00     0.049 A 
ATOM     58  C   UNL A   1      42.830  26.938  30.025  1.00  0.00     0.074 A 
ATOM     59  C   UNL A   1      42.526  29.873  35.642  1.00  0.00     0.029 A 
ATOM     60  N   UNL A   1      42.148  29.168  33.568  1.00  0.00    -0.354 N 
ATOM     61  N   UNL A   1      42.665  27.564  31.166  1.00  0.00    -0.248 NA
ATOM     62  C   UNL A   1      43.983  26.027  30.002  1.00  0.00     0.031 C 
ATOM     63  C   UNL A   1      43.490  28.912  35.318  1.00  0.00     0.029 A 
ATOM     64  C   UNL A   1      43.238  28.455  34.034  1.00  0.00     0.049 A 
ATOM     65  H   UNL A   1      41.749  29.068  32.673  1.00  0.00     0.167 HD
ATOM     66  C   UNL A   1      43.664  27.092  32.009  1.00  0.00     0.074 A 
ATOM     67  C   UNL A   1      44.415  26.110  31.253  1.00  0.00     0.031 C 
ATOM     68  C   UNL A   1      43.942  27.443  33.288  1.00  0.00     0.034 A 
BRANCH  55  69
ATOM     69  C   UNL A   1      40.252  31.870  35.532  1.00  0.00     0.023 A 
ATOM     70  C   UNL A   1      41.022  33.036  35.730  1.00  0.00     0.012 A 
ATOM     71  C   UNL A   1      39.155  31.619  36.378  1.00  0.00     0.148 A 
ATOM     72  C   UNL A   1      40.736  33.910  36.778  1.00  0.00     0.002 A 
ATOM     73  C   UNL A   1      38.842  32.523  37.387  1.00  0.00     0.091 A 
ATOM     74  F   UNL A   1      38.445  30.498  36.189  1.00  0.00    -0.205 F 
ATOM     75  C   UNL A   1      39.640  33.660  37.598  1.00  0.00     0.022 A 
BRANCH  73  76
ATOM     76  S   UNL A   1      37.402  32.338  38.444  1.00  0.00     0.127 S 
ATOM     77  O   UNL A   1      37.854  32.988  39.674  1.00  0.00    -0.237 OA
ATOM     78  O   UNL A   1      36.381  33.077  37.702  1.00  0.00    -0.237 OA
ATOM     79  O   UNL A   1      37.161  30.905  38.550  1.00  0.00    -0.744 OA
ENDBRANCH  73  76
ENDBRANCH  55  69
BRANCH  56  80
ATOM     80  C   UNL A   1      42.332  26.173  27.585  1.00  0.00     0.023 A 
ATOM     81  C   UNL A   1      43.080  26.747  26.537  1.00  0.00     0.012 A 
ATOM     82  C   UNL A   1      41.934  24.827  27.486  1.00  0.00     0.148 A 
ATOM     83  C   UNL A   1      43.389  26.008  25.394  1.00  0.00     0.002 A 
ATOM     84  C   UNL A   1      42.294  24.079  26.370  1.00  0.00     0.091 A 
ATOM     85  F   UNL A   1      41.219  24.301  28.490  1.00  0.00    -0.205 F 
ATOM     86  C   UNL A   1      43.004  24.672  25.315  1.00  0.00     0.022 A 
BRANCH  84  87
ATOM     87  S   UNL A   1      41.955  22.320  26.238  1.00  0.00     0.127 S 
ATOM     88  O   UNL A   1      40.497  22.302  26.148  1.00  0.00    -0.237 OA
ATOM     89  O   UNL A   1      42.654  21.972  25.001  1.00  0.00    -0.237 OA
ATOM     90  O   UNL A   1      42.522  21.718  27.438  1.00  0.00    -0.744 OA
ENDBRANCH  84  87
ENDBRANCH  56  80
BRANCH  68  91
ATOM     91  C   UNL A   1      45.070  26.721  33.979  1.00  0.00     0.023 A 
ATOM     92  C   UNL A   1      46.394  27.189  33.860  1.00  0.00     0.012 A 
ATOM     93  C   UNL A   1      44.806  25.600  34.791  1.00  0.00     0.148 A 
ATOM     94  C   UNL A   1      47.441  26.524  34.496  1.00  0.00     0.002 A 
ATOM     95  C   UNL A   1      45.847  24.977  35.468  1.00  0.00     0.091 A 
ATOM     96  F   UNL A   1      43.544  25.156  34.881  1.00  0.00    -0.205 F 
ATOM     97  C   UNL A   1      47.167  25.426  35.308  1.00  0.00     0.022 A 
BRANCH  95  98
ATOM     98  S   UNL A   1      45.568  23.623  36.615  1.00  0.00     0.127 S 
ATOM     99  O   UNL A   1      46.930  23.303  37.035  1.00  0.00    -0.237 OA
ATOM    100  O   UNL A   1      44.744  24.254  37.647  1.00  0.00    -0.237 OA
ATOM    101  O   UNL A   1      44.886  22.587  35.852  1.00  0.00    -0.744 OA
ENDBRANCH  95  98
ENDBRANCH  68  91
ENDBRANCH  42  43
ENDBRANCH  34  37
ENDBRANCH  32  33
ENDBRANCH   1  32
TORSDOF 16
ENDMDL
MODEL 2
REMARK VINA RESULT:     -12.9      5.614      9.000
REMARK SMILES CS(=O)(=O)c1ccc(-c2cc(Cl)cc3c2O[C@H](C(F)(F)F)C(C(=O)NCCCNC(=O)c2ccc(-c4c5nc(c(-c6cccc(S(=O)(=O)[O-])c6F)c6ccc([nH]6)c(-c6cccc(S(=O)(=O)[O-])c6F)c6nc(c(-c7cccc(S(=O)(=O)[O-])c7F)c7ccc4[nH]7)C=C6)C=C5)cc2)=C3)cc1
REMARK SMILES IDX 27 1 26 2 25 3 23 4 24 5 22 7 9 8 10 9 15 10 11 11 14 12
REMARK SMILES IDX 16 13 12 14 13 15 95 16 17 17 8 18 5 19 6 20 97 21 7 22
REMARK SMILES IDX 96 23 2 24 1 25 3 26 4 27 18 28 19 29 20 30 21 31 28 32
REMARK SMILES IDX 29 33 30 34 31 36 32 37 33 38 94 39 34 40 93 41 35 42 36 43
REMARK SMILES IDX 37 44 87 45 38 46 92 47 86 48 88 49 39 50 91 51 85 52 84 53
REMARK SMILES IDX 40 55 72 56 52 57 71 58 53 59 56 60 70 61 89 62 54 63 55 64
REMARK SMILES IDX 69 66 90 67 57 68 41 69 42 70 50 71 43 72 45 73 51 74 44 75
REMARK SMILES IDX 46 76 47 77 48 78 49 79 73 80 74 81 82 82 75 83 77 84 83 85
REMARK SMILES IDX 76 86 78 87 79 88 80 89 81 90 58 91 59 92 67 93 60 94 62 95
REMARK SMILES IDX 68 96 61 97 63 98 64 99 65 100 66 101
REMARK H PARENT 25 6 29 35 88 54 56 65
REMARK Flexibility Score: inf
ROOT
ATOM      1  C   UNL A   1      36.990  20.289  24.970  1.00  0.00     0.042 C 
ENDROOT
BRANCH   1   2
ATOM      2  C   UNL A   1      35.794  21.097  25.478  1.00  0.00     0.118 C 
BRANCH   2   3
ATOM      3  N   UNL A   1      35.825  22.437  24.926  1.00  0.00    -0.352 N 
ATOM      4  C   UNL A   1      35.020  22.952  23.967  1.00  0.00     0.251 C 
ATOM      5  O   UNL A   1      35.482  23.727  23.137  1.00  0.00    -0.270 OA
ATOM      6  H   UNL A   1      36.511  23.043  25.289  1.00  0.00     0.163 HD
BRANCH   4   7
ATOM      7  C   UNL A   1      33.559  22.663  24.072  1.00  0.00     0.067 C 
ATOM      8  C   UNL A   1      32.099  26.459  23.803  1.00  0.00     0.026 A 
ATOM      9  C   UNL A   1      32.912  27.264  24.643  1.00  0.00     0.033 A 
ATOM     10  C   UNL A   1      32.237  25.066  23.956  1.00  0.00     0.135 A 
ATOM     11  C   UNL A   1      33.665  26.737  25.690  1.00  0.00     0.042 A 
ATOM     12  C   UNL A   1      32.910  24.561  25.099  1.00  0.00     0.019 A 
ATOM     13  O   UNL A   1      31.798  24.142  23.017  1.00  0.00    -0.475 OA
ATOM     14  Cl  UNL A   1      34.632  27.781  26.654  1.00  0.00    -0.084 Cl
ATOM     15  C   UNL A   1      33.607  25.388  25.973  1.00  0.00     0.032 A 
ATOM     16  C   UNL A   1      33.034  23.092  25.237  1.00  0.00     0.025 C 
ATOM     17  C   UNL A   1      32.737  22.986  22.832  1.00  0.00     0.314 C 
BRANCH   8  18
ATOM     18  C   UNL A   1      31.044  27.210  23.063  1.00  0.00    -0.015 A 
ATOM     19  C   UNL A   1      29.145  29.272  22.592  1.00  0.00     0.067 A 
ATOM     20  C   UNL A   1      30.436  29.391  22.079  1.00  0.00     0.021 A 
ATOM     21  C   UNL A   1      28.765  28.093  23.240  1.00  0.00     0.021 A 
ATOM     22  C   UNL A   1      31.366  28.358  22.300  1.00  0.00     0.010 A 
ATOM     23  C   UNL A   1      29.701  27.068  23.460  1.00  0.00     0.010 A 
BRANCH  19  24
ATOM     24  S   UNL A   1      27.976  30.615  22.490  1.00  0.00     0.175 S 
ATOM     25  C   UNL A   1      28.775  32.075  23.104  1.00  0.00     0.163 C 
ATOM     26  O   UNL A   1      26.903  30.318  23.427  1.00  0.00    -0.224 OA
ATOM     27  O   UNL A   1      27.697  30.818  21.084  1.00  0.00    -0.224 OA
ENDBRANCH  19  24
ENDBRANCH   8  18
BRANCH  17  28
ATOM     28  C   UNL A   1      31.995  21.696  22.408  1.00  0.00     0.429 C 
ATOM     29  F   UNL A   1      30.651  21.810  22.510  1.00  0.00    -0.167 F 
ATOM     30  F   UNL A   1      32.282  21.358  21.130  1.00  0.00    -0.167 F 
ATOM     31  F   UNL A   1      32.342  20.622  23.169  1.00  0.00    -0.167 F 
ENDBRANCH  17  28
ENDBRANCH   4   7
ENDBRANCH   2   3
ENDBRANCH   1   2
BRANCH   1  32
ATOM     32  C   UNL A   1      38.353  20.831  25.391  1.00  0.00     0.118 C 
BRANCH  32  33
ATOM     33  N   UNL A   1      39.301  19.786  25.746  1.00  0.00    -0.352 N 
ATOM     34  C   UNL A   1      40.601  19.911  26.171  1.00  0.00     0.251 C 
ATOM     35  H   UNL A   1      38.965  18.864  25.672  1.00  0.00     0.163 HD
ATOM     36  O   UNL A   1      41.305  18.912  26.284  1.00  0.00    -0.269 OA
BRANCH  34  37
ATOM     37  C   UNL A   1      41.153  21.251  26.470  1.00  0.00     0.039 A 
ATOM     38  C   UNL A   1      41.719  21.998  25.433  1.00  0.00     0.014 A 
ATOM     39  C   UNL A   1      41.111  21.770  27.766  1.00  0.00     0.014 A 
ATOM     40  C   UNL A   1      42.204  23.281  25.692  1.00  0.00     0.010 A 
ATOM     41  C   UNL A   1      41.505  23.083  28.000  1.00  0.00     0.010 A 
ATOM     42  C   UNL A   1      42.084  23.845  26.974  1.00  0.00    -0.014 A 
BRANCH  42  43
ATOM     43  C   UNL A   1      42.598  25.207  27.271  1.00  0.00     0.031 A 
ATOM     44  C   UNL A   1      41.713  26.207  27.973  1.00  0.00     0.074 A 
ATOM     45  C   UNL A   1      43.826  25.572  26.856  1.00  0.00     0.049 A 
ATOM     46  N   UNL A   1      41.958  27.453  28.285  1.00  0.00    -0.248 NA
ATOM     47  C   UNL A   1      40.360  25.757  28.344  1.00  0.00     0.031 C 
ATOM     48  C   UNL A   1      44.750  24.728  26.095  1.00  0.00     0.029 A 
ATOM     49  N   UNL A   1      44.505  26.757  27.000  1.00  0.00    -0.354 N 
ATOM     50  C   UNL A   1      40.784  27.944  28.845  1.00  0.00     0.074 A 
ATOM     51  C   UNL A   1      39.810  26.878  28.786  1.00  0.00     0.031 C 
ATOM     52  C   UNL A   1      45.877  25.416  25.850  1.00  0.00     0.029 A 
ATOM     53  C   UNL A   1      45.748  26.757  26.411  1.00  0.00     0.049 A 
ATOM     54  H   UNL A   1      44.135  27.534  27.478  1.00  0.00     0.167 HD
ATOM     55  C   UNL A   1      40.544  29.158  29.393  1.00  0.00     0.034 A 
ATOM     56  C   UNL A   1      46.677  27.730  26.334  1.00  0.00     0.034 A 
ATOM     57  C   UNL A   1      41.529  30.199  29.496  1.00  0.00     0.049 A 
ATOM     58  C   UNL A   1      46.409  29.051  27.003  1.00  0.00     0.074 A 
ATOM     59  C   UNL A   1      41.416  31.436  30.107  1.00  0.00     0.029 A 
ATOM     60  N   UNL A   1      42.812  30.128  28.974  1.00  0.00    -0.354 N 
ATOM     61  N   UNL A   1      45.344  29.445  27.659  1.00  0.00    -0.248 NA
ATOM     62  C   UNL A   1      47.490  30.046  26.962  1.00  0.00     0.031 C 
ATOM     63  C   UNL A   1      42.623  32.122  29.930  1.00  0.00     0.029 A 
ATOM     64  C   UNL A   1      43.500  31.297  29.246  1.00  0.00     0.049 A 
ATOM     65  H   UNL A   1      43.178  29.358  28.481  1.00  0.00     0.167 HD
ATOM     66  C   UNL A   1      45.643  30.712  28.147  1.00  0.00     0.074 A 
ATOM     67  C   UNL A   1      46.997  31.009  27.728  1.00  0.00     0.031 C 
ATOM     68  C   UNL A   1      44.866  31.557  28.868  1.00  0.00     0.034 A 
BRANCH  55  69
ATOM     69  C   UNL A   1      39.172  29.407  29.968  1.00  0.00     0.023 A 
ATOM     70  C   UNL A   1      38.826  28.851  31.218  1.00  0.00     0.012 A 
ATOM     71  C   UNL A   1      38.241  30.222  29.296  1.00  0.00     0.148 A 
ATOM     72  C   UNL A   1      37.562  29.063  31.767  1.00  0.00     0.002 A 
ATOM     73  C   UNL A   1      37.002  30.473  29.875  1.00  0.00     0.091 A 
ATOM     74  F   UNL A   1      38.578  30.726  28.101  1.00  0.00    -0.205 F 
ATOM     75  C   UNL A   1      36.655  29.882  31.101  1.00  0.00     0.022 A 
BRANCH  73  76
ATOM     76  S   UNL A   1      35.794  31.582  29.141  1.00  0.00     0.127 S 
ATOM     77  O   UNL A   1      35.139  30.704  28.172  1.00  0.00    -0.237 OA
ATOM     78  O   UNL A   1      34.969  31.942  30.294  1.00  0.00    -0.237 OA
ATOM     79  O   UNL A   1      36.555  32.683  28.568  1.00  0.00    -0.744 OA
ENDBRANCH  73  76
ENDBRANCH  55  69
BRANCH  56  80
ATOM     80  C   UNL A   1      47.982  27.467  25.660  1.00  0.00     0.023 A 
ATOM     81  C   UNL A   1      49.098  27.087  26.433  1.00  0.00     0.012 A 
ATOM     82  C   UNL A   1      48.122  27.580  24.264  1.00  0.00     0.148 A 
ATOM     83  C   UNL A   1      50.338  26.866  25.833  1.00  0.00     0.002 A 
ATOM     84  C   UNL A   1      49.346  27.303  23.667  1.00  0.00     0.091 A 
ATOM     85  F   UNL A   1      47.051  27.949  23.547  1.00  0.00    -0.205 F 
ATOM     86  C   UNL A   1      50.460  26.965  24.450  1.00  0.00     0.022 A 
BRANCH  84  87
ATOM     87  S   UNL A   1      49.566  27.279  21.884  1.00  0.00     0.127 S 
ATOM     88  O   UNL A   1      49.260  28.661  21.526  1.00  0.00    -0.237 OA
ATOM     89  O   UNL A   1      50.975  26.906  21.760  1.00  0.00    -0.237 OA
ATOM     90  O   UNL A   1      48.634  26.276  21.385  1.00  0.00    -0.744 OA
ENDBRANCH  84  87
ENDBRANCH  56  80
BRANCH  68  91
ATOM     91  C   UNL A   1      45.477  32.862  29.306  1.00  0.00     0.023 A 
ATOM     92  C   UNL A   1      46.226  32.933  30.498  1.00  0.00     0.012 A 
ATOM     93  C   UNL A   1      45.347  34.014  28.505  1.00  0.00     0.148 A 
ATOM     94  C   UNL A   1      46.794  34.138  30.910  1.00  0.00     0.002 A 
ATOM     95  C   UNL A   1      45.963  35.197  28.892  1.00  0.00     0.091 A 
ATOM     96  F   UNL A   1      44.617  33.936  27.383  1.00  0.00    -0.205 F 
ATOM     97  C   UNL A   1      46.672  35.266  30.101  1.00  0.00     0.022 A 
BRANCH  95  98
ATOM     98  S   UNL A   1      45.944  36.668  27.860  1.00  0.00     0.127 S 
ATOM     99  O   UNL A   1      44.772  37.375  28.371  1.00  0.00    -0.237 OA
ATOM    100  O   UNL A   1      47.226  37.294  28.187  1.00  0.00    -0.237 OA
ATOM    101  O   UNL A   1      45.842  36.191  26.488  1.00  0.00    -0.744 OA
ENDBRANCH  95  98
ENDBRANCH  68  91
ENDBRANCH  42  43
ENDBRANCH  34  37
ENDBRANCH  32  33
ENDBRANCH   1  32
TORSDOF 16
ENDMDL
MODEL 3
REMARK VINA RESULT:     -12.7      5.450     10.677
REMARK SMILES CS(=O)(=O)c1ccc(-c2cc(Cl)cc3c2O[C@H](C(F)(F)F)C(C(=O)NCCCNC(=O)c2ccc(-c4c5nc(c(-c6cccc(S(=O)(=O)[O-])c6F)c6ccc([nH]6)c(-c6cccc(S(=O)(=O)[O-])c6F)c6nc(c(-c7cccc(S(=O)(=O)[O-])c7F)c7ccc4[nH]7)C=C6)C=C5)cc2)=C3)cc1
REMARK SMILES IDX 27 1 26 2 25 3 23 4 24 5 22 7 9 8 10 9 15 10 11 11 14 12
REMARK SMILES IDX 16 13 12 14 13 15 95 16 17 17 8 18 5 19 6 20 97 21 7 22
REMARK SMILES IDX 96 23 2 24 1 25 3 26 4 27 18 28 19 29 20 30 21 31 28 32
REMARK SMILES IDX 29 33 30 34 31 36 32 37 33 38 94 39 34 40 93 41 35 42 36 43
REMARK SMILES IDX 37 44 87 45 38 46 92 47 86 48 88 49 39 50 91 51 85 52 84 53
REMARK SMILES IDX 40 55 72 56 52 57 71 58 53 59 56 60 70 61 89 62 54 63 55 64
REMARK SMILES IDX 69 66 90 67 57 68 41 69 42 70 50 71 43 72 45 73 51 74 44 75
REMARK SMILES IDX 46 76 47 77 48 78 49 79 73 80 74 81 82 82 75 83 77 84 83 85
REMARK SMILES IDX 76 86 78 87 79 88 80 89 81 90 58 91 59 92 67 93 60 94 62 95
REMARK SMILES IDX 68 96 61 97 63 98 64 99 65 100 66 101
REMARK H PARENT 25 6 29 35 88 54 56 65
REMARK Flexibility Score: inf
ROOT
ATOM      1  C   UNL A   1      35.810  20.982  25.550  1.00  0.00     0.042 C 
ENDROOT
BRANCH   1   2
ATOM      2  C   UNL A   1      34.805  21.998  26.096  1.00  0.00     0.118 C 
BRANCH   2   3
ATOM      3  N   UNL A   1      35.200  23.342  25.721  1.00  0.00    -0.352 N 
ATOM      4  C   UNL A   1      34.545  24.193  24.897  1.00  0.00     0.251 C 
ATOM      5  O   UNL A   1      35.183  24.921  24.144  1.00  0.00    -0.270 OA
ATOM      6  H   UNL A   1      36.042  23.674  26.111  1.00  0.00     0.163 HD
BRANCH   4   7
ATOM      7  C   UNL A   1      33.067  24.310  25.068  1.00  0.00     0.067 C 
ATOM      8  C   UNL A   1      32.657  28.344  24.658  1.00  0.00     0.026 A 
ATOM      9  C   UNL A   1      33.693  28.935  25.428  1.00  0.00     0.033 A 
ATOM     10  C   UNL A   1      32.427  26.973  24.877  1.00  0.00     0.135 A 
ATOM     11  C   UNL A   1      34.328  28.268  26.473  1.00  0.00     0.042 A 
ATOM     12  C   UNL A   1      32.995  26.352  26.020  1.00  0.00     0.019 A 
ATOM     13  O   UNL A   1      31.715  26.163  24.002  1.00  0.00    -0.475 OA
ATOM     14  Cl  UNL A   1      35.581  29.052  27.350  1.00  0.00    -0.084 Cl
ATOM     15  C   UNL A   1      33.927  26.995  26.826  1.00  0.00     0.032 A 
ATOM     16  C   UNL A   1      32.731  24.910  26.227  1.00  0.00     0.025 C 
ATOM     17  C   UNL A   1      32.303  24.793  23.842  1.00  0.00     0.314 C 
BRANCH   8  18
ATOM     18  C   UNL A   1      31.805  29.321  23.919  1.00  0.00    -0.015 A 
ATOM     19  C   UNL A   1      29.436  30.354  22.736  1.00  0.00     0.067 A 
ATOM     20  C   UNL A   1      29.774  30.718  24.038  1.00  0.00     0.021 A 
ATOM     21  C   UNL A   1      30.319  29.570  21.986  1.00  0.00     0.021 A 
ATOM     22  C   UNL A   1      30.958  30.218  24.612  1.00  0.00     0.010 A 
ATOM     23  C   UNL A   1      31.498  29.072  22.569  1.00  0.00     0.010 A 
BRANCH  19  24
ATOM     24  S   UNL A   1      27.872  30.818  22.016  1.00  0.00     0.175 S 
ATOM     25  C   UNL A   1      27.975  32.529  21.558  1.00  0.00     0.163 C 
ATOM     26  O   UNL A   1      26.876  30.744  23.075  1.00  0.00    -0.224 OA
ATOM     27  O   UNL A   1      27.724  30.041  20.804  1.00  0.00    -0.224 OA
ENDBRANCH  19  24
ENDBRANCH   8  18
BRANCH  17  28
ATOM     28  C   UNL A   1      31.225  23.732  23.510  1.00  0.00     0.429 C 
ATOM     29  F   UNL A   1      30.745  23.114  24.613  1.00  0.00    -0.167 F 
ATOM     30  F   UNL A   1      30.176  24.283  22.858  1.00  0.00    -0.167 F 
ATOM     31  F   UNL A   1      31.698  22.746  22.700  1.00  0.00    -0.167 F 
ENDBRANCH  17  28
ENDBRANCH   4   7
ENDBRANCH   2   3
ENDBRANCH   1   2
BRANCH   1  32
ATOM     32  C   UNL A   1      37.242  21.497  25.434  1.00  0.00     0.118 C 
BRANCH  32  33
ATOM     33  N   UNL A   1      38.243  20.480  25.713  1.00  0.00    -0.352 N 
ATOM     34  C   UNL A   1      39.534  20.640  26.155  1.00  0.00     0.251 C 
ATOM     35  H   UNL A   1      37.957  19.550  25.565  1.00  0.00     0.163 HD
ATOM     36  O   UNL A   1      40.290  19.673  26.195  1.00  0.00    -0.269 OA
BRANCH  34  37
ATOM     37  C   UNL A   1      40.013  21.980  26.560  1.00  0.00     0.039 A 
ATOM     38  C   UNL A   1      40.971  22.080  27.572  1.00  0.00     0.014 A 
ATOM     39  C   UNL A   1      39.522  23.133  25.943  1.00  0.00     0.014 A 
ATOM     40  C   UNL A   1      41.464  23.335  27.935  1.00  0.00     0.010 A 
ATOM     41  C   UNL A   1      40.084  24.370  26.237  1.00  0.00     0.010 A 
ATOM     42  C   UNL A   1      41.041  24.491  27.257  1.00  0.00    -0.014 A 
BRANCH  42  43
ATOM     43  C   UNL A   1      41.550  25.837  27.630  1.00  0.00     0.031 A 
ATOM     44  C   UNL A   1      42.971  26.220  27.299  1.00  0.00     0.074 A 
ATOM     45  C   UNL A   1      40.766  26.688  28.320  1.00  0.00     0.049 A 
ATOM     46  N   UNL A   1      43.614  27.324  27.575  1.00  0.00    -0.248 NA
ATOM     47  C   UNL A   1      43.787  25.215  26.597  1.00  0.00     0.031 C 
ATOM     48  C   UNL A   1      39.402  26.408  28.774  1.00  0.00     0.029 A 
ATOM     49  N   UNL A   1      41.012  27.959  28.779  1.00  0.00    -0.354 N 
ATOM     50  C   UNL A   1      44.914  27.131  27.121  1.00  0.00     0.074 A 
ATOM     51  C   UNL A   1      44.982  25.786  26.597  1.00  0.00     0.031 C 
ATOM     52  C   UNL A   1      38.928  27.478  29.433  1.00  0.00     0.029 A 
ATOM     53  C   UNL A   1      39.960  28.509  29.474  1.00  0.00     0.049 A 
ATOM     54  H   UNL A   1      41.863  28.431  28.625  1.00  0.00     0.167 HD
ATOM     55  C   UNL A   1      45.950  28.003  27.105  1.00  0.00     0.034 A 
ATOM     56  C   UNL A   1      39.843  29.709  30.075  1.00  0.00     0.034 A 
ATOM     57  C   UNL A   1      45.865  29.356  27.581  1.00  0.00     0.049 A 
ATOM     58  C   UNL A   1      40.989  30.682  29.992  1.00  0.00     0.074 A 
ATOM     59  C   UNL A   1      46.829  30.348  27.536  1.00  0.00     0.029 A 
ATOM     60  N   UNL A   1      44.750  29.910  28.192  1.00  0.00    -0.354 N 
ATOM     61  N   UNL A   1      42.162  30.532  29.426  1.00  0.00    -0.248 NA
ATOM     62  C   UNL A   1      40.776  32.007  30.591  1.00  0.00     0.031 C 
ATOM     63  C   UNL A   1      46.305  31.494  28.144  1.00  0.00     0.029 A 
ATOM     64  C   UNL A   1      45.001  31.228  28.530  1.00  0.00     0.049 A 
ATOM     65  H   UNL A   1      43.905  29.435  28.361  1.00  0.00     0.167 HD
ATOM     66  C   UNL A   1      42.809  31.755  29.558  1.00  0.00     0.074 A 
ATOM     67  C   UNL A   1      41.888  32.641  30.241  1.00  0.00     0.031 C 
ATOM     68  C   UNL A   1      44.055  32.113  29.161  1.00  0.00     0.034 A 
BRANCH  55  69
ATOM     69  C   UNL A   1      47.253  27.530  26.509  1.00  0.00     0.023 A 
ATOM     70  C   UNL A   1      48.223  26.928  27.338  1.00  0.00     0.012 A 
ATOM     71  C   UNL A   1      47.499  27.640  25.128  1.00  0.00     0.148 A 
ATOM     72  C   UNL A   1      49.437  26.488  26.811  1.00  0.00     0.002 A 
ATOM     73  C   UNL A   1      48.689  27.149  24.600  1.00  0.00     0.091 A 
ATOM     74  F   UNL A   1      46.576  28.231  24.357  1.00  0.00    -0.205 F 
ATOM     75  C   UNL A   1      49.664  26.588  25.442  1.00  0.00     0.022 A 
BRANCH  73  76
ATOM     76  S   UNL A   1      49.045  27.153  22.840  1.00  0.00     0.127 S 
ATOM     77  O   UNL A   1      50.505  27.079  22.833  1.00  0.00    -0.237 OA
ATOM     78  O   UNL A   1      48.370  25.935  22.389  1.00  0.00    -0.237 OA
ATOM     79  O   UNL A   1      48.481  28.390  22.317  1.00  0.00    -0.744 OA
ENDBRANCH  73  76
ENDBRANCH  55  69
BRANCH  56  80
ATOM     80  C   UNL A   1      38.566  30.089  30.745  1.00  0.00     0.023 A 
ATOM     81  C   UNL A   1      38.304  29.629  32.051  1.00  0.00     0.012 A 
ATOM     82  C   UNL A   1      37.618  30.909  30.104  1.00  0.00     0.148 A 
ATOM     83  C   UNL A   1      37.103  29.942  32.690  1.00  0.00     0.002 A 
ATOM     84  C   UNL A   1      36.450  31.264  30.768  1.00  0.00     0.091 A 
ATOM     85  F   UNL A   1      37.883  31.331  28.860  1.00  0.00    -0.205 F 
ATOM     86  C   UNL A   1      36.181  30.767  32.052  1.00  0.00     0.022 A 
BRANCH  84  87
ATOM     87  S   UNL A   1      35.264  32.425  30.078  1.00  0.00     0.127 S 
ATOM     88  O   UNL A   1      34.326  32.587  31.185  1.00  0.00    -0.237 OA
ATOM     89  O   UNL A   1      36.107  33.589  29.807  1.00  0.00    -0.237 OA
ATOM     90  O   UNL A   1      34.729  31.780  28.886  1.00  0.00    -0.744 OA
ENDBRANCH  84  87
ENDBRANCH  56  80
BRANCH  68  91
ATOM     91  C   UNL A   1      44.479  33.539  29.397  1.00  0.00     0.023 A 
ATOM     92  C   UNL A   1      45.106  33.904  30.605  1.00  0.00     0.012 A 
ATOM     93  C   UNL A   1      44.297  34.511  28.393  1.00  0.00     0.148 A 
ATOM     94  C   UNL A   1      45.500  35.223  30.830  1.00  0.00     0.002 A 
ATOM     95  C   UNL A   1      44.743  35.810  28.602  1.00  0.00     0.091 A 
ATOM     96  F   UNL A   1      43.683  34.153  27.257  1.00  0.00    -0.205 F 
ATOM     97  C   UNL A   1      45.329  36.172  29.824  1.00  0.00     0.022 A 
BRANCH  95  98
ATOM     98  S   UNL A   1      44.657  37.068  27.322  1.00  0.00     0.127 S 
ATOM     99  O   UNL A   1      45.706  36.632  26.404  1.00  0.00    -0.237 OA
ATOM    100  O   UNL A   1      43.294  36.904  26.814  1.00  0.00    -0.237 OA
ATOM    101  O   UNL A   1      44.898  38.338  27.994  1.00  0.00    -0.744 OA
ENDBRANCH  95  98
ENDBRANCH  68  91
ENDBRANCH  42  43
ENDBRANCH  34  37
ENDBRANCH  32  33
ENDBRANCH   1  32
TORSDOF 16
ENDMDL
