MODEL 1
REMARK VINA RESULT:     -12.1      0.000      0.000
REMARK SMILES COc1cc(/C=C/C(=O)NCCCNC(=O)c2ccc(-c3c4nc(c(-c5cccc(S(=O)(=O)[O-])c5F)c5ccc([nH]5)c(-c5cccc(S(=O)(=O)[O-])c5F)c5nc(c(-c6cccc(S(=O)(=O)[O-])c6F)c6ccc3[nH]6)C=C5)C=C4)cc2)cc(S(=O)(=O)Nc2ccc3c(c2)OCCO3)c1OC
REMARK SMILES IDX 11 1 10 2 8 3 9 4 7 6 6 7 5 8 3 9 4 10 96 11 81 12 80 13
REMARK SMILES IDX 2 14 1 15 97 16 98 17 82 18 83 19 84 20 85 21 86 23 87 24
REMARK SMILES IDX 91 25 88 26 90 27 89 28 92 29 95 30 93 31 94 32 12 33 13 34
REMARK SMILES IDX 14 35 15 36 16 38 17 39 18 40 79 41 19 42 78 43 20 44 21 45
REMARK SMILES IDX 22 46 72 47 23 48 77 49 71 50 73 51 24 52 76 53 70 54 69 55
REMARK SMILES IDX 25 57 57 58 37 59 56 60 38 61 41 62 55 63 74 64 39 65 40 66
REMARK SMILES IDX 54 68 75 69 42 70 26 71 27 72 35 73 28 74 30 75 36 76 29 77
REMARK SMILES IDX 31 78 32 79 33 80 34 81 58 82 59 83 67 84 60 85 62 86 68 87
REMARK SMILES IDX 61 88 63 89 64 90 65 91 66 92 43 93 44 94 52 95 45 96 47 97
REMARK SMILES IDX 53 98 46 99 48 100 49 101 50 102 51 103
REMARK H PARENT 10 5 85 22 14 37 73 56 41 67
REMARK Flexibility Score: inf
ROOT
ATOM      1  C   UNL A   1      31.768  30.625  26.915  1.00  0.00     0.118 C 
ENDROOT
BRANCH   1   2
ATOM      2  N   UNL A   1      33.064  30.435  27.545  1.00  0.00    -0.352 N 
ATOM      3  C   UNL A   1      34.049  29.532  27.308  1.00  0.00     0.244 C 
ATOM      4  O   UNL A   1      35.117  29.634  27.909  1.00  0.00    -0.270 OA
ATOM      5  H   UNL A   1      33.261  31.074  28.269  1.00  0.00     0.163 HD
BRANCH   3   6
ATOM      6  C   UNL A   1      33.923  28.515  26.236  1.00  0.00     0.072 C 
ATOM      7  C   UNL A   1      33.985  27.179  26.381  1.00  0.00     0.014 C 
BRANCH   7   8
ATOM      8  C   UNL A   1      33.786  26.214  25.271  1.00  0.00    -0.020 A 
ATOM      9  C   UNL A   1      32.975  25.628  23.037  1.00  0.00     0.162 A 
ATOM     10  C   UNL A   1      33.347  26.591  23.994  1.00  0.00     0.058 A 
ATOM     11  C   UNL A   1      33.051  24.252  23.325  1.00  0.00     0.181 A 
ATOM     12  C   UNL A   1      33.584  23.870  24.563  1.00  0.00     0.134 A 
ATOM     13  C   UNL A   1      33.955  24.844  25.523  1.00  0.00     0.034 A 
BRANCH   9  14
ATOM     14  O   UNL A   1      32.312  26.089  21.924  1.00  0.00    -0.493 OA
ATOM     15  C   UNL A   1      31.268  27.008  22.238  1.00  0.00     0.278 C 
ENDBRANCH   9  14
BRANCH  11  16
ATOM     16  O   UNL A   1      32.553  23.247  22.546  1.00  0.00    -0.492 OA
ATOM     17  C   UNL A   1      33.188  22.962  21.310  1.00  0.00     0.278 C 
ENDBRANCH  11  16
BRANCH  12  18
ATOM     18  S   UNL A   1      33.647  22.153  25.076  1.00  0.00     0.265 S 
ATOM     19  O   UNL A   1      34.564  21.487  24.187  1.00  0.00    -0.201 OA
ATOM     20  O   UNL A   1      33.903  22.134  26.511  1.00  0.00    -0.201 OA
BRANCH  18  21
ATOM     21  N   UNL A   1      32.140  21.355  24.806  1.00  0.00    -0.279 N 
ATOM     22  H   UNL A   1      31.280  21.819  24.932  1.00  0.00     0.180 HD
BRANCH  21  23
ATOM     23  C   UNL A   1      32.200  19.986  24.393  1.00  0.00     0.053 A 
ATOM     24  C   UNL A   1      32.155  19.724  23.019  1.00  0.00     0.031 A 
ATOM     25  C   UNL A   1      32.385  18.958  25.305  1.00  0.00     0.077 A 
ATOM     26  C   UNL A   1      32.556  18.479  22.540  1.00  0.00     0.052 A 
ATOM     27  C   UNL A   1      32.876  17.752  24.832  1.00  0.00     0.163 A 
ATOM     28  C   UNL A   1      33.027  17.546  23.456  1.00  0.00     0.161 A 
ATOM     29  O   UNL A   1      33.343  16.885  25.780  1.00  0.00    -0.486 OA
ATOM     30  O   UNL A   1      33.789  16.509  22.975  1.00  0.00    -0.486 OA
ATOM     31  C   UNL A   1      34.267  15.917  25.273  1.00  0.00     0.271 C 
ATOM     32  C   UNL A   1      34.850  16.308  23.923  1.00  0.00     0.271 C 
ENDBRANCH  21  23
ENDBRANCH  18  21
ENDBRANCH  12  18
ENDBRANCH   7   8
ENDBRANCH   3   6
ENDBRANCH   1   2
BRANCH   1  33
ATOM     33  C   UNL A   1      31.416  32.106  26.798  1.00  0.00     0.042 C 
BRANCH  33  34
ATOM     34  C   UNL A   1      32.633  33.031  26.760  1.00  0.00     0.118 C 
BRANCH  34  35
ATOM     35  N   UNL A   1      32.465  34.211  27.603  1.00  0.00    -0.352 N 
ATOM     36  C   UNL A   1      33.119  34.572  28.756  1.00  0.00     0.251 C 
ATOM     37  H   UNL A   1      31.778  34.847  27.296  1.00  0.00     0.163 HD
ATOM     38  O   UNL A   1      32.686  35.501  29.434  1.00  0.00    -0.269 OA
BRANCH  36  39
ATOM     39  C   UNL A   1      34.331  33.844  29.191  1.00  0.00     0.039 A 
ATOM     40  C   UNL A   1      35.585  34.308  28.782  1.00  0.00     0.014 A 
ATOM     41  C   UNL A   1      34.232  32.699  29.984  1.00  0.00     0.014 A 
ATOM     42  C   UNL A   1      36.743  33.669  29.238  1.00  0.00     0.010 A 
ATOM     43  C   UNL A   1      35.386  32.104  30.490  1.00  0.00     0.010 A 
ATOM     44  C   UNL A   1      36.653  32.589  30.131  1.00  0.00    -0.014 A 
BRANCH  44  45
ATOM     45  C   UNL A   1      37.863  31.989  30.750  1.00  0.00     0.031 A 
ATOM     46  C   UNL A   1      38.641  30.920  30.030  1.00  0.00     0.074 A 
ATOM     47  C   UNL A   1      38.190  32.327  32.013  1.00  0.00     0.049 A 
ATOM     48  N   UNL A   1      39.657  30.215  30.455  1.00  0.00    -0.248 NA
ATOM     49  C   UNL A   1      38.206  30.583  28.665  1.00  0.00     0.031 C 
ATOM     50  C   UNL A   1      37.465  33.294  32.842  1.00  0.00     0.029 A 
ATOM     51  N   UNL A   1      39.189  31.870  32.836  1.00  0.00    -0.354 N 
ATOM     52  C   UNL A   1      39.962  29.330  29.429  1.00  0.00     0.074 A 
ATOM     53  C   UNL A   1      39.006  29.569  28.369  1.00  0.00     0.031 C 
ATOM     54  C   UNL A   1      38.037  33.352  34.055  1.00  0.00     0.029 A 
ATOM     55  C   UNL A   1      39.145  32.403  34.104  1.00  0.00     0.049 A 
ATOM     56  H   UNL A   1      39.871  31.222  32.547  1.00  0.00     0.167 HD
ATOM     57  C   UNL A   1      40.961  28.418  29.366  1.00  0.00     0.034 A 
ATOM     58  C   UNL A   1      39.897  32.143  35.192  1.00  0.00     0.034 A 
ATOM     59  C   UNL A   1      41.930  28.210  30.408  1.00  0.00     0.049 A 
ATOM     60  C   UNL A   1      41.008  31.136  35.088  1.00  0.00     0.074 A 
ATOM     61  C   UNL A   1      43.039  27.382  30.398  1.00  0.00     0.029 A 
ATOM     62  N   UNL A   1      41.901  28.823  31.652  1.00  0.00    -0.354 N 
ATOM     63  N   UNL A   1      41.387  30.430  34.049  1.00  0.00    -0.248 NA
ATOM     64  C   UNL A   1      41.813  30.906  36.296  1.00  0.00     0.031 C 
ATOM     65  C   UNL A   1      43.663  27.473  31.647  1.00  0.00     0.029 A 
ATOM     66  C   UNL A   1      42.957  28.375  32.426  1.00  0.00     0.049 A 
ATOM     67  H   UNL A   1      41.227  29.480  31.941  1.00  0.00     0.167 HD
ATOM     68  C   UNL A   1      42.487  29.693  34.471  1.00  0.00     0.074 A 
ATOM     69  C   UNL A   1      42.731  30.060  35.850  1.00  0.00     0.031 C 
ATOM     70  C   UNL A   1      43.216  28.780  33.784  1.00  0.00     0.034 A 
BRANCH  57  71
ATOM     71  C   UNL A   1      41.095  27.605  28.103  1.00  0.00     0.023 A 
ATOM     72  C   UNL A   1      41.701  28.183  26.968  1.00  0.00     0.012 A 
ATOM     73  C   UNL A   1      40.692  26.255  28.059  1.00  0.00     0.148 A 
ATOM     74  C   UNL A   1      41.875  27.441  25.800  1.00  0.00     0.002 A 
ATOM     75  C   UNL A   1      40.909  25.511  26.906  1.00  0.00     0.091 A 
ATOM     76  F   UNL A   1      40.102  25.729  29.142  1.00  0.00    -0.205 F 
ATOM     77  C   UNL A   1      41.490  26.105  25.773  1.00  0.00     0.022 A 
BRANCH  75  78
ATOM     78  S   UNL A   1      40.519  23.760  26.791  1.00  0.00     0.127 S 
ATOM     79  O   UNL A   1      39.100  23.797  26.437  1.00  0.00    -0.237 OA
ATOM     80  O   UNL A   1      41.404  23.318  25.714  1.00  0.00    -0.237 OA
ATOM     81  O   UNL A   1      40.820  23.195  28.099  1.00  0.00    -0.744 OA
ENDBRANCH  75  78
ENDBRANCH  57  71
BRANCH  58  82
ATOM     82  C   UNL A   1      39.649  32.881  36.462  1.00  0.00     0.023 A 
ATOM     83  C   UNL A   1      40.332  34.090  36.703  1.00  0.00     0.012 A 
ATOM     84  C   UNL A   1      38.726  32.413  37.418  1.00  0.00     0.148 A 
ATOM     85  C   UNL A   1      40.125  34.801  37.886  1.00  0.00     0.002 A 
ATOM     86  C   UNL A   1      38.484  33.154  38.569  1.00  0.00     0.091 A 
ATOM     87  F   UNL A   1      38.097  31.253  37.179  1.00  0.00    -0.205 F 
ATOM     88  C   UNL A   1      39.193  34.339  38.812  1.00  0.00     0.022 A 
BRANCH  86  89
ATOM     89  S   UNL A   1      37.210  32.701  39.753  1.00  0.00     0.127 S 
ATOM     90  O   UNL A   1      36.014  32.689  38.916  1.00  0.00    -0.237 OA
ATOM     91  O   UNL A   1      37.664  31.384  40.199  1.00  0.00    -0.237 OA
ATOM     92  O   UNL A   1      37.252  33.730  40.785  1.00  0.00    -0.744 OA
ENDBRANCH  86  89
ENDBRANCH  58  82
BRANCH  70  93
ATOM     93  C   UNL A   1      44.360  28.115  34.504  1.00  0.00     0.023 A 
ATOM     94  C   UNL A   1      45.610  28.761  34.571  1.00  0.00     0.012 A 
ATOM     95  C   UNL A   1      44.174  26.893  35.182  1.00  0.00     0.148 A 
ATOM     96  C   UNL A   1      46.666  28.190  35.278  1.00  0.00     0.002 A 
ATOM     97  C   UNL A   1      45.217  26.354  35.925  1.00  0.00     0.091 A 
ATOM     98  F   UNL A   1      42.981  26.288  35.093  1.00  0.00    -0.205 F 
ATOM     99  C   UNL A   1      46.467  26.994  35.964  1.00  0.00     0.022 A 
BRANCH  97 100
ATOM    100  S   UNL A   1      45.031  24.867  36.917  1.00  0.00     0.127 S 
ATOM    101  O   UNL A   1      43.581  24.684  36.908  1.00  0.00    -0.237 OA
ATOM    102  O   UNL A   1      45.776  23.881  36.136  1.00  0.00    -0.237 OA
ATOM    103  O   UNL A   1      45.611  25.176  38.217  1.00  0.00    -0.744 OA
ENDBRANCH  97 100
ENDBRANCH  70  93
ENDBRANCH  44  45
ENDBRANCH  36  39
ENDBRANCH  34  35
ENDBRANCH  33  34
ENDBRANCH   1  33
TORSDOF 19
ENDMDL
MODEL 2
REMARK VINA RESULT:     -11.8      1.409      7.401
REMARK SMILES COc1cc(/C=C/C(=O)NCCCNC(=O)c2ccc(-c3c4nc(c(-c5cccc(S(=O)(=O)[O-])c5F)c5ccc([nH]5)c(-c5cccc(S(=O)(=O)[O-])c5F)c5nc(c(-c6cccc(S(=O)(=O)[O-])c6F)c6ccc3[nH]6)C=C5)C=C4)cc2)cc(S(=O)(=O)Nc2ccc3c(c2)OCCO3)c1OC
REMARK SMILES IDX 11 1 10 2 8 3 9 4 7 6 6 7 5 8 3 9 4 10 96 11 81 12 80 13
REMARK SMILES IDX 2 14 1 15 97 16 98 17 82 18 83 19 84 20 85 21 86 23 87 24
REMARK SMILES IDX 91 25 88 26 90 27 89 28 92 29 95 30 93 31 94 32 12 33 13 34
REMARK SMILES IDX 14 35 15 36 16 38 17 39 18 40 79 41 19 42 78 43 20 44 21 45
REMARK SMILES IDX 22 46 72 47 23 48 77 49 71 50 73 51 24 52 76 53 70 54 69 55
REMARK SMILES IDX 25 57 57 58 37 59 56 60 38 61 41 62 55 63 74 64 39 65 40 66
REMARK SMILES IDX 54 68 75 69 42 70 26 71 27 72 35 73 28 74 30 75 36 76 29 77
REMARK SMILES IDX 31 78 32 79 33 80 34 81 58 82 59 83 67 84 60 85 62 86 68 87
REMARK SMILES IDX 61 88 63 89 64 90 65 91 66 92 43 93 44 94 52 95 45 96 47 97
REMARK SMILES IDX 53 98 46 99 48 100 49 101 50 102 51 103
REMARK H PARENT 10 5 85 22 14 37 73 56 41 67
REMARK Flexibility Score: inf
ROOT
ATOM      1  C   UNL A   1      31.960  30.879  26.881  1.00  0.00     0.118 C 
ENDROOT
BRANCH   1   2
ATOM      2  N   UNL A   1      33.261  30.630  27.480  1.00  0.00    -0.352 N 
ATOM      3  C   UNL A   1      34.038  29.516  27.497  1.00  0.00     0.244 C 
ATOM      4  O   UNL A   1      35.165  29.576  27.986  1.00  0.00    -0.270 OA
ATOM      5  H   UNL A   1      33.645  31.403  27.955  1.00  0.00     0.163 HD
BRANCH   3   6
ATOM      6  C   UNL A   1      33.620  28.271  26.811  1.00  0.00     0.072 C 
ATOM      7  C   UNL A   1      33.980  27.869  25.579  1.00  0.00     0.014 C 
BRANCH   7   8
ATOM      8  C   UNL A   1      33.574  26.576  24.976  1.00  0.00    -0.020 A 
ATOM      9  C   UNL A   1      33.161  25.126  23.047  1.00  0.00     0.162 A 
ATOM     10  C   UNL A   1      33.744  26.274  23.617  1.00  0.00     0.058 A 
ATOM     11  C   UNL A   1      32.404  24.232  23.827  1.00  0.00     0.181 A 
ATOM     12  C   UNL A   1      32.317  24.477  25.204  1.00  0.00     0.134 A 
ATOM     13  C   UNL A   1      32.904  25.634  25.772  1.00  0.00     0.034 A 
BRANCH   9  14
ATOM     14  O   UNL A   1      33.156  25.055  21.673  1.00  0.00    -0.493 OA
ATOM     15  C   UNL A   1      32.156  25.878  21.076  1.00  0.00     0.278 C 
ENDBRANCH   9  14
BRANCH  11  16
ATOM     16  O   UNL A   1      31.653  23.196  23.349  1.00  0.00    -0.492 OA
ATOM     17  C   UNL A   1      32.288  22.199  22.564  1.00  0.00     0.278 C 
ENDBRANCH  11  16
BRANCH  12  18
ATOM     18  S   UNL A   1      31.309  23.460  26.283  1.00  0.00     0.265 S 
ATOM     19  O   UNL A   1      31.768  23.699  27.627  1.00  0.00    -0.201 OA
ATOM     20  O   UNL A   1      29.913  23.717  25.948  1.00  0.00    -0.201 OA
BRANCH  18  21
ATOM     21  N   UNL A   1      31.604  21.778  26.026  1.00  0.00    -0.279 N 
ATOM     22  H   UNL A   1      30.867  21.138  25.896  1.00  0.00     0.180 HD
BRANCH  21  23
ATOM     23  C   UNL A   1      32.972  21.358  26.014  1.00  0.00     0.053 A 
ATOM     24  C   UNL A   1      33.275  20.162  25.352  1.00  0.00     0.031 A 
ATOM     25  C   UNL A   1      33.979  22.142  26.557  1.00  0.00     0.077 A 
ATOM     26  C   UNL A   1      34.594  19.882  25.003  1.00  0.00     0.052 A 
ATOM     27  C   UNL A   1      35.277  21.919  26.129  1.00  0.00     0.163 A 
ATOM     28  C   UNL A   1      35.565  20.832  25.296  1.00  0.00     0.161 A 
ATOM     29  O   UNL A   1      36.182  22.898  26.431  1.00  0.00    -0.486 OA
ATOM     30  O   UNL A   1      36.753  20.761  24.610  1.00  0.00    -0.486 OA
ATOM     31  C   UNL A   1      37.337  22.898  25.586  1.00  0.00     0.271 C 
ATOM     32  C   UNL A   1      37.127  22.113  24.300  1.00  0.00     0.271 C 
ENDBRANCH  21  23
ENDBRANCH  18  21
ENDBRANCH  12  18
ENDBRANCH   7   8
ENDBRANCH   3   6
ENDBRANCH   1   2
BRANCH   1  33
ATOM     33  C   UNL A   1      31.587  32.357  26.954  1.00  0.00     0.042 C 
BRANCH  33  34
ATOM     34  C   UNL A   1      32.785  33.304  26.865  1.00  0.00     0.118 C 
BRANCH  34  35
ATOM     35  N   UNL A   1      32.668  34.441  27.773  1.00  0.00    -0.352 N 
ATOM     36  C   UNL A   1      33.283  34.673  28.980  1.00  0.00     0.251 C 
ATOM     37  H   UNL A   1      32.055  35.151  27.473  1.00  0.00     0.163 HD
ATOM     38  O   UNL A   1      32.891  35.593  29.694  1.00  0.00    -0.269 OA
BRANCH  36  39
ATOM     39  C   UNL A   1      34.403  33.818  29.428  1.00  0.00     0.039 A 
ATOM     40  C   UNL A   1      35.714  34.201  29.127  1.00  0.00     0.014 A 
ATOM     41  C   UNL A   1      34.164  32.633  30.127  1.00  0.00     0.014 A 
ATOM     42  C   UNL A   1      36.786  33.438  29.600  1.00  0.00     0.010 A 
ATOM     43  C   UNL A   1      35.232  31.909  30.653  1.00  0.00     0.010 A 
ATOM     44  C   UNL A   1      36.554  32.310  30.404  1.00  0.00    -0.014 A 
BRANCH  44  45
ATOM     45  C   UNL A   1      37.671  31.569  31.045  1.00  0.00     0.031 A 
ATOM     46  C   UNL A   1      38.042  31.835  32.479  1.00  0.00     0.074 A 
ATOM     47  C   UNL A   1      38.425  30.742  30.294  1.00  0.00     0.049 A 
ATOM     48  N   UNL A   1      39.046  31.361  33.170  1.00  0.00    -0.248 NA
ATOM     49  C   UNL A   1      37.189  32.773  33.226  1.00  0.00     0.031 C 
ATOM     50  C   UNL A   1      38.212  30.463  28.872  1.00  0.00     0.029 A 
ATOM     51  N   UNL A   1      39.546  30.014  30.609  1.00  0.00    -0.354 N 
ATOM     52  C   UNL A   1      38.968  31.966  34.419  1.00  0.00     0.074 A 
ATOM     53  C   UNL A   1      37.832  32.862  34.382  1.00  0.00     0.031 C 
ATOM     54  C   UNL A   1      39.172  29.632  28.436  1.00  0.00     0.029 A 
ATOM     55  C   UNL A   1      40.090  29.348  29.534  1.00  0.00     0.049 A 
ATOM     56  H   UNL A   1      39.925  29.973  31.517  1.00  0.00     0.167 HD
ATOM     57  C   UNL A   1      39.755  31.775  35.503  1.00  0.00     0.034 A 
ATOM     58  C   UNL A   1      41.212  28.608  29.437  1.00  0.00     0.034 A 
ATOM     59  C   UNL A   1      40.861  30.855  35.545  1.00  0.00     0.049 A 
ATOM     60  C   UNL A   1      42.059  28.401  30.662  1.00  0.00     0.074 A 
ATOM     61  C   UNL A   1      41.656  30.516  36.625  1.00  0.00     0.029 A 
ATOM     62  N   UNL A   1      41.337  30.138  34.458  1.00  0.00    -0.354 N 
ATOM     63  N   UNL A   1      41.871  28.848  31.880  1.00  0.00    -0.248 NA
ATOM     64  C   UNL A   1      43.259  27.567  30.507  1.00  0.00     0.031 C 
ATOM     65  C   UNL A   1      42.632  29.616  36.184  1.00  0.00     0.029 A 
ATOM     66  C   UNL A   1      42.430  29.377  34.835  1.00  0.00     0.049 A 
ATOM     67  H   UNL A   1      40.954  30.168  33.551  1.00  0.00     0.167 HD
ATOM     68  C   UNL A   1      42.912  28.332  32.641  1.00  0.00     0.074 A 
ATOM     69  C   UNL A   1      43.712  27.514  31.752  1.00  0.00     0.031 C 
ATOM     70  C   UNL A   1      43.192  28.532  33.952  1.00  0.00     0.034 A 
BRANCH  57  71
ATOM     71  C   UNL A   1      39.421  32.536  36.760  1.00  0.00     0.023 A 
ATOM     72  C   UNL A   1      40.076  33.757  37.026  1.00  0.00     0.012 A 
ATOM     73  C   UNL A   1      38.414  32.088  37.638  1.00  0.00     0.148 A 
ATOM     74  C   UNL A   1      39.757  34.504  38.159  1.00  0.00     0.002 A 
ATOM     75  C   UNL A   1      38.072  32.859  38.743  1.00  0.00     0.091 A 
ATOM     76  F   UNL A   1      37.816  30.916  37.379  1.00  0.00    -0.205 F 
ATOM     77  C   UNL A   1      38.749  34.060  39.010  1.00  0.00     0.022 A 
BRANCH  75  78
ATOM     78  S   UNL A   1      36.736  32.417  39.860  1.00  0.00     0.127 S 
ATOM     79  O   UNL A   1      35.589  32.389  38.952  1.00  0.00    -0.237 OA
ATOM     80  O   UNL A   1      37.161  31.104  40.345  1.00  0.00    -0.237 OA
ATOM     81  O   UNL A   1      36.700  33.459  40.877  1.00  0.00    -0.744 OA
ENDBRANCH  75  78
ENDBRANCH  57  71
BRANCH  58  82
ATOM     82  C   UNL A   1      41.575  27.973  28.138  1.00  0.00     0.023 A 
ATOM     83  C   UNL A   1      42.032  28.781  27.079  1.00  0.00     0.012 A 
ATOM     84  C   UNL A   1      41.495  26.579  27.953  1.00  0.00     0.148 A 
ATOM     85  C   UNL A   1      42.374  28.216  25.849  1.00  0.00     0.002 A 
ATOM     86  C   UNL A   1      41.889  26.016  26.744  1.00  0.00     0.091 A 
ATOM     87  F   UNL A   1      41.043  25.828  28.968  1.00  0.00    -0.205 F 
ATOM     88  C   UNL A   1      42.313  26.834  25.686  1.00  0.00     0.022 A 
BRANCH  86  89
ATOM     89  S   UNL A   1      41.965  24.239  26.491  1.00  0.00     0.127 S 
ATOM     90  O   UNL A   1      42.726  23.802  27.658  1.00  0.00    -0.237 OA
ATOM     91  O   UNL A   1      40.550  23.869  26.504  1.00  0.00    -0.237 OA
ATOM     92  O   UNL A   1      42.620  24.056  25.202  1.00  0.00    -0.744 OA
ENDBRANCH  86  89
ENDBRANCH  58  82
BRANCH  70  93
ATOM     93  C   UNL A   1      44.410  27.849  34.517  1.00  0.00     0.023 A 
ATOM     94  C   UNL A   1      45.651  28.516  34.503  1.00  0.00     0.012 A 
ATOM     95  C   UNL A   1      44.309  26.586  35.134  1.00  0.00     0.148 A 
ATOM     96  C   UNL A   1      46.780  27.925  35.068  1.00  0.00     0.002 A 
ATOM     97  C   UNL A   1      45.427  26.026  35.739  1.00  0.00     0.091 A 
ATOM     98  F   UNL A   1      43.122  25.962  35.123  1.00  0.00    -0.205 F 
ATOM     99  C   UNL A   1      46.665  26.687  35.697  1.00  0.00     0.022 A 
BRANCH  97 100
ATOM    100  S   UNL A   1      45.361  24.479  36.653  1.00  0.00     0.127 S 
ATOM    101  O   UNL A   1      46.766  24.283  37.007  1.00  0.00    -0.237 OA
ATOM    102  O   UNL A   1      44.490  24.823  37.776  1.00  0.00    -0.237 OA
ATOM    103  O   UNL A   1      44.808  23.492  35.735  1.00  0.00    -0.744 OA
ENDBRANCH  97 100
ENDBRANCH  70  93
ENDBRANCH  44  45
ENDBRANCH  36  39
ENDBRANCH  34  35
ENDBRANCH  33  34
ENDBRANCH   1  33
TORSDOF 19
ENDMDL
MODEL 3
REMARK VINA RESULT:     -11.2      2.542      3.726
REMARK SMILES COc1cc(/C=C/C(=O)NCCCNC(=O)c2ccc(-c3c4nc(c(-c5cccc(S(=O)(=O)[O-])c5F)c5ccc([nH]5)c(-c5cccc(S(=O)(=O)[O-])c5F)c5nc(c(-c6cccc(S(=O)(=O)[O-])c6F)c6ccc3[nH]6)C=C5)C=C4)cc2)cc(S(=O)(=O)Nc2ccc3c(c2)OCCO3)c1OC
REMARK SMILES IDX 11 1 10 2 8 3 9 4 7 6 6 7 5 8 3 9 4 10 96 11 81 12 80 13
REMARK SMILES IDX 2 14 1 15 97 16 98 17 82 18 83 19 84 20 85 21 86 23 87 24
REMARK SMILES IDX 91 25 88 26 90 27 89 28 92 29 95 30 93 31 94 32 12 33 13 34
REMARK SMILES IDX 14 35 15 36 16 38 17 39 18 40 79 41 19 42 78 43 20 44 21 45
REMARK SMILES IDX 22 46 72 47 23 48 77 49 71 50 73 51 24 52 76 53 70 54 69 55
REMARK SMILES IDX 25 57 57 58 37 59 56 60 38 61 41 62 55 63 74 64 39 65 40 66
REMARK SMILES IDX 54 68 75 69 42 70 26 71 27 72 35 73 28 74 30 75 36 76 29 77
REMARK SMILES IDX 31 78 32 79 33 80 34 81 58 82 59 83 67 84 60 85 62 86 68 87
REMARK SMILES IDX 61 88 63 89 64 90 65 91 66 92 43 93 44 94 52 95 45 96 47 97
REMARK SMILES IDX 53 98 46 99 48 100 49 101 50 102 51 103
REMARK H PARENT 10 5 85 22 14 37 73 56 41 67
REMARK Flexibility Score: inf
ROOT
ATOM      1  C   UNL A   1      32.143  29.865  26.117  1.00  0.00     0.118 C 
ENDROOT
BRANCH   1   2
ATOM      2  N   UNL A   1      31.631  29.944  24.758  1.00  0.00    -0.352 N 
ATOM      3  C   UNL A   1      31.443  28.984  23.817  1.00  0.00     0.244 C 
ATOM      4  O   UNL A   1      30.890  29.278  22.759  1.00  0.00    -0.270 OA
ATOM      5  H   UNL A   1      31.376  30.852  24.472  1.00  0.00     0.163 HD
BRANCH   3   6
ATOM      6  C   UNL A   1      31.754  27.561  24.093  1.00  0.00     0.072 C 
ATOM      7  C   UNL A   1      32.743  26.830  23.546  1.00  0.00     0.014 C 
BRANCH   7   8
ATOM      8  C   UNL A   1      33.038  25.424  23.916  1.00  0.00    -0.020 A 
ATOM      9  C   UNL A   1      32.480  23.324  25.043  1.00  0.00     0.162 A 
ATOM     10  C   UNL A   1      32.101  24.576  24.523  1.00  0.00     0.058 A 
ATOM     11  C   UNL A   1      33.811  22.873  24.952  1.00  0.00     0.181 A 
ATOM     12  C   UNL A   1      34.728  23.673  24.258  1.00  0.00     0.134 A 
ATOM     13  C   UNL A   1      34.341  24.933  23.739  1.00  0.00     0.034 A 
BRANCH   9  14
ATOM     14  O   UNL A   1      31.564  22.687  25.847  1.00  0.00    -0.493 OA
ATOM     15  C   UNL A   1      30.739  23.593  26.578  1.00  0.00     0.278 C 
ENDBRANCH   9  14
BRANCH  11  16
ATOM     16  O   UNL A   1      34.322  21.769  25.574  1.00  0.00    -0.492 OA
ATOM     17  C   UNL A   1      33.868  20.488  25.169  1.00  0.00     0.278 C 
ENDBRANCH  11  16
BRANCH  12  18
ATOM     18  S   UNL A   1      36.466  23.247  24.155  1.00  0.00     0.265 S 
ATOM     19  O   UNL A   1      36.912  23.637  22.842  1.00  0.00    -0.201 OA
ATOM     20  O   UNL A   1      37.125  23.809  25.329  1.00  0.00    -0.201 OA
BRANCH  18  21
ATOM     21  N   UNL A   1      36.703  21.537  24.194  1.00  0.00    -0.279 N 
ATOM     22  H   UNL A   1      36.157  20.928  23.647  1.00  0.00     0.180 HD
BRANCH  21  23
ATOM     23  C   UNL A   1      37.730  21.048  25.063  1.00  0.00     0.053 A 
ATOM     24  C   UNL A   1      38.041  19.685  24.993  1.00  0.00     0.031 A 
ATOM     25  C   UNL A   1      38.457  21.899  25.883  1.00  0.00     0.077 A 
ATOM     26  C   UNL A   1      39.237  19.221  25.535  1.00  0.00     0.052 A 
ATOM     27  C   UNL A   1      39.690  21.465  26.338  1.00  0.00     0.163 A 
ATOM     28  C   UNL A   1      40.104  20.149  26.099  1.00  0.00     0.161 A 
ATOM     29  O   UNL A   1      40.506  22.428  26.864  1.00  0.00    -0.486 OA
ATOM     30  O   UNL A   1      41.419  19.781  26.253  1.00  0.00    -0.486 OA
ATOM     31  C   UNL A   1      41.893  22.077  26.857  1.00  0.00     0.271 C 
ATOM     32  C   UNL A   1      42.207  20.932  25.907  1.00  0.00     0.271 C 
ENDBRANCH  21  23
ENDBRANCH  18  21
ENDBRANCH  12  18
ENDBRANCH   7   8
ENDBRANCH   3   6
ENDBRANCH   1   2
BRANCH   1  33
ATOM     33  C   UNL A   1      31.871  31.153  26.890  1.00  0.00     0.042 C 
BRANCH  33  34
ATOM     34  C   UNL A   1      33.095  32.059  27.034  1.00  0.00     0.118 C 
BRANCH  34  35
ATOM     35  N   UNL A   1      32.738  33.428  27.395  1.00  0.00    -0.352 N 
ATOM     36  C   UNL A   1      33.207  34.222  28.413  1.00  0.00     0.251 C 
ATOM     37  H   UNL A   1      32.057  33.846  26.819  1.00  0.00     0.163 HD
ATOM     38  O   UNL A   1      32.627  35.272  28.681  1.00  0.00    -0.269 OA
BRANCH  36  39
ATOM     39  C   UNL A   1      34.396  33.818  29.193  1.00  0.00     0.039 A 
ATOM     40  C   UNL A   1      34.225  33.030  30.336  1.00  0.00     0.014 A 
ATOM     41  C   UNL A   1      35.676  34.227  28.811  1.00  0.00     0.014 A 
ATOM     42  C   UNL A   1      35.344  32.586  31.047  1.00  0.00     0.010 A 
ATOM     43  C   UNL A   1      36.792  33.730  29.481  1.00  0.00     0.010 A 
ATOM     44  C   UNL A   1      36.638  32.896  30.599  1.00  0.00    -0.014 A 
BRANCH  44  45
ATOM     45  C   UNL A   1      37.844  32.314  31.243  1.00  0.00     0.031 A 
ATOM     46  C   UNL A   1      38.564  31.153  30.612  1.00  0.00     0.074 A 
ATOM     47  C   UNL A   1      38.217  32.759  32.459  1.00  0.00     0.049 A 
ATOM     48  N   UNL A   1      39.566  30.455  31.078  1.00  0.00    -0.248 NA
ATOM     49  C   UNL A   1      38.080  30.703  29.297  1.00  0.00     0.031 C 
ATOM     50  C   UNL A   1      37.551  33.827  33.208  1.00  0.00     0.029 A 
ATOM     51  N   UNL A   1      39.223  32.346  33.298  1.00  0.00    -0.354 N 
ATOM     52  C   UNL A   1      39.812  29.464  30.135  1.00  0.00     0.074 A 
ATOM     53  C   UNL A   1      38.836  29.636  29.080  1.00  0.00     0.031 C 
ATOM     54  C   UNL A   1      38.158  33.980  34.395  1.00  0.00     0.029 A 
ATOM     55  C   UNL A   1      39.233  32.999  34.509  1.00  0.00     0.049 A 
ATOM     56  H   UNL A   1      39.874  31.648  33.056  1.00  0.00     0.167 HD
ATOM     57  C   UNL A   1      40.776  28.514  30.136  1.00  0.00     0.034 A 
ATOM     58  C   UNL A   1      40.006  32.817  35.598  1.00  0.00     0.034 A 
ATOM     59  C   UNL A   1      41.766  28.371  31.169  1.00  0.00     0.049 A 
ATOM     60  C   UNL A   1      41.078  31.764  35.565  1.00  0.00     0.074 A 
ATOM     61  C   UNL A   1      42.845  27.505  31.212  1.00  0.00     0.029 A 
ATOM     62  N   UNL A   1      41.793  29.101  32.348  1.00  0.00    -0.354 N 
ATOM     63  N   UNL A   1      41.403  30.949  34.591  1.00  0.00    -0.248 NA
ATOM     64  C   UNL A   1      41.908  31.622  36.769  1.00  0.00     0.031 C 
ATOM     65  C   UNL A   1      43.507  27.692  32.430  1.00  0.00     0.029 A 
ATOM     66  C   UNL A   1      42.855  28.690  33.135  1.00  0.00     0.049 A 
ATOM     67  H   UNL A   1      41.151  29.808  32.588  1.00  0.00     0.167 HD
ATOM     68  C   UNL A   1      42.488  30.215  35.054  1.00  0.00     0.074 A 
ATOM     69  C   UNL A   1      42.784  30.703  36.385  1.00  0.00     0.031 C 
ATOM     70  C   UNL A   1      43.166  29.214  34.441  1.00  0.00     0.034 A 
BRANCH  57  71
ATOM     71  C   UNL A   1      40.846  27.580  28.955  1.00  0.00     0.023 A 
ATOM     72  C   UNL A   1      39.903  26.538  28.838  1.00  0.00     0.012 A 
ATOM     73  C   UNL A   1      41.792  27.773  27.928  1.00  0.00     0.148 A 
ATOM     74  C   UNL A   1      39.918  25.684  27.736  1.00  0.00     0.002 A 
ATOM     75  C   UNL A   1      41.773  26.945  26.812  1.00  0.00     0.091 A 
ATOM     76  F   UNL A   1      42.692  28.757  28.065  1.00  0.00    -0.205 F 
ATOM     77  C   UNL A   1      40.845  25.895  26.719  1.00  0.00     0.022 A 
BRANCH  75  78
ATOM     78  S   UNL A   1      42.874  27.177  25.410  1.00  0.00     0.127 S 
ATOM     79  O   UNL A   1      42.710  25.912  24.694  1.00  0.00    -0.237 OA
ATOM     80  O   UNL A   1      42.282  28.336  24.742  1.00  0.00    -0.237 OA
ATOM     81  O   UNL A   1      44.197  27.408  25.972  1.00  0.00    -0.744 OA
ENDBRANCH  75  78
ENDBRANCH  57  71
BRANCH  58  82
ATOM     82  C   UNL A   1      39.819  33.683  36.797  1.00  0.00     0.023 A 
ATOM     83  C   UNL A   1      38.719  33.457  37.647  1.00  0.00     0.012 A 
ATOM     84  C   UNL A   1      40.733  34.707  37.115  1.00  0.00     0.148 A 
ATOM     85  C   UNL A   1      38.514  34.254  38.774  1.00  0.00     0.002 A 
ATOM     86  C   UNL A   1      40.554  35.462  38.269  1.00  0.00     0.091 A 
ATOM     87  F   UNL A   1      41.766  34.917  36.286  1.00  0.00    -0.205 F 
ATOM     88  C   UNL A   1      39.437  35.248  39.090  1.00  0.00     0.022 A 
BRANCH  86  89
ATOM     89  S   UNL A   1      41.760  36.674  38.820  1.00  0.00     0.127 S 
ATOM     90  O   UNL A   1      40.955  37.522  39.695  1.00  0.00    -0.237 OA
ATOM     91  O   UNL A   1      42.742  35.835  39.507  1.00  0.00    -0.237 OA
ATOM     92  O   UNL A   1      42.259  37.308  37.607  1.00  0.00    -0.744 OA
ENDBRANCH  86  89
ENDBRANCH  58  82
BRANCH  70  93
ATOM     93  C   UNL A   1      44.305  28.579  35.194  1.00  0.00     0.023 A 
ATOM     94  C   UNL A   1      45.614  29.073  35.023  1.00  0.00     0.012 A 
ATOM     95  C   UNL A   1      44.070  27.551  36.129  1.00  0.00     0.148 A 
ATOM     96  C   UNL A   1      46.675  28.536  35.749  1.00  0.00     0.002 A 
ATOM     97  C   UNL A   1      45.124  27.054  36.885  1.00  0.00     0.091 A 
ATOM     98  F   UNL A   1      42.820  27.085  36.266  1.00  0.00    -0.205 F 
ATOM     99  C   UNL A   1      46.428  27.537  36.689  1.00  0.00     0.022 A 
BRANCH  97 100
ATOM    100  S   UNL A   1      44.894  25.833  38.183  1.00  0.00     0.127 S 
ATOM    101  O   UNL A   1      44.199  24.765  37.467  1.00  0.00    -0.237 OA
ATOM    102  O   UNL A   1      46.273  25.519  38.558  1.00  0.00    -0.237 OA
ATOM    103  O   UNL A   1      44.117  26.492  39.224  1.00  0.00    -0.744 OA
ENDBRANCH  97 100
ENDBRANCH  70  93
ENDBRANCH  44  45
ENDBRANCH  36  39
ENDBRANCH  34  35
ENDBRANCH  33  34
ENDBRANCH   1  33
TORSDOF 19
ENDMDL
