MODEL 1
REMARK VINA RESULT:     -11.5      0.000      0.000
REMARK SMILES COc1cc(OC)c([C@H]2CC[NH2+][C@H]2C(=O)NCCCNC(=O)c2ccc(-c3c4nc(c(-c5cccc(S(=O)(=O)[O-])c5F)c5ccc([nH]5)c(-c5cccc(S(=O)(=O)[O-])c5F)c5nc(c(-c6cccc(S(=O)(=O)[O-])c6F)c6ccc3[nH]6)C=C5)C=C4)cc2)cc1OC
REMARK SMILES IDX 18 1 17 2 16 3 14 4 15 5 13 7 9 8 10 9 11 10 12 11 8 14 3 15
REMARK SMILES IDX 4 16 87 17 5 18 86 19 2 20 1 21 88 22 89 23 6 24 7 25 19 26
REMARK SMILES IDX 20 27 21 28 22 30 23 31 24 32 85 33 25 34 84 35 26 36 27 37
REMARK SMILES IDX 28 38 78 39 29 40 83 41 77 42 79 43 30 44 82 45 76 46 75 47
REMARK SMILES IDX 31 49 63 50 43 51 62 52 44 53 47 54 61 55 80 56 45 57 46 58
REMARK SMILES IDX 60 60 81 61 48 62 32 63 33 64 41 65 34 66 36 67 42 68 35 69
REMARK SMILES IDX 37 70 38 71 39 72 40 73 64 74 65 75 73 76 66 77 68 78 74 79
REMARK SMILES IDX 67 80 69 81 70 82 71 83 72 84 49 85 50 86 58 87 51 88 53 89
REMARK SMILES IDX 59 90 52 91 54 92 55 93 56 94 57 95
REMARK H PARENT 16 6 12 12 12 13 20 29 79 48 47 59
REMARK Flexibility Score: inf
ROOT
ATOM      1  C   UNL A   1      31.654  31.217  26.161  1.00  0.00     0.042 C 
ENDROOT
BRANCH   1   2
ATOM      2  C   UNL A   1      31.820  29.804  25.613  1.00  0.00     0.118 C 
BRANCH   2   3
ATOM      3  N   UNL A   1      32.911  29.684  24.665  1.00  0.00    -0.351 N 
ATOM      4  C   UNL A   1      33.012  29.153  23.420  1.00  0.00     0.278 C 
ATOM      5  O   UNL A   1      34.138  29.197  22.905  1.00  0.00    -0.268 OA
ATOM      6  H   UNL A   1      33.756  30.066  24.994  1.00  0.00     0.163 HD
BRANCH   4   7
ATOM      7  C   UNL A   1      31.830  28.559  22.627  1.00  0.00     0.280 C 
ATOM      8  C   UNL A   1      31.325  27.111  22.821  1.00  0.00     0.097 C 
ATOM      9  C   UNL A   1      29.997  27.324  23.558  1.00  0.00     0.076 C 
ATOM     10  C   UNL A   1      29.483  28.642  23.021  1.00  0.00     0.262 C 
ATOM     11  N   UNL A   1      30.650  29.472  22.736  1.00  0.00    -0.335 N 
ATOM     12  H   UNL A   1      30.794  30.142  23.492  1.00  0.00     0.346 HD
ATOM     13  H   UNL A   1      30.518  29.995  21.871  1.00  0.00     0.346 HD
BRANCH   8  14
ATOM     14  C   UNL A   1      32.144  25.958  23.381  1.00  0.00     0.008 A 
ATOM     15  C   UNL A   1      33.459  23.580  24.238  1.00  0.00     0.164 A 
ATOM     16  C   UNL A   1      33.775  24.159  23.008  1.00  0.00     0.097 A 
ATOM     17  C   UNL A   1      32.567  24.235  25.091  1.00  0.00     0.161 A 
ATOM     18  C   UNL A   1      33.142  25.339  22.600  1.00  0.00     0.126 A 
ATOM     19  C   UNL A   1      31.958  25.433  24.668  1.00  0.00     0.058 A 
BRANCH  15  20
ATOM     20  O   UNL A   1      34.096  22.440  24.641  1.00  0.00    -0.493 OA
ATOM     21  C   UNL A   1      33.350  21.248  24.367  1.00  0.00     0.278 C 
ENDBRANCH  15  20
BRANCH  17  22
ATOM     22  O   UNL A   1      32.159  23.843  26.341  1.00  0.00    -0.493 OA
ATOM     23  C   UNL A   1      30.776  23.560  26.523  1.00  0.00     0.278 C 
ENDBRANCH  17  22
BRANCH  18  24
ATOM     24  O   UNL A   1      33.508  25.813  21.364  1.00  0.00    -0.496 OA
ATOM     25  C   UNL A   1      32.614  25.384  20.336  1.00  0.00     0.278 C 
ENDBRANCH  18  24
ENDBRANCH   8  14
ENDBRANCH   4   7
ENDBRANCH   2   3
ENDBRANCH   1   2
BRANCH   1  26
ATOM     26  C   UNL A   1      32.641  31.572  27.269  1.00  0.00     0.118 C 
BRANCH  26  27
ATOM     27  N   UNL A   1      32.898  33.006  27.310  1.00  0.00    -0.352 N 
ATOM     28  C   UNL A   1      33.845  33.689  28.031  1.00  0.00     0.251 C 
ATOM     29  H   UNL A   1      32.312  33.559  26.745  1.00  0.00     0.163 HD
ATOM     30  O   UNL A   1      33.745  34.907  28.167  1.00  0.00    -0.269 OA
BRANCH  28  31
ATOM     31  C   UNL A   1      34.983  32.964  28.636  1.00  0.00     0.039 A 
ATOM     32  C   UNL A   1      36.286  33.357  28.320  1.00  0.00     0.014 A 
ATOM     33  C   UNL A   1      34.762  31.871  29.479  1.00  0.00     0.014 A 
ATOM     34  C   UNL A   1      37.370  32.677  28.880  1.00  0.00     0.010 A 
ATOM     35  C   UNL A   1      35.843  31.230  30.081  1.00  0.00     0.010 A 
ATOM     36  C   UNL A   1      37.157  31.618  29.779  1.00  0.00    -0.014 A 
BRANCH  36  37
ATOM     37  C   UNL A   1      38.292  30.901  30.411  1.00  0.00     0.031 A 
ATOM     38  C   UNL A   1      38.739  31.265  31.801  1.00  0.00     0.074 A 
ATOM     39  C   UNL A   1      38.976  29.982  29.702  1.00  0.00     0.049 A 
ATOM     40  N   UNL A   1      39.747  30.799  32.491  1.00  0.00    -0.248 NA
ATOM     41  C   UNL A   1      37.969  32.310  32.496  1.00  0.00     0.031 C 
ATOM     42  C   UNL A   1      38.685  29.593  28.321  1.00  0.00     0.029 A 
ATOM     43  N   UNL A   1      40.075  29.232  30.035  1.00  0.00    -0.354 N 
ATOM     44  C   UNL A   1      39.756  31.515  33.683  1.00  0.00     0.074 A 
ATOM     45  C   UNL A   1      38.671  32.468  33.609  1.00  0.00     0.031 C 
ATOM     46  C   UNL A   1      39.584  28.677  27.924  1.00  0.00     0.029 A 
ATOM     47  C   UNL A   1      40.528  28.433  29.011  1.00  0.00     0.049 A 
ATOM     48  H   UNL A   1      40.499  29.262  30.923  1.00  0.00     0.167 HD
ATOM     49  C   UNL A   1      40.574  31.372  34.753  1.00  0.00     0.034 A 
ATOM     50  C   UNL A   1      41.588  27.603  28.952  1.00  0.00     0.034 A 
ATOM     51  C   UNL A   1      41.617  30.386  34.845  1.00  0.00     0.049 A 
ATOM     52  C   UNL A   1      42.454  27.429  30.170  1.00  0.00     0.074 A 
ATOM     53  C   UNL A   1      42.433  30.096  35.923  1.00  0.00     0.029 A 
ATOM     54  N   UNL A   1      41.990  29.533  33.819  1.00  0.00    -0.354 N 
ATOM     55  N   UNL A   1      42.343  27.997  31.347  1.00  0.00    -0.248 NA
ATOM     56  C   UNL A   1      43.569  26.478  30.066  1.00  0.00     0.031 C 
ATOM     57  C   UNL A   1      43.311  29.074  35.544  1.00  0.00     0.029 A 
ATOM     58  C   UNL A   1      43.032  28.720  34.235  1.00  0.00     0.049 A 
ATOM     59  H   UNL A   1      41.577  29.507  32.926  1.00  0.00     0.167 HD
ATOM     60  C   UNL A   1      43.351  27.449  32.131  1.00  0.00     0.074 A 
ATOM     61  C   UNL A   1      44.049  26.487  31.302  1.00  0.00     0.031 C 
ATOM     62  C   UNL A   1      43.681  27.728  33.417  1.00  0.00     0.034 A 
BRANCH  49  63
ATOM     63  C   UNL A   1      40.331  32.263  35.943  1.00  0.00     0.023 A 
ATOM     64  C   UNL A   1      41.142  33.401  36.130  1.00  0.00     0.012 A 
ATOM     65  C   UNL A   1      39.273  32.013  36.838  1.00  0.00     0.148 A 
ATOM     66  C   UNL A   1      40.925  34.259  37.207  1.00  0.00     0.002 A 
ATOM     67  C   UNL A   1      39.037  32.896  37.886  1.00  0.00     0.091 A 
ATOM     68  F   UNL A   1      38.527  30.915  36.658  1.00  0.00    -0.205 F 
ATOM     69  C   UNL A   1      39.867  34.012  38.078  1.00  0.00     0.022 A 
BRANCH  67  70
ATOM     70  S   UNL A   1      37.653  32.705  39.017  1.00  0.00     0.127 S 
ATOM     71  O   UNL A   1      36.518  32.686  38.093  1.00  0.00    -0.237 OA
ATOM     72  O   UNL A   1      37.945  31.417  39.648  1.00  0.00    -0.237 OA
ATOM     73  O   UNL A   1      37.713  33.847  39.916  1.00  0.00    -0.744 OA
ENDBRANCH  67  70
ENDBRANCH  49  63
BRANCH  50  74
ATOM     74  C   UNL A   1      41.843  26.818  27.712  1.00  0.00     0.023 A 
ATOM     75  C   UNL A   1      42.433  27.452  26.603  1.00  0.00     0.012 A 
ATOM     76  C   UNL A   1      41.550  25.442  27.642  1.00  0.00     0.148 A 
ATOM     77  C   UNL A   1      42.702  26.737  25.435  1.00  0.00     0.002 A 
ATOM     78  C   UNL A   1      41.873  24.725  26.496  1.00  0.00     0.091 A 
ATOM     79  F   UNL A   1      40.977  24.858  28.704  1.00  0.00    -0.205 F 
ATOM     80  C   UNL A   1      42.433  25.372  25.385  1.00  0.00     0.022 A 
BRANCH  78  81
ATOM     81  S   UNL A   1      41.701  22.937  26.419  1.00  0.00     0.127 S 
ATOM     82  O   UNL A   1      42.394  22.517  27.636  1.00  0.00    -0.237 OA
ATOM     83  O   UNL A   1      40.247  22.768  26.447  1.00  0.00    -0.237 OA
ATOM     84  O   UNL A   1      42.319  22.547  25.160  1.00  0.00    -0.744 OA
ENDBRANCH  78  81
ENDBRANCH  50  74
BRANCH  62  85
ATOM     85  C   UNL A   1      44.834  26.973  34.024  1.00  0.00     0.023 A 
ATOM     86  C   UNL A   1      46.143  27.474  33.885  1.00  0.00     0.012 A 
ATOM     87  C   UNL A   1      44.612  25.817  34.798  1.00  0.00     0.148 A 
ATOM     88  C   UNL A   1      47.218  26.822  34.486  1.00  0.00     0.002 A 
ATOM     89  C   UNL A   1      45.684  25.198  35.431  1.00  0.00     0.091 A 
ATOM     90  F   UNL A   1      43.361  25.346  34.901  1.00  0.00    -0.205 F 
ATOM     91  C   UNL A   1      46.988  25.693  35.269  1.00  0.00     0.022 A 
BRANCH  89  92
ATOM     92  S   UNL A   1      45.468  23.793  36.532  1.00  0.00     0.127 S 
ATOM     93  O   UNL A   1      44.658  24.375  37.601  1.00  0.00    -0.237 OA
ATOM     94  O   UNL A   1      44.759  22.837  35.681  1.00  0.00    -0.237 OA
ATOM     95  O   UNL A   1      46.810  23.377  36.916  1.00  0.00    -0.744 OA
ENDBRANCH  89  92
ENDBRANCH  62  85
ENDBRANCH  36  37
ENDBRANCH  28  31
ENDBRANCH  26  27
ENDBRANCH   1  26
TORSDOF 17
ENDMDL
MODEL 2
REMARK VINA RESULT:     -11.5      5.745      9.201
REMARK SMILES COc1cc(OC)c([C@H]2CC[NH2+][C@H]2C(=O)NCCCNC(=O)c2ccc(-c3c4nc(c(-c5cccc(S(=O)(=O)[O-])c5F)c5ccc([nH]5)c(-c5cccc(S(=O)(=O)[O-])c5F)c5nc(c(-c6cccc(S(=O)(=O)[O-])c6F)c6ccc3[nH]6)C=C5)C=C4)cc2)cc1OC
REMARK SMILES IDX 18 1 17 2 16 3 14 4 15 5 13 7 9 8 10 9 11 10 12 11 8 14 3 15
REMARK SMILES IDX 4 16 87 17 5 18 86 19 2 20 1 21 88 22 89 23 6 24 7 25 19 26
REMARK SMILES IDX 20 27 21 28 22 30 23 31 24 32 85 33 25 34 84 35 26 36 27 37
REMARK SMILES IDX 28 38 78 39 29 40 83 41 77 42 79 43 30 44 82 45 76 46 75 47
REMARK SMILES IDX 31 49 63 50 43 51 62 52 44 53 47 54 61 55 80 56 45 57 46 58
REMARK SMILES IDX 60 60 81 61 48 62 32 63 33 64 41 65 34 66 36 67 42 68 35 69
REMARK SMILES IDX 37 70 38 71 39 72 40 73 64 74 65 75 73 76 66 77 68 78 74 79
REMARK SMILES IDX 67 80 69 81 70 82 71 83 72 84 49 85 50 86 58 87 51 88 53 89
REMARK SMILES IDX 59 90 52 91 54 92 55 93 56 94 57 95
REMARK H PARENT 16 6 12 12 12 13 20 29 79 48 47 59
REMARK Flexibility Score: inf
ROOT
ATOM      1  C   UNL A   1      37.129  19.930  24.950  1.00  0.00     0.042 C 
ENDROOT
BRANCH   1   2
ATOM      2  C   UNL A   1      35.961  20.895  24.785  1.00  0.00     0.118 C 
BRANCH   2   3
ATOM      3  N   UNL A   1      35.327  21.246  26.042  1.00  0.00    -0.351 N 
ATOM      4  C   UNL A   1      34.080  21.061  26.544  1.00  0.00     0.278 C 
ATOM      5  O   UNL A   1      33.876  21.535  27.670  1.00  0.00    -0.268 OA
ATOM      6  H   UNL A   1      35.929  21.720  26.661  1.00  0.00     0.163 HD
BRANCH   4   7
ATOM      7  C   UNL A   1      32.959  20.282  25.827  1.00  0.00     0.280 C 
ATOM      8  C   UNL A   1      32.211  20.825  24.587  1.00  0.00     0.097 C 
ATOM      9  C   UNL A   1      32.775  19.953  23.458  1.00  0.00     0.076 C 
ATOM     10  C   UNL A   1      33.052  18.621  24.122  1.00  0.00     0.262 C 
ATOM     11  N   UNL A   1      33.442  18.904  25.500  1.00  0.00    -0.335 N 
ATOM     12  H   UNL A   1      34.458  18.859  25.591  1.00  0.00     0.346 HD
ATOM     13  H   UNL A   1      33.037  18.219  26.137  1.00  0.00     0.346 HD
BRANCH   8  14
ATOM     14  C   UNL A   1      32.085  22.292  24.206  1.00  0.00     0.008 A 
ATOM     15  C   UNL A   1      31.559  24.939  23.290  1.00  0.00     0.164 A 
ATOM     16  C   UNL A   1      30.849  24.409  24.368  1.00  0.00     0.097 A 
ATOM     17  C   UNL A   1      32.604  24.197  22.732  1.00  0.00     0.161 A 
ATOM     18  C   UNL A   1      31.123  23.116  24.828  1.00  0.00     0.126 A 
ATOM     19  C   UNL A   1      32.878  22.906  23.225  1.00  0.00     0.058 A 
BRANCH  15  20
ATOM     20  O   UNL A   1      31.302  26.210  22.859  1.00  0.00    -0.493 OA
ATOM     21  C   UNL A   1      32.003  27.212  23.603  1.00  0.00     0.278 C 
ENDBRANCH  15  20
BRANCH  17  22
ATOM     22  O   UNL A   1      33.430  24.557  21.697  1.00  0.00    -0.493 OA
ATOM     23  C   UNL A   1      32.827  24.831  20.438  1.00  0.00     0.278 C 
ENDBRANCH  17  22
BRANCH  18  24
ATOM     24  O   UNL A   1      30.352  22.682  25.878  1.00  0.00    -0.496 OA
ATOM     25  C   UNL A   1      30.805  23.201  27.129  1.00  0.00     0.278 C 
ENDBRANCH  18  24
ENDBRANCH   8  14
ENDBRANCH   4   7
ENDBRANCH   2   3
ENDBRANCH   1   2
BRANCH   1  26
ATOM     26  C   UNL A   1      38.407  20.586  25.461  1.00  0.00     0.118 C 
BRANCH  26  27
ATOM     27  N   UNL A   1      39.404  19.589  25.829  1.00  0.00    -0.352 N 
ATOM     28  C   UNL A   1      40.728  19.771  26.140  1.00  0.00     0.251 C 
ATOM     29  H   UNL A   1      39.084  18.658  25.857  1.00  0.00     0.163 HD
ATOM     30  O   UNL A   1      41.489  18.806  26.153  1.00  0.00    -0.269 OA
BRANCH  28  31
ATOM     31  C   UNL A   1      41.235  21.121  26.464  1.00  0.00     0.039 A 
ATOM     32  C   UNL A   1      41.791  21.902  25.447  1.00  0.00     0.014 A 
ATOM     33  C   UNL A   1      41.201  21.598  27.778  1.00  0.00     0.014 A 
ATOM     34  C   UNL A   1      42.279  23.178  25.741  1.00  0.00     0.010 A 
ATOM     35  C   UNL A   1      41.636  22.891  28.058  1.00  0.00     0.010 A 
ATOM     36  C   UNL A   1      42.191  23.689  27.046  1.00  0.00    -0.014 A 
BRANCH  36  37
ATOM     37  C   UNL A   1      42.673  25.054  27.376  1.00  0.00     0.031 A 
ATOM     38  C   UNL A   1      41.747  26.050  28.018  1.00  0.00     0.074 A 
ATOM     39  C   UNL A   1      43.918  25.423  27.018  1.00  0.00     0.049 A 
ATOM     40  N   UNL A   1      41.966  27.304  28.320  1.00  0.00    -0.248 NA
ATOM     41  C   UNL A   1      40.387  25.586  28.339  1.00  0.00     0.031 C 
ATOM     42  C   UNL A   1      44.886  24.570  26.327  1.00  0.00     0.029 A 
ATOM     43  N   UNL A   1      44.571  26.621  27.160  1.00  0.00    -0.354 N 
ATOM     44  C   UNL A   1      40.767  27.788  28.830  1.00  0.00     0.074 A 
ATOM     45  C   UNL A   1      39.814  26.701  28.770  1.00  0.00     0.031 C 
ATOM     46  C   UNL A   1      46.008  25.273  26.102  1.00  0.00     0.029 A 
ATOM     47  C   UNL A   1      45.832  26.630  26.611  1.00  0.00     0.049 A 
ATOM     48  H   UNL A   1      44.174  27.400  27.613  1.00  0.00     0.167 HD
ATOM     49  C   UNL A   1      40.491  29.016  29.331  1.00  0.00     0.034 A 
ATOM     50  C   UNL A   1      46.741  27.622  26.521  1.00  0.00     0.034 A 
ATOM     51  C   UNL A   1      41.455  30.077  29.439  1.00  0.00     0.049 A 
ATOM     52  C   UNL A   1      46.426  28.963  27.126  1.00  0.00     0.074 A 
ATOM     53  C   UNL A   1      41.302  31.323  30.022  1.00  0.00     0.029 A 
ATOM     54  N   UNL A   1      42.752  30.020  28.952  1.00  0.00    -0.354 N 
ATOM     55  N   UNL A   1      45.341  29.349  27.754  1.00  0.00    -0.248 NA
ATOM     56  C   UNL A   1      47.469  29.994  27.040  1.00  0.00     0.031 C 
ATOM     57  C   UNL A   1      42.503  32.025  29.874  1.00  0.00     0.029 A 
ATOM     58  C   UNL A   1      43.407  31.212  29.212  1.00  0.00     0.049 A 
ATOM     59  H   UNL A   1      43.148  29.248  28.489  1.00  0.00     0.167 HD
ATOM     60  C   UNL A   1      45.584  30.654  28.166  1.00  0.00     0.074 A 
ATOM     61  C   UNL A   1      46.927  30.986  27.735  1.00  0.00     0.031 C 
ATOM     62  C   UNL A   1      44.763  31.508  28.827  1.00  0.00     0.034 A 
BRANCH  49  63
ATOM     63  C   UNL A   1      39.103  29.259  29.862  1.00  0.00     0.023 A 
ATOM     64  C   UNL A   1      38.782  28.844  31.171  1.00  0.00     0.012 A 
ATOM     65  C   UNL A   1      38.139  29.945  29.099  1.00  0.00     0.148 A 
ATOM     66  C   UNL A   1      37.514  29.078  31.700  1.00  0.00     0.002 A 
ATOM     67  C   UNL A   1      36.890  30.212  29.649  1.00  0.00     0.091 A 
ATOM     68  F   UNL A   1      38.454  30.313  27.849  1.00  0.00    -0.205 F 
ATOM     69  C   UNL A   1      36.572  29.770  30.944  1.00  0.00     0.022 A 
BRANCH  67  70
ATOM     70  S   UNL A   1      35.636  31.163  28.781  1.00  0.00     0.127 S 
ATOM     71  O   UNL A   1      34.848  31.695  29.892  1.00  0.00    -0.237 OA
ATOM     72  O   UNL A   1      36.439  32.161  28.073  1.00  0.00    -0.237 OA
ATOM     73  O   UNL A   1      34.946  30.217  27.917  1.00  0.00    -0.744 OA
ENDBRANCH  67  70
ENDBRANCH  49  63
BRANCH  50  74
ATOM     74  C   UNL A   1      48.065  27.355  25.893  1.00  0.00     0.023 A 
ATOM     75  C   UNL A   1      49.123  26.880  26.690  1.00  0.00     0.012 A 
ATOM     76  C   UNL A   1      48.267  27.521  24.510  1.00  0.00     0.148 A 
ATOM     77  C   UNL A   1      50.369  26.601  26.126  1.00  0.00     0.002 A 
ATOM     78  C   UNL A   1      49.492  27.187  23.945  1.00  0.00     0.091 A 
ATOM     79  F   UNL A   1      47.250  27.986  23.769  1.00  0.00    -0.205 F 
ATOM     80  C   UNL A   1      50.550  26.744  24.753  1.00  0.00     0.022 A 
BRANCH  78  81
ATOM     81  S   UNL A   1      49.748  27.195  22.167  1.00  0.00     0.127 S 
ATOM     82  O   UNL A   1      48.727  26.254  21.713  1.00  0.00    -0.237 OA
ATOM     83  O   UNL A   1      49.492  28.596  21.826  1.00  0.00    -0.237 OA
ATOM     84  O   UNL A   1      51.132  26.783  21.977  1.00  0.00    -0.744 OA
ENDBRANCH  78  81
ENDBRANCH  50  74
BRANCH  62  85
ATOM     85  C   UNL A   1      45.294  32.880  29.149  1.00  0.00     0.023 A 
ATOM     86  C   UNL A   1      45.931  33.106  30.385  1.00  0.00     0.012 A 
ATOM     87  C   UNL A   1      45.235  33.919  28.200  1.00  0.00     0.148 A 
ATOM     88  C   UNL A   1      46.479  34.353  30.682  1.00  0.00     0.002 A 
ATOM     89  C   UNL A   1      45.823  35.146  28.485  1.00  0.00     0.091 A 
ATOM     90  F   UNL A   1      44.607  33.689  27.038  1.00  0.00    -0.205 F 
ATOM     91  C   UNL A   1      46.437  35.368  29.728  1.00  0.00     0.022 A 
BRANCH  89  92
ATOM     92  S   UNL A   1      45.896  36.479  27.282  1.00  0.00     0.127 S 
ATOM     93  O   UNL A   1      46.647  37.498  28.013  1.00  0.00    -0.237 OA
ATOM     94  O   UNL A   1      46.625  35.860  26.175  1.00  0.00    -0.237 OA
ATOM     95  O   UNL A   1      44.512  36.817  26.977  1.00  0.00    -0.744 OA
ENDBRANCH  89  92
ENDBRANCH  62  85
ENDBRANCH  36  37
ENDBRANCH  28  31
ENDBRANCH  26  27
ENDBRANCH   1  26
TORSDOF 17
ENDMDL
MODEL 3
REMARK VINA RESULT:     -11.3      2.700      3.321
REMARK SMILES COc1cc(OC)c([C@H]2CC[NH2+][C@H]2C(=O)NCCCNC(=O)c2ccc(-c3c4nc(c(-c5cccc(S(=O)(=O)[O-])c5F)c5ccc([nH]5)c(-c5cccc(S(=O)(=O)[O-])c5F)c5nc(c(-c6cccc(S(=O)(=O)[O-])c6F)c6ccc3[nH]6)C=C5)C=C4)cc2)cc1OC
REMARK SMILES IDX 18 1 17 2 16 3 14 4 15 5 13 7 9 8 10 9 11 10 12 11 8 14 3 15
REMARK SMILES IDX 4 16 87 17 5 18 86 19 2 20 1 21 88 22 89 23 6 24 7 25 19 26
REMARK SMILES IDX 20 27 21 28 22 30 23 31 24 32 85 33 25 34 84 35 26 36 27 37
REMARK SMILES IDX 28 38 78 39 29 40 83 41 77 42 79 43 30 44 82 45 76 46 75 47
REMARK SMILES IDX 31 49 63 50 43 51 62 52 44 53 47 54 61 55 80 56 45 57 46 58
REMARK SMILES IDX 60 60 81 61 48 62 32 63 33 64 41 65 34 66 36 67 42 68 35 69
REMARK SMILES IDX 37 70 38 71 39 72 40 73 64 74 65 75 73 76 66 77 68 78 74 79
REMARK SMILES IDX 67 80 69 81 70 82 71 83 72 84 49 85 50 86 58 87 51 88 53 89
REMARK SMILES IDX 59 90 52 91 54 92 55 93 56 94 57 95
REMARK H PARENT 16 6 12 12 12 13 20 29 79 48 47 59
REMARK Flexibility Score: inf
ROOT
ATOM      1  C   UNL A   1      33.698  28.157  26.070  1.00  0.00     0.042 C 
ENDROOT
BRANCH   1   2
ATOM      2  C   UNL A   1      33.233  29.130  24.993  1.00  0.00     0.118 C 
BRANCH   2   3
ATOM      3  N   UNL A   1      33.921  28.956  23.729  1.00  0.00    -0.351 N 
ATOM      4  C   UNL A   1      33.528  28.532  22.500  1.00  0.00     0.278 C 
ATOM      5  O   UNL A   1      34.416  28.477  21.639  1.00  0.00    -0.268 OA
ATOM      6  H   UNL A   1      34.876  29.195  23.770  1.00  0.00     0.163 HD
BRANCH   4   7
ATOM      7  C   UNL A   1      32.076  28.172  22.127  1.00  0.00     0.280 C 
ATOM      8  C   UNL A   1      31.355  26.912  22.660  1.00  0.00     0.097 C 
ATOM      9  C   UNL A   1      30.358  27.507  23.663  1.00  0.00     0.076 C 
ATOM     10  C   UNL A   1      30.000  28.855  23.075  1.00  0.00     0.262 C 
ATOM     11  N   UNL A   1      31.189  29.349  22.385  1.00  0.00    -0.335 N 
ATOM     12  H   UNL A   1      31.674  30.030  22.970  1.00  0.00     0.346 HD
ATOM     13  H   UNL A   1      30.934  29.806  21.511  1.00  0.00     0.346 HD
BRANCH   8  14
ATOM     14  C   UNL A   1      32.038  25.652  23.169  1.00  0.00     0.008 A 
ATOM     15  C   UNL A   1      33.071  23.107  23.927  1.00  0.00     0.164 A 
ATOM     16  C   UNL A   1      33.433  23.683  22.709  1.00  0.00     0.097 A 
ATOM     17  C   UNL A   1      32.280  23.837  24.819  1.00  0.00     0.161 A 
ATOM     18  C   UNL A   1      32.940  24.943  22.349  1.00  0.00     0.126 A 
ATOM     19  C   UNL A   1      31.813  25.113  24.444  1.00  0.00     0.058 A 
BRANCH  15  20
ATOM     20  O   UNL A   1      33.573  21.887  24.283  1.00  0.00    -0.493 OA
ATOM     21  C   UNL A   1      32.745  20.793  23.872  1.00  0.00     0.278 C 
ENDBRANCH  15  20
BRANCH  17  22
ATOM     22  O   UNL A   1      31.849  23.458  26.065  1.00  0.00    -0.493 OA
ATOM     23  C   UNL A   1      30.611  22.761  26.149  1.00  0.00     0.278 C 
ENDBRANCH  17  22
BRANCH  18  24
ATOM     24  O   UNL A   1      33.340  25.409  21.121  1.00  0.00    -0.496 OA
ATOM     25  C   UNL A   1      32.513  24.917  20.064  1.00  0.00     0.278 C 
ENDBRANCH  18  24
ENDBRANCH   8  14
ENDBRANCH   4   7
ENDBRANCH   2   3
ENDBRANCH   1   2
BRANCH   1  26
ATOM     26  C   UNL A   1      33.601  28.710  27.488  1.00  0.00     0.118 C 
BRANCH  26  27
ATOM     27  N   UNL A   1      33.624  30.167  27.491  1.00  0.00    -0.352 N 
ATOM     28  C   UNL A   1      34.527  31.011  28.085  1.00  0.00     0.251 C 
ATOM     29  H   UNL A   1      32.892  30.604  26.999  1.00  0.00     0.163 HD
ATOM     30  O   UNL A   1      34.248  32.200  28.227  1.00  0.00    -0.269 OA
BRANCH  28  31
ATOM     31  C   UNL A   1      35.833  30.494  28.549  1.00  0.00     0.039 A 
ATOM     32  C   UNL A   1      35.899  29.799  29.759  1.00  0.00     0.014 A 
ATOM     33  C   UNL A   1      36.995  30.733  27.810  1.00  0.00     0.014 A 
ATOM     34  C   UNL A   1      37.127  29.310  30.212  1.00  0.00     0.010 A 
ATOM     35  C   UNL A   1      38.209  30.197  28.234  1.00  0.00     0.010 A 
ATOM     36  C   UNL A   1      38.290  29.491  29.444  1.00  0.00    -0.014 A 
BRANCH  36  37
ATOM     37  C   UNL A   1      39.600  28.953  29.887  1.00  0.00     0.031 A 
ATOM     38  C   UNL A   1      40.370  29.639  30.983  1.00  0.00     0.074 A 
ATOM     39  C   UNL A   1      40.138  27.899  29.243  1.00  0.00     0.049 A 
ATOM     40  N   UNL A   1      41.555  29.358  31.459  1.00  0.00    -0.248 NA
ATOM     41  C   UNL A   1      39.736  30.812  31.609  1.00  0.00     0.031 C 
ATOM     42  C   UNL A   1      39.523  27.193  28.119  1.00  0.00     0.029 A 
ATOM     43  N   UNL A   1      41.338  27.259  29.423  1.00  0.00    -0.354 N 
ATOM     44  C   UNL A   1      41.825  30.335  32.410  1.00  0.00     0.074 A 
ATOM     45  C   UNL A   1      40.692  31.234  32.423  1.00  0.00     0.031 C 
ATOM     46  C   UNL A   1      40.351  26.218  27.708  1.00  0.00     0.029 A 
ATOM     47  C   UNL A   1      41.563  26.245  28.521  1.00  0.00     0.049 A 
ATOM     48  H   UNL A   1      41.978  27.501  30.132  1.00  0.00     0.167 HD
ATOM     49  C   UNL A   1      42.904  30.456  33.220  1.00  0.00     0.034 A 
ATOM     50  C   UNL A   1      42.628  25.434  28.363  1.00  0.00     0.034 A 
ATOM     51  C   UNL A   1      44.003  29.529  33.243  1.00  0.00     0.049 A 
ATOM     52  C   UNL A   1      43.794  25.561  29.306  1.00  0.00     0.074 A 
ATOM     53  C   UNL A   1      45.094  29.509  34.094  1.00  0.00     0.029 A 
ATOM     54  N   UNL A   1      44.154  28.461  32.373  1.00  0.00    -0.354 N 
ATOM     55  N   UNL A   1      43.955  26.389  30.310  1.00  0.00    -0.248 NA
ATOM     56  C   UNL A   1      44.908  24.621  29.117  1.00  0.00     0.031 C 
ATOM     57  C   UNL A   1      45.913  28.435  33.730  1.00  0.00     0.029 A 
ATOM     58  C   UNL A   1      45.325  27.779  32.661  1.00  0.00     0.049 A 
ATOM     59  H   UNL A   1      43.524  28.222  31.656  1.00  0.00     0.167 HD
ATOM     60  C   UNL A   1      45.171  26.051  30.891  1.00  0.00     0.074 A 
ATOM     61  C   UNL A   1      45.695  24.926  30.141  1.00  0.00     0.031 C 
ATOM     62  C   UNL A   1      45.806  26.628  31.941  1.00  0.00     0.034 A 
BRANCH  49  63
ATOM     63  C   UNL A   1      42.918  31.601  34.200  1.00  0.00     0.023 A 
ATOM     64  C   UNL A   1      43.534  32.815  33.834  1.00  0.00     0.012 A 
ATOM     65  C   UNL A   1      42.278  31.500  35.450  1.00  0.00     0.148 A 
ATOM     66  C   UNL A   1      43.541  33.900  34.708  1.00  0.00     0.002 A 
ATOM     67  C   UNL A   1      42.253  32.600  36.300  1.00  0.00     0.091 A 
ATOM     68  F   UNL A   1      41.718  30.331  35.791  1.00  0.00    -0.205 F 
ATOM     69  C   UNL A   1      42.893  33.796  35.935  1.00  0.00     0.022 A 
BRANCH  67  70
ATOM     70  S   UNL A   1      41.379  32.588  37.870  1.00  0.00     0.127 S 
ATOM     71  O   UNL A   1      41.566  33.967  38.322  1.00  0.00    -0.237 OA
ATOM     72  O   UNL A   1      40.012  32.263  37.460  1.00  0.00    -0.237 OA
ATOM     73  O   UNL A   1      42.027  31.568  38.679  1.00  0.00    -0.744 OA
ENDBRANCH  67  70
ENDBRANCH  49  63
BRANCH  50  74
ATOM     74  C   UNL A   1      42.603  24.381  27.310  1.00  0.00     0.023 A 
ATOM     75  C   UNL A   1      43.173  24.650  26.052  1.00  0.00     0.012 A 
ATOM     76  C   UNL A   1      42.065  23.104  27.562  1.00  0.00     0.148 A 
ATOM     77  C   UNL A   1      43.184  23.676  25.052  1.00  0.00     0.002 A 
ATOM     78  C   UNL A   1      42.130  22.122  26.582  1.00  0.00     0.091 A 
ATOM     79  F   UNL A   1      41.515  22.870  28.762  1.00  0.00    -0.205 F 
ATOM     80  C   UNL A   1      42.672  22.409  25.321  1.00  0.00     0.022 A 
BRANCH  78  81
ATOM     81  S   UNL A   1      41.636  20.425  26.908  1.00  0.00     0.127 S 
ATOM     82  O   UNL A   1      41.763  19.816  25.586  1.00  0.00    -0.237 OA
ATOM     83  O   UNL A   1      42.639  19.995  27.884  1.00  0.00    -0.237 OA
ATOM     84  O   UNL A   1      40.287  20.516  27.447  1.00  0.00    -0.744 OA
ENDBRANCH  78  81
ENDBRANCH  50  74
BRANCH  62  85
ATOM     85  C   UNL A   1      47.130  26.048  32.364  1.00  0.00     0.023 A 
ATOM     86  C   UNL A   1      47.187  25.180  33.472  1.00  0.00     0.012 A 
ATOM     87  C   UNL A   1      48.299  26.295  31.617  1.00  0.00     0.148 A 
ATOM     88  C   UNL A   1      48.391  24.587  33.848  1.00  0.00     0.002 A 
ATOM     89  C   UNL A   1      49.486  25.665  31.970  1.00  0.00     0.091 A 
ATOM     90  F   UNL A   1      48.227  27.139  30.578  1.00  0.00    -0.205 F 
ATOM     91  C   UNL A   1      49.537  24.819  33.089  1.00  0.00     0.022 A 
BRANCH  89  92
ATOM     92  S   UNL A   1      50.989  25.834  30.998  1.00  0.00     0.127 S 
ATOM     93  O   UNL A   1      51.923  24.995  31.747  1.00  0.00    -0.237 OA
ATOM     94  O   UNL A   1      50.584  25.288  29.702  1.00  0.00    -0.237 OA
ATOM     95  O   UNL A   1      51.296  27.258  30.983  1.00  0.00    -0.744 OA
ENDBRANCH  89  92
ENDBRANCH  62  85
ENDBRANCH  36  37
ENDBRANCH  28  31
ENDBRANCH  26  27
ENDBRANCH   1  26
TORSDOF 17
ENDMDL
