MODEL 1
REMARK VINA RESULT:     -12.8      0.000      0.000
REMARK SMILES CC(C)C[C@H](C(=O)NCCCNC(=O)c1ccc(-c2c3nc(c(-c4cccc(S(=O)(=O)[O-])c4F)c4ccc([nH]4)c(-c4cccc(S(=O)(=O)[O-])c4F)c4nc(c(-c5cccc(S(=O)(=O)[O-])c5F)c5ccc2[nH]5)C=C4)C=C3)cc1)N1C(=O)/C(=C2\C(=O)Nc3ccc(Br)cc32)SC1=S
REMARK SMILES IDX 10 1 9 2 8 3 6 4 7 5 5 7 4 8 2 9 1 10 3 11 78 12 79 13 94 14
REMARK SMILES IDX 80 15 81 16 93 17 95 18 82 19 83 20 92 21 84 22 85 23 86 24
REMARK SMILES IDX 91 25 87 27 89 28 88 29 90 30 11 31 12 32 13 33 14 35 15 36
REMARK SMILES IDX 16 37 77 38 17 39 76 40 18 41 19 42 20 43 70 44 21 45 75 46
REMARK SMILES IDX 69 47 71 48 22 49 74 50 68 51 67 52 23 54 55 55 35 56 54 57
REMARK SMILES IDX 36 58 39 59 53 60 72 61 37 62 38 63 52 65 73 66 40 67 24 68
REMARK SMILES IDX 25 69 33 70 26 71 28 72 34 73 27 74 29 75 30 76 31 77 32 78
REMARK SMILES IDX 56 79 57 80 65 81 58 82 60 83 66 84 59 85 61 86 62 87 63 88
REMARK SMILES IDX 64 89 41 90 42 91 50 92 43 93 45 94 51 95 44 96 46 97 47 98
REMARK SMILES IDX 48 99 49 100
REMARK H PARENT 8 6 85 26 12 34 71 53 39 64
REMARK Flexibility Score: inf
ROOT
ATOM      1  C   UNL A   1      31.624  32.363  26.489  1.00  0.00     0.042 C 
ENDROOT
BRANCH   1   2
ATOM      2  C   UNL A   1      31.106  30.962  26.775  1.00  0.00     0.117 C 
BRANCH   2   3
ATOM      3  N   UNL A   1      32.131  29.990  27.131  1.00  0.00    -0.354 N 
ATOM      4  C   UNL A   1      32.539  28.852  26.483  1.00  0.00     0.243 C 
ATOM      5  O   UNL A   1      33.587  28.317  26.860  1.00  0.00    -0.273 OA
ATOM      6  H   UNL A   1      32.607  30.181  27.971  1.00  0.00     0.163 HD
BRANCH   4   7
ATOM      7  C   UNL A   1      31.680  28.192  25.368  1.00  0.00     0.181 C 
BRANCH   7   8
ATOM      8  C   UNL A   1      31.276  29.309  24.360  1.00  0.00     0.038 C 
BRANCH   8   9
ATOM      9  C   UNL A   1      29.921  29.166  23.640  1.00  0.00    -0.015 C 
ATOM     10  C   UNL A   1      29.242  30.517  23.403  1.00  0.00     0.007 C 
ATOM     11  C   UNL A   1      30.128  28.454  22.299  1.00  0.00     0.007 C 
ENDBRANCH   8   9
ENDBRANCH   7   8
BRANCH   7  12
ATOM     12  N   UNL A   1      32.257  27.001  24.685  1.00  0.00    -0.280 N 
ATOM     13  C   UNL A   1      31.633  25.772  24.700  1.00  0.00     0.267 C 
ATOM     14  C   UNL A   1      33.386  26.996  23.903  1.00  0.00     0.149 C 
ATOM     15  O   UNL A   1      30.430  25.597  24.599  1.00  0.00    -0.268 OA
ATOM     16  C   UNL A   1      32.646  24.682  24.609  1.00  0.00     0.093 C 
ATOM     17  S   UNL A   1      34.032  25.356  23.831  1.00  0.00    -0.053 SA
ATOM     18  S   UNL A   1      34.085  28.248  23.056  1.00  0.00    -0.052 S 
ATOM     19  C   UNL A   1      32.498  23.425  25.057  1.00  0.00     0.069 C 
ATOM     20  C   UNL A   1      31.227  22.899  25.690  1.00  0.00     0.257 C 
ATOM     21  C   UNL A   1      33.427  22.275  25.011  1.00  0.00     0.013 A 
ATOM     22  O   UNL A   1      30.279  23.505  26.138  1.00  0.00    -0.269 OA
ATOM     23  N   UNL A   1      31.392  21.530  25.758  1.00  0.00    -0.321 N 
ATOM     24  C   UNL A   1      32.674  21.155  25.390  1.00  0.00     0.049 A 
ATOM     25  C   UNL A   1      34.784  22.129  24.778  1.00  0.00     0.026 A 
ATOM     26  H   UNL A   1      30.687  20.898  26.031  1.00  0.00     0.170 HD
ATOM     27  C   UNL A   1      33.193  19.879  25.467  1.00  0.00     0.028 A 
ATOM     28  C   UNL A   1      35.339  20.845  24.879  1.00  0.00     0.018 A 
ATOM     29  C   UNL A   1      34.552  19.725  25.199  1.00  0.00     0.018 A 
ATOM     30  Br  UNL A   1      37.198  20.613  24.611  1.00  0.00    -0.051 Br
ENDBRANCH   7  12
ENDBRANCH   4   7
ENDBRANCH   2   3
ENDBRANCH   1   2
BRANCH   1  31
ATOM     31  C   UNL A   1      32.678  32.850  27.471  1.00  0.00     0.118 C 
BRANCH  31  32
ATOM     32  N   UNL A   1      32.502  34.250  27.842  1.00  0.00    -0.352 N 
ATOM     33  C   UNL A   1      33.134  35.021  28.788  1.00  0.00     0.251 C 
ATOM     34  H   UNL A   1      31.812  34.724  27.325  1.00  0.00     0.163 HD
ATOM     35  O   UNL A   1      32.699  36.143  29.035  1.00  0.00    -0.269 OA
BRANCH  33  36
ATOM     36  C   UNL A   1      34.312  34.513  29.530  1.00  0.00     0.039 A 
ATOM     37  C   UNL A   1      34.107  33.899  30.771  1.00  0.00     0.014 A 
ATOM     38  C   UNL A   1      35.609  34.661  29.041  1.00  0.00     0.014 A 
ATOM     39  C   UNL A   1      35.191  33.366  31.476  1.00  0.00     0.010 A 
ATOM     40  C   UNL A   1      36.677  34.051  29.698  1.00  0.00     0.010 A 
ATOM     41  C   UNL A   1      36.481  33.399  30.923  1.00  0.00    -0.014 A 
BRANCH  41  42
ATOM     42  C   UNL A   1      37.632  32.742  31.599  1.00  0.00     0.031 A 
ATOM     43  C   UNL A   1      38.343  31.588  30.944  1.00  0.00     0.074 A 
ATOM     44  C   UNL A   1      37.972  33.121  32.848  1.00  0.00     0.049 A 
ATOM     45  N   UNL A   1      39.313  30.845  31.412  1.00  0.00    -0.248 NA
ATOM     46  C   UNL A   1      37.889  31.196  29.599  1.00  0.00     0.031 C 
ATOM     47  C   UNL A   1      37.306  34.169  33.625  1.00  0.00     0.029 A 
ATOM     48  N   UNL A   1      38.942  32.648  33.696  1.00  0.00    -0.354 N 
ATOM     49  C   UNL A   1      39.557  29.880  30.444  1.00  0.00     0.074 A 
ATOM     50  C   UNL A   1      38.615  30.110  29.372  1.00  0.00     0.031 C 
ATOM     51  C   UNL A   1      37.887  34.260  34.832  1.00  0.00     0.029 A 
ATOM     52  C   UNL A   1      38.944  33.259  34.930  1.00  0.00     0.049 A 
ATOM     53  H   UNL A   1      39.576  31.938  33.447  1.00  0.00     0.167 HD
ATOM     54  C   UNL A   1      40.498  28.906  30.434  1.00  0.00     0.034 A 
ATOM     55  C   UNL A   1      39.704  33.034  36.019  1.00  0.00     0.034 A 
ATOM     56  C   UNL A   1      41.470  28.713  31.475  1.00  0.00     0.049 A 
ATOM     57  C   UNL A   1      40.776  31.980  35.958  1.00  0.00     0.074 A 
ATOM     58  C   UNL A   1      42.528  27.821  31.509  1.00  0.00     0.029 A 
ATOM     59  N   UNL A   1      41.506  29.420  32.667  1.00  0.00    -0.354 N 
ATOM     60  N   UNL A   1      41.101  31.191  34.963  1.00  0.00    -0.248 NA
ATOM     61  C   UNL A   1      41.613  31.811  37.155  1.00  0.00     0.031 C 
ATOM     62  C   UNL A   1      43.192  27.975  32.730  1.00  0.00     0.029 A 
ATOM     63  C   UNL A   1      42.560  28.979  33.448  1.00  0.00     0.049 A 
ATOM     64  H   UNL A   1      40.873  30.130  32.921  1.00  0.00     0.167 HD
ATOM     65  C   UNL A   1      42.199  30.458  35.400  1.00  0.00     0.074 A 
ATOM     66  C   UNL A   1      42.498  30.915  36.741  1.00  0.00     0.031 C 
ATOM     67  C   UNL A   1      42.885  29.483  34.756  1.00  0.00     0.034 A 
BRANCH  54  68
ATOM     68  C   UNL A   1      40.569  28.006  29.228  1.00  0.00     0.023 A 
ATOM     69  C   UNL A   1      39.661  26.934  29.109  1.00  0.00     0.012 A 
ATOM     70  C   UNL A   1      41.474  28.266  28.179  1.00  0.00     0.148 A 
ATOM     71  C   UNL A   1      39.667  26.120  27.977  1.00  0.00     0.002 A 
ATOM     72  C   UNL A   1      41.445  27.475  27.036  1.00  0.00     0.091 A 
ATOM     73  F   UNL A   1      42.343  29.276  28.320  1.00  0.00    -0.205 F 
ATOM     74  C   UNL A   1      40.551  26.396  26.938  1.00  0.00     0.022 A 
BRANCH  72  75
ATOM     75  S   UNL A   1      42.487  27.796  25.607  1.00  0.00     0.127 S 
ATOM     76  O   UNL A   1      42.247  26.605  24.794  1.00  0.00    -0.237 OA
ATOM     77  O   UNL A   1      41.904  29.027  25.072  1.00  0.00    -0.237 OA
ATOM     78  O   UNL A   1      43.842  27.938  26.121  1.00  0.00    -0.744 OA
ENDBRANCH  72  75
ENDBRANCH  54  68
BRANCH  55  79
ATOM     79  C   UNL A   1      39.523  33.868  37.242  1.00  0.00     0.023 A 
ATOM     80  C   UNL A   1      40.032  35.181  37.262  1.00  0.00     0.012 A 
ATOM     81  C   UNL A   1      38.837  33.381  38.371  1.00  0.00     0.148 A 
ATOM     82  C   UNL A   1      39.894  35.981  38.397  1.00  0.00     0.002 A 
ATOM     83  C   UNL A   1      38.653  34.203  39.477  1.00  0.00     0.091 A 
ATOM     84  F   UNL A   1      38.372  32.124  38.341  1.00  0.00    -0.205 F 
ATOM     85  C   UNL A   1      39.197  35.496  39.501  1.00  0.00     0.022 A 
BRANCH  83  86
ATOM     86  S   UNL A   1      37.646  33.706  40.880  1.00  0.00     0.127 S 
ATOM     87  O   UNL A   1      36.478  33.127  40.221  1.00  0.00    -0.237 OA
ATOM     88  O   UNL A   1      38.516  32.741  41.554  1.00  0.00    -0.237 OA
ATOM     89  O   UNL A   1      37.411  34.927  41.641  1.00  0.00    -0.744 OA
ENDBRANCH  83  86
ENDBRANCH  55  79
BRANCH  67  90
ATOM     90  C   UNL A   1      44.055  28.861  35.472  1.00  0.00     0.023 A 
ATOM     91  C   UNL A   1      45.347  29.395  35.293  1.00  0.00     0.012 A 
ATOM     92  C   UNL A   1      43.864  27.799  36.377  1.00  0.00     0.148 A 
ATOM     93  C   UNL A   1      46.435  28.860  35.981  1.00  0.00     0.002 A 
ATOM     94  C   UNL A   1      44.945  27.303  37.094  1.00  0.00     0.091 A 
ATOM     95  F   UNL A   1      42.630  27.292  36.517  1.00  0.00    -0.205 F 
ATOM     96  C   UNL A   1      46.233  27.823  36.889  1.00  0.00     0.022 A 
BRANCH  94  97
ATOM     97  S   UNL A   1      44.762  26.034  38.353  1.00  0.00     0.127 S 
ATOM     98  O   UNL A   1      43.812  26.660  39.271  1.00  0.00    -0.237 OA
ATOM     99  O   UNL A   1      44.219  24.912  37.587  1.00  0.00    -0.237 OA
ATOM    100  O   UNL A   1      46.096  25.807  38.890  1.00  0.00    -0.744 OA
ENDBRANCH  94  97
ENDBRANCH  67  90
ENDBRANCH  41  42
ENDBRANCH  33  36
ENDBRANCH  31  32
ENDBRANCH   1  31
TORSDOF 16
ENDMDL
MODEL 2
REMARK VINA RESULT:     -12.7      1.956      2.459
REMARK SMILES CC(C)C[C@H](C(=O)NCCCNC(=O)c1ccc(-c2c3nc(c(-c4cccc(S(=O)(=O)[O-])c4F)c4ccc([nH]4)c(-c4cccc(S(=O)(=O)[O-])c4F)c4nc(c(-c5cccc(S(=O)(=O)[O-])c5F)c5ccc2[nH]5)C=C4)C=C3)cc1)N1C(=O)/C(=C2\C(=O)Nc3ccc(Br)cc32)SC1=S
REMARK SMILES IDX 10 1 9 2 8 3 6 4 7 5 5 7 4 8 2 9 1 10 3 11 78 12 79 13 94 14
REMARK SMILES IDX 80 15 81 16 93 17 95 18 82 19 83 20 92 21 84 22 85 23 86 24
REMARK SMILES IDX 91 25 87 27 89 28 88 29 90 30 11 31 12 32 13 33 14 35 15 36
REMARK SMILES IDX 16 37 77 38 17 39 76 40 18 41 19 42 20 43 70 44 21 45 75 46
REMARK SMILES IDX 69 47 71 48 22 49 74 50 68 51 67 52 23 54 55 55 35 56 54 57
REMARK SMILES IDX 36 58 39 59 53 60 72 61 37 62 38 63 52 65 73 66 40 67 24 68
REMARK SMILES IDX 25 69 33 70 26 71 28 72 34 73 27 74 29 75 30 76 31 77 32 78
REMARK SMILES IDX 56 79 57 80 65 81 58 82 60 83 66 84 59 85 61 86 62 87 63 88
REMARK SMILES IDX 64 89 41 90 42 91 50 92 43 93 45 94 51 95 44 96 46 97 47 98
REMARK SMILES IDX 48 99 49 100
REMARK H PARENT 8 6 85 26 12 34 71 53 39 64
REMARK Flexibility Score: inf
ROOT
ATOM      1  C   UNL A   1      31.398  32.045  26.554  1.00  0.00     0.042 C 
ENDROOT
BRANCH   1   2
ATOM      2  C   UNL A   1      31.577  30.535  26.536  1.00  0.00     0.117 C 
BRANCH   2   3
ATOM      3  N   UNL A   1      32.440  30.033  25.476  1.00  0.00    -0.354 N 
ATOM      4  C   UNL A   1      32.133  29.336  24.335  1.00  0.00     0.243 C 
ATOM      5  O   UNL A   1      33.009  29.225  23.472  1.00  0.00    -0.273 OA
ATOM      6  H   UNL A   1      33.398  30.225  25.597  1.00  0.00     0.163 HD
BRANCH   4   7
ATOM      7  C   UNL A   1      30.761  28.628  24.154  1.00  0.00     0.181 C 
BRANCH   7   8
ATOM      8  C   UNL A   1      30.281  28.893  22.695  1.00  0.00     0.038 C 
BRANCH   8   9
ATOM      9  C   UNL A   1      29.501  30.193  22.424  1.00  0.00    -0.015 C 
ATOM     10  C   UNL A   1      28.216  29.947  21.631  1.00  0.00     0.007 C 
ATOM     11  C   UNL A   1      29.161  30.872  23.755  1.00  0.00     0.007 C 
ENDBRANCH   8   9
ENDBRANCH   7   8
BRANCH   7  12
ATOM     12  N   UNL A   1      30.693  27.185  24.513  1.00  0.00    -0.280 N 
ATOM     13  C   UNL A   1      31.645  26.580  25.306  1.00  0.00     0.267 C 
ATOM     14  C   UNL A   1      29.665  26.329  24.200  1.00  0.00     0.149 C 
ATOM     15  O   UNL A   1      32.168  27.088  26.284  1.00  0.00    -0.268 OA
ATOM     16  C   UNL A   1      31.768  25.138  24.948  1.00  0.00     0.093 C 
ATOM     17  S   UNL A   1      30.259  24.669  24.253  1.00  0.00    -0.053 SA
ATOM     18  S   UNL A   1      28.068  26.676  23.875  1.00  0.00    -0.052 S 
ATOM     19  C   UNL A   1      32.852  24.367  25.131  1.00  0.00     0.069 C 
ATOM     20  C   UNL A   1      34.126  24.846  25.793  1.00  0.00     0.257 C 
ATOM     21  C   UNL A   1      33.074  22.937  24.823  1.00  0.00     0.013 A 
ATOM     22  O   UNL A   1      34.504  25.974  26.016  1.00  0.00    -0.269 OA
ATOM     23  N   UNL A   1      34.869  23.705  26.026  1.00  0.00    -0.321 N 
ATOM     24  C   UNL A   1      34.282  22.592  25.445  1.00  0.00     0.049 A 
ATOM     25  C   UNL A   1      32.427  21.998  24.038  1.00  0.00     0.026 A 
ATOM     26  H   UNL A   1      35.709  23.684  26.539  1.00  0.00     0.170 HD
ATOM     27  C   UNL A   1      34.834  21.329  25.389  1.00  0.00     0.028 A 
ATOM     28  C   UNL A   1      32.985  20.715  23.944  1.00  0.00     0.018 A 
ATOM     29  C   UNL A   1      34.164  20.373  24.627  1.00  0.00     0.018 A 
ATOM     30  Br  UNL A   1      32.153  19.418  22.845  1.00  0.00    -0.051 Br
ENDBRANCH   7  12
ENDBRANCH   4   7
ENDBRANCH   2   3
ENDBRANCH   1   2
BRANCH   1  31
ATOM     31  C   UNL A   1      32.699  32.826  26.652  1.00  0.00     0.118 C 
BRANCH  31  32
ATOM     32  N   UNL A   1      32.572  34.041  27.449  1.00  0.00    -0.352 N 
ATOM     33  C   UNL A   1      33.240  34.456  28.576  1.00  0.00     0.251 C 
ATOM     34  H   UNL A   1      31.891  34.672  27.123  1.00  0.00     0.163 HD
ATOM     35  O   UNL A   1      32.843  35.454  29.174  1.00  0.00    -0.269 OA
BRANCH  33  36
ATOM     36  C   UNL A   1      34.410  33.710  29.095  1.00  0.00     0.039 A 
ATOM     37  C   UNL A   1      35.690  34.219  28.853  1.00  0.00     0.014 A 
ATOM     38  C   UNL A   1      34.267  32.506  29.784  1.00  0.00     0.014 A 
ATOM     39  C   UNL A   1      36.813  33.565  29.369  1.00  0.00     0.010 A 
ATOM     40  C   UNL A   1      35.377  31.904  30.375  1.00  0.00     0.010 A 
ATOM     41  C   UNL A   1      36.662  32.424  30.172  1.00  0.00    -0.014 A 
BRANCH  41  42
ATOM     42  C   UNL A   1      37.830  31.775  30.826  1.00  0.00     0.031 A 
ATOM     43  C   UNL A   1      38.620  30.718  30.101  1.00  0.00     0.074 A 
ATOM     44  C   UNL A   1      38.118  32.067  32.111  1.00  0.00     0.049 A 
ATOM     45  N   UNL A   1      39.617  29.991  30.535  1.00  0.00    -0.248 NA
ATOM     46  C   UNL A   1      38.222  30.416  28.715  1.00  0.00     0.031 C 
ATOM     47  C   UNL A   1      37.376  33.011  32.951  1.00  0.00     0.029 A 
ATOM     48  N   UNL A   1      39.090  31.577  32.946  1.00  0.00    -0.354 N 
ATOM     49  C   UNL A   1      39.938  29.123  29.499  1.00  0.00     0.074 A 
ATOM     50  C   UNL A   1      39.012  29.392  28.422  1.00  0.00     0.031 C 
ATOM     51  C   UNL A   1      37.921  33.032  34.178  1.00  0.00     0.029 A 
ATOM     52  C   UNL A   1      39.028  32.083  34.225  1.00  0.00     0.049 A 
ATOM     53  H   UNL A   1      39.769  30.924  32.659  1.00  0.00     0.167 HD
ATOM     54  C   UNL A   1      40.931  28.204  29.438  1.00  0.00     0.034 A 
ATOM     55  C   UNL A   1      39.772  31.809  35.314  1.00  0.00     0.034 A 
ATOM     56  C   UNL A   1      41.886  27.978  30.488  1.00  0.00     0.049 A 
ATOM     57  C   UNL A   1      40.901  30.822  35.199  1.00  0.00     0.074 A 
ATOM     58  C   UNL A   1      42.990  27.142  30.481  1.00  0.00     0.029 A 
ATOM     59  N   UNL A   1      41.853  28.584  31.734  1.00  0.00    -0.354 N 
ATOM     60  N   UNL A   1      41.294  30.135  34.153  1.00  0.00    -0.248 NA
ATOM     61  C   UNL A   1      41.716  30.598  36.403  1.00  0.00     0.031 C 
ATOM     62  C   UNL A   1      43.613  27.230  31.730  1.00  0.00     0.029 A 
ATOM     63  C   UNL A   1      42.910  28.136  32.507  1.00  0.00     0.049 A 
ATOM     64  H   UNL A   1      41.176  29.237  32.026  1.00  0.00     0.167 HD
ATOM     65  C   UNL A   1      42.419  29.428  34.562  1.00  0.00     0.074 A 
ATOM     66  C   UNL A   1      42.659  29.788  35.944  1.00  0.00     0.031 C 
ATOM     67  C   UNL A   1      43.173  28.547  33.861  1.00  0.00     0.034 A 
BRANCH  54  68
ATOM     68  C   UNL A   1      41.082  27.412  28.165  1.00  0.00     0.023 A 
ATOM     69  C   UNL A   1      41.720  28.000  27.055  1.00  0.00     0.012 A 
ATOM     70  C   UNL A   1      40.670  26.067  28.094  1.00  0.00     0.148 A 
ATOM     71  C   UNL A   1      41.923  27.272  25.883  1.00  0.00     0.002 A 
ATOM     72  C   UNL A   1      40.914  25.334  26.938  1.00  0.00     0.091 A 
ATOM     73  F   UNL A   1      40.047  25.531  29.153  1.00  0.00    -0.205 F 
ATOM     74  C   UNL A   1      41.530  25.937  25.829  1.00  0.00     0.022 A 
BRANCH  72  75
ATOM     75  S   UNL A   1      40.519  23.587  26.794  1.00  0.00     0.127 S 
ATOM     76  O   UNL A   1      41.403  23.174  25.705  1.00  0.00    -0.237 OA
ATOM     77  O   UNL A   1      40.898  23.077  28.113  1.00  0.00    -0.237 OA
ATOM     78  O   UNL A   1      39.095  23.519  26.500  1.00  0.00    -0.744 OA
ENDBRANCH  72  75
ENDBRANCH  54  68
BRANCH  55  79
ATOM     79  C   UNL A   1      39.515  32.528  36.595  1.00  0.00     0.023 A 
ATOM     80  C   UNL A   1      40.245  33.697  36.888  1.00  0.00     0.012 A 
ATOM     81  C   UNL A   1      38.545  32.078  37.511  1.00  0.00     0.148 A 
ATOM     82  C   UNL A   1      40.040  34.383  38.085  1.00  0.00     0.002 A 
ATOM     83  C   UNL A   1      38.305  32.799  38.675  1.00  0.00     0.091 A 
ATOM     84  F   UNL A   1      37.869  30.957  37.224  1.00  0.00    -0.205 F 
ATOM     85  C   UNL A   1      39.064  33.941  38.974  1.00  0.00     0.022 A 
BRANCH  83  86
ATOM     86  S   UNL A   1      36.970  32.377  39.803  1.00  0.00     0.127 S 
ATOM     87  O   UNL A   1      37.386  31.060  40.279  1.00  0.00    -0.237 OA
ATOM     88  O   UNL A   1      37.059  33.449  40.796  1.00  0.00    -0.237 OA
ATOM     89  O   UNL A   1      35.757  32.412  38.997  1.00  0.00    -0.744 OA
ENDBRANCH  83  86
ENDBRANCH  55  79
BRANCH  67  90
ATOM     90  C   UNL A   1      44.358  27.931  34.558  1.00  0.00     0.023 A 
ATOM     91  C   UNL A   1      45.612  28.572  34.505  1.00  0.00     0.012 A 
ATOM     92  C   UNL A   1      44.211  26.759  35.327  1.00  0.00     0.148 A 
ATOM     93  C   UNL A   1      46.709  28.039  35.180  1.00  0.00     0.002 A 
ATOM     94  C   UNL A   1      45.298  26.261  36.035  1.00  0.00     0.091 A 
ATOM     95  F   UNL A   1      43.015  26.154  35.348  1.00  0.00    -0.205 F 
ATOM     96  C   UNL A   1      46.549  26.892  35.953  1.00  0.00     0.022 A 
BRANCH  94  97
ATOM     97  S   UNL A   1      45.160  24.844  37.132  1.00  0.00     0.127 S 
ATOM     98  O   UNL A   1      46.516  24.752  37.672  1.00  0.00    -0.237 OA
ATOM     99  O   UNL A   1      44.151  25.291  38.092  1.00  0.00    -0.237 OA
ATOM    100  O   UNL A   1      44.742  23.729  36.294  1.00  0.00    -0.744 OA
ENDBRANCH  94  97
ENDBRANCH  67  90
ENDBRANCH  41  42
ENDBRANCH  33  36
ENDBRANCH  31  32
ENDBRANCH   1  31
TORSDOF 16
ENDMDL
MODEL 3
REMARK VINA RESULT:     -12.4      1.688      7.564
REMARK SMILES CC(C)C[C@H](C(=O)NCCCNC(=O)c1ccc(-c2c3nc(c(-c4cccc(S(=O)(=O)[O-])c4F)c4ccc([nH]4)c(-c4cccc(S(=O)(=O)[O-])c4F)c4nc(c(-c5cccc(S(=O)(=O)[O-])c5F)c5ccc2[nH]5)C=C4)C=C3)cc1)N1C(=O)/C(=C2\C(=O)Nc3ccc(Br)cc32)SC1=S
REMARK SMILES IDX 10 1 9 2 8 3 6 4 7 5 5 7 4 8 2 9 1 10 3 11 78 12 79 13 94 14
REMARK SMILES IDX 80 15 81 16 93 17 95 18 82 19 83 20 92 21 84 22 85 23 86 24
REMARK SMILES IDX 91 25 87 27 89 28 88 29 90 30 11 31 12 32 13 33 14 35 15 36
REMARK SMILES IDX 16 37 77 38 17 39 76 40 18 41 19 42 20 43 70 44 21 45 75 46
REMARK SMILES IDX 69 47 71 48 22 49 74 50 68 51 67 52 23 54 55 55 35 56 54 57
REMARK SMILES IDX 36 58 39 59 53 60 72 61 37 62 38 63 52 65 73 66 40 67 24 68
REMARK SMILES IDX 25 69 33 70 26 71 28 72 34 73 27 74 29 75 30 76 31 77 32 78
REMARK SMILES IDX 56 79 57 80 65 81 58 82 60 83 66 84 59 85 61 86 62 87 63 88
REMARK SMILES IDX 64 89 41 90 42 91 50 92 43 93 45 94 51 95 44 96 46 97 47 98
REMARK SMILES IDX 48 99 49 100
REMARK H PARENT 8 6 85 26 12 34 71 53 39 64
REMARK Flexibility Score: inf
ROOT
ATOM      1  C   UNL A   1      31.389  32.642  26.450  1.00  0.00     0.042 C 
ENDROOT
BRANCH   1   2
ATOM      2  C   UNL A   1      31.040  31.213  26.064  1.00  0.00     0.117 C 
BRANCH   2   3
ATOM      3  N   UNL A   1      31.870  30.191  26.686  1.00  0.00    -0.354 N 
ATOM      4  C   UNL A   1      32.183  28.923  26.265  1.00  0.00     0.243 C 
ATOM      5  O   UNL A   1      33.094  28.329  26.849  1.00  0.00    -0.273 OA
ATOM      6  H   UNL A   1      32.270  30.451  27.547  1.00  0.00     0.163 HD
BRANCH   4   7
ATOM      7  C   UNL A   1      31.370  28.208  25.149  1.00  0.00     0.181 C 
BRANCH   7   8
ATOM      8  C   UNL A   1      30.939  29.288  24.112  1.00  0.00     0.038 C 
BRANCH   8   9
ATOM      9  C   UNL A   1      30.116  28.823  22.895  1.00  0.00    -0.015 C 
ATOM     10  C   UNL A   1      28.717  28.345  23.286  1.00  0.00     0.007 C 
ATOM     11  C   UNL A   1      30.004  29.970  21.886  1.00  0.00     0.007 C 
ENDBRANCH   8   9
ENDBRANCH   7   8
BRANCH   7  12
ATOM     12  N   UNL A   1      32.006  27.029  24.500  1.00  0.00    -0.280 N 
ATOM     13  C   UNL A   1      31.443  25.771  24.548  1.00  0.00     0.267 C 
ATOM     14  C   UNL A   1      33.135  27.057  23.719  1.00  0.00     0.149 C 
ATOM     15  O   UNL A   1      30.251  25.534  24.451  1.00  0.00    -0.268 OA
ATOM     16  C   UNL A   1      32.508  24.730  24.488  1.00  0.00     0.093 C 
ATOM     17  S   UNL A   1      33.861  25.449  23.692  1.00  0.00    -0.053 SA
ATOM     18  S   UNL A   1      33.774  28.319  22.838  1.00  0.00    -0.052 S 
ATOM     19  C   UNL A   1      32.421  23.480  24.971  1.00  0.00     0.069 C 
ATOM     20  C   UNL A   1      31.177  22.910  25.617  1.00  0.00     0.257 C 
ATOM     21  C   UNL A   1      33.405  22.376  24.956  1.00  0.00     0.013 A 
ATOM     22  O   UNL A   1      30.199  23.481  26.048  1.00  0.00    -0.269 OA
ATOM     23  N   UNL A   1      31.408  21.553  25.722  1.00  0.00    -0.321 N 
ATOM     24  C   UNL A   1      32.708  21.232  25.366  1.00  0.00     0.049 A 
ATOM     25  C   UNL A   1      34.769  22.290  24.729  1.00  0.00     0.026 A 
ATOM     26  H   UNL A   1      30.734  20.896  26.013  1.00  0.00     0.170 HD
ATOM     27  C   UNL A   1      33.288  19.985  25.479  1.00  0.00     0.028 A 
ATOM     28  C   UNL A   1      35.386  21.039  24.865  1.00  0.00     0.018 A 
ATOM     29  C   UNL A   1      34.654  19.891  25.216  1.00  0.00     0.018 A 
ATOM     30  Br  UNL A   1      37.255  20.890  24.606  1.00  0.00    -0.051 Br
ENDBRANCH   7  12
ENDBRANCH   4   7
ENDBRANCH   2   3
ENDBRANCH   1   2
BRANCH   1  31
ATOM     31  C   UNL A   1      32.718  32.786  27.174  1.00  0.00     0.118 C 
BRANCH  31  32
ATOM     32  N   UNL A   1      32.890  34.097  27.790  1.00  0.00    -0.352 N 
ATOM     33  C   UNL A   1      33.776  34.539  28.743  1.00  0.00     0.251 C 
ATOM     34  H   UNL A   1      32.262  34.784  27.467  1.00  0.00     0.163 HD
ATOM     35  O   UNL A   1      33.621  35.656  29.232  1.00  0.00    -0.269 OA
BRANCH  33  36
ATOM     36  C   UNL A   1      34.894  33.686  29.206  1.00  0.00     0.039 A 
ATOM     37  C   UNL A   1      36.199  34.032  28.835  1.00  0.00     0.014 A 
ATOM     38  C   UNL A   1      34.677  32.540  29.971  1.00  0.00     0.014 A 
ATOM     39  C   UNL A   1      37.281  33.275  29.295  1.00  0.00     0.010 A 
ATOM     40  C   UNL A   1      35.758  31.840  30.503  1.00  0.00     0.010 A 
ATOM     41  C   UNL A   1      37.072  32.198  30.170  1.00  0.00    -0.014 A 
BRANCH  41  42
ATOM     42  C   UNL A   1      38.211  31.447  30.763  1.00  0.00     0.031 A 
ATOM     43  C   UNL A   1      38.763  31.834  32.109  1.00  0.00     0.074 A 
ATOM     44  C   UNL A   1      38.814  30.479  30.042  1.00  0.00     0.049 A 
ATOM     45  N   UNL A   1      39.794  31.347  32.748  1.00  0.00    -0.248 NA
ATOM     46  C   UNL A   1      38.084  32.931  32.821  1.00  0.00     0.031 C 
ATOM     47  C   UNL A   1      38.430  30.067  28.690  1.00  0.00     0.029 A 
ATOM     48  N   UNL A   1      39.898  29.688  30.332  1.00  0.00    -0.354 N 
ATOM     49  C   UNL A   1      39.915  32.099  33.910  1.00  0.00     0.074 A 
ATOM     50  C   UNL A   1      38.868  33.096  33.878  1.00  0.00     0.031 C 
ATOM     51  C   UNL A   1      39.261  29.100  28.270  1.00  0.00     0.029 A 
ATOM     52  C   UNL A   1      40.257  28.844  29.305  1.00  0.00     0.049 A 
ATOM     53  H   UNL A   1      40.374  29.720  31.193  1.00  0.00     0.167 HD
ATOM     54  C   UNL A   1      40.798  31.956  34.927  1.00  0.00     0.034 A 
ATOM     55  C   UNL A   1      41.277  27.970  29.204  1.00  0.00     0.034 A 
ATOM     56  C   UNL A   1      41.802  30.929  34.983  1.00  0.00     0.049 A 
ATOM     57  C   UNL A   1      42.210  27.797  30.372  1.00  0.00     0.074 A 
ATOM     58  C   UNL A   1      42.677  30.638  36.016  1.00  0.00     0.029 A 
ATOM     59  N   UNL A   1      42.071  30.026  33.967  1.00  0.00    -0.354 N 
ATOM     60  N   UNL A   1      42.199  28.403  31.533  1.00  0.00    -0.248 NA
ATOM     61  C   UNL A   1      43.274  26.792  30.230  1.00  0.00     0.031 C 
ATOM     62  C   UNL A   1      43.487  29.571  35.617  1.00  0.00     0.029 A 
ATOM     63  C   UNL A   1      43.102  29.183  34.343  1.00  0.00     0.049 A 
ATOM     64  H   UNL A   1      41.598  29.990  33.105  1.00  0.00     0.167 HD
ATOM     65  C   UNL A   1      43.227  27.830  32.273  1.00  0.00     0.074 A 
ATOM     66  C   UNL A   1      43.825  26.811  31.436  1.00  0.00     0.031 C 
ATOM     67  C   UNL A   1      43.649  28.133  33.524  1.00  0.00     0.034 A 
BRANCH  54  68
ATOM     68  C   UNL A   1      40.683  32.894  36.100  1.00  0.00     0.023 A 
ATOM     69  C   UNL A   1      41.444  34.080  36.115  1.00  0.00     0.012 A 
ATOM     70  C   UNL A   1      39.766  32.647  37.141  1.00  0.00     0.148 A 
ATOM     71  C   UNL A   1      41.315  34.994  37.161  1.00  0.00     0.002 A 
ATOM     72  C   UNL A   1      39.612  33.582  38.157  1.00  0.00     0.091 A 
ATOM     73  F   UNL A   1      39.066  31.504  37.119  1.00  0.00    -0.205 F 
ATOM     74  C   UNL A   1      40.393  34.750  38.175  1.00  0.00     0.022 A 
BRANCH  72  75
ATOM     75  S   UNL A   1      38.396  33.402  39.467  1.00  0.00     0.127 S 
ATOM     76  O   UNL A   1      37.171  33.175  38.702  1.00  0.00    -0.237 OA
ATOM     77  O   UNL A   1      38.891  32.228  40.187  1.00  0.00    -0.237 OA
ATOM     78  O   UNL A   1      38.435  34.643  40.227  1.00  0.00    -0.744 OA
ENDBRANCH  72  75
ENDBRANCH  54  68
BRANCH  55  79
ATOM     79  C   UNL A   1      41.432  27.141  27.974  1.00  0.00     0.023 A 
ATOM     80  C   UNL A   1      42.031  27.707  26.832  1.00  0.00     0.012 A 
ATOM     81  C   UNL A   1      41.012  25.798  27.934  1.00  0.00     0.148 A 
ATOM     82  C   UNL A   1      42.175  26.962  25.661  1.00  0.00     0.002 A 
ATOM     83  C   UNL A   1      41.211  25.044  26.783  1.00  0.00     0.091 A 
ATOM     84  F   UNL A   1      40.431  25.278  29.024  1.00  0.00    -0.205 F 
ATOM     85  C   UNL A   1      41.775  25.629  25.638  1.00  0.00     0.022 A 
BRANCH  83  86
ATOM     86  S   UNL A   1      40.853  23.284  26.718  1.00  0.00     0.127 S 
ATOM     87  O   UNL A   1      41.696  22.847  25.609  1.00  0.00    -0.237 OA
ATOM     88  O   UNL A   1      41.292  22.834  28.040  1.00  0.00    -0.237 OA
ATOM     89  O   UNL A   1      39.415  23.189  26.505  1.00  0.00    -0.744 OA
ENDBRANCH  83  86
ENDBRANCH  55  79
BRANCH  67  90
ATOM     90  C   UNL A   1      44.792  27.331  34.090  1.00  0.00     0.023 A 
ATOM     91  C   UNL A   1      46.118  27.768  33.892  1.00  0.00     0.012 A 
ATOM     92  C   UNL A   1      44.550  26.191  34.881  1.00  0.00     0.148 A 
ATOM     93  C   UNL A   1      47.185  27.063  34.445  1.00  0.00     0.002 A 
ATOM     94  C   UNL A   1      45.616  25.521  35.468  1.00  0.00     0.091 A 
ATOM     95  F   UNL A   1      43.283  25.781  35.041  1.00  0.00    -0.205 F 
ATOM     96  C   UNL A   1      46.935  25.949  35.242  1.00  0.00     0.022 A 
BRANCH  94  97
ATOM     97  S   UNL A   1      45.381  24.135  36.586  1.00  0.00     0.127 S 
ATOM     98  O   UNL A   1      44.786  23.135  35.701  1.00  0.00    -0.237 OA
ATOM     99  O   UNL A   1      46.751  23.838  37.007  1.00  0.00    -0.237 OA
ATOM    100  O   UNL A   1      44.516  24.622  37.652  1.00  0.00    -0.744 OA
ENDBRANCH  94  97
ENDBRANCH  67  90
ENDBRANCH  41  42
ENDBRANCH  33  36
ENDBRANCH  31  32
ENDBRANCH   1  31
TORSDOF 16
ENDMDL
