MODEL 1
REMARK VINA RESULT:      -8.7      0.000      0.000
REMARK SMILES COc1ccc(-c2nc(NCC(=O)NCCCNC(=O)c3ccc(-c4c5nc(c(-c6cccc(S(=O)(=O)[O-])c6F)c6ccc([nH]6)c(-c6cccc(S(=O)(=O)[O-])c6F)c6nc(c(-c7cccc(S(=O)(=O)[O-])c7F)c7ccc4[nH]7)C=C6)C=C5)cc3)sc2-c2ccc(OC)cc2)cc1
REMARK SMILES IDX 15 1 14 2 12 3 13 4 11 6 10 7 9 9 7 10 8 11 85 12 84 13 6 14
REMARK SMILES IDX 3 15 4 16 95 17 5 18 94 19 2 20 1 21 86 22 87 23 93 24 88 25
REMARK SMILES IDX 92 26 89 27 90 28 91 29 16 30 17 31 18 32 19 33 20 35 21 36
REMARK SMILES IDX 22 37 83 38 23 39 82 40 24 41 25 42 26 43 76 44 27 45 81 46
REMARK SMILES IDX 75 47 77 48 28 49 80 50 74 51 73 52 29 54 61 55 41 56 60 57
REMARK SMILES IDX 42 58 45 59 59 60 78 61 43 62 44 63 58 65 79 66 46 67 30 68
REMARK SMILES IDX 31 69 39 70 32 71 34 72 40 73 33 74 35 75 36 76 37 77 38 78
REMARK SMILES IDX 62 79 63 80 71 81 64 82 66 83 72 84 65 85 67 86 68 87 69 88
REMARK SMILES IDX 70 89 47 90 48 91 56 92 49 93 51 94 57 95 50 96 52 97 53 98
REMARK SMILES IDX 54 99 55 100
REMARK H PARENT 14 5 10 8 18 34 77 53 45 64
REMARK Flexibility Score: inf
ROOT
ATOM      1  C   UNL A   1      42.866  20.884  25.741  1.00  0.00     0.117 C 
ENDROOT
BRANCH   1   2
ATOM      2  N   UNL A   1      44.269  20.590  25.522  1.00  0.00    -0.355 N 
ATOM      3  C   UNL A   1      45.343  21.434  25.608  1.00  0.00     0.239 C 
ATOM      4  O   UNL A   1      46.464  20.974  25.375  1.00  0.00    -0.273 OA
ATOM      5  H   UNL A   1      44.476  19.659  25.280  1.00  0.00     0.163 HD
BRANCH   3   6
ATOM      6  C   UNL A   1      45.149  22.889  26.048  1.00  0.00     0.215 C 
BRANCH   6   7
ATOM      7  N   UNL A   1      46.251  23.357  26.866  1.00  0.00    -0.352 N 
ATOM      8  H   UNL A   1      47.160  23.109  26.579  1.00  0.00     0.163 HD
BRANCH   7   9
ATOM      9  C   UNL A   1      46.143  24.100  27.988  1.00  0.00     0.184 A 
ATOM     10  C   UNL A   1      46.596  25.774  29.371  1.00  0.00     0.091 A 
ATOM     11  N   UNL A   1      46.961  25.099  28.218  1.00  0.00    -0.220 NA
ATOM     12  C   UNL A   1      45.428  25.324  29.973  1.00  0.00     0.064 A 
ATOM     13  S   UNL A   1      44.940  23.877  29.203  1.00  0.00    -0.096 S 
BRANCH  10  14
ATOM     14  C   UNL A   1      47.380  26.883  29.893  1.00  0.00     0.002 A 
ATOM     15  C   UNL A   1      48.921  29.074  30.720  1.00  0.00     0.118 A 
ATOM     16  C   UNL A   1      47.620  29.269  30.266  1.00  0.00     0.047 A 
ATOM     17  C   UNL A   1      49.430  27.779  30.828  1.00  0.00     0.047 A 
ATOM     18  C   UNL A   1      46.853  28.182  29.852  1.00  0.00     0.014 A 
ATOM     19  C   UNL A   1      48.661  26.682  30.413  1.00  0.00     0.014 A 
BRANCH  15  20
ATOM     20  O   UNL A   1      49.577  30.211  31.100  1.00  0.00    -0.497 OA
ATOM     21  C   UNL A   1      49.426  31.311  30.208  1.00  0.00     0.278 C 
ENDBRANCH  15  20
ENDBRANCH  10  14
BRANCH  12  22
ATOM     22  C   UNL A   1      44.630  25.890  31.063  1.00  0.00    -0.006 A 
ATOM     23  C   UNL A   1      43.684  26.895  30.838  1.00  0.00     0.013 A 
ATOM     24  C   UNL A   1      44.798  25.405  32.369  1.00  0.00     0.013 A 
ATOM     25  C   UNL A   1      42.919  27.392  31.897  1.00  0.00     0.047 A 
ATOM     26  C   UNL A   1      44.030  25.903  33.427  1.00  0.00     0.047 A 
ATOM     27  C   UNL A   1      43.081  26.894  33.192  1.00  0.00     0.118 A 
BRANCH  27  28
ATOM     28  O   UNL A   1      42.260  27.457  34.132  1.00  0.00    -0.497 OA
ATOM     29  C   UNL A   1      41.791  26.594  35.161  1.00  0.00     0.278 C 
ENDBRANCH  27  28
ENDBRANCH  12  22
ENDBRANCH   7   9
ENDBRANCH   6   7
ENDBRANCH   3   6
ENDBRANCH   1   2
BRANCH   1  30
ATOM     30  C   UNL A   1      42.076  19.656  26.184  1.00  0.00     0.042 C 
BRANCH  30  31
ATOM     31  C   UNL A   1      40.861  19.992  27.048  1.00  0.00     0.118 C 
BRANCH  31  32
ATOM     32  N   UNL A   1      39.673  20.280  26.252  1.00  0.00    -0.352 N 
ATOM     33  C   UNL A   1      38.981  21.452  26.073  1.00  0.00     0.251 C 
ATOM     34  H   UNL A   1      39.307  19.507  25.764  1.00  0.00     0.163 HD
ATOM     35  O   UNL A   1      37.889  21.426  25.515  1.00  0.00    -0.269 OA
BRANCH  33  36
ATOM     36  C   UNL A   1      39.531  22.735  26.560  1.00  0.00     0.039 A 
ATOM     37  C   UNL A   1      40.526  22.709  27.541  1.00  0.00     0.014 A 
ATOM     38  C   UNL A   1      39.059  23.959  26.077  1.00  0.00     0.014 A 
ATOM     39  C   UNL A   1      41.103  23.903  27.978  1.00  0.00     0.010 A 
ATOM     40  C   UNL A   1      39.680  25.144  26.465  1.00  0.00     0.010 A 
ATOM     41  C   UNL A   1      40.717  25.128  27.409  1.00  0.00    -0.014 A 
BRANCH  41  42
ATOM     42  C   UNL A   1      41.431  26.386  27.744  1.00  0.00     0.031 A 
ATOM     43  C   UNL A   1      40.792  27.434  28.613  1.00  0.00     0.074 A 
ATOM     44  C   UNL A   1      42.630  26.627  27.175  1.00  0.00     0.049 A 
ATOM     45  N   UNL A   1      41.247  28.615  28.949  1.00  0.00    -0.248 NA
ATOM     46  C   UNL A   1      39.460  27.129  29.158  1.00  0.00     0.031 C 
ATOM     47  C   UNL A   1      43.320  25.736  26.237  1.00  0.00     0.029 A 
ATOM     48  N   UNL A   1      43.465  27.711  27.274  1.00  0.00    -0.354 N 
ATOM     49  C   UNL A   1      40.249  29.206  29.712  1.00  0.00     0.074 A 
ATOM     50  C   UNL A   1      39.152  28.263  29.772  1.00  0.00     0.031 C 
ATOM     51  C   UNL A   1      44.466  26.311  25.842  1.00  0.00     0.029 A 
ATOM     52  C   UNL A   1      44.580  27.621  26.476  1.00  0.00     0.049 A 
ATOM     53  H   UNL A   1      43.284  28.480  27.861  1.00  0.00     0.167 HD
ATOM     54  C   UNL A   1      40.251  30.415  30.326  1.00  0.00     0.034 A 
ATOM     55  C   UNL A   1      45.574  28.502  26.256  1.00  0.00     0.034 A 
ATOM     56  C   UNL A   1      41.353  31.341  30.288  1.00  0.00     0.049 A 
ATOM     57  C   UNL A   1      45.560  29.827  26.960  1.00  0.00     0.074 A 
ATOM     58  C   UNL A   1      41.488  32.543  30.961  1.00  0.00     0.029 A 
ATOM     59  N   UNL A   1      42.495  31.185  29.520  1.00  0.00    -0.354 N 
ATOM     60  N   UNL A   1      44.685  30.297  27.813  1.00  0.00    -0.248 NA
ATOM     61  C   UNL A   1      46.685  30.732  26.683  1.00  0.00     0.031 C 
ATOM     62  C   UNL A   1      42.697  33.131  30.572  1.00  0.00     0.029 A 
ATOM     63  C   UNL A   1      43.330  32.280  29.681  1.00  0.00     0.049 A 
ATOM     64  H   UNL A   1      42.686  30.410  28.944  1.00  0.00     0.167 HD
ATOM     65  C   UNL A   1      45.158  31.550  28.184  1.00  0.00     0.074 A 
ATOM     66  C   UNL A   1      46.414  31.748  27.491  1.00  0.00     0.031 C 
ATOM     67  C   UNL A   1      44.590  32.461  29.011  1.00  0.00     0.034 A 
BRANCH  54  68
ATOM     68  C   UNL A   1      39.039  30.795  31.136  1.00  0.00     0.023 A 
ATOM     69  C   UNL A   1      39.063  30.642  32.537  1.00  0.00     0.012 A 
ATOM     70  C   UNL A   1      37.907  31.370  30.524  1.00  0.00     0.148 A 
ATOM     71  C   UNL A   1      37.968  31.024  33.314  1.00  0.00     0.002 A 
ATOM     72  C   UNL A   1      36.839  31.789  31.308  1.00  0.00     0.091 A 
ATOM     73  F   UNL A   1      37.895  31.492  29.188  1.00  0.00    -0.205 F 
ATOM     74  C   UNL A   1      36.863  31.606  32.701  1.00  0.00     0.022 A 
BRANCH  72  75
ATOM     75  S   UNL A   1      35.401  32.624  30.626  1.00  0.00     0.127 S 
ATOM     76  O   UNL A   1      35.950  33.941  30.308  1.00  0.00    -0.237 OA
ATOM     77  O   UNL A   1      35.090  31.796  29.460  1.00  0.00    -0.237 OA
ATOM     78  O   UNL A   1      34.391  32.604  31.674  1.00  0.00    -0.744 OA
ENDBRANCH  72  75
ENDBRANCH  54  68
BRANCH  55  79
ATOM     79  C   UNL A   1      46.677  28.166  25.322  1.00  0.00     0.023 A 
ATOM     80  C   UNL A   1      46.458  28.217  23.933  1.00  0.00     0.012 A 
ATOM     81  C   UNL A   1      47.932  27.768  25.809  1.00  0.00     0.148 A 
ATOM     82  C   UNL A   1      47.471  27.849  23.044  1.00  0.00     0.002 A 
ATOM     83  C   UNL A   1      48.941  27.428  24.917  1.00  0.00     0.091 A 
ATOM     84  F   UNL A   1      48.127  27.723  27.134  1.00  0.00    -0.205 F 
ATOM     85  C   UNL A   1      48.715  27.459  23.534  1.00  0.00     0.022 A 
BRANCH  83  86
ATOM     86  S   UNL A   1      50.560  26.998  25.550  1.00  0.00     0.127 S 
ATOM     87  O   UNL A   1      50.894  28.154  26.371  1.00  0.00    -0.237 OA
ATOM     88  O   UNL A   1      50.297  25.768  26.298  1.00  0.00    -0.237 OA
ATOM     89  O   UNL A   1      51.341  26.801  24.333  1.00  0.00    -0.744 OA
ENDBRANCH  83  86
ENDBRANCH  55  79
BRANCH  67  90
ATOM     90  C   UNL A   1      45.324  33.759  29.221  1.00  0.00     0.023 A 
ATOM     91  C   UNL A   1      45.041  34.862  28.392  1.00  0.00     0.012 A 
ATOM     92  C   UNL A   1      46.248  33.902  30.274  1.00  0.00     0.148 A 
ATOM     93  C   UNL A   1      45.690  36.081  28.589  1.00  0.00     0.002 A 
ATOM     94  C   UNL A   1      46.853  35.133  30.495  1.00  0.00     0.091 A 
ATOM     95  F   UNL A   1      46.516  32.833  31.039  1.00  0.00    -0.205 F 
ATOM     96  C   UNL A   1      46.586  36.220  29.646  1.00  0.00     0.022 A 
BRANCH  94  97
ATOM     97  S   UNL A   1      47.951  35.434  31.884  1.00  0.00     0.127 S 
ATOM     98  O   UNL A   1      48.483  36.758  31.562  1.00  0.00    -0.237 OA
ATOM     99  O   UNL A   1      47.029  35.406  33.018  1.00  0.00    -0.237 OA
ATOM    100  O   UNL A   1      48.928  34.354  31.869  1.00  0.00    -0.744 OA
ENDBRANCH  94  97
ENDBRANCH  67  90
ENDBRANCH  41  42
ENDBRANCH  33  36
ENDBRANCH  31  32
ENDBRANCH  30  31
ENDBRANCH   1  30
TORSDOF 19
ENDMDL
MODEL 2
REMARK VINA RESULT:      -8.4      5.451     12.408
REMARK SMILES COc1ccc(-c2nc(NCC(=O)NCCCNC(=O)c3ccc(-c4c5nc(c(-c6cccc(S(=O)(=O)[O-])c6F)c6ccc([nH]6)c(-c6cccc(S(=O)(=O)[O-])c6F)c6nc(c(-c7cccc(S(=O)(=O)[O-])c7F)c7ccc4[nH]7)C=C6)C=C5)cc3)sc2-c2ccc(OC)cc2)cc1
REMARK SMILES IDX 15 1 14 2 12 3 13 4 11 6 10 7 9 9 7 10 8 11 85 12 84 13 6 14
REMARK SMILES IDX 3 15 4 16 95 17 5 18 94 19 2 20 1 21 86 22 87 23 93 24 88 25
REMARK SMILES IDX 92 26 89 27 90 28 91 29 16 30 17 31 18 32 19 33 20 35 21 36
REMARK SMILES IDX 22 37 83 38 23 39 82 40 24 41 25 42 26 43 76 44 27 45 81 46
REMARK SMILES IDX 75 47 77 48 28 49 80 50 74 51 73 52 29 54 61 55 41 56 60 57
REMARK SMILES IDX 42 58 45 59 59 60 78 61 43 62 44 63 58 65 79 66 46 67 30 68
REMARK SMILES IDX 31 69 39 70 32 71 34 72 40 73 33 74 35 75 36 76 37 77 38 78
REMARK SMILES IDX 62 79 63 80 71 81 64 82 66 83 72 84 65 85 67 86 68 87 69 88
REMARK SMILES IDX 70 89 47 90 48 91 56 92 49 93 51 94 57 95 50 96 52 97 53 98
REMARK SMILES IDX 54 99 55 100
REMARK H PARENT 14 5 10 8 18 34 77 53 45 64
REMARK Flexibility Score: inf
ROOT
ATOM      1  C   UNL A   1      35.844  31.902  30.529  1.00  0.00     0.117 C 
ENDROOT
BRANCH   1   2
ATOM      2  N   UNL A   1      36.042  32.771  29.384  1.00  0.00    -0.355 N 
ATOM      3  C   UNL A   1      35.210  32.985  28.319  1.00  0.00     0.239 C 
ATOM      4  O   UNL A   1      35.578  33.771  27.442  1.00  0.00    -0.273 OA
ATOM      5  H   UNL A   1      36.888  33.274  29.373  1.00  0.00     0.163 HD
BRANCH   3   6
ATOM      6  C   UNL A   1      33.834  32.313  28.266  1.00  0.00     0.215 C 
BRANCH   6   7
ATOM      7  N   UNL A   1      33.942  30.871  28.148  1.00  0.00    -0.352 N 
ATOM      8  H   UNL A   1      34.466  30.402  28.837  1.00  0.00     0.163 HD
BRANCH   7   9
ATOM      9  C   UNL A   1      33.388  30.114  27.177  1.00  0.00     0.184 A 
ATOM     10  C   UNL A   1      32.061  29.660  25.459  1.00  0.00     0.091 A 
ATOM     11  N   UNL A   1      32.393  30.566  26.452  1.00  0.00    -0.220 NA
ATOM     12  C   UNL A   1      32.880  28.541  25.383  1.00  0.00     0.064 A 
ATOM     13  S   UNL A   1      33.915  28.530  26.744  1.00  0.00    -0.096 S 
BRANCH  10  14
ATOM     14  C   UNL A   1      30.943  29.885  24.556  1.00  0.00     0.002 A 
ATOM     15  C   UNL A   1      28.672  30.296  22.963  1.00  0.00     0.118 A 
ATOM     16  C   UNL A   1      29.116  31.301  23.817  1.00  0.00     0.047 A 
ATOM     17  C   UNL A   1      29.401  29.110  22.852  1.00  0.00     0.047 A 
ATOM     18  C   UNL A   1      30.242  31.098  24.611  1.00  0.00     0.014 A 
ATOM     19  C   UNL A   1      30.536  28.903  23.649  1.00  0.00     0.014 A 
BRANCH  15  20
ATOM     20  O   UNL A   1      27.559  30.606  22.234  1.00  0.00    -0.497 OA
ATOM     21  C   UNL A   1      27.826  31.201  20.967  1.00  0.00     0.278 C 
ENDBRANCH  15  20
ENDBRANCH  10  14
BRANCH  12  22
ATOM     22  C   UNL A   1      32.972  27.485  24.372  1.00  0.00    -0.006 A 
ATOM     23  C   UNL A   1      32.466  26.202  24.599  1.00  0.00     0.013 A 
ATOM     24  C   UNL A   1      33.565  27.765  23.131  1.00  0.00     0.013 A 
ATOM     25  C   UNL A   1      32.545  25.226  23.601  1.00  0.00     0.047 A 
ATOM     26  C   UNL A   1      33.641  26.788  22.133  1.00  0.00     0.047 A 
ATOM     27  C   UNL A   1      33.123  25.515  22.362  1.00  0.00     0.118 A 
BRANCH  27  28
ATOM     28  O   UNL A   1      33.123  24.477  21.471  1.00  0.00    -0.497 OA
ATOM     29  C   UNL A   1      33.402  23.187  22.002  1.00  0.00     0.278 C 
ENDBRANCH  27  28
ENDBRANCH  12  22
ENDBRANCH   7   9
ENDBRANCH   6   7
ENDBRANCH   3   6
ENDBRANCH   1   2
BRANCH   1  30
ATOM     30  C   UNL A   1      35.738  32.679  31.838  1.00  0.00     0.042 C 
BRANCH  30  31
ATOM     31  C   UNL A   1      36.910  32.437  32.787  1.00  0.00     0.118 C 
BRANCH  31  32
ATOM     32  N   UNL A   1      37.047  31.032  33.159  1.00  0.00    -0.352 N 
ATOM     33  C   UNL A   1      37.999  30.106  32.812  1.00  0.00     0.251 C 
ATOM     34  H   UNL A   1      36.340  30.693  33.754  1.00  0.00     0.163 HD
ATOM     35  O   UNL A   1      37.813  28.924  33.081  1.00  0.00    -0.269 OA
BRANCH  33  36
ATOM     36  C   UNL A   1      39.233  30.518  32.108  1.00  0.00     0.039 A 
ATOM     37  C   UNL A   1      39.297  30.361  30.721  1.00  0.00     0.014 A 
ATOM     38  C   UNL A   1      40.329  31.034  32.804  1.00  0.00     0.014 A 
ATOM     39  C   UNL A   1      40.427  30.793  30.024  1.00  0.00     0.010 A 
ATOM     40  C   UNL A   1      41.428  31.526  32.102  1.00  0.00     0.010 A 
ATOM     41  C   UNL A   1      41.483  31.423  30.705  1.00  0.00    -0.014 A 
BRANCH  41  42
ATOM     42  C   UNL A   1      42.615  32.033  29.963  1.00  0.00     0.031 A 
ATOM     43  C   UNL A   1      43.865  31.249  29.672  1.00  0.00     0.074 A 
ATOM     44  C   UNL A   1      42.553  33.340  29.637  1.00  0.00     0.049 A 
ATOM     45  N   UNL A   1      44.971  31.647  29.095  1.00  0.00    -0.248 NA
ATOM     46  C   UNL A   1      43.887  29.842  30.102  1.00  0.00     0.031 C 
ATOM     47  C   UNL A   1      41.437  34.241  29.946  1.00  0.00     0.029 A 
ATOM     48  N   UNL A   1      43.463  34.149  29.005  1.00  0.00    -0.354 N 
ATOM     49  C   UNL A   1      45.831  30.556  29.124  1.00  0.00     0.074 A 
ATOM     50  C   UNL A   1      45.126  29.484  29.796  1.00  0.00     0.031 C 
ATOM     51  C   UNL A   1      41.733  35.475  29.511  1.00  0.00     0.029 A 
ATOM     52  C   UNL A   1      43.065  35.461  28.916  1.00  0.00     0.049 A 
ATOM     53  H   UNL A   1      44.320  33.821  28.648  1.00  0.00     0.167 HD
ATOM     54  C   UNL A   1      47.085  30.448  28.619  1.00  0.00     0.034 A 
ATOM     55  C   UNL A   1      43.709  36.541  28.435  1.00  0.00     0.034 A 
ATOM     56  C   UNL A   1      47.774  31.506  27.928  1.00  0.00     0.049 A 
ATOM     57  C   UNL A   1      45.090  36.390  27.869  1.00  0.00     0.074 A 
ATOM     58  C   UNL A   1      49.003  31.459  27.294  1.00  0.00     0.029 A 
ATOM     59  N   UNL A   1      47.310  32.805  27.801  1.00  0.00    -0.354 N 
ATOM     60  N   UNL A   1      45.819  35.309  27.753  1.00  0.00    -0.248 NA
ATOM     61  C   UNL A   1      45.725  37.610  27.347  1.00  0.00     0.031 C 
ATOM     62  C   UNL A   1      49.299  32.739  26.814  1.00  0.00     0.029 A 
ATOM     63  C   UNL A   1      48.240  33.577  27.121  1.00  0.00     0.049 A 
ATOM     64  H   UNL A   1      46.448  33.133  28.143  1.00  0.00     0.167 HD
ATOM     65  C   UNL A   1      46.996  35.715  27.136  1.00  0.00     0.074 A 
ATOM     66  C   UNL A   1      46.866  37.132  26.870  1.00  0.00     0.031 C 
ATOM     67  C   UNL A   1      48.094  34.980  26.836  1.00  0.00     0.034 A 
BRANCH  54  68
ATOM     68  C   UNL A   1      47.784  29.120  28.753  1.00  0.00     0.023 A 
ATOM     69  C   UNL A   1      48.557  28.853  29.901  1.00  0.00     0.012 A 
ATOM     70  C   UNL A   1      47.619  28.111  27.782  1.00  0.00     0.148 A 
ATOM     71  C   UNL A   1      49.182  27.617  30.067  1.00  0.00     0.002 A 
ATOM     72  C   UNL A   1      48.206  26.867  27.976  1.00  0.00     0.091 A 
ATOM     73  F   UNL A   1      46.894  28.389  26.688  1.00  0.00    -0.205 F 
ATOM     74  C   UNL A   1      48.997  26.622  29.111  1.00  0.00     0.022 A 
BRANCH  72  75
ATOM     75  S   UNL A   1      47.966  25.492  26.845  1.00  0.00     0.127 S 
ATOM     76  O   UNL A   1      46.508  25.393  26.809  1.00  0.00    -0.237 OA
ATOM     77  O   UNL A   1      48.573  25.998  25.613  1.00  0.00    -0.237 OA
ATOM     78  O   UNL A   1      48.654  24.356  27.442  1.00  0.00    -0.744 OA
ENDBRANCH  72  75
ENDBRANCH  54  68
BRANCH  55  79
ATOM     79  C   UNL A   1      43.057  37.874  28.465  1.00  0.00     0.023 A 
ATOM     80  C   UNL A   1      42.238  38.278  27.395  1.00  0.00     0.012 A 
ATOM     81  C   UNL A   1      43.270  38.751  29.540  1.00  0.00     0.148 A 
ATOM     82  C   UNL A   1      41.664  39.551  27.385  1.00  0.00     0.002 A 
ATOM     83  C   UNL A   1      42.674  40.006  29.534  1.00  0.00     0.091 A 
ATOM     84  F   UNL A   1      44.053  38.354  30.554  1.00  0.00    -0.205 F 
ATOM     85  C   UNL A   1      41.877  40.415  28.457  1.00  0.00     0.022 A 
BRANCH  83  86
ATOM     86  S   UNL A   1      42.892  41.084  30.947  1.00  0.00     0.127 S 
ATOM     87  O   UNL A   1      41.820  42.056  30.771  1.00  0.00    -0.237 OA
ATOM     88  O   UNL A   1      42.715  40.173  32.078  1.00  0.00    -0.237 OA
ATOM     89  O   UNL A   1      44.258  41.567  30.778  1.00  0.00    -0.744 OA
ENDBRANCH  83  86
ENDBRANCH  55  79
BRANCH  67  90
ATOM     90  C   UNL A   1      49.246  35.691  26.177  1.00  0.00     0.023 A 
ATOM     91  C   UNL A   1      49.427  35.585  24.784  1.00  0.00     0.012 A 
ATOM     92  C   UNL A   1      50.112  36.511  26.927  1.00  0.00     0.148 A 
ATOM     93  C   UNL A   1      50.471  36.260  24.151  1.00  0.00     0.002 A 
ATOM     94  C   UNL A   1      51.119  37.219  26.283  1.00  0.00     0.091 A 
ATOM     95  F   UNL A   1      49.933  36.582  28.255  1.00  0.00    -0.205 F 
ATOM     96  C   UNL A   1      51.309  37.085  24.898  1.00  0.00     0.022 A 
BRANCH  94  97
ATOM     97  S   UNL A   1      52.190  38.375  27.145  1.00  0.00     0.127 S 
ATOM     98  O   UNL A   1      51.226  39.351  27.653  1.00  0.00    -0.237 OA
ATOM     99  O   UNL A   1      52.798  37.527  28.170  1.00  0.00    -0.237 OA
ATOM    100  O   UNL A   1      53.121  38.885  26.147  1.00  0.00    -0.744 OA
ENDBRANCH  94  97
ENDBRANCH  67  90
ENDBRANCH  41  42
ENDBRANCH  33  36
ENDBRANCH  31  32
ENDBRANCH  30  31
ENDBRANCH   1  30
TORSDOF 19
ENDMDL
MODEL 3
REMARK VINA RESULT:      -8.3      2.747      8.298
REMARK SMILES COc1ccc(-c2nc(NCC(=O)NCCCNC(=O)c3ccc(-c4c5nc(c(-c6cccc(S(=O)(=O)[O-])c6F)c6ccc([nH]6)c(-c6cccc(S(=O)(=O)[O-])c6F)c6nc(c(-c7cccc(S(=O)(=O)[O-])c7F)c7ccc4[nH]7)C=C6)C=C5)cc3)sc2-c2ccc(OC)cc2)cc1
REMARK SMILES IDX 15 1 14 2 12 3 13 4 11 6 10 7 9 9 7 10 8 11 85 12 84 13 6 14
REMARK SMILES IDX 3 15 4 16 95 17 5 18 94 19 2 20 1 21 86 22 87 23 93 24 88 25
REMARK SMILES IDX 92 26 89 27 90 28 91 29 16 30 17 31 18 32 19 33 20 35 21 36
REMARK SMILES IDX 22 37 83 38 23 39 82 40 24 41 25 42 26 43 76 44 27 45 81 46
REMARK SMILES IDX 75 47 77 48 28 49 80 50 74 51 73 52 29 54 61 55 41 56 60 57
REMARK SMILES IDX 42 58 45 59 59 60 78 61 43 62 44 63 58 65 79 66 46 67 30 68
REMARK SMILES IDX 31 69 39 70 32 71 34 72 40 73 33 74 35 75 36 76 37 77 38 78
REMARK SMILES IDX 62 79 63 80 71 81 64 82 66 83 72 84 65 85 67 86 68 87 69 88
REMARK SMILES IDX 70 89 47 90 48 91 56 92 49 93 51 94 57 95 50 96 52 97 53 98
REMARK SMILES IDX 54 99 55 100
REMARK H PARENT 14 5 10 8 18 34 77 53 45 64
REMARK Flexibility Score: inf
ROOT
ATOM      1  C   UNL A   1      42.733  22.336  28.318  1.00  0.00     0.117 C 
ENDROOT
BRANCH   1   2
ATOM      2  N   UNL A   1      44.045  22.885  28.032  1.00  0.00    -0.355 N 
ATOM      3  C   UNL A   1      44.789  23.757  28.781  1.00  0.00     0.239 C 
ATOM      4  O   UNL A   1      45.890  24.104  28.346  1.00  0.00    -0.273 OA
ATOM      5  H   UNL A   1      44.455  22.591  27.187  1.00  0.00     0.163 HD
BRANCH   3   6
ATOM      6  C   UNL A   1      44.283  24.225  30.149  1.00  0.00     0.215 C 
BRANCH   6   7
ATOM      7  N   UNL A   1      45.289  24.988  30.864  1.00  0.00    -0.352 N 
ATOM      8  H   UNL A   1      46.219  24.911  30.548  1.00  0.00     0.163 HD
BRANCH   7   9
ATOM      9  C   UNL A   1      45.065  25.793  31.924  1.00  0.00     0.184 A 
ATOM     10  C   UNL A   1      44.014  27.336  33.122  1.00  0.00     0.091 A 
ATOM     11  N   UNL A   1      44.124  26.706  31.893  1.00  0.00    -0.220 NA
ATOM     12  C   UNL A   1      44.831  26.826  34.122  1.00  0.00     0.064 A 
ATOM     13  S   UNL A   1      45.921  25.710  33.420  1.00  0.00    -0.096 S 
BRANCH  10  14
ATOM     14  C   UNL A   1      43.091  28.440  33.339  1.00  0.00     0.002 A 
ATOM     15  C   UNL A   1      41.368  30.568  33.938  1.00  0.00     0.118 A 
ATOM     16  C   UNL A   1      42.734  30.794  33.807  1.00  0.00     0.047 A 
ATOM     17  C   UNL A   1      40.851  29.293  33.703  1.00  0.00     0.047 A 
ATOM     18  C   UNL A   1      43.593  29.738  33.512  1.00  0.00     0.014 A 
ATOM     19  C   UNL A   1      41.712  28.228  33.405  1.00  0.00     0.014 A 
BRANCH  15  20
ATOM     20  O   UNL A   1      40.623  31.677  34.229  1.00  0.00    -0.497 OA
ATOM     21  C   UNL A   1      39.601  31.469  35.198  1.00  0.00     0.278 C 
ENDBRANCH  15  20
ENDBRANCH  10  14
BRANCH  12  22
ATOM     22  C   UNL A   1      44.859  27.085  35.564  1.00  0.00    -0.006 A 
ATOM     23  C   UNL A   1      43.805  26.705  36.400  1.00  0.00     0.013 A 
ATOM     24  C   UNL A   1      45.979  27.711  36.133  1.00  0.00     0.013 A 
ATOM     25  C   UNL A   1      43.878  26.940  37.776  1.00  0.00     0.047 A 
ATOM     26  C   UNL A   1      46.050  27.943  37.511  1.00  0.00     0.047 A 
ATOM     27  C   UNL A   1      45.001  27.551  38.339  1.00  0.00     0.118 A 
BRANCH  27  28
ATOM     28  O   UNL A   1      44.950  27.709  39.698  1.00  0.00    -0.497 OA
ATOM     29  C   UNL A   1      45.207  26.549  40.480  1.00  0.00     0.278 C 
ENDBRANCH  27  28
ENDBRANCH  12  22
ENDBRANCH   7   9
ENDBRANCH   6   7
ENDBRANCH   3   6
ENDBRANCH   1   2
BRANCH   1  30
ATOM     30  C   UNL A   1      42.242  21.401  27.217  1.00  0.00     0.042 C 
BRANCH  30  31
ATOM     31  C   UNL A   1      41.720  22.134  25.982  1.00  0.00     0.118 C 
BRANCH  31  32
ATOM     32  N   UNL A   1      40.277  21.994  25.818  1.00  0.00    -0.352 N 
ATOM     33  C   UNL A   1      39.250  22.814  26.216  1.00  0.00     0.251 C 
ATOM     34  H   UNL A   1      39.994  21.178  25.346  1.00  0.00     0.163 HD
ATOM     35  O   UNL A   1      38.095  22.406  26.148  1.00  0.00    -0.269 OA
BRANCH  33  36
ATOM     36  C   UNL A   1      39.525  24.170  26.737  1.00  0.00     0.039 A 
ATOM     37  C   UNL A   1      39.254  24.439  28.081  1.00  0.00     0.014 A 
ATOM     38  C   UNL A   1      40.024  25.180  25.909  1.00  0.00     0.014 A 
ATOM     39  C   UNL A   1      39.556  25.694  28.613  1.00  0.00     0.010 A 
ATOM     40  C   UNL A   1      40.387  26.409  26.456  1.00  0.00     0.010 A 
ATOM     41  C   UNL A   1      40.169  26.675  27.815  1.00  0.00    -0.014 A 
BRANCH  41  42
ATOM     42  C   UNL A   1      40.645  27.953  28.404  1.00  0.00     0.031 A 
ATOM     43  C   UNL A   1      42.112  28.210  28.617  1.00  0.00     0.074 A 
ATOM     44  C   UNL A   1      39.736  28.849  28.840  1.00  0.00     0.049 A 
ATOM     45  N   UNL A   1      42.693  29.240  29.177  1.00  0.00    -0.248 NA
ATOM     46  C   UNL A   1      43.046  27.167  28.166  1.00  0.00     0.031 C 
ATOM     47  C   UNL A   1      38.281  28.681  28.780  1.00  0.00     0.029 A 
ATOM     48  N   UNL A   1      39.903  30.065  29.454  1.00  0.00    -0.354 N 
ATOM     49  C   UNL A   1      44.053  28.958  29.177  1.00  0.00     0.074 A 
ATOM     50  C   UNL A   1      44.209  27.648  28.582  1.00  0.00     0.031 C 
ATOM     51  C   UNL A   1      37.690  29.748  29.341  1.00  0.00     0.029 A 
ATOM     52  C   UNL A   1      38.721  30.661  29.822  1.00  0.00     0.049 A 
ATOM     53  H   UNL A   1      40.785  30.472  29.615  1.00  0.00     0.167 HD
ATOM     54  C   UNL A   1      45.081  29.726  29.613  1.00  0.00     0.034 A 
ATOM     55  C   UNL A   1      38.489  31.804  30.495  1.00  0.00     0.034 A 
ATOM     56  C   UNL A   1      44.927  31.040  30.181  1.00  0.00     0.049 A 
ATOM     57  C   UNL A   1      39.645  32.643  30.953  1.00  0.00     0.074 A 
ATOM     58  C   UNL A   1      45.914  31.934  30.557  1.00  0.00     0.029 A 
ATOM     59  N   UNL A   1      43.714  31.639  30.478  1.00  0.00    -0.354 N 
ATOM     60  N   UNL A   1      40.927  32.436  30.792  1.00  0.00    -0.248 NA
ATOM     61  C   UNL A   1      39.316  33.884  31.669  1.00  0.00     0.031 C 
ATOM     62  C   UNL A   1      45.298  33.060  31.115  1.00  0.00     0.029 A 
ATOM     63  C   UNL A   1      43.927  32.881  31.057  1.00  0.00     0.049 A 
ATOM     64  H   UNL A   1      42.831  31.242  30.305  1.00  0.00     0.167 HD
ATOM     65  C   UNL A   1      41.560  33.527  31.376  1.00  0.00     0.074 A 
ATOM     66  C   UNL A   1      40.519  34.407  31.862  1.00  0.00     0.031 C 
ATOM     67  C   UNL A   1      42.887  33.765  31.515  1.00  0.00     0.034 A 
BRANCH  54  68
ATOM     68  C   UNL A   1      46.480  29.187  29.453  1.00  0.00     0.023 A 
ATOM     69  C   UNL A   1      47.057  28.432  30.494  1.00  0.00     0.012 A 
ATOM     70  C   UNL A   1      47.192  29.363  28.250  1.00  0.00     0.148 A 
ATOM     71  C   UNL A   1      48.334  27.888  30.354  1.00  0.00     0.002 A 
ATOM     72  C   UNL A   1      48.445  28.781  28.100  1.00  0.00     0.091 A 
ATOM     73  F   UNL A   1      46.634  30.099  27.278  1.00  0.00    -0.205 F 
ATOM     74  C   UNL A   1      49.022  28.053  29.155  1.00  0.00     0.022 A 
BRANCH  72  75
ATOM     75  S   UNL A   1      49.380  28.866  26.569  1.00  0.00     0.127 S 
ATOM     76  O   UNL A   1      49.719  30.286  26.511  1.00  0.00    -0.237 OA
ATOM     77  O   UNL A   1      50.511  27.980  26.850  1.00  0.00    -0.237 OA
ATOM     78  O   UNL A   1      48.482  28.394  25.523  1.00  0.00    -0.744 OA
ENDBRANCH  72  75
ENDBRANCH  54  68
BRANCH  55  79
ATOM     79  C   UNL A   1      37.097  32.230  30.784  1.00  0.00     0.023 A 
ATOM     80  C   UNL A   1      36.528  31.959  32.041  1.00  0.00     0.012 A 
ATOM     81  C   UNL A   1      36.329  32.879  29.804  1.00  0.00     0.148 A 
ATOM     82  C   UNL A   1      35.201  32.305  32.306  1.00  0.00     0.002 A 
ATOM     83  C   UNL A   1      35.018  33.242  30.085  1.00  0.00     0.091 A 
ATOM     84  F   UNL A   1      36.883  33.132  28.610  1.00  0.00    -0.205 F 
ATOM     85  C   UNL A   1      34.446  32.952  31.331  1.00  0.00     0.022 A 
BRANCH  83  86
ATOM     86  S   UNL A   1      34.076  34.138  28.854  1.00  0.00     0.127 S 
ATOM     87  O   UNL A   1      32.903  34.568  29.605  1.00  0.00    -0.237 OA
ATOM     88  O   UNL A   1      34.988  35.216  28.471  1.00  0.00    -0.237 OA
ATOM     89  O   UNL A   1      33.866  33.136  27.815  1.00  0.00    -0.744 OA
ENDBRANCH  83  86
ENDBRANCH  55  79
BRANCH  67  90
ATOM     90  C   UNL A   1      43.294  35.034  32.215  1.00  0.00     0.023 A 
ATOM     91  C   UNL A   1      43.413  35.050  33.619  1.00  0.00     0.012 A 
ATOM     92  C   UNL A   1      43.617  36.191  31.480  1.00  0.00     0.148 A 
ATOM     93  C   UNL A   1      43.816  36.208  34.283  1.00  0.00     0.002 A 
ATOM     94  C   UNL A   1      44.065  37.326  32.145  1.00  0.00     0.091 A 
ATOM     95  F   UNL A   1      43.478  36.160  30.146  1.00  0.00    -0.205 F 
ATOM     96  C   UNL A   1      44.153  37.340  33.546  1.00  0.00     0.022 A 
BRANCH  94  97
ATOM     97  S   UNL A   1      44.608  38.802  31.278  1.00  0.00     0.127 S 
ATOM     98  O   UNL A   1      44.973  39.682  32.389  1.00  0.00    -0.237 OA
ATOM     99  O   UNL A   1      45.740  38.304  30.498  1.00  0.00    -0.237 OA
ATOM    100  O   UNL A   1      43.471  39.246  30.484  1.00  0.00    -0.744 OA
ENDBRANCH  94  97
ENDBRANCH  67  90
ENDBRANCH  41  42
ENDBRANCH  33  36
ENDBRANCH  31  32
ENDBRANCH  30  31
ENDBRANCH   1  30
TORSDOF 19
ENDMDL
