MODEL 1
REMARK VINA RESULT:     -12.4      0.000      0.000
REMARK SMILES NC(=O)CC[C@@H](C(=O)NCCCNC(=O)c1ccc(-c2c3nc(c(-c4cccc(S(=O)(=O)[O-])c4F)c4ccc([nH]4)c(-c4cccc(S(=O)(=O)[O-])c4F)c4nc(c(-c5cccc(S(=O)(=O)[O-])c5F)c5ccc2[nH]5)C=C4)C=C3)cc1)N1C(=O)/C(=C/c2ccc(C=O)cc2)SC1=S
REMARK SMILES IDX 11 1 10 2 9 3 7 4 8 5 6 7 5 8 4 9 2 10 1 11 3 14 79 15 80 16
REMARK SMILES IDX 93 17 81 18 82 19 92 20 94 21 83 22 84 23 85 24 91 25 86 26
REMARK SMILES IDX 90 27 87 28 88 29 89 30 12 31 13 32 14 33 15 35 16 36 17 37
REMARK SMILES IDX 78 38 18 39 77 40 19 41 20 42 21 43 71 44 22 45 76 46 70 47
REMARK SMILES IDX 72 48 23 49 75 50 69 51 68 52 24 54 56 55 36 56 55 57 37 58
REMARK SMILES IDX 40 59 54 60 73 61 38 62 39 63 53 65 74 66 41 67 25 68 26 69
REMARK SMILES IDX 34 70 27 71 29 72 35 73 28 74 30 75 31 76 32 77 33 78 57 79
REMARK SMILES IDX 58 80 66 81 59 82 61 83 67 84 60 85 62 86 63 87 64 88 65 89
REMARK SMILES IDX 42 90 43 91 51 92 44 93 46 94 52 95 45 96 47 97 48 98 49 99
REMARK SMILES IDX 50 100
REMARK H PARENT 9 6 1 12 1 13 13 34 72 53 40 64
REMARK Flexibility Score: inf
ROOT
ATOM      1  C   UNL A   1      33.668  29.080  24.422  1.00  0.00     0.042 C 
ENDROOT
BRANCH   1   2
ATOM      2  C   UNL A   1      32.828  28.308  23.418  1.00  0.00     0.117 C 
BRANCH   2   3
ATOM      3  N   UNL A   1      33.590  27.257  22.784  1.00  0.00    -0.354 N 
ATOM      4  C   UNL A   1      33.500  25.908  22.893  1.00  0.00     0.243 C 
ATOM      5  O   UNL A   1      34.015  25.277  21.963  1.00  0.00    -0.273 OA
ATOM      6  H   UNL A   1      34.291  27.573  22.170  1.00  0.00     0.163 HD
BRANCH   4   7
ATOM      7  C   UNL A   1      32.671  25.195  24.001  1.00  0.00     0.181 C 
BRANCH   7   8
ATOM      8  C   UNL A   1      32.576  25.690  25.458  1.00  0.00     0.045 C 
BRANCH   8   9
ATOM      9  C   UNL A   1      31.290  26.201  26.099  1.00  0.00     0.102 C 
BRANCH   9  10
ATOM     10  C   UNL A   1      29.926  25.568  25.884  1.00  0.00     0.217 C 
ATOM     11  N   UNL A   1      29.561  24.455  26.561  1.00  0.00    -0.370 N 
ATOM     12  H   UNL A   1      28.673  24.057  26.410  1.00  0.00     0.159 HD
ATOM     13  H   UNL A   1      30.183  24.044  27.204  1.00  0.00     0.159 HD
ATOM     14  O   UNL A   1      29.167  25.978  25.008  1.00  0.00    -0.275 OA
ENDBRANCH   9  10
ENDBRANCH   8   9
ENDBRANCH   7   8
BRANCH   7  15
ATOM     15  N   UNL A   1      33.134  23.772  24.045  1.00  0.00    -0.280 N 
ATOM     16  C   UNL A   1      32.251  22.790  23.628  1.00  0.00     0.266 C 
ATOM     17  C   UNL A   1      34.322  23.324  24.608  1.00  0.00     0.149 C 
ATOM     18  O   UNL A   1      31.127  22.979  23.179  1.00  0.00    -0.268 OA
ATOM     19  C   UNL A   1      32.809  21.441  23.901  1.00  0.00     0.081 C 
ATOM     20  S   UNL A   1      34.433  21.578  24.434  1.00  0.00    -0.054 SA
ATOM     21  S   UNL A   1      35.523  24.166  25.406  1.00  0.00    -0.052 S 
ATOM     22  C   UNL A   1      32.080  20.320  23.799  1.00  0.00     0.029 C 
BRANCH  22  23
ATOM     23  C   UNL A   1      32.572  18.977  24.127  1.00  0.00    -0.024 A 
ATOM     24  C   UNL A   1      33.105  18.173  23.115  1.00  0.00     0.009 A 
ATOM     25  C   UNL A   1      32.543  18.497  25.445  1.00  0.00     0.009 A 
ATOM     26  C   UNL A   1      33.649  16.924  23.423  1.00  0.00     0.012 A 
ATOM     27  C   UNL A   1      33.094  17.254  25.760  1.00  0.00     0.012 A 
ATOM     28  C   UNL A   1      33.656  16.475  24.747  1.00  0.00     0.014 A 
BRANCH  28  29
ATOM     29  C   UNL A   1      34.274  15.179  25.091  1.00  0.00     0.260 C 
ATOM     30  O   UNL A   1      33.611  14.214  25.451  1.00  0.00    -0.298 OA
ENDBRANCH  28  29
ENDBRANCH  22  23
ENDBRANCH   7  15
ENDBRANCH   4   7
ENDBRANCH   2   3
ENDBRANCH   1   2
BRANCH   1  31
ATOM     31  C   UNL A   1      33.032  29.179  25.795  1.00  0.00     0.118 C 
BRANCH  31  32
ATOM     32  N   UNL A   1      32.561  30.527  26.091  1.00  0.00    -0.352 N 
ATOM     33  C   UNL A   1      33.083  31.460  26.958  1.00  0.00     0.251 C 
ATOM     34  H   UNL A   1      31.755  30.809  25.602  1.00  0.00     0.163 HD
ATOM     35  O   UNL A   1      32.442  32.475  27.217  1.00  0.00    -0.269 OA
BRANCH  33  36
ATOM     36  C   UNL A   1      34.402  31.226  27.584  1.00  0.00     0.039 A 
ATOM     37  C   UNL A   1      35.261  32.306  27.809  1.00  0.00     0.014 A 
ATOM     38  C   UNL A   1      34.780  29.938  27.966  1.00  0.00     0.014 A 
ATOM     39  C   UNL A   1      36.470  32.100  28.482  1.00  0.00     0.010 A 
ATOM     40  C   UNL A   1      35.924  29.756  28.731  1.00  0.00     0.010 A 
ATOM     41  C   UNL A   1      36.793  30.829  28.979  1.00  0.00    -0.014 A 
BRANCH  41  42
ATOM     42  C   UNL A   1      38.046  30.552  29.727  1.00  0.00     0.031 A 
ATOM     43  C   UNL A   1      39.053  29.598  29.139  1.00  0.00     0.074 A 
ATOM     44  C   UNL A   1      38.219  31.040  30.971  1.00  0.00     0.049 A 
ATOM     45  N   UNL A   1      40.103  29.055  29.694  1.00  0.00    -0.248 NA
ATOM     46  C   UNL A   1      38.813  29.159  27.751  1.00  0.00     0.031 C 
ATOM     47  C   UNL A   1      37.291  31.928  31.674  1.00  0.00     0.029 A 
ATOM     48  N   UNL A   1      39.221  30.820  31.883  1.00  0.00    -0.354 N 
ATOM     49  C   UNL A   1      40.611  28.168  28.750  1.00  0.00     0.074 A 
ATOM     50  C   UNL A   1      39.731  28.217  27.604  1.00  0.00     0.031 C 
ATOM     51  C   UNL A   1      37.767  32.177  32.905  1.00  0.00     0.029 A 
ATOM     52  C   UNL A   1      39.007  31.434  33.096  1.00  0.00     0.049 A 
ATOM     53  H   UNL A   1      40.017  30.275  31.688  1.00  0.00     0.167 HD
ATOM     54  C   UNL A   1      41.726  27.404  28.818  1.00  0.00     0.034 A 
ATOM     55  C   UNL A   1      39.722  31.386  34.238  1.00  0.00     0.034 A 
ATOM     56  C   UNL A   1      42.629  27.410  29.934  1.00  0.00     0.049 A 
ATOM     57  C   UNL A   1      40.981  30.560  34.277  1.00  0.00     0.074 A 
ATOM     58  C   UNL A   1      43.831  26.741  30.074  1.00  0.00     0.029 A 
ATOM     59  N   UNL A   1      42.430  28.127  31.104  1.00  0.00    -0.354 N 
ATOM     60  N   UNL A   1      41.511  29.819  33.333  1.00  0.00    -0.248 NA
ATOM     61  C   UNL A   1      41.757  30.587  35.525  1.00  0.00     0.031 C 
ATOM     62  C   UNL A   1      44.350  27.040  31.337  1.00  0.00     0.029 A 
ATOM     63  C   UNL A   1      43.486  27.920  31.971  1.00  0.00     0.049 A 
ATOM     64  H   UNL A   1      41.651  28.701  31.290  1.00  0.00     0.167 HD
ATOM     65  C   UNL A   1      42.705  29.335  33.854  1.00  0.00     0.074 A 
ATOM     66  C   UNL A   1      42.822  29.868  35.195  1.00  0.00     0.031 C 
ATOM     67  C   UNL A   1      43.619  28.517  33.275  1.00  0.00     0.034 A 
BRANCH  54  68
ATOM     68  C   UNL A   1      42.053  26.540  27.627  1.00  0.00     0.023 A 
ATOM     69  C   UNL A   1      42.736  27.098  26.526  1.00  0.00     0.012 A 
ATOM     70  C   UNL A   1      41.712  25.173  27.605  1.00  0.00     0.148 A 
ATOM     71  C   UNL A   1      43.029  26.325  25.403  1.00  0.00     0.002 A 
ATOM     72  C   UNL A   1      42.054  24.396  26.503  1.00  0.00     0.091 A 
ATOM     73  F   UNL A   1      41.044  24.662  28.649  1.00  0.00    -0.205 F 
ATOM     74  C   UNL A   1      42.697  24.973  25.397  1.00  0.00     0.022 A 
BRANCH  72  75
ATOM     75  S   UNL A   1      41.745  22.628  26.435  1.00  0.00     0.127 S 
ATOM     76  O   UNL A   1      42.347  22.175  27.687  1.00  0.00    -0.237 OA
ATOM     77  O   UNL A   1      40.283  22.572  26.405  1.00  0.00    -0.237 OA
ATOM     78  O   UNL A   1      42.394  22.156  25.219  1.00  0.00    -0.744 OA
ENDBRANCH  72  75
ENDBRANCH  54  68
BRANCH  55  79
ATOM     79  C   UNL A   1      39.304  32.202  35.414  1.00  0.00     0.023 A 
ATOM     80  C   UNL A   1      38.451  31.628  36.377  1.00  0.00     0.012 A 
ATOM     81  C   UNL A   1      39.767  33.518  35.605  1.00  0.00     0.148 A 
ATOM     82  C   UNL A   1      38.040  32.359  37.492  1.00  0.00     0.002 A 
ATOM     83  C   UNL A   1      39.395  34.224  36.744  1.00  0.00     0.091 A 
ATOM     84  F   UNL A   1      40.573  34.049  34.675  1.00  0.00    -0.205 F 
ATOM     85  C   UNL A   1      38.519  33.652  37.680  1.00  0.00     0.022 A 
BRANCH  83  86
ATOM     86  S   UNL A   1      40.055  35.849  37.136  1.00  0.00     0.127 S 
ATOM     87  O   UNL A   1      41.478  35.564  37.296  1.00  0.00    -0.237 OA
ATOM     88  O   UNL A   1      39.709  36.610  35.935  1.00  0.00    -0.237 OA
ATOM     89  O   UNL A   1      39.358  36.277  38.341  1.00  0.00    -0.744 OA
ENDBRANCH  83  86
ENDBRANCH  55  79
BRANCH  67  90
ATOM     90  C   UNL A   1      44.868  28.195  34.050  1.00  0.00     0.023 A 
ATOM     91  C   UNL A   1      45.973  29.066  34.005  1.00  0.00     0.012 A 
ATOM     92  C   UNL A   1      44.895  27.082  34.916  1.00  0.00     0.148 A 
ATOM     93  C   UNL A   1      47.097  28.822  34.794  1.00  0.00     0.002 A 
ATOM     94  C   UNL A   1      45.996  26.875  35.736  1.00  0.00     0.091 A 
ATOM     95  F   UNL A   1      43.837  26.258  34.929  1.00  0.00    -0.205 F 
ATOM     96  C   UNL A   1      47.102  27.737  35.669  1.00  0.00     0.022 A 
BRANCH  94  97
ATOM     97  S   UNL A   1      46.048  25.567  36.967  1.00  0.00     0.127 S 
ATOM     98  O   UNL A   1      44.877  25.883  37.785  1.00  0.00    -0.237 OA
ATOM     99  O   UNL A   1      45.912  24.365  36.144  1.00  0.00    -0.237 OA
ATOM    100  O   UNL A   1      47.331  25.698  37.642  1.00  0.00    -0.744 OA
ENDBRANCH  94  97
ENDBRANCH  67  90
ENDBRANCH  41  42
ENDBRANCH  33  36
ENDBRANCH  31  32
ENDBRANCH   1  31
TORSDOF 19
ENDMDL
MODEL 2
REMARK VINA RESULT:     -12.0      2.418      3.313
REMARK SMILES NC(=O)CC[C@@H](C(=O)NCCCNC(=O)c1ccc(-c2c3nc(c(-c4cccc(S(=O)(=O)[O-])c4F)c4ccc([nH]4)c(-c4cccc(S(=O)(=O)[O-])c4F)c4nc(c(-c5cccc(S(=O)(=O)[O-])c5F)c5ccc2[nH]5)C=C4)C=C3)cc1)N1C(=O)/C(=C/c2ccc(C=O)cc2)SC1=S
REMARK SMILES IDX 11 1 10 2 9 3 7 4 8 5 6 7 5 8 4 9 2 10 1 11 3 14 79 15 80 16
REMARK SMILES IDX 93 17 81 18 82 19 92 20 94 21 83 22 84 23 85 24 91 25 86 26
REMARK SMILES IDX 90 27 87 28 88 29 89 30 12 31 13 32 14 33 15 35 16 36 17 37
REMARK SMILES IDX 78 38 18 39 77 40 19 41 20 42 21 43 71 44 22 45 76 46 70 47
REMARK SMILES IDX 72 48 23 49 75 50 69 51 68 52 24 54 56 55 36 56 55 57 37 58
REMARK SMILES IDX 40 59 54 60 73 61 38 62 39 63 53 65 74 66 41 67 25 68 26 69
REMARK SMILES IDX 34 70 27 71 29 72 35 73 28 74 30 75 31 76 32 77 33 78 57 79
REMARK SMILES IDX 58 80 66 81 59 82 61 83 67 84 60 85 62 86 63 87 64 88 65 89
REMARK SMILES IDX 42 90 43 91 51 92 44 93 46 94 52 95 45 96 47 97 48 98 49 99
REMARK SMILES IDX 50 100
REMARK H PARENT 9 6 1 12 1 13 13 34 72 53 40 64
REMARK Flexibility Score: inf
ROOT
ATOM      1  C   UNL A   1      31.710  31.376  26.298  1.00  0.00     0.042 C 
ENDROOT
BRANCH   1   2
ATOM      2  C   UNL A   1      31.937  29.892  26.064  1.00  0.00     0.117 C 
BRANCH   2   3
ATOM      3  N   UNL A   1      33.079  29.656  25.212  1.00  0.00    -0.354 N 
ATOM      4  C   UNL A   1      33.189  28.973  24.045  1.00  0.00     0.243 C 
ATOM      5  O   UNL A   1      34.184  29.259  23.369  1.00  0.00    -0.273 OA
ATOM      6  H   UNL A   1      33.919  30.059  25.532  1.00  0.00     0.163 HD
BRANCH   4   7
ATOM      7  C   UNL A   1      32.078  28.028  23.501  1.00  0.00     0.181 C 
BRANCH   7   8
ATOM      8  C   UNL A   1      30.569  28.268  23.706  1.00  0.00     0.045 C 
BRANCH   8   9
ATOM      9  C   UNL A   1      29.655  28.879  22.649  1.00  0.00     0.102 C 
BRANCH   9  10
ATOM     10  C   UNL A   1      29.242  30.341  22.628  1.00  0.00     0.217 C 
ATOM     11  N   UNL A   1      29.616  31.155  21.615  1.00  0.00    -0.370 N 
ATOM     12  H   UNL A   1      29.340  32.100  21.617  1.00  0.00     0.159 HD
ATOM     13  H   UNL A   1      30.164  30.803  20.877  1.00  0.00     0.159 HD
ATOM     14  O   UNL A   1      28.660  30.849  23.585  1.00  0.00    -0.275 OA
ENDBRANCH   9  10
ENDBRANCH   8   9
ENDBRANCH   7   8
BRANCH   7  15
ATOM     15  N   UNL A   1      32.383  26.655  24.013  1.00  0.00    -0.280 N 
ATOM     16  C   UNL A   1      33.028  25.774  23.160  1.00  0.00     0.266 C 
ATOM     17  C   UNL A   1      31.945  26.125  25.220  1.00  0.00     0.149 C 
ATOM     18  O   UNL A   1      33.418  26.029  22.028  1.00  0.00    -0.268 OA
ATOM     19  C   UNL A   1      33.093  24.420  23.767  1.00  0.00     0.081 C 
ATOM     20  S   UNL A   1      32.540  24.479  25.389  1.00  0.00    -0.054 SA
ATOM     21  S   UNL A   1      30.964  26.788  26.398  1.00  0.00    -0.052 S 
ATOM     22  C   UNL A   1      33.467  23.334  23.076  1.00  0.00     0.029 C 
BRANCH  22  23
ATOM     23  C   UNL A   1      33.476  21.969  23.616  1.00  0.00    -0.024 A 
ATOM     24  C   UNL A   1      32.409  21.110  23.334  1.00  0.00     0.009 A 
ATOM     25  C   UNL A   1      34.553  21.501  24.385  1.00  0.00     0.009 A 
ATOM     26  C   UNL A   1      32.439  19.785  23.775  1.00  0.00     0.012 A 
ATOM     27  C   UNL A   1      34.592  20.175  24.818  1.00  0.00     0.012 A 
ATOM     28  C   UNL A   1      33.538  19.317  24.502  1.00  0.00     0.014 A 
BRANCH  28  29
ATOM     29  C   UNL A   1      33.603  17.905  24.927  1.00  0.00     0.260 C 
ATOM     30  O   UNL A   1      34.520  17.164  24.595  1.00  0.00    -0.298 OA
ENDBRANCH  28  29
ENDBRANCH  22  23
ENDBRANCH   7  15
ENDBRANCH   4   7
ENDBRANCH   2   3
ENDBRANCH   1   2
BRANCH   1  31
ATOM     31  C   UNL A   1      32.803  32.034  27.119  1.00  0.00     0.118 C 
BRANCH  31  32
ATOM     32  N   UNL A   1      32.534  33.445  27.367  1.00  0.00    -0.352 N 
ATOM     33  C   UNL A   1      33.084  34.282  28.311  1.00  0.00     0.251 C 
ATOM     34  H   UNL A   1      31.864  33.858  26.777  1.00  0.00     0.163 HD
ATOM     35  O   UNL A   1      32.598  35.395  28.495  1.00  0.00    -0.269 OA
BRANCH  33  36
ATOM     36  C   UNL A   1      34.245  33.830  29.108  1.00  0.00     0.039 A 
ATOM     37  C   UNL A   1      34.064  32.867  30.106  1.00  0.00     0.014 A 
ATOM     38  C   UNL A   1      35.516  34.346  28.854  1.00  0.00     0.014 A 
ATOM     39  C   UNL A   1      35.174  32.373  30.800  1.00  0.00     0.010 A 
ATOM     40  C   UNL A   1      36.624  33.775  29.464  1.00  0.00     0.010 A 
ATOM     41  C   UNL A   1      36.467  32.798  30.458  1.00  0.00    -0.014 A 
BRANCH  41  42
ATOM     42  C   UNL A   1      37.686  32.290  31.136  1.00  0.00     0.031 A 
ATOM     43  C   UNL A   1      38.459  31.163  30.502  1.00  0.00     0.074 A 
ATOM     44  C   UNL A   1      38.020  32.736  32.363  1.00  0.00     0.049 A 
ATOM     45  N   UNL A   1      39.418  30.430  31.002  1.00  0.00    -0.248 NA
ATOM     46  C   UNL A   1      38.060  30.777  29.135  1.00  0.00     0.031 C 
ATOM     47  C   UNL A   1      37.319  33.784  33.107  1.00  0.00     0.029 A 
ATOM     48  N   UNL A   1      39.014  32.331  33.219  1.00  0.00    -0.354 N 
ATOM     49  C   UNL A   1      39.694  29.464  30.041  1.00  0.00     0.074 A 
ATOM     50  C   UNL A   1      38.773  29.678  28.947  1.00  0.00     0.031 C 
ATOM     51  C   UNL A   1      37.904  33.939  34.306  1.00  0.00     0.029 A 
ATOM     52  C   UNL A   1      38.991  32.974  34.435  1.00  0.00     0.049 A 
ATOM     53  H   UNL A   1      39.680  31.645  32.984  1.00  0.00     0.167 HD
ATOM     54  C   UNL A   1      40.646  28.503  30.053  1.00  0.00     0.034 A 
ATOM     55  C   UNL A   1      39.749  32.792  35.535  1.00  0.00     0.034 A 
ATOM     56  C   UNL A   1      41.597  28.338  31.116  1.00  0.00     0.049 A 
ATOM     57  C   UNL A   1      40.829  31.743  35.510  1.00  0.00     0.074 A 
ATOM     58  C   UNL A   1      42.657  27.453  31.194  1.00  0.00     0.029 A 
ATOM     59  N   UNL A   1      41.606  29.080  32.287  1.00  0.00    -0.354 N 
ATOM     60  N   UNL A   1      41.154  30.916  34.546  1.00  0.00    -0.248 NA
ATOM     61  C   UNL A   1      41.667  31.623  36.712  1.00  0.00     0.031 C 
ATOM     62  C   UNL A   1      43.296  27.649  32.422  1.00  0.00     0.029 A 
ATOM     63  C   UNL A   1      42.653  28.677  33.095  1.00  0.00     0.049 A 
ATOM     64  H   UNL A   1      40.962  29.791  32.510  1.00  0.00     0.167 HD
ATOM     65  C   UNL A   1      42.263  30.214  35.003  1.00  0.00     0.074 A 
ATOM     66  C   UNL A   1      42.557  30.715  36.329  1.00  0.00     0.031 C 
ATOM     67  C   UNL A   1      42.971  29.238  34.382  1.00  0.00     0.034 A 
BRANCH  54  68
ATOM     68  C   UNL A   1      40.734  27.593  28.855  1.00  0.00     0.023 A 
ATOM     69  C   UNL A   1      39.821  26.526  28.719  1.00  0.00     0.012 A 
ATOM     70  C   UNL A   1      41.698  27.806  27.849  1.00  0.00     0.148 A 
ATOM     71  C   UNL A   1      39.897  25.657  27.631  1.00  0.00     0.002 A 
ATOM     72  C   UNL A   1      41.734  26.966  26.741  1.00  0.00     0.091 A 
ATOM     73  F   UNL A   1      42.572  28.811  28.002  1.00  0.00    -0.205 F 
ATOM     74  C   UNL A   1      40.846  25.883  26.639  1.00  0.00     0.022 A 
BRANCH  72  75
ATOM     75  S   UNL A   1      42.863  27.225  25.369  1.00  0.00     0.127 S 
ATOM     76  O   UNL A   1      42.751  25.957  24.651  1.00  0.00    -0.237 OA
ATOM     77  O   UNL A   1      42.259  28.369  24.685  1.00  0.00    -0.237 OA
ATOM     78  O   UNL A   1      44.163  27.496  25.967  1.00  0.00    -0.744 OA
ENDBRANCH  72  75
ENDBRANCH  54  68
BRANCH  55  79
ATOM     79  C   UNL A   1      39.562  33.673  36.723  1.00  0.00     0.023 A 
ATOM     80  C   UNL A   1      39.986  35.015  36.653  1.00  0.00     0.012 A 
ATOM     81  C   UNL A   1      38.944  33.209  37.900  1.00  0.00     0.148 A 
ATOM     82  C   UNL A   1      39.826  35.870  37.744  1.00  0.00     0.002 A 
ATOM     83  C   UNL A   1      38.742  34.080  38.965  1.00  0.00     0.091 A 
ATOM     84  F   UNL A   1      38.554  31.927  37.950  1.00  0.00    -0.205 F 
ATOM     85  C   UNL A   1      39.197  35.406  38.895  1.00  0.00     0.022 A 
BRANCH  83  86
ATOM     86  S   UNL A   1      37.834  33.610  40.442  1.00  0.00     0.127 S 
ATOM     87  O   UNL A   1      38.720  32.610  41.033  1.00  0.00    -0.237 OA
ATOM     88  O   UNL A   1      37.764  34.878  41.168  1.00  0.00    -0.237 OA
ATOM     89  O   UNL A   1      36.547  33.113  39.973  1.00  0.00    -0.744 OA
ENDBRANCH  83  86
ENDBRANCH  55  79
BRANCH  67  90
ATOM     90  C   UNL A   1      44.180  28.686  35.088  1.00  0.00     0.023 A 
ATOM     91  C   UNL A   1      45.444  29.276  34.894  1.00  0.00     0.012 A 
ATOM     92  C   UNL A   1      44.034  27.651  36.034  1.00  0.00     0.148 A 
ATOM     93  C   UNL A   1      46.549  28.829  35.617  1.00  0.00     0.002 A 
ATOM     94  C   UNL A   1      45.129  27.246  36.787  1.00  0.00     0.091 A 
ATOM     95  F   UNL A   1      42.824  27.093  36.189  1.00  0.00    -0.205 F 
ATOM     96  C   UNL A   1      46.389  27.826  36.573  1.00  0.00     0.022 A 
BRANCH  94  97
ATOM     97  S   UNL A   1      44.995  26.039  38.110  1.00  0.00     0.127 S 
ATOM     98  O   UNL A   1      44.590  24.839  37.377  1.00  0.00    -0.237 OA
ATOM     99  O   UNL A   1      46.361  26.002  38.633  1.00  0.00    -0.237 OA
ATOM    100  O   UNL A   1      44.004  26.564  39.039  1.00  0.00    -0.744 OA
ENDBRANCH  94  97
ENDBRANCH  67  90
ENDBRANCH  41  42
ENDBRANCH  33  36
ENDBRANCH  31  32
ENDBRANCH   1  31
TORSDOF 19
ENDMDL
MODEL 3
REMARK VINA RESULT:     -11.9      2.059      7.788
REMARK SMILES NC(=O)CC[C@@H](C(=O)NCCCNC(=O)c1ccc(-c2c3nc(c(-c4cccc(S(=O)(=O)[O-])c4F)c4ccc([nH]4)c(-c4cccc(S(=O)(=O)[O-])c4F)c4nc(c(-c5cccc(S(=O)(=O)[O-])c5F)c5ccc2[nH]5)C=C4)C=C3)cc1)N1C(=O)/C(=C/c2ccc(C=O)cc2)SC1=S
REMARK SMILES IDX 11 1 10 2 9 3 7 4 8 5 6 7 5 8 4 9 2 10 1 11 3 14 79 15 80 16
REMARK SMILES IDX 93 17 81 18 82 19 92 20 94 21 83 22 84 23 85 24 91 25 86 26
REMARK SMILES IDX 90 27 87 28 88 29 89 30 12 31 13 32 14 33 15 35 16 36 17 37
REMARK SMILES IDX 78 38 18 39 77 40 19 41 20 42 21 43 71 44 22 45 76 46 70 47
REMARK SMILES IDX 72 48 23 49 75 50 69 51 68 52 24 54 56 55 36 56 55 57 37 58
REMARK SMILES IDX 40 59 54 60 73 61 38 62 39 63 53 65 74 66 41 67 25 68 26 69
REMARK SMILES IDX 34 70 27 71 29 72 35 73 28 74 30 75 31 76 32 77 33 78 57 79
REMARK SMILES IDX 58 80 66 81 59 82 61 83 67 84 60 85 62 86 63 87 64 88 65 89
REMARK SMILES IDX 42 90 43 91 51 92 44 93 46 94 52 95 45 96 47 97 48 98 49 99
REMARK SMILES IDX 50 100
REMARK H PARENT 9 6 1 12 1 13 13 34 72 53 40 64
REMARK Flexibility Score: inf
ROOT
ATOM      1  C   UNL A   1      31.109  31.784  26.111  1.00  0.00     0.042 C 
ENDROOT
BRANCH   1   2
ATOM      2  C   UNL A   1      31.090  30.435  25.413  1.00  0.00     0.117 C 
BRANCH   2   3
ATOM      3  N   UNL A   1      32.422  29.996  25.068  1.00  0.00    -0.354 N 
ATOM      4  C   UNL A   1      32.845  29.066  24.176  1.00  0.00     0.243 C 
ATOM      5  O   UNL A   1      34.029  29.176  23.834  1.00  0.00    -0.273 OA
ATOM      6  H   UNL A   1      33.144  30.447  25.563  1.00  0.00     0.163 HD
BRANCH   4   7
ATOM      7  C   UNL A   1      31.893  28.039  23.496  1.00  0.00     0.181 C 
BRANCH   7   8
ATOM      8  C   UNL A   1      30.354  28.132  23.542  1.00  0.00     0.045 C 
BRANCH   8   9
ATOM      9  C   UNL A   1      29.510  28.785  22.453  1.00  0.00     0.102 C 
BRANCH   9  10
ATOM     10  C   UNL A   1      28.045  29.150  22.620  1.00  0.00     0.217 C 
ATOM     11  N   UNL A   1      27.571  30.340  22.188  1.00  0.00    -0.370 N 
ATOM     12  H   UNL A   1      26.618  30.561  22.303  1.00  0.00     0.159 HD
ATOM     13  H   UNL A   1      28.177  30.985  21.757  1.00  0.00     0.159 HD
ATOM     14  O   UNL A   1      27.280  28.426  23.256  1.00  0.00    -0.275 OA
ENDBRANCH   9  10
ENDBRANCH   8   9
ENDBRANCH   7   8
BRANCH   7  15
ATOM     15  N   UNL A   1      32.271  26.685  24.009  1.00  0.00    -0.280 N 
ATOM     16  C   UNL A   1      32.873  25.803  23.127  1.00  0.00     0.266 C 
ATOM     17  C   UNL A   1      31.940  26.169  25.255  1.00  0.00     0.149 C 
ATOM     18  O   UNL A   1      33.171  26.043  21.963  1.00  0.00    -0.268 OA
ATOM     19  C   UNL A   1      33.020  24.463  23.752  1.00  0.00     0.081 C 
ATOM     20  S   UNL A   1      32.590  24.543  25.410  1.00  0.00    -0.054 SA
ATOM     21  S   UNL A   1      31.033  26.832  26.492  1.00  0.00    -0.052 S 
ATOM     22  C   UNL A   1      33.369  23.373  23.055  1.00  0.00     0.029 C 
BRANCH  22  23
ATOM     23  C   UNL A   1      33.455  22.020  23.618  1.00  0.00    -0.024 A 
ATOM     24  C   UNL A   1      32.402  21.123  23.417  1.00  0.00     0.009 A 
ATOM     25  C   UNL A   1      34.590  21.603  24.329  1.00  0.00     0.009 A 
ATOM     26  C   UNL A   1      32.502  19.808  23.879  1.00  0.00     0.012 A 
ATOM     27  C   UNL A   1      34.699  20.287  24.783  1.00  0.00     0.012 A 
ATOM     28  C   UNL A   1      33.656  19.390  24.546  1.00  0.00     0.014 A 
BRANCH  28  29
ATOM     29  C   UNL A   1      33.793  17.990  24.993  1.00  0.00     0.260 C 
ATOM     30  O   UNL A   1      34.464  17.170  24.378  1.00  0.00    -0.298 OA
ENDBRANCH  28  29
ENDBRANCH  22  23
ENDBRANCH   7  15
ENDBRANCH   4   7
ENDBRANCH   2   3
ENDBRANCH   1   2
BRANCH   1  31
ATOM     31  C   UNL A   1      32.349  32.013  26.954  1.00  0.00     0.118 C 
BRANCH  31  32
ATOM     32  N   UNL A   1      32.564  33.425  27.250  1.00  0.00    -0.352 N 
ATOM     33  C   UNL A   1      33.520  34.010  28.048  1.00  0.00     0.251 C 
ATOM     34  H   UNL A   1      31.937  34.047  26.817  1.00  0.00     0.163 HD
ATOM     35  O   UNL A   1      33.432  35.202  28.330  1.00  0.00    -0.269 OA
BRANCH  33  36
ATOM     36  C   UNL A   1      34.636  33.196  28.576  1.00  0.00     0.039 A 
ATOM     37  C   UNL A   1      35.937  33.428  28.118  1.00  0.00     0.014 A 
ATOM     38  C   UNL A   1      34.397  32.217  29.541  1.00  0.00     0.014 A 
ATOM     39  C   UNL A   1      37.005  32.721  28.681  1.00  0.00     0.010 A 
ATOM     40  C   UNL A   1      35.467  31.600  30.175  1.00  0.00     0.010 A 
ATOM     41  C   UNL A   1      36.781  31.828  29.740  1.00  0.00    -0.014 A 
BRANCH  41  42
ATOM     42  C   UNL A   1      37.875  31.072  30.399  1.00  0.00     0.031 A 
ATOM     43  C   UNL A   1      38.230  31.395  31.827  1.00  0.00     0.074 A 
ATOM     44  C   UNL A   1      38.628  30.206  29.692  1.00  0.00     0.049 A 
ATOM     45  N   UNL A   1      39.264  31.018  32.531  1.00  0.00    -0.248 NA
ATOM     46  C   UNL A   1      37.319  32.309  32.542  1.00  0.00     0.031 C 
ATOM     47  C   UNL A   1      38.422  29.850  28.287  1.00  0.00     0.029 A 
ATOM     48  N   UNL A   1      39.748  29.499  30.051  1.00  0.00    -0.354 N 
ATOM     49  C   UNL A   1      39.161  31.692  33.743  1.00  0.00     0.074 A 
ATOM     50  C   UNL A   1      37.987  32.532  33.663  1.00  0.00     0.031 C 
ATOM     51  C   UNL A   1      39.382  28.993  27.904  1.00  0.00     0.029 A 
ATOM     52  C   UNL A   1      40.297  28.772  29.019  1.00  0.00     0.049 A 
ATOM     53  H   UNL A   1      40.124  29.511  30.962  1.00  0.00     0.167 HD
ATOM     54  C   UNL A   1      39.954  31.600  34.835  1.00  0.00     0.034 A 
ATOM     55  C   UNL A   1      41.420  28.028  28.974  1.00  0.00     0.034 A 
ATOM     56  C   UNL A   1      41.081  30.715  34.929  1.00  0.00     0.049 A 
ATOM     57  C   UNL A   1      42.265  27.908  30.215  1.00  0.00     0.074 A 
ATOM     58  C   UNL A   1      41.902  30.478  36.015  1.00  0.00     0.029 A 
ATOM     59  N   UNL A   1      41.543  29.916  33.894  1.00  0.00    -0.354 N 
ATOM     60  N   UNL A   1      42.088  28.461  31.391  1.00  0.00    -0.248 NA
ATOM     61  C   UNL A   1      43.448  27.039  30.134  1.00  0.00     0.031 C 
ATOM     62  C   UNL A   1      42.873  29.548  35.631  1.00  0.00     0.029 A 
ATOM     63  C   UNL A   1      42.636  29.183  34.314  1.00  0.00     0.049 A 
ATOM     64  H   UNL A   1      41.148  29.876  32.992  1.00  0.00     0.167 HD
ATOM     65  C   UNL A   1      43.103  27.968  32.202  1.00  0.00     0.074 A 
ATOM     66  C   UNL A   1      43.891  27.069  31.384  1.00  0.00     0.031 C 
ATOM     67  C   UNL A   1      43.363  28.239  33.505  1.00  0.00     0.034 A 
BRANCH  54  68
ATOM     68  C   UNL A   1      39.593  32.442  36.032  1.00  0.00     0.023 A 
ATOM     69  C   UNL A   1      40.194  33.707  36.204  1.00  0.00     0.012 A 
ATOM     70  C   UNL A   1      38.641  31.999  36.972  1.00  0.00     0.148 A 
ATOM     71  C   UNL A   1      39.894  34.494  37.315  1.00  0.00     0.002 A 
ATOM     72  C   UNL A   1      38.308  32.813  38.050  1.00  0.00     0.091 A 
ATOM     73  F   UNL A   1      38.095  30.786  36.808  1.00  0.00    -0.205 F 
ATOM     74  C   UNL A   1      38.944  34.051  38.231  1.00  0.00     0.022 A 
BRANCH  72  75
ATOM     75  S   UNL A   1      37.038  32.369  39.239  1.00  0.00     0.127 S 
ATOM     76  O   UNL A   1      37.320  33.297  40.332  1.00  0.00    -0.237 OA
ATOM     77  O   UNL A   1      35.809  32.656  38.497  1.00  0.00    -0.237 OA
ATOM     78  O   UNL A   1      37.247  30.960  39.541  1.00  0.00    -0.744 OA
ENDBRANCH  72  75
ENDBRANCH  54  68
BRANCH  55  79
ATOM     79  C   UNL A   1      41.769  27.279  27.734  1.00  0.00     0.023 A 
ATOM     80  C   UNL A   1      42.275  27.988  26.626  1.00  0.00     0.012 A 
ATOM     81  C   UNL A   1      41.639  25.880  27.651  1.00  0.00     0.148 A 
ATOM     82  C   UNL A   1      42.615  27.322  25.448  1.00  0.00     0.002 A 
ATOM     83  C   UNL A   1      42.028  25.216  26.493  1.00  0.00     0.091 A 
ATOM     84  F   UNL A   1      41.150  25.223  28.713  1.00  0.00    -0.205 F 
ATOM     85  C   UNL A   1      42.501  25.937  25.385  1.00  0.00     0.022 A 
BRANCH  83  86
ATOM     86  S   UNL A   1      42.033  23.424  26.357  1.00  0.00     0.127 S 
ATOM     87  O   UNL A   1      42.803  23.036  27.536  1.00  0.00    -0.237 OA
ATOM     88  O   UNL A   1      40.604  23.115  26.425  1.00  0.00    -0.237 OA
ATOM     89  O   UNL A   1      42.652  23.127  25.073  1.00  0.00    -0.744 OA
ENDBRANCH  83  86
ENDBRANCH  55  79
BRANCH  67  90
ATOM     90  C   UNL A   1      44.503  27.510  34.164  1.00  0.00     0.023 A 
ATOM     91  C   UNL A   1      45.793  28.075  34.174  1.00  0.00     0.012 A 
ATOM     92  C   UNL A   1      44.262  26.316  34.873  1.00  0.00     0.148 A 
ATOM     93  C   UNL A   1      46.832  27.449  34.863  1.00  0.00     0.002 A 
ATOM     94  C   UNL A   1      45.288  25.727  35.600  1.00  0.00     0.091 A 
ATOM     95  F   UNL A   1      43.029  25.789  34.834  1.00  0.00    -0.205 F 
ATOM     96  C   UNL A   1      46.576  26.286  35.587  1.00  0.00     0.022 A 
BRANCH  94  97
ATOM     97  S   UNL A   1      45.027  24.289  36.644  1.00  0.00     0.127 S 
ATOM     98  O   UNL A   1      46.394  23.970  37.057  1.00  0.00    -0.237 OA
ATOM     99  O   UNL A   1      44.180  24.829  37.707  1.00  0.00    -0.237 OA
ATOM    100  O   UNL A   1      44.383  23.290  35.803  1.00  0.00    -0.744 OA
ENDBRANCH  94  97
ENDBRANCH  67  90
ENDBRANCH  41  42
ENDBRANCH  33  36
ENDBRANCH  31  32
ENDBRANCH   1  31
TORSDOF 19
ENDMDL
