MODEL 1
REMARK VINA RESULT:     -12.6      0.000      0.000
REMARK SMILES COc1cccc([C@@H]2CN(C(=O)c3cnn(C)c3)C[C@H]2C(=O)NCCCNC(=O)c2ccc(-c3c4nc(c(-c5cccc(S(=O)(=O)[O-])c5F)c5ccc([nH]5)c(-c5cccc(S(=O)(=O)[O-])c5F)c5nc(c(-c6cccc(S(=O)(=O)[O-])c6F)c6ccc3[nH]6)C=C5)C=C4)cc2)c1OC
REMARK SMILES IDX 25 1 24 2 23 3 21 4 22 5 20 7 8 8 9 9 10 10 19 11 7 12 3 13
REMARK SMILES IDX 4 14 93 15 5 16 6 17 2 18 1 19 94 20 95 21 11 22 12 23 13 24
REMARK SMILES IDX 14 25 18 26 15 27 16 28 17 29 26 30 27 31 28 32 29 34 30 35
REMARK SMILES IDX 31 36 92 37 32 38 91 39 33 40 34 41 35 42 85 43 36 44 90 45
REMARK SMILES IDX 84 46 86 47 37 48 89 49 83 50 82 51 38 53 70 54 50 55 69 56
REMARK SMILES IDX 51 57 54 58 68 59 87 60 52 61 53 62 67 64 88 65 55 66 39 67
REMARK SMILES IDX 40 68 48 69 41 70 43 71 49 72 42 73 44 74 45 75 46 76 47 77
REMARK SMILES IDX 71 78 72 79 80 80 73 81 75 82 81 83 74 84 76 85 77 86 78 87
REMARK SMILES IDX 79 88 56 89 57 90 65 91 58 92 60 93 66 94 59 95 61 96 62 97
REMARK SMILES IDX 63 98 64 99
REMARK H PARENT 23 6 27 33 86 52 54 63
REMARK Flexibility Score: inf
ROOT
ATOM      1  C   UNL A   1      31.421  31.182  26.032  1.00  0.00     0.042 C 
ENDROOT
BRANCH   1   2
ATOM      2  C   UNL A   1      31.542  29.768  25.476  1.00  0.00     0.117 C 
BRANCH   2   3
ATOM      3  N   UNL A   1      32.710  29.595  24.629  1.00  0.00    -0.356 N 
ATOM      4  C   UNL A   1      32.907  28.897  23.481  1.00  0.00     0.225 C 
ATOM      5  O   UNL A   1      34.023  28.991  22.959  1.00  0.00    -0.275 OA
ATOM      6  H   UNL A   1      33.509  30.074  24.947  1.00  0.00     0.163 HD
BRANCH   4   7
ATOM      7  C   UNL A   1      31.843  28.029  22.833  1.00  0.00     0.107 C 
ATOM      8  C   UNL A   1      31.380  26.854  23.716  1.00  0.00     0.057 C 
ATOM      9  C   UNL A   1      29.866  26.777  23.509  1.00  0.00     0.129 C 
ATOM     10  N   UNL A   1      29.476  28.119  23.109  1.00  0.00    -0.337 N 
ATOM     11  C   UNL A   1      30.581  28.797  22.453  1.00  0.00     0.134 C 
BRANCH   8  12
ATOM     12  C   UNL A   1      32.094  25.533  23.486  1.00  0.00     0.004 A 
ATOM     13  C   UNL A   1      32.948  23.372  24.209  1.00  0.00     0.161 A 
ATOM     14  C   UNL A   1      33.431  23.130  22.918  1.00  0.00     0.050 A 
ATOM     15  C   UNL A   1      32.304  24.584  24.513  1.00  0.00     0.164 A 
ATOM     16  C   UNL A   1      33.235  24.067  21.908  1.00  0.00     0.004 A 
ATOM     17  C   UNL A   1      32.563  25.254  22.188  1.00  0.00     0.008 A 
BRANCH  13  18
ATOM     18  O   UNL A   1      33.190  22.440  25.185  1.00  0.00    -0.493 OA
ATOM     19  C   UNL A   1      32.410  21.260  24.980  1.00  0.00     0.278 C 
ENDBRANCH  13  18
BRANCH  15  20
ATOM     20  O   UNL A   1      31.886  24.980  25.758  1.00  0.00    -0.493 OA
ATOM     21  C   UNL A   1      30.709  24.392  26.289  1.00  0.00     0.278 C 
ENDBRANCH  15  20
ENDBRANCH   8  12
BRANCH  10  22
ATOM     22  C   UNL A   1      28.197  28.651  23.046  1.00  0.00     0.257 C 
ATOM     23  O   UNL A   1      27.214  27.984  23.373  1.00  0.00    -0.269 OA
BRANCH  22  24
ATOM     24  C   UNL A   1      28.042  30.030  22.626  1.00  0.00     0.077 A 
ATOM     25  C   UNL A   1      27.867  31.152  23.466  1.00  0.00     0.149 A 
ATOM     26  C   UNL A   1      27.944  30.561  21.354  1.00  0.00     0.122 A 
ATOM     27  N   UNL A   1      27.770  32.301  22.790  1.00  0.00    -0.181 NA
ATOM     28  N   UNL A   1      27.843  31.914  21.504  1.00  0.00    -0.275 N 
ATOM     29  C   UNL A   1      27.833  32.903  20.453  1.00  0.00     0.173 C 
ENDBRANCH  22  24
ENDBRANCH  10  22
ENDBRANCH   4   7
ENDBRANCH   2   3
ENDBRANCH   1   2
BRANCH   1  30
ATOM     30  C   UNL A   1      32.568  31.593  26.946  1.00  0.00     0.118 C 
BRANCH  30  31
ATOM     31  N   UNL A   1      32.619  33.032  27.170  1.00  0.00    -0.352 N 
ATOM     32  C   UNL A   1      33.423  33.765  28.010  1.00  0.00     0.251 C 
ATOM     33  H   UNL A   1      31.980  33.559  26.638  1.00  0.00     0.163 HD
ATOM     34  O   UNL A   1      33.183  34.956  28.192  1.00  0.00    -0.269 OA
BRANCH  32  35
ATOM     35  C   UNL A   1      34.561  33.124  28.705  1.00  0.00     0.039 A 
ATOM     36  C   UNL A   1      34.342  32.505  29.939  1.00  0.00     0.014 A 
ATOM     37  C   UNL A   1      35.845  33.155  28.156  1.00  0.00     0.014 A 
ATOM     38  C   UNL A   1      35.396  31.856  30.589  1.00  0.00     0.010 A 
ATOM     39  C   UNL A   1      36.876  32.447  28.766  1.00  0.00     0.010 A 
ATOM     40  C   UNL A   1      36.664  31.795  29.991  1.00  0.00    -0.014 A 
BRANCH  40  41
ATOM     41  C   UNL A   1      37.799  31.075  30.623  1.00  0.00     0.031 A 
ATOM     42  C   UNL A   1      38.215  31.427  32.026  1.00  0.00     0.074 A 
ATOM     43  C   UNL A   1      38.521  30.196  29.903  1.00  0.00     0.049 A 
ATOM     44  N   UNL A   1      39.272  31.045  32.694  1.00  0.00    -0.248 NA
ATOM     45  C   UNL A   1      37.345  32.362  32.762  1.00  0.00     0.031 C 
ATOM     46  C   UNL A   1      38.259  29.820  28.511  1.00  0.00     0.029 A 
ATOM     47  N   UNL A   1      39.650  29.485  30.229  1.00  0.00    -0.354 N 
ATOM     48  C   UNL A   1      39.220  31.724  33.905  1.00  0.00     0.074 A 
ATOM     49  C   UNL A   1      38.041  32.560  33.873  1.00  0.00     0.031 C 
ATOM     50  C   UNL A   1      39.205  28.960  28.102  1.00  0.00     0.029 A 
ATOM     51  C   UNL A   1      40.156  28.741  29.188  1.00  0.00     0.049 A 
ATOM     52  H   UNL A   1      40.061  29.508  31.124  1.00  0.00     0.167 HD
ATOM     53  C   UNL A   1      40.060  31.635  34.963  1.00  0.00     0.034 A 
ATOM     54  C   UNL A   1      41.264  27.978  29.114  1.00  0.00     0.034 A 
ATOM     55  C   UNL A   1      41.192  30.752  35.021  1.00  0.00     0.049 A 
ATOM     56  C   UNL A   1      42.133  27.833  30.334  1.00  0.00     0.074 A 
ATOM     57  C   UNL A   1      42.076  30.552  36.066  1.00  0.00     0.029 A 
ATOM     58  N   UNL A   1      41.581  29.903  33.997  1.00  0.00    -0.354 N 
ATOM     59  N   UNL A   1      42.000  28.396  31.511  1.00  0.00    -0.248 NA
ATOM     60  C   UNL A   1      43.282  26.922  30.233  1.00  0.00     0.031 C 
ATOM     61  C   UNL A   1      42.993  29.568  35.680  1.00  0.00     0.029 A 
ATOM     62  C   UNL A   1      42.679  29.161  34.393  1.00  0.00     0.049 A 
ATOM     63  H   UNL A   1      41.142  29.839  33.119  1.00  0.00     0.167 HD
ATOM     64  C   UNL A   1      43.023  27.880  32.298  1.00  0.00     0.074 A 
ATOM     65  C   UNL A   1      43.757  26.945  31.471  1.00  0.00     0.031 C 
ATOM     66  C   UNL A   1      43.342  28.173  33.582  1.00  0.00     0.034 A 
BRANCH  53  67
ATOM     67  C   UNL A   1      39.736  32.458  36.182  1.00  0.00     0.023 A 
ATOM     68  C   UNL A   1      40.379  33.700  36.356  1.00  0.00     0.012 A 
ATOM     69  C   UNL A   1      38.769  32.040  37.114  1.00  0.00     0.148 A 
ATOM     70  C   UNL A   1      40.083  34.504  37.456  1.00  0.00     0.002 A 
ATOM     71  C   UNL A   1      38.453  32.864  38.189  1.00  0.00     0.091 A 
ATOM     72  F   UNL A   1      38.188  30.844  36.943  1.00  0.00    -0.205 F 
ATOM     73  C   UNL A   1      39.113  34.091  38.366  1.00  0.00     0.022 A 
BRANCH  71  74
ATOM     74  S   UNL A   1      37.172  32.451  39.380  1.00  0.00     0.127 S 
ATOM     75  O   UNL A   1      37.350  33.499  40.383  1.00  0.00    -0.237 OA
ATOM     76  O   UNL A   1      35.953  32.574  38.579  1.00  0.00    -0.237 OA
ATOM     77  O   UNL A   1      37.465  31.096  39.828  1.00  0.00    -0.744 OA
ENDBRANCH  71  74
ENDBRANCH  53  67
BRANCH  54  78
ATOM     78  C   UNL A   1      41.568  27.228  27.863  1.00  0.00     0.023 A 
ATOM     79  C   UNL A   1      42.094  27.923  26.757  1.00  0.00     0.012 A 
ATOM     80  C   UNL A   1      41.381  25.836  27.770  1.00  0.00     0.148 A 
ATOM     81  C   UNL A   1      42.397  27.252  25.571  1.00  0.00     0.002 A 
ATOM     82  C   UNL A   1      41.737  25.165  26.603  1.00  0.00     0.091 A 
ATOM     83  F   UNL A   1      40.863  25.186  28.822  1.00  0.00    -0.205 F 
ATOM     84  C   UNL A   1      42.230  25.872  25.497  1.00  0.00     0.022 A 
BRANCH  82  85
ATOM     85  S   UNL A   1      41.681  23.371  26.510  1.00  0.00     0.127 S 
ATOM     86  O   UNL A   1      40.246  23.112  26.460  1.00  0.00    -0.237 OA
ATOM     87  O   UNL A   1      42.401  23.093  25.266  1.00  0.00    -0.237 OA
ATOM     88  O   UNL A   1      42.381  22.917  27.707  1.00  0.00    -0.744 OA
ENDBRANCH  82  85
ENDBRANCH  54  78
BRANCH  66  89
ATOM     89  C   UNL A   1      44.508  27.450  34.197  1.00  0.00     0.023 A 
ATOM     90  C   UNL A   1      45.802  27.990  34.070  1.00  0.00     0.012 A 
ATOM     91  C   UNL A   1      44.310  26.294  34.975  1.00  0.00     0.148 A 
ATOM     92  C   UNL A   1      46.887  27.381  34.698  1.00  0.00     0.002 A 
ATOM     93  C   UNL A   1      45.390  25.711  35.627  1.00  0.00     0.091 A 
ATOM     94  F   UNL A   1      43.073  25.783  35.062  1.00  0.00    -0.205 F 
ATOM     95  C   UNL A   1      46.680  26.250  35.486  1.00  0.00     0.022 A 
BRANCH  93  96
ATOM     96  S   UNL A   1      45.195  24.303  36.727  1.00  0.00     0.127 S 
ATOM     97  O   UNL A   1      44.636  23.297  35.826  1.00  0.00    -0.237 OA
ATOM     98  O   UNL A   1      46.571  24.042  37.152  1.00  0.00    -0.237 OA
ATOM     99  O   UNL A   1      44.313  24.754  37.794  1.00  0.00    -0.744 OA
ENDBRANCH  93  96
ENDBRANCH  66  89
ENDBRANCH  40  41
ENDBRANCH  32  35
ENDBRANCH  30  31
ENDBRANCH   1  30
TORSDOF 18
ENDMDL
MODEL 2
REMARK VINA RESULT:     -12.6      2.081      8.511
REMARK SMILES COc1cccc([C@@H]2CN(C(=O)c3cnn(C)c3)C[C@H]2C(=O)NCCCNC(=O)c2ccc(-c3c4nc(c(-c5cccc(S(=O)(=O)[O-])c5F)c5ccc([nH]5)c(-c5cccc(S(=O)(=O)[O-])c5F)c5nc(c(-c6cccc(S(=O)(=O)[O-])c6F)c6ccc3[nH]6)C=C5)C=C4)cc2)c1OC
REMARK SMILES IDX 25 1 24 2 23 3 21 4 22 5 20 7 8 8 9 9 10 10 19 11 7 12 3 13
REMARK SMILES IDX 4 14 93 15 5 16 6 17 2 18 1 19 94 20 95 21 11 22 12 23 13 24
REMARK SMILES IDX 14 25 18 26 15 27 16 28 17 29 26 30 27 31 28 32 29 34 30 35
REMARK SMILES IDX 31 36 92 37 32 38 91 39 33 40 34 41 35 42 85 43 36 44 90 45
REMARK SMILES IDX 84 46 86 47 37 48 89 49 83 50 82 51 38 53 70 54 50 55 69 56
REMARK SMILES IDX 51 57 54 58 68 59 87 60 52 61 53 62 67 64 88 65 55 66 39 67
REMARK SMILES IDX 40 68 48 69 41 70 43 71 49 72 42 73 44 74 45 75 46 76 47 77
REMARK SMILES IDX 71 78 72 79 80 80 73 81 75 82 81 83 74 84 76 85 77 86 78 87
REMARK SMILES IDX 79 88 56 89 57 90 65 91 58 92 60 93 66 94 59 95 61 96 62 97
REMARK SMILES IDX 63 98 64 99
REMARK H PARENT 23 6 27 33 86 52 54 63
REMARK Flexibility Score: inf
ROOT
ATOM      1  C   UNL A   1      31.487  31.677  26.502  1.00  0.00     0.042 C 
ENDROOT
BRANCH   1   2
ATOM      2  C   UNL A   1      31.676  30.208  26.141  1.00  0.00     0.117 C 
BRANCH   2   3
ATOM      3  N   UNL A   1      32.494  30.021  24.953  1.00  0.00    -0.356 N 
ATOM      4  C   UNL A   1      32.635  28.974  24.100  1.00  0.00     0.225 C 
ATOM      5  O   UNL A   1      33.385  29.144  23.133  1.00  0.00    -0.275 OA
ATOM      6  H   UNL A   1      33.049  30.801  24.724  1.00  0.00     0.163 HD
BRANCH   4   7
ATOM      7  C   UNL A   1      31.932  27.641  24.285  1.00  0.00     0.107 C 
ATOM      8  C   UNL A   1      31.011  27.260  23.109  1.00  0.00     0.057 C 
ATOM      9  C   UNL A   1      31.226  25.758  22.909  1.00  0.00     0.129 C 
ATOM     10  N   UNL A   1      32.554  25.499  23.442  1.00  0.00    -0.337 N 
ATOM     11  C   UNL A   1      32.889  26.469  24.471  1.00  0.00     0.134 C 
BRANCH   8  12
ATOM     12  C   UNL A   1      29.550  27.650  23.259  1.00  0.00     0.004 A 
ATOM     13  C   UNL A   1      27.688  29.206  23.073  1.00  0.00     0.161 A 
ATOM     14  C   UNL A   1      26.823  28.234  23.588  1.00  0.00     0.050 A 
ATOM     15  C   UNL A   1      29.061  28.935  22.932  1.00  0.00     0.164 A 
ATOM     16  C   UNL A   1      27.305  26.972  23.922  1.00  0.00     0.004 A 
ATOM     17  C   UNL A   1      28.655  26.679  23.749  1.00  0.00     0.008 A 
BRANCH  13  18
ATOM     18  O   UNL A   1      27.183  30.448  22.787  1.00  0.00    -0.493 OA
ATOM     19  C   UNL A   1      27.487  31.383  23.823  1.00  0.00     0.278 C 
ENDBRANCH  13  18
BRANCH  15  20
ATOM     20  O   UNL A   1      30.019  29.836  22.542  1.00  0.00    -0.493 OA
ATOM     21  C   UNL A   1      29.948  30.365  21.228  1.00  0.00     0.278 C 
ENDBRANCH  15  20
ENDBRANCH   8  12
BRANCH  10  22
ATOM     22  C   UNL A   1      33.329  24.361  23.279  1.00  0.00     0.257 C 
ATOM     23  O   UNL A   1      34.300  24.356  22.521  1.00  0.00    -0.269 OA
BRANCH  22  24
ATOM     24  C   UNL A   1      32.998  23.182  24.056  1.00  0.00     0.077 A 
ATOM     25  C   UNL A   1      31.711  22.794  24.492  1.00  0.00     0.149 A 
ATOM     26  C   UNL A   1      33.829  22.229  24.613  1.00  0.00     0.122 A 
ATOM     27  N   UNL A   1      31.715  21.645  25.175  1.00  0.00    -0.181 NA
ATOM     28  N   UNL A   1      33.018  21.310  25.215  1.00  0.00    -0.275 N 
ATOM     29  C   UNL A   1      33.423  20.070  25.832  1.00  0.00     0.173 C 
ENDBRANCH  22  24
ENDBRANCH  10  22
ENDBRANCH   4   7
ENDBRANCH   2   3
ENDBRANCH   1   2
BRANCH   1  30
ATOM     30  C   UNL A   1      32.688  32.307  27.197  1.00  0.00     0.118 C 
BRANCH  30  31
ATOM     31  N   UNL A   1      32.481  33.716  27.504  1.00  0.00    -0.352 N 
ATOM     32  C   UNL A   1      33.084  34.509  28.451  1.00  0.00     0.251 C 
ATOM     33  H   UNL A   1      31.806  34.169  26.950  1.00  0.00     0.163 HD
ATOM     34  O   UNL A   1      32.636  35.630  28.679  1.00  0.00    -0.269 OA
BRANCH  32  35
ATOM     35  C   UNL A   1      34.257  34.014  29.206  1.00  0.00     0.039 A 
ATOM     36  C   UNL A   1      34.051  33.196  30.320  1.00  0.00     0.014 A 
ATOM     37  C   UNL A   1      35.553  34.374  28.833  1.00  0.00     0.014 A 
ATOM     38  C   UNL A   1      35.148  32.682  31.019  1.00  0.00     0.010 A 
ATOM     39  C   UNL A   1      36.644  33.805  29.482  1.00  0.00     0.010 A 
ATOM     40  C   UNL A   1      36.454  32.957  30.585  1.00  0.00    -0.014 A 
BRANCH  40  41
ATOM     41  C   UNL A   1      37.646  32.394  31.267  1.00  0.00     0.031 A 
ATOM     42  C   UNL A   1      38.391  31.247  30.639  1.00  0.00     0.074 A 
ATOM     43  C   UNL A   1      37.988  32.832  32.494  1.00  0.00     0.049 A 
ATOM     44  N   UNL A   1      39.343  30.506  31.142  1.00  0.00    -0.248 NA
ATOM     45  C   UNL A   1      37.986  30.859  29.276  1.00  0.00     0.031 C 
ATOM     46  C   UNL A   1      37.303  33.892  33.237  1.00  0.00     0.029 A 
ATOM     47  N   UNL A   1      38.975  32.413  33.352  1.00  0.00    -0.354 N 
ATOM     48  C   UNL A   1      39.619  29.539  30.183  1.00  0.00     0.074 A 
ATOM     49  C   UNL A   1      38.718  29.772  29.075  1.00  0.00     0.031 C 
ATOM     50  C   UNL A   1      37.882  34.031  34.441  1.00  0.00     0.029 A 
ATOM     51  C   UNL A   1      38.961  33.055  34.568  1.00  0.00     0.049 A 
ATOM     52  H   UNL A   1      39.630  31.716  33.118  1.00  0.00     0.167 HD
ATOM     53  C   UNL A   1      40.559  28.566  30.205  1.00  0.00     0.034 A 
ATOM     54  C   UNL A   1      39.724  32.873  35.664  1.00  0.00     0.034 A 
ATOM     55  C   UNL A   1      41.500  28.380  31.276  1.00  0.00     0.049 A 
ATOM     56  C   UNL A   1      40.816  31.838  35.629  1.00  0.00     0.074 A 
ATOM     57  C   UNL A   1      42.522  27.454  31.372  1.00  0.00     0.029 A 
ATOM     58  N   UNL A   1      41.546  29.152  32.426  1.00  0.00    -0.354 N 
ATOM     59  N   UNL A   1      41.135  31.010  34.662  1.00  0.00    -0.248 NA
ATOM     60  C   UNL A   1      41.678  31.734  36.815  1.00  0.00     0.031 C 
ATOM     61  C   UNL A   1      43.200  27.676  32.576  1.00  0.00     0.029 A 
ATOM     62  C   UNL A   1      42.594  28.738  33.228  1.00  0.00     0.049 A 
ATOM     63  H   UNL A   1      40.925  29.884  32.640  1.00  0.00     0.167 HD
ATOM     64  C   UNL A   1      42.254  30.316  35.109  1.00  0.00     0.074 A 
ATOM     65  C   UNL A   1      42.569  30.833  36.425  1.00  0.00     0.031 C 
ATOM     66  C   UNL A   1      42.942  29.323  34.497  1.00  0.00     0.034 A 
BRANCH  53  67
ATOM     67  C   UNL A   1      40.672  27.677  28.996  1.00  0.00     0.023 A 
ATOM     68  C   UNL A   1      39.795  26.580  28.872  1.00  0.00     0.012 A 
ATOM     69  C   UNL A   1      41.592  27.951  27.966  1.00  0.00     0.148 A 
ATOM     70  C   UNL A   1      39.849  25.752  27.751  1.00  0.00     0.002 A 
ATOM     71  C   UNL A   1      41.615  27.141  26.835  1.00  0.00     0.091 A 
ATOM     72  F   UNL A   1      42.433  28.984  28.116  1.00  0.00    -0.205 F 
ATOM     73  C   UNL A   1      40.751  26.039  26.730  1.00  0.00     0.022 A 
BRANCH  71  74
ATOM     74  S   UNL A   1      42.694  27.466  25.436  1.00  0.00     0.127 S 
ATOM     75  O   UNL A   1      42.509  26.259  24.633  1.00  0.00    -0.237 OA
ATOM     76  O   UNL A   1      42.103  28.676  24.863  1.00  0.00    -0.237 OA
ATOM     77  O   UNL A   1      44.027  27.652  25.995  1.00  0.00    -0.744 OA
ENDBRANCH  71  74
ENDBRANCH  53  67
BRANCH  54  78
ATOM     78  C   UNL A   1      39.532  33.744  36.857  1.00  0.00     0.023 A 
ATOM     79  C   UNL A   1      39.928  35.094  36.792  1.00  0.00     0.012 A 
ATOM     80  C   UNL A   1      38.929  33.265  38.035  1.00  0.00     0.148 A 
ATOM     81  C   UNL A   1      39.757  35.941  37.888  1.00  0.00     0.002 A 
ATOM     82  C   UNL A   1      38.712  34.129  39.104  1.00  0.00     0.091 A 
ATOM     83  F   UNL A   1      38.571  31.974  38.094  1.00  0.00    -0.205 F 
ATOM     84  C   UNL A   1      39.140  35.463  39.040  1.00  0.00     0.022 A 
BRANCH  82  85
ATOM     85  S   UNL A   1      37.786  33.601  40.551  1.00  0.00     0.127 S 
ATOM     86  O   UNL A   1      38.690  32.626  41.153  1.00  0.00    -0.237 OA
ATOM     87  O   UNL A   1      37.634  34.846  41.306  1.00  0.00    -0.237 OA
ATOM     88  O   UNL A   1      36.532  33.081  40.018  1.00  0.00    -0.744 OA
ENDBRANCH  82  85
ENDBRANCH  54  78
BRANCH  66  89
ATOM     89  C   UNL A   1      44.133  28.751  35.213  1.00  0.00     0.023 A 
ATOM     90  C   UNL A   1      45.411  29.291  34.972  1.00  0.00     0.012 A 
ATOM     91  C   UNL A   1      43.974  27.749  36.189  1.00  0.00     0.148 A 
ATOM     92  C   UNL A   1      46.518  28.831  35.683  1.00  0.00     0.002 A 
ATOM     93  C   UNL A   1      45.077  27.320  36.920  1.00  0.00     0.091 A 
ATOM     94  F   UNL A   1      42.752  27.232  36.386  1.00  0.00    -0.205 F 
ATOM     95  C   UNL A   1      46.350  27.855  36.664  1.00  0.00     0.022 A 
BRANCH  93  96
ATOM     96  S   UNL A   1      44.931  26.128  38.256  1.00  0.00     0.127 S 
ATOM     97  O   UNL A   1      44.572  24.910  37.532  1.00  0.00    -0.237 OA
ATOM     98  O   UNL A   1      46.280  26.124  38.824  1.00  0.00    -0.237 OA
ATOM     99  O   UNL A   1      43.907  26.657  39.147  1.00  0.00    -0.744 OA
ENDBRANCH  93  96
ENDBRANCH  66  89
ENDBRANCH  40  41
ENDBRANCH  32  35
ENDBRANCH  30  31
ENDBRANCH   1  30
TORSDOF 18
ENDMDL
MODEL 3
REMARK VINA RESULT:     -12.6      1.713      2.306
REMARK SMILES COc1cccc([C@@H]2CN(C(=O)c3cnn(C)c3)C[C@H]2C(=O)NCCCNC(=O)c2ccc(-c3c4nc(c(-c5cccc(S(=O)(=O)[O-])c5F)c5ccc([nH]5)c(-c5cccc(S(=O)(=O)[O-])c5F)c5nc(c(-c6cccc(S(=O)(=O)[O-])c6F)c6ccc3[nH]6)C=C5)C=C4)cc2)c1OC
REMARK SMILES IDX 25 1 24 2 23 3 21 4 22 5 20 7 8 8 9 9 10 10 19 11 7 12 3 13
REMARK SMILES IDX 4 14 93 15 5 16 6 17 2 18 1 19 94 20 95 21 11 22 12 23 13 24
REMARK SMILES IDX 14 25 18 26 15 27 16 28 17 29 26 30 27 31 28 32 29 34 30 35
REMARK SMILES IDX 31 36 92 37 32 38 91 39 33 40 34 41 35 42 85 43 36 44 90 45
REMARK SMILES IDX 84 46 86 47 37 48 89 49 83 50 82 51 38 53 70 54 50 55 69 56
REMARK SMILES IDX 51 57 54 58 68 59 87 60 52 61 53 62 67 64 88 65 55 66 39 67
REMARK SMILES IDX 40 68 48 69 41 70 43 71 49 72 42 73 44 74 45 75 46 76 47 77
REMARK SMILES IDX 71 78 72 79 80 80 73 81 75 82 81 83 74 84 76 85 77 86 78 87
REMARK SMILES IDX 79 88 56 89 57 90 65 91 58 92 60 93 66 94 59 95 61 96 62 97
REMARK SMILES IDX 63 98 64 99
REMARK H PARENT 23 6 27 33 86 52 54 63
REMARK Flexibility Score: inf
ROOT
ATOM      1  C   UNL A   1      33.229  31.245  26.550  1.00  0.00     0.042 C 
ENDROOT
BRANCH   1   2
ATOM      2  C   UNL A   1      33.707  30.005  27.296  1.00  0.00     0.117 C 
BRANCH   2   3
ATOM      3  N   UNL A   1      32.613  29.144  27.714  1.00  0.00    -0.356 N 
ATOM      4  C   UNL A   1      32.044  28.051  27.142  1.00  0.00     0.225 C 
ATOM      5  O   UNL A   1      31.146  27.494  27.783  1.00  0.00    -0.275 OA
ATOM      6  H   UNL A   1      32.209  29.400  28.574  1.00  0.00     0.163 HD
BRANCH   4   7
ATOM      7  C   UNL A   1      32.453  27.505  25.786  1.00  0.00     0.107 C 
ATOM      8  C   UNL A   1      32.030  26.041  25.555  1.00  0.00     0.057 C 
ATOM      9  C   UNL A   1      31.565  25.990  24.098  1.00  0.00     0.129 C 
ATOM     10  N   UNL A   1      31.159  27.351  23.789  1.00  0.00    -0.337 N 
ATOM     11  C   UNL A   1      31.887  28.300  24.614  1.00  0.00     0.134 C 
BRANCH   8  12
ATOM     12  C   UNL A   1      33.072  24.989  25.898  1.00  0.00     0.004 A 
ATOM     13  C   UNL A   1      33.806  22.926  26.959  1.00  0.00     0.161 A 
ATOM     14  C   UNL A   1      35.096  23.124  26.452  1.00  0.00     0.050 A 
ATOM     15  C   UNL A   1      32.793  23.869  26.713  1.00  0.00     0.164 A 
ATOM     16  C   UNL A   1      35.376  24.232  25.659  1.00  0.00     0.004 A 
ATOM     17  C   UNL A   1      34.370  25.151  25.376  1.00  0.00     0.008 A 
BRANCH  13  18
ATOM     18  O   UNL A   1      33.578  21.840  27.764  1.00  0.00    -0.493 OA
ATOM     19  C   UNL A   1      33.453  20.642  26.997  1.00  0.00     0.278 C 
ENDBRANCH  13  18
BRANCH  15  20
ATOM     20  O   UNL A   1      31.528  23.841  27.242  1.00  0.00    -0.493 OA
ATOM     21  C   UNL A   1      30.561  23.007  26.625  1.00  0.00     0.278 C 
ENDBRANCH  15  20
ENDBRANCH   8  12
BRANCH  10  22
ATOM     22  C   UNL A   1      30.430  27.794  22.697  1.00  0.00     0.257 C 
ATOM     23  O   UNL A   1      30.695  27.410  21.556  1.00  0.00    -0.269 OA
BRANCH  22  24
ATOM     24  C   UNL A   1      29.315  28.692  22.927  1.00  0.00     0.077 A 
ATOM     25  C   UNL A   1      27.958  28.329  23.078  1.00  0.00     0.149 A 
ATOM     26  C   UNL A   1      29.286  30.073  22.971  1.00  0.00     0.122 A 
ATOM     27  N   UNL A   1      27.158  29.376  23.299  1.00  0.00    -0.181 NA
ATOM     28  N   UNL A   1      27.998  30.426  23.252  1.00  0.00    -0.275 N 
ATOM     29  C   UNL A   1      27.502  31.757  23.510  1.00  0.00     0.173 C 
ENDBRANCH  22  24
ENDBRANCH  10  22
ENDBRANCH   4   7
ENDBRANCH   2   3
ENDBRANCH   1   2
BRANCH   1  30
ATOM     30  C   UNL A   1      32.145  32.031  27.278  1.00  0.00     0.118 C 
BRANCH  30  31
ATOM     31  N   UNL A   1      32.467  33.447  27.401  1.00  0.00    -0.352 N 
ATOM     32  C   UNL A   1      33.488  34.061  28.087  1.00  0.00     0.251 C 
ATOM     33  H   UNL A   1      31.862  34.055  26.920  1.00  0.00     0.163 HD
ATOM     34  O   UNL A   1      33.478  35.282  28.221  1.00  0.00    -0.269 OA
BRANCH  32  35
ATOM     35  C   UNL A   1      34.583  33.260  28.675  1.00  0.00     0.039 A 
ATOM     36  C   UNL A   1      35.832  33.251  28.046  1.00  0.00     0.014 A 
ATOM     37  C   UNL A   1      34.376  32.500  29.828  1.00  0.00     0.014 A 
ATOM     38  C   UNL A   1      36.891  32.535  28.612  1.00  0.00     0.010 A 
ATOM     39  C   UNL A   1      35.448  31.848  30.430  1.00  0.00     0.010 A 
ATOM     40  C   UNL A   1      36.715  31.854  29.826  1.00  0.00    -0.014 A 
BRANCH  40  41
ATOM     41  C   UNL A   1      37.825  31.122  30.487  1.00  0.00     0.031 A 
ATOM     42  C   UNL A   1      38.219  31.480  31.895  1.00  0.00     0.074 A 
ATOM     43  C   UNL A   1      38.547  30.224  29.789  1.00  0.00     0.049 A 
ATOM     44  N   UNL A   1      39.256  31.086  32.587  1.00  0.00    -0.248 NA
ATOM     45  C   UNL A   1      37.350  32.435  32.605  1.00  0.00     0.031 C 
ATOM     46  C   UNL A   1      38.306  29.840  28.396  1.00  0.00     0.029 A 
ATOM     47  N   UNL A   1      39.657  29.498  30.144  1.00  0.00    -0.354 N 
ATOM     48  C   UNL A   1      39.191  31.777  33.791  1.00  0.00     0.074 A 
ATOM     49  C   UNL A   1      38.027  32.632  33.728  1.00  0.00     0.031 C 
ATOM     50  C   UNL A   1      39.246  28.961  28.013  1.00  0.00     0.029 A 
ATOM     51  C   UNL A   1      40.171  28.736  29.120  1.00  0.00     0.049 A 
ATOM     52  H   UNL A   1      40.050  29.522  31.047  1.00  0.00     0.167 HD
ATOM     53  C   UNL A   1      40.008  31.684  34.867  1.00  0.00     0.034 A 
ATOM     54  C   UNL A   1      41.267  27.954  29.075  1.00  0.00     0.034 A 
ATOM     55  C   UNL A   1      41.123  30.782  34.955  1.00  0.00     0.049 A 
ATOM     56  C   UNL A   1      42.109  27.806  30.314  1.00  0.00     0.074 A 
ATOM     57  C   UNL A   1      41.983  30.577  36.020  1.00  0.00     0.029 A 
ATOM     58  N   UNL A   1      41.519  29.918  33.947  1.00  0.00    -0.354 N 
ATOM     59  N   UNL A   1      41.962  28.382  31.483  1.00  0.00    -0.248 NA
ATOM     60  C   UNL A   1      43.245  26.875  30.243  1.00  0.00     0.031 C 
ATOM     61  C   UNL A   1      42.891  29.575  35.660  1.00  0.00     0.029 A 
ATOM     62  C   UNL A   1      42.596  29.161  34.371  1.00  0.00     0.049 A 
ATOM     63  H   UNL A   1      41.096  29.853  33.060  1.00  0.00     0.167 HD
ATOM     64  C   UNL A   1      42.961  27.856  32.295  1.00  0.00     0.074 A 
ATOM     65  C   UNL A   1      43.695  26.902  31.491  1.00  0.00     0.031 C 
ATOM     66  C   UNL A   1      43.259  28.155  33.582  1.00  0.00     0.034 A 
BRANCH  53  67
ATOM     67  C   UNL A   1      39.673  32.522  36.071  1.00  0.00     0.023 A 
ATOM     68  C   UNL A   1      38.787  32.005  37.037  1.00  0.00     0.012 A 
ATOM     69  C   UNL A   1      40.269  33.781  36.279  1.00  0.00     0.148 A 
ATOM     70  C   UNL A   1      38.477  32.739  38.182  1.00  0.00     0.002 A 
ATOM     71  C   UNL A   1      39.982  34.491  37.440  1.00  0.00     0.091 A 
ATOM     72  F   UNL A   1      41.090  34.265  35.336  1.00  0.00    -0.205 F 
ATOM     73  C   UNL A   1      39.082  33.976  38.387  1.00  0.00     0.022 A 
BRANCH  71  74
ATOM     74  S   UNL A   1      40.761  36.063  37.828  1.00  0.00     0.127 S 
ATOM     75  O   UNL A   1      40.119  36.406  39.095  1.00  0.00    -0.237 OA
ATOM     76  O   UNL A   1      42.172  35.691  37.940  1.00  0.00    -0.237 OA
ATOM     77  O   UNL A   1      40.456  36.946  36.710  1.00  0.00    -0.744 OA
ENDBRANCH  71  74
ENDBRANCH  53  67
BRANCH  54  78
ATOM     78  C   UNL A   1      41.584  27.188  27.837  1.00  0.00     0.023 A 
ATOM     79  C   UNL A   1      42.163  27.861  26.743  1.00  0.00     0.012 A 
ATOM     80  C   UNL A   1      41.356  25.802  27.745  1.00  0.00     0.148 A 
ATOM     81  C   UNL A   1      42.479  27.174  25.570  1.00  0.00     0.002 A 
ATOM     82  C   UNL A   1      41.725  25.114  26.593  1.00  0.00     0.091 A 
ATOM     83  F   UNL A   1      40.789  25.174  28.785  1.00  0.00    -0.205 F 
ATOM     84  C   UNL A   1      42.271  25.799  25.498  1.00  0.00     0.022 A 
BRANCH  82  85
ATOM     85  S   UNL A   1      41.616  23.322  26.507  1.00  0.00     0.127 S 
ATOM     86  O   UNL A   1      42.398  23.025  25.312  1.00  0.00    -0.237 OA
ATOM     87  O   UNL A   1      42.233  22.904  27.767  1.00  0.00    -0.237 OA
ATOM     88  O   UNL A   1      40.186  23.042  26.433  1.00  0.00    -0.744 OA
ENDBRANCH  82  85
ENDBRANCH  54  78
BRANCH  66  89
ATOM     89  C   UNL A   1      44.400  27.419  34.227  1.00  0.00     0.023 A 
ATOM     90  C   UNL A   1      45.700  27.952  34.148  1.00  0.00     0.012 A 
ATOM     91  C   UNL A   1      44.170  26.256  34.986  1.00  0.00     0.148 A 
ATOM     92  C   UNL A   1      46.761  27.329  34.804  1.00  0.00     0.002 A 
ATOM     93  C   UNL A   1      45.225  25.660  35.667  1.00  0.00     0.091 A 
ATOM     94  F   UNL A   1      42.928  25.752  35.028  1.00  0.00    -0.205 F 
ATOM     95  C   UNL A   1      46.522  26.191  35.572  1.00  0.00     0.022 A 
BRANCH  93  96
ATOM     96  S   UNL A   1      44.986  24.242  36.744  1.00  0.00     0.127 S 
ATOM     97  O   UNL A   1      44.112  24.796  37.776  1.00  0.00    -0.237 OA
ATOM     98  O   UNL A   1      44.342  23.274  35.854  1.00  0.00    -0.237 OA
ATOM     99  O   UNL A   1      46.318  23.854  37.188  1.00  0.00    -0.744 OA
ENDBRANCH  93  96
ENDBRANCH  66  89
ENDBRANCH  40  41
ENDBRANCH  32  35
ENDBRANCH  30  31
ENDBRANCH   1  30
TORSDOF 18
ENDMDL
