MODEL 1
REMARK VINA RESULT:     -12.7      0.000      0.000
REMARK SMILES Cc1ccc(NC(=O)C[C@@H](C(=O)NCCCNC(=O)c2ccc(-c3c4nc(c(-c5cccc(S(=O)(=O)[O-])c5F)c5ccc([nH]5)c(-c5cccc(S(=O)(=O)[O-])c5F)c5nc(c(-c6cccc(S(=O)(=O)[O-])c6F)c6ccc3[nH]6)C=C5)C=C4)cc2)[NH+]2CCOCC2)cc1
REMARK SMILES IDX 15 1 14 2 13 3 11 4 12 5 10 7 9 8 7 9 6 10 8 12 5 13 1 14
REMARK SMILES IDX 2 15 3 16 90 17 4 18 89 19 83 20 84 21 88 22 85 24 87 25
REMARK SMILES IDX 86 26 16 27 17 28 18 29 19 31 20 32 21 33 82 34 22 35 81 36
REMARK SMILES IDX 23 37 24 38 25 39 75 40 26 41 80 42 74 43 76 44 27 45 79 46
REMARK SMILES IDX 73 47 72 48 28 50 60 51 40 52 59 53 41 54 44 55 58 56 77 57
REMARK SMILES IDX 42 58 43 59 57 61 78 62 45 63 29 64 30 65 38 66 31 67 33 68
REMARK SMILES IDX 39 69 32 70 34 71 35 72 36 73 37 74 61 75 62 76 70 77 63 78
REMARK SMILES IDX 65 79 71 80 64 81 66 82 67 83 68 84 69 85 46 86 47 87 55 88
REMARK SMILES IDX 48 89 50 90 56 91 49 92 51 93 52 94 53 95 54 96
REMARK H PARENT 13 6 6 11 83 23 17 30 76 49 44 60
REMARK Flexibility Score: inf
ROOT
ATOM      1  C   UNL A   1      36.853  21.514  25.636  1.00  0.00     0.042 C 
ENDROOT
BRANCH   1   2
ATOM      2  C   UNL A   1      35.669  22.043  26.441  1.00  0.00     0.118 C 
BRANCH   2   3
ATOM      3  N   UNL A   1      34.458  21.262  26.328  1.00  0.00    -0.351 N 
ATOM      4  C   UNL A   1      33.271  21.500  25.710  1.00  0.00     0.278 C 
ATOM      5  O   UNL A   1      32.604  20.485  25.478  1.00  0.00    -0.268 OA
ATOM      6  H   UNL A   1      34.502  20.392  26.785  1.00  0.00     0.163 HD
BRANCH   4   7
ATOM      7  C   UNL A   1      32.812  22.926  25.248  1.00  0.00     0.283 C 
BRANCH   7   8
ATOM      8  C   UNL A   1      31.282  23.152  25.252  1.00  0.00     0.175 C 
BRANCH   8   9
ATOM      9  C   UNL A   1      30.599  23.826  26.415  1.00  0.00     0.230 C 
ATOM     10  N   UNL A   1      30.152  25.112  26.370  1.00  0.00    -0.326 N 
ATOM     11  H   UNL A   1      29.741  25.428  27.206  1.00  0.00     0.169 HD
ATOM     12  O   UNL A   1      30.443  23.186  27.462  1.00  0.00    -0.274 OA
BRANCH  10  13
ATOM     13  C   UNL A   1      30.175  26.066  25.338  1.00  0.00     0.041 A 
ATOM     14  C   UNL A   1      29.991  29.600  22.896  1.00  0.00     0.044 C 
ATOM     15  C   UNL A   1      30.138  28.318  23.657  1.00  0.00    -0.051 A 
ATOM     16  C   UNL A   1      29.192  27.302  23.505  1.00  0.00     0.005 A 
ATOM     17  C   UNL A   1      31.169  28.146  24.582  1.00  0.00     0.005 A 
ATOM     18  C   UNL A   1      29.219  26.177  24.332  1.00  0.00     0.026 A 
ATOM     19  C   UNL A   1      31.198  27.015  25.400  1.00  0.00     0.026 A 
ENDBRANCH  10  13
ENDBRANCH   8   9
ENDBRANCH   7   8
BRANCH   7  20
ATOM     20  N   UNL A   1      33.401  23.199  23.895  1.00  0.00    -0.320 N 
ATOM     21  C   UNL A   1      34.490  24.198  23.887  1.00  0.00     0.291 C 
ATOM     22  C   UNL A   1      32.535  23.398  22.727  1.00  0.00     0.291 C 
ATOM     23  H   UNL A   1      33.769  22.260  23.746  1.00  0.00     0.348 HD
ATOM     24  C   UNL A   1      34.007  25.631  23.623  1.00  0.00     0.221 C 
ATOM     25  C   UNL A   1      32.132  24.852  22.451  1.00  0.00     0.221 C 
ATOM     26  O   UNL A   1      33.268  25.720  22.401  1.00  0.00    -0.370 OA
ENDBRANCH   7  20
ENDBRANCH   4   7
ENDBRANCH   2   3
ENDBRANCH   1   2
BRANCH   1  27
ATOM     27  C   UNL A   1      37.894  22.544  25.192  1.00  0.00     0.118 C 
BRANCH  27  28
ATOM     28  N   UNL A   1      39.174  22.278  25.839  1.00  0.00    -0.352 N 
ATOM     29  C   UNL A   1      40.157  23.116  26.339  1.00  0.00     0.251 C 
ATOM     30  H   UNL A   1      39.379  21.321  25.940  1.00  0.00     0.163 HD
ATOM     31  O   UNL A   1      41.253  22.665  26.611  1.00  0.00    -0.269 OA
BRANCH  29  32
ATOM     32  C   UNL A   1      39.786  24.501  26.700  1.00  0.00     0.039 A 
ATOM     33  C   UNL A   1      40.547  25.521  26.117  1.00  0.00     0.014 A 
ATOM     34  C   UNL A   1      38.954  24.765  27.777  1.00  0.00     0.014 A 
ATOM     35  C   UNL A   1      40.711  26.723  26.793  1.00  0.00     0.010 A 
ATOM     36  C   UNL A   1      39.163  25.928  28.482  1.00  0.00     0.010 A 
ATOM     37  C   UNL A   1      40.112  26.856  28.037  1.00  0.00    -0.014 A 
BRANCH  37  38
ATOM     38  C   UNL A   1      40.356  27.950  28.958  1.00  0.00     0.031 A 
ATOM     39  C   UNL A   1      39.506  29.145  28.875  1.00  0.00     0.074 A 
ATOM     40  C   UNL A   1      41.189  27.756  30.002  1.00  0.00     0.049 A 
ATOM     41  N   UNL A   1      39.738  30.244  29.499  1.00  0.00    -0.248 NA
ATOM     42  C   UNL A   1      38.318  29.188  28.034  1.00  0.00     0.031 C 
ATOM     43  C   UNL A   1      41.235  28.519  31.243  1.00  0.00     0.029 A 
ATOM     44  N   UNL A   1      42.309  26.924  30.073  1.00  0.00    -0.354 N 
ATOM     45  C   UNL A   1      38.608  31.023  29.390  1.00  0.00     0.074 A 
ATOM     46  C   UNL A   1      37.813  30.373  28.377  1.00  0.00     0.031 C 
ATOM     47  C   UNL A   1      42.434  28.339  31.815  1.00  0.00     0.029 A 
ATOM     48  C   UNL A   1      43.252  27.606  30.867  1.00  0.00     0.049 A 
ATOM     49  H   UNL A   1      42.417  26.040  29.652  1.00  0.00     0.167 HD
ATOM     50  C   UNL A   1      38.434  32.037  30.286  1.00  0.00     0.034 A 
ATOM     51  C   UNL A   1      44.465  28.017  30.391  1.00  0.00     0.034 A 
ATOM     52  C   UNL A   1      39.652  32.222  31.099  1.00  0.00     0.049 A 
ATOM     53  C   UNL A   1      44.622  29.534  30.382  1.00  0.00     0.074 A 
ATOM     54  C   UNL A   1      40.050  31.846  32.371  1.00  0.00     0.029 A 
ATOM     55  N   UNL A   1      40.802  32.646  30.457  1.00  0.00    -0.354 N 
ATOM     56  N   UNL A   1      43.759  30.379  30.878  1.00  0.00    -0.248 NA
ATOM     57  C   UNL A   1      45.736  30.216  29.720  1.00  0.00     0.031 C 
ATOM     58  C   UNL A   1      41.473  31.974  32.444  1.00  0.00     0.029 A 
ATOM     59  C   UNL A   1      41.934  32.462  31.232  1.00  0.00     0.049 A 
ATOM     60  H   UNL A   1      40.814  33.033  29.552  1.00  0.00     0.167 HD
ATOM     61  C   UNL A   1      44.070  31.649  30.463  1.00  0.00     0.074 A 
ATOM     62  C   UNL A   1      45.347  31.501  29.784  1.00  0.00     0.031 C 
ATOM     63  C   UNL A   1      43.241  32.726  30.635  1.00  0.00     0.034 A 
BRANCH  50  64
ATOM     64  C   UNL A   1      37.117  32.727  30.610  1.00  0.00     0.023 A 
ATOM     65  C   UNL A   1      36.682  32.670  31.954  1.00  0.00     0.012 A 
ATOM     66  C   UNL A   1      36.227  33.362  29.710  1.00  0.00     0.148 A 
ATOM     67  C   UNL A   1      35.427  33.132  32.365  1.00  0.00     0.002 A 
ATOM     68  C   UNL A   1      34.956  33.791  30.107  1.00  0.00     0.091 A 
ATOM     69  F   UNL A   1      36.602  33.616  28.460  1.00  0.00    -0.205 F 
ATOM     70  C   UNL A   1      34.551  33.671  31.435  1.00  0.00     0.022 A 
BRANCH  68  71
ATOM     71  S   UNL A   1      33.751  34.465  28.946  1.00  0.00     0.127 S 
ATOM     72  O   UNL A   1      32.654  34.849  29.837  1.00  0.00    -0.237 OA
ATOM     73  O   UNL A   1      34.477  35.590  28.359  1.00  0.00    -0.237 OA
ATOM     74  O   UNL A   1      33.419  33.391  28.018  1.00  0.00    -0.744 OA
ENDBRANCH  68  71
ENDBRANCH  50  64
BRANCH  51  75
ATOM     75  C   UNL A   1      45.039  27.075  29.385  1.00  0.00     0.023 A 
ATOM     76  C   UNL A   1      45.321  25.763  29.836  1.00  0.00     0.012 A 
ATOM     77  C   UNL A   1      44.903  27.306  28.005  1.00  0.00     0.148 A 
ATOM     78  C   UNL A   1      45.318  24.684  28.950  1.00  0.00     0.002 A 
ATOM     79  C   UNL A   1      44.897  26.224  27.129  1.00  0.00     0.091 A 
ATOM     80  F   UNL A   1      44.679  28.556  27.584  1.00  0.00    -0.205 F 
ATOM     81  C   UNL A   1      45.066  24.913  27.603  1.00  0.00     0.022 A 
BRANCH  79  82
ATOM     82  S   UNL A   1      44.514  26.418  25.384  1.00  0.00     0.127 S 
ATOM     83  O   UNL A   1      43.794  25.180  25.104  1.00  0.00    -0.237 OA
ATOM     84  O   UNL A   1      43.688  27.623  25.388  1.00  0.00    -0.237 OA
ATOM     85  O   UNL A   1      45.804  26.574  24.729  1.00  0.00    -0.744 OA
ENDBRANCH  79  82
ENDBRANCH  51  75
BRANCH  63  86
ATOM     86  C   UNL A   1      43.629  34.140  30.244  1.00  0.00     0.023 A 
ATOM     87  C   UNL A   1      43.710  35.148  31.226  1.00  0.00     0.012 A 
ATOM     88  C   UNL A   1      43.766  34.550  28.895  1.00  0.00     0.148 A 
ATOM     89  C   UNL A   1      43.961  36.485  30.892  1.00  0.00     0.002 A 
ATOM     90  C   UNL A   1      43.897  35.895  28.561  1.00  0.00     0.091 A 
ATOM     91  F   UNL A   1      43.827  33.635  27.921  1.00  0.00    -0.205 F 
ATOM     92  C   UNL A   1      44.028  36.863  29.558  1.00  0.00     0.022 A 
BRANCH  90  93
ATOM     93  S   UNL A   1      43.761  36.478  26.863  1.00  0.00     0.127 S 
ATOM     94  O   UNL A   1      43.764  37.931  27.045  1.00  0.00    -0.237 OA
ATOM     95  O   UNL A   1      44.978  35.937  26.261  1.00  0.00    -0.237 OA
ATOM     96  O   UNL A   1      42.506  35.941  26.357  1.00  0.00    -0.744 OA
ENDBRANCH  90  93
ENDBRANCH  63  86
ENDBRANCH  37  38
ENDBRANCH  29  32
ENDBRANCH  27  28
ENDBRANCH   1  27
TORSDOF 17
ENDMDL
MODEL 2
REMARK VINA RESULT:     -12.7      3.792      9.324
REMARK SMILES Cc1ccc(NC(=O)C[C@@H](C(=O)NCCCNC(=O)c2ccc(-c3c4nc(c(-c5cccc(S(=O)(=O)[O-])c5F)c5ccc([nH]5)c(-c5cccc(S(=O)(=O)[O-])c5F)c5nc(c(-c6cccc(S(=O)(=O)[O-])c6F)c6ccc3[nH]6)C=C5)C=C4)cc2)[NH+]2CCOCC2)cc1
REMARK SMILES IDX 15 1 14 2 13 3 11 4 12 5 10 7 9 8 7 9 6 10 8 12 5 13 1 14
REMARK SMILES IDX 2 15 3 16 90 17 4 18 89 19 83 20 84 21 88 22 85 24 87 25
REMARK SMILES IDX 86 26 16 27 17 28 18 29 19 31 20 32 21 33 82 34 22 35 81 36
REMARK SMILES IDX 23 37 24 38 25 39 75 40 26 41 80 42 74 43 76 44 27 45 79 46
REMARK SMILES IDX 73 47 72 48 28 50 60 51 40 52 59 53 41 54 44 55 58 56 77 57
REMARK SMILES IDX 42 58 43 59 57 61 78 62 45 63 29 64 30 65 38 66 31 67 33 68
REMARK SMILES IDX 39 69 32 70 34 71 35 72 36 73 37 74 61 75 62 76 70 77 63 78
REMARK SMILES IDX 65 79 71 80 64 81 66 82 67 83 68 84 69 85 46 86 47 87 55 88
REMARK SMILES IDX 48 89 50 90 56 91 49 92 51 93 52 94 53 95 54 96
REMARK H PARENT 13 6 6 11 83 23 17 30 76 49 44 60
REMARK Flexibility Score: inf
ROOT
ATOM      1  C   UNL A   1      32.927  30.536  26.149  1.00  0.00     0.042 C 
ENDROOT
BRANCH   1   2
ATOM      2  C   UNL A   1      33.298  29.474  25.117  1.00  0.00     0.118 C 
BRANCH   2   3
ATOM      3  N   UNL A   1      32.293  29.227  24.108  1.00  0.00    -0.351 N 
ATOM      4  C   UNL A   1      31.692  28.087  23.675  1.00  0.00     0.278 C 
ATOM      5  O   UNL A   1      30.618  28.267  23.089  1.00  0.00    -0.268 OA
ATOM      6  H   UNL A   1      31.984  30.040  23.648  1.00  0.00     0.163 HD
BRANCH   4   7
ATOM      7  C   UNL A   1      32.258  26.653  23.963  1.00  0.00     0.283 C 
BRANCH   7   8
ATOM      8  C   UNL A   1      31.638  25.524  23.108  1.00  0.00     0.175 C 
BRANCH   8   9
ATOM      9  C   UNL A   1      32.235  25.142  21.777  1.00  0.00     0.230 C 
ATOM     10  N   UNL A   1      32.916  23.978  21.575  1.00  0.00    -0.326 N 
ATOM     11  H   UNL A   1      33.264  23.866  20.661  1.00  0.00     0.169 HD
ATOM     12  O   UNL A   1      32.107  25.920  20.824  1.00  0.00    -0.274 OA
BRANCH  10  13
ATOM     13  C   UNL A   1      33.207  22.912  22.442  1.00  0.00     0.041 A 
ATOM     14  C   UNL A   1      33.322  19.982  25.586  1.00  0.00     0.044 C 
ATOM     15  C   UNL A   1      33.347  20.916  24.415  1.00  0.00    -0.051 A 
ATOM     16  C   UNL A   1      34.341  21.892  24.321  1.00  0.00     0.005 A 
ATOM     17  C   UNL A   1      32.343  20.879  23.446  1.00  0.00     0.005 A 
ATOM     18  C   UNL A   1      34.277  22.877  23.331  1.00  0.00     0.026 A 
ATOM     19  C   UNL A   1      32.290  21.859  22.452  1.00  0.00     0.026 A 
ENDBRANCH  10  13
ENDBRANCH   8   9
ENDBRANCH   7   8
BRANCH   7  20
ATOM     20  N   UNL A   1      32.111  26.371  25.430  1.00  0.00    -0.320 N 
ATOM     21  C   UNL A   1      32.651  25.066  25.863  1.00  0.00     0.291 C 
ATOM     22  C   UNL A   1      30.845  26.640  26.121  1.00  0.00     0.291 C 
ATOM     23  H   UNL A   1      32.708  27.135  25.747  1.00  0.00     0.348 HD
ATOM     24  C   UNL A   1      31.610  23.938  25.858  1.00  0.00     0.221 C 
ATOM     25  C   UNL A   1      29.858  25.467  26.160  1.00  0.00     0.221 C 
ATOM     26  O   UNL A   1      30.469  24.272  26.655  1.00  0.00    -0.370 OA
ENDBRANCH   7  20
ENDBRANCH   4   7
ENDBRANCH   2   3
ENDBRANCH   1   2
BRANCH   1  27
ATOM     27  C   UNL A   1      33.250  30.213  27.609  1.00  0.00     0.118 C 
BRANCH  27  28
ATOM     28  N   UNL A   1      33.985  31.317  28.218  1.00  0.00    -0.352 N 
ATOM     29  C   UNL A   1      35.156  31.363  28.955  1.00  0.00     0.251 C 
ATOM     30  H   UNL A   1      33.568  32.198  28.078  1.00  0.00     0.163 HD
ATOM     31  O   UNL A   1      35.443  32.372  29.570  1.00  0.00    -0.269 OA
BRANCH  29  32
ATOM     32  C   UNL A   1      36.114  30.245  28.825  1.00  0.00     0.039 A 
ATOM     33  C   UNL A   1      36.448  29.570  30.006  1.00  0.00     0.014 A 
ATOM     34  C   UNL A   1      36.870  30.076  27.675  1.00  0.00     0.014 A 
ATOM     35  C   UNL A   1      37.697  28.976  30.123  1.00  0.00     0.010 A 
ATOM     36  C   UNL A   1      38.133  29.545  27.807  1.00  0.00     0.010 A 
ATOM     37  C   UNL A   1      38.574  29.086  29.054  1.00  0.00    -0.014 A 
BRANCH  37  38
ATOM     38  C   UNL A   1      39.974  28.712  29.092  1.00  0.00     0.031 A 
ATOM     39  C   UNL A   1      40.334  27.304  28.881  1.00  0.00     0.074 A 
ATOM     40  C   UNL A   1      40.914  29.681  29.089  1.00  0.00     0.049 A 
ATOM     41  N   UNL A   1      41.508  26.819  29.076  1.00  0.00    -0.248 NA
ATOM     42  C   UNL A   1      39.355  26.315  28.451  1.00  0.00     0.031 C 
ATOM     43  C   UNL A   1      42.309  29.551  28.690  1.00  0.00     0.029 A 
ATOM     44  N   UNL A   1      40.833  30.966  29.633  1.00  0.00    -0.354 N 
ATOM     45  C   UNL A   1      41.526  25.556  28.528  1.00  0.00     0.074 A 
ATOM     46  C   UNL A   1      40.140  25.253  28.265  1.00  0.00     0.031 C 
ATOM     47  C   UNL A   1      43.008  30.559  29.232  1.00  0.00     0.029 A 
ATOM     48  C   UNL A   1      42.116  31.255  30.141  1.00  0.00     0.049 A 
ATOM     49  H   UNL A   1      40.041  31.550  29.657  1.00  0.00     0.167 HD
ATOM     50  C   UNL A   1      42.734  24.996  28.234  1.00  0.00     0.034 A 
ATOM     51  C   UNL A   1      42.357  31.473  31.467  1.00  0.00     0.034 A 
ATOM     52  C   UNL A   1      43.831  25.821  28.778  1.00  0.00     0.049 A 
ATOM     53  C   UNL A   1      43.264  30.418  32.093  1.00  0.00     0.074 A 
ATOM     54  C   UNL A   1      44.707  26.758  28.256  1.00  0.00     0.029 A 
ATOM     55  N   UNL A   1      43.934  25.937  30.153  1.00  0.00    -0.354 N 
ATOM     56  N   UNL A   1      43.862  29.460  31.436  1.00  0.00    -0.248 NA
ATOM     57  C   UNL A   1      43.488  30.314  33.536  1.00  0.00     0.031 C 
ATOM     58  C   UNL A   1      45.270  27.493  29.346  1.00  0.00     0.029 A 
ATOM     59  C   UNL A   1      44.764  26.979  30.530  1.00  0.00     0.049 A 
ATOM     60  H   UNL A   1      43.468  25.349  30.790  1.00  0.00     0.167 HD
ATOM     61  C   UNL A   1      44.365  28.542  32.323  1.00  0.00     0.074 A 
ATOM     62  C   UNL A   1      44.152  29.149  33.626  1.00  0.00     0.031 C 
ATOM     63  C   UNL A   1      44.858  27.320  31.948  1.00  0.00     0.034 A 
BRANCH  50  64
ATOM     64  C   UNL A   1      42.974  23.840  27.274  1.00  0.00     0.023 A 
ATOM     65  C   UNL A   1      43.735  24.121  26.116  1.00  0.00     0.012 A 
ATOM     66  C   UNL A   1      42.462  22.522  27.360  1.00  0.00     0.148 A 
ATOM     67  C   UNL A   1      43.909  23.195  25.081  1.00  0.00     0.002 A 
ATOM     68  C   UNL A   1      42.601  21.606  26.312  1.00  0.00     0.091 A 
ATOM     69  F   UNL A   1      41.874  22.100  28.475  1.00  0.00    -0.205 F 
ATOM     70  C   UNL A   1      43.321  21.943  25.167  1.00  0.00     0.022 A 
BRANCH  68  71
ATOM     71  S   UNL A   1      41.831  19.975  26.338  1.00  0.00     0.127 S 
ATOM     72  O   UNL A   1      42.258  19.458  27.640  1.00  0.00    -0.237 OA
ATOM     73  O   UNL A   1      40.408  20.300  26.253  1.00  0.00    -0.237 OA
ATOM     74  O   UNL A   1      42.368  19.242  25.198  1.00  0.00    -0.744 OA
ENDBRANCH  68  71
ENDBRANCH  50  64
BRANCH  51  75
ATOM     75  C   UNL A   1      41.227  32.168  32.153  1.00  0.00     0.023 A 
ATOM     76  C   UNL A   1      40.923  33.476  31.702  1.00  0.00     0.012 A 
ATOM     77  C   UNL A   1      40.253  31.451  32.869  1.00  0.00     0.148 A 
ATOM     78  C   UNL A   1      39.634  33.996  31.830  1.00  0.00     0.002 A 
ATOM     79  C   UNL A   1      38.969  31.976  32.988  1.00  0.00     0.091 A 
ATOM     80  F   UNL A   1      40.563  30.233  33.328  1.00  0.00    -0.205 F 
ATOM     81  C   UNL A   1      38.649  33.227  32.437  1.00  0.00     0.022 A 
BRANCH  79  82
ATOM     82  S   UNL A   1      37.619  31.027  33.698  1.00  0.00     0.127 S 
ATOM     83  O   UNL A   1      37.573  31.555  35.058  1.00  0.00    -0.237 OA
ATOM     84  O   UNL A   1      36.495  31.417  32.849  1.00  0.00    -0.237 OA
ATOM     85  O   UNL A   1      38.021  29.635  33.562  1.00  0.00    -0.744 OA
ENDBRANCH  79  82
ENDBRANCH  51  75
BRANCH  63  86
ATOM     86  C   UNL A   1      45.486  26.345  32.927  1.00  0.00     0.023 A 
ATOM     87  C   UNL A   1      46.870  26.082  32.874  1.00  0.00     0.012 A 
ATOM     88  C   UNL A   1      44.717  25.547  33.810  1.00  0.00     0.148 A 
ATOM     89  C   UNL A   1      47.468  25.112  33.689  1.00  0.00     0.002 A 
ATOM     90  C   UNL A   1      45.297  24.506  34.530  1.00  0.00     0.091 A 
ATOM     91  F   UNL A   1      43.423  25.824  34.006  1.00  0.00    -0.205 F 
ATOM     92  C   UNL A   1      46.678  24.306  34.497  1.00  0.00     0.022 A 
BRANCH  90  93
ATOM     93  S   UNL A   1      44.310  23.286  35.413  1.00  0.00     0.127 S 
ATOM     94  O   UNL A   1      45.344  22.397  35.947  1.00  0.00    -0.237 OA
ATOM     95  O   UNL A   1      43.639  24.111  36.415  1.00  0.00    -0.237 OA
ATOM     96  O   UNL A   1      43.450  22.671  34.413  1.00  0.00    -0.744 OA
ENDBRANCH  90  93
ENDBRANCH  63  86
ENDBRANCH  37  38
ENDBRANCH  29  32
ENDBRANCH  27  28
ENDBRANCH   1  27
TORSDOF 17
ENDMDL
MODEL 3
REMARK VINA RESULT:     -12.6      1.744      2.229
REMARK SMILES Cc1ccc(NC(=O)C[C@@H](C(=O)NCCCNC(=O)c2ccc(-c3c4nc(c(-c5cccc(S(=O)(=O)[O-])c5F)c5ccc([nH]5)c(-c5cccc(S(=O)(=O)[O-])c5F)c5nc(c(-c6cccc(S(=O)(=O)[O-])c6F)c6ccc3[nH]6)C=C5)C=C4)cc2)[NH+]2CCOCC2)cc1
REMARK SMILES IDX 15 1 14 2 13 3 11 4 12 5 10 7 9 8 7 9 6 10 8 12 5 13 1 14
REMARK SMILES IDX 2 15 3 16 90 17 4 18 89 19 83 20 84 21 88 22 85 24 87 25
REMARK SMILES IDX 86 26 16 27 17 28 18 29 19 31 20 32 21 33 82 34 22 35 81 36
REMARK SMILES IDX 23 37 24 38 25 39 75 40 26 41 80 42 74 43 76 44 27 45 79 46
REMARK SMILES IDX 73 47 72 48 28 50 60 51 40 52 59 53 41 54 44 55 58 56 77 57
REMARK SMILES IDX 42 58 43 59 57 61 78 62 45 63 29 64 30 65 38 66 31 67 33 68
REMARK SMILES IDX 39 69 32 70 34 71 35 72 36 73 37 74 61 75 62 76 70 77 63 78
REMARK SMILES IDX 65 79 71 80 64 81 66 82 67 83 68 84 69 85 46 86 47 87 55 88
REMARK SMILES IDX 48 89 50 90 56 91 49 92 51 93 52 94 53 95 54 96
REMARK H PARENT 13 6 6 11 83 23 17 30 76 49 44 60
REMARK Flexibility Score: inf
ROOT
ATOM      1  C   UNL A   1      37.725  21.288  25.730  1.00  0.00     0.042 C 
ENDROOT
BRANCH   1   2
ATOM      2  C   UNL A   1      36.502  21.201  24.821  1.00  0.00     0.118 C 
BRANCH   2   3
ATOM      3  N   UNL A   1      35.343  20.579  25.419  1.00  0.00    -0.351 N 
ATOM      4  C   UNL A   1      34.030  20.930  25.449  1.00  0.00     0.278 C 
ATOM      5  O   UNL A   1      33.258  19.998  25.702  1.00  0.00    -0.268 OA
ATOM      6  H   UNL A   1      35.542  19.741  25.893  1.00  0.00     0.163 HD
BRANCH   4   7
ATOM      7  C   UNL A   1      33.517  22.373  25.110  1.00  0.00     0.283 C 
BRANCH   7   8
ATOM      8  C   UNL A   1      32.124  22.721  25.684  1.00  0.00     0.175 C 
BRANCH   8   9
ATOM      9  C   UNL A   1      31.984  23.399  27.023  1.00  0.00     0.230 C 
ATOM     10  N   UNL A   1      31.574  24.692  27.162  1.00  0.00    -0.326 N 
ATOM     11  H   UNL A   1      31.544  25.010  28.093  1.00  0.00     0.169 HD
ATOM     12  O   UNL A   1      32.259  22.758  28.044  1.00  0.00    -0.274 OA
BRANCH  10  13
ATOM     13  C   UNL A   1      31.188  25.649  26.210  1.00  0.00     0.041 A 
ATOM     14  C   UNL A   1      30.011  27.814  22.686  1.00  0.00     0.044 C 
ATOM     15  C   UNL A   1      30.363  27.156  23.985  1.00  0.00    -0.051 A 
ATOM     16  C   UNL A   1      31.623  27.359  24.553  1.00  0.00     0.005 A 
ATOM     17  C   UNL A   1      29.478  26.273  24.605  1.00  0.00     0.005 A 
ATOM     18  C   UNL A   1      32.026  26.619  25.667  1.00  0.00     0.026 A 
ATOM     19  C   UNL A   1      29.882  25.543  25.725  1.00  0.00     0.026 A 
ENDBRANCH  10  13
ENDBRANCH   8   9
ENDBRANCH   7   8
BRANCH   7  20
ATOM     20  N   UNL A   1      33.554  22.551  23.620  1.00  0.00    -0.320 N 
ATOM     21  C   UNL A   1      34.525  23.558  23.144  1.00  0.00     0.291 C 
ATOM     22  C   UNL A   1      32.311  22.655  22.847  1.00  0.00     0.291 C 
ATOM     23  H   UNL A   1      33.874  21.607  23.406  1.00  0.00     0.348 HD
ATOM     24  C   UNL A   1      33.927  24.962  22.986  1.00  0.00     0.221 C 
ATOM     25  C   UNL A   1      31.781  24.080  22.647  1.00  0.00     0.221 C 
ATOM     26  O   UNL A   1      32.785  24.953  22.123  1.00  0.00    -0.370 OA
ENDBRANCH   7  20
ENDBRANCH   4   7
ENDBRANCH   2   3
ENDBRANCH   1   2
BRANCH   1  27
ATOM     27  C   UNL A   1      38.413  22.652  25.824  1.00  0.00     0.118 C 
BRANCH  27  28
ATOM     28  N   UNL A   1      39.558  22.579  26.726  1.00  0.00    -0.352 N 
ATOM     29  C   UNL A   1      40.357  23.554  27.298  1.00  0.00     0.251 C 
ATOM     30  H   UNL A   1      39.810  21.660  26.975  1.00  0.00     0.163 HD
ATOM     31  O   UNL A   1      41.409  23.241  27.821  1.00  0.00    -0.269 OA
BRANCH  29  32
ATOM     32  C   UNL A   1      39.819  24.926  27.417  1.00  0.00     0.039 A 
ATOM     33  C   UNL A   1      40.410  25.899  26.602  1.00  0.00     0.014 A 
ATOM     34  C   UNL A   1      39.006  25.289  28.480  1.00  0.00     0.014 A 
ATOM     35  C   UNL A   1      40.440  27.220  27.029  1.00  0.00     0.010 A 
ATOM     36  C   UNL A   1      39.088  26.584  28.939  1.00  0.00     0.010 A 
ATOM     37  C   UNL A   1      39.883  27.519  28.264  1.00  0.00    -0.014 A 
BRANCH  37  38
ATOM     38  C   UNL A   1      40.017  28.791  28.944  1.00  0.00     0.031 A 
ATOM     39  C   UNL A   1      39.021  29.839  28.684  1.00  0.00     0.074 A 
ATOM     40  C   UNL A   1      40.901  28.905  29.958  1.00  0.00     0.049 A 
ATOM     41  N   UNL A   1      39.133  31.059  29.073  1.00  0.00    -0.248 NA
ATOM     42  C   UNL A   1      37.811  29.577  27.918  1.00  0.00     0.031 C 
ATOM     43  C   UNL A   1      40.891  29.896  31.026  1.00  0.00     0.029 A 
ATOM     44  N   UNL A   1      42.119  28.240  30.123  1.00  0.00    -0.354 N 
ATOM     45  C   UNL A   1      37.911  31.664  28.882  1.00  0.00     0.074 A 
ATOM     46  C   UNL A   1      37.172  30.740  28.057  1.00  0.00     0.031 C 
ATOM     47  C   UNL A   1      42.121  29.973  31.554  1.00  0.00     0.029 A 
ATOM     48  C   UNL A   1      42.994  29.170  30.718  1.00  0.00     0.049 A 
ATOM     49  H   UNL A   1      42.324  27.309  29.872  1.00  0.00     0.167 HD
ATOM     50  C   UNL A   1      37.640  32.806  29.576  1.00  0.00     0.034 A 
ATOM     51  C   UNL A   1      44.130  29.619  30.106  1.00  0.00     0.034 A 
ATOM     52  C   UNL A   1      38.851  33.288  30.270  1.00  0.00     0.049 A 
ATOM     53  C   UNL A   1      44.094  31.113  29.799  1.00  0.00     0.074 A 
ATOM     54  C   UNL A   1      39.334  33.217  31.566  1.00  0.00     0.029 A 
ATOM     55  N   UNL A   1      39.917  33.710  29.495  1.00  0.00    -0.354 N 
ATOM     56  N   UNL A   1      43.148  31.931  30.174  1.00  0.00    -0.248 NA
ATOM     57  C   UNL A   1      45.091  31.777  28.958  1.00  0.00     0.031 C 
ATOM     58  C   UNL A   1      40.731  33.523  31.533  1.00  0.00     0.029 A 
ATOM     59  C   UNL A   1      41.087  33.815  30.226  1.00  0.00     0.049 A 
ATOM     60  H   UNL A   1      39.851  33.911  28.534  1.00  0.00     0.167 HD
ATOM     61  C   UNL A   1      43.284  33.123  29.508  1.00  0.00     0.074 A 
ATOM     62  C   UNL A   1      44.546  32.995  28.798  1.00  0.00     0.031 C 
ATOM     63  C   UNL A   1      42.331  34.108  29.518  1.00  0.00     0.034 A 
BRANCH  50  64
ATOM     64  C   UNL A   1      36.258  33.387  29.836  1.00  0.00     0.023 A 
ATOM     65  C   UNL A   1      35.578  33.934  28.724  1.00  0.00     0.012 A 
ATOM     66  C   UNL A   1      35.593  33.517  31.080  1.00  0.00     0.148 A 
ATOM     67  C   UNL A   1      34.369  34.629  28.842  1.00  0.00     0.002 A 
ATOM     68  C   UNL A   1      34.404  34.244  31.209  1.00  0.00     0.091 A 
ATOM     69  F   UNL A   1      36.060  32.900  32.160  1.00  0.00    -0.205 F 
ATOM     70  C   UNL A   1      33.793  34.806  30.090  1.00  0.00     0.022 A 
BRANCH  68  71
ATOM     71  S   UNL A   1      33.620  34.549  32.804  1.00  0.00     0.127 S 
ATOM     72  O   UNL A   1      34.639  35.338  33.498  1.00  0.00    -0.237 OA
ATOM     73  O   UNL A   1      32.424  35.301  32.427  1.00  0.00    -0.237 OA
ATOM     74  O   UNL A   1      33.366  33.243  33.401  1.00  0.00    -0.744 OA
ENDBRANCH  68  71
ENDBRANCH  50  64
BRANCH  51  75
ATOM     75  C   UNL A   1      44.785  28.572  29.266  1.00  0.00     0.023 A 
ATOM     76  C   UNL A   1      45.170  27.381  29.928  1.00  0.00     0.012 A 
ATOM     77  C   UNL A   1      44.638  28.557  27.869  1.00  0.00     0.148 A 
ATOM     78  C   UNL A   1      45.260  26.173  29.235  1.00  0.00     0.002 A 
ATOM     79  C   UNL A   1      44.726  27.347  27.185  1.00  0.00     0.091 A 
ATOM     80  F   UNL A   1      44.316  29.697  27.246  1.00  0.00    -0.205 F 
ATOM     81  C   UNL A   1      44.998  26.152  27.871  1.00  0.00     0.022 A 
BRANCH  79  82
ATOM     82  S   UNL A   1      44.339  27.215  25.436  1.00  0.00     0.127 S 
ATOM     83  O   UNL A   1      45.523  27.814  24.829  1.00  0.00    -0.237 OA
ATOM     84  O   UNL A   1      44.222  25.769  25.260  1.00  0.00    -0.237 OA
ATOM     85  O   UNL A   1      43.091  27.945  25.268  1.00  0.00    -0.744 OA
ENDBRANCH  79  82
ENDBRANCH  51  75
BRANCH  63  86
ATOM     86  C   UNL A   1      42.525  35.454  28.843  1.00  0.00     0.023 A 
ATOM     87  C   UNL A   1      42.173  35.623  27.489  1.00  0.00     0.012 A 
ATOM     88  C   UNL A   1      43.200  36.532  29.468  1.00  0.00     0.148 A 
ATOM     89  C   UNL A   1      42.433  36.816  26.803  1.00  0.00     0.002 A 
ATOM     90  C   UNL A   1      43.561  37.668  28.749  1.00  0.00     0.091 A 
ATOM     91  F   UNL A   1      43.451  36.493  30.781  1.00  0.00    -0.205 F 
ATOM     92  C   UNL A   1      43.151  37.829  27.425  1.00  0.00     0.022 A 
BRANCH  90  93
ATOM     93  S   UNL A   1      44.680  38.909  29.420  1.00  0.00     0.127 S 
ATOM     94  O   UNL A   1      44.903  39.770  28.255  1.00  0.00    -0.237 OA
ATOM     95  O   UNL A   1      43.866  39.510  30.474  1.00  0.00    -0.237 OA
ATOM     96  O   UNL A   1      45.862  38.183  29.861  1.00  0.00    -0.744 OA
ENDBRANCH  90  93
ENDBRANCH  63  86
ENDBRANCH  37  38
ENDBRANCH  29  32
ENDBRANCH  27  28
ENDBRANCH   1  27
TORSDOF 17
ENDMDL
