MODEL 1
REMARK VINA RESULT:     -12.7      0.000      0.000
REMARK SMILES C[C@H](Oc1ccc(Cl)cc1Cl)C(=O)NNC(=O)[C@H]1CCCC[C@H]1C(=O)NCCCNC(=O)c1ccc(-c2c3nc(c(-c4cccc(S(=O)(=O)[O-])c4F)c4ccc([nH]4)c(-c4cccc(S(=O)(=O)[O-])c4F)c4nc(c(-c5cccc(S(=O)(=O)[O-])c5F)c5ccc2[nH]5)C=C4)C=C3)cc1
REMARK SMILES IDX 27 1 26 2 24 3 25 4 23 6 18 7 19 8 20 9 22 10 21 11 16 12
REMARK SMILES IDX 15 13 17 15 14 16 12 17 13 18 2 20 1 21 3 22 4 23 5 24 10 25
REMARK SMILES IDX 6 26 9 27 11 28 7 29 8 30 28 31 29 32 30 33 31 34 32 36
REMARK SMILES IDX 33 37 34 38 95 39 35 40 94 41 36 42 37 43 38 44 88 45 39 46
REMARK SMILES IDX 93 47 87 48 89 49 40 50 92 51 86 52 85 53 41 55 73 56 53 57
REMARK SMILES IDX 72 58 54 59 57 60 71 61 90 62 55 63 56 64 70 66 91 67 58 68
REMARK SMILES IDX 42 69 43 70 51 71 44 72 46 73 52 74 45 75 47 76 48 77 49 78
REMARK SMILES IDX 50 79 74 80 75 81 83 82 76 83 78 84 84 85 77 86 79 87 80 88
REMARK SMILES IDX 81 89 82 90 59 91 60 92 68 93 61 94 63 95 69 96 62 97 64 98
REMARK SMILES IDX 65 99 66 100 67 101
REMARK H PARENT 26 5 15 14 14 19 30 35 89 54 57 65
REMARK Flexibility Score: inf
ROOT
ATOM      1  C   UNL A   1      34.088  30.754  27.389  1.00  0.00     0.117 C 
ENDROOT
BRANCH   1   2
ATOM      2  N   UNL A   1      33.036  29.768  27.597  1.00  0.00    -0.356 N 
ATOM      3  C   UNL A   1      32.166  29.147  26.753  1.00  0.00     0.223 C 
ATOM      4  O   UNL A   1      31.370  28.345  27.254  1.00  0.00    -0.275 OA
ATOM      5  H   UNL A   1      32.932  29.496  28.538  1.00  0.00     0.163 HD
BRANCH   3   6
ATOM      6  C   UNL A   1      32.190  29.331  25.231  1.00  0.00     0.091 C 
ATOM      7  C   UNL A   1      33.213  28.472  24.399  1.00  0.00     0.092 C 
ATOM      8  C   UNL A   1      32.859  28.468  22.903  1.00  0.00     0.014 C 
ATOM      9  C   UNL A   1      31.378  28.293  22.614  1.00  0.00     0.001 C 
ATOM     10  C   UNL A   1      30.740  29.469  24.715  1.00  0.00     0.014 C 
ATOM     11  C   UNL A   1      30.601  29.453  23.206  1.00  0.00     0.001 C 
BRANCH   7  12
ATOM     12  C   UNL A   1      33.705  27.173  25.081  1.00  0.00     0.242 C 
ATOM     13  N   UNL A   1      33.505  25.916  24.567  1.00  0.00    -0.267 N 
ATOM     14  H   UNL A   1      33.221  25.196  25.175  1.00  0.00     0.191 HD
ATOM     15  O   UNL A   1      34.396  27.243  26.102  1.00  0.00    -0.273 OA
BRANCH  13  16
ATOM     16  N   UNL A   1      33.689  25.623  23.218  1.00  0.00    -0.264 N 
ATOM     17  C   UNL A   1      33.102  24.577  22.541  1.00  0.00     0.279 C 
ATOM     18  O   UNL A   1      33.414  24.430  21.355  1.00  0.00    -0.269 OA
ATOM     19  H   UNL A   1      34.288  26.213  22.706  1.00  0.00     0.191 HD
BRANCH  17  20
ATOM     20  C   UNL A   1      32.022  23.706  23.209  1.00  0.00     0.260 C 
ATOM     21  C   UNL A   1      30.764  24.565  23.410  1.00  0.00     0.064 C 
BRANCH  20  22
ATOM     22  O   UNL A   1      32.545  23.148  24.421  1.00  0.00    -0.479 OA
BRANCH  22  23
ATOM     23  C   UNL A   1      33.009  21.866  24.296  1.00  0.00     0.139 A 
ATOM     24  C   UNL A   1      32.251  20.809  23.793  1.00  0.00     0.049 A 
ATOM     25  C   UNL A   1      34.304  21.625  24.746  1.00  0.00     0.084 A 
ATOM     26  C   UNL A   1      32.750  19.502  23.863  1.00  0.00     0.024 A 
ATOM     27  C   UNL A   1      34.757  20.321  24.925  1.00  0.00     0.045 A 
ATOM     28  Cl  UNL A   1      35.405  22.938  24.907  1.00  0.00    -0.080 Cl
ATOM     29  C   UNL A   1      33.984  19.260  24.464  1.00  0.00     0.042 A 
ATOM     30  Cl  UNL A   1      34.609  17.659  24.541  1.00  0.00    -0.084 Cl
ENDBRANCH  22  23
ENDBRANCH  20  22
ENDBRANCH  17  20
ENDBRANCH  13  16
ENDBRANCH   7  12
ENDBRANCH   3   6
ENDBRANCH   1   2
BRANCH   1  31
ATOM     31  C   UNL A   1      33.741  32.148  27.895  1.00  0.00     0.042 C 
BRANCH  31  32
ATOM     32  C   UNL A   1      32.582  32.858  27.205  1.00  0.00     0.118 C 
BRANCH  32  33
ATOM     33  N   UNL A   1      32.385  34.214  27.694  1.00  0.00    -0.352 N 
ATOM     34  C   UNL A   1      33.029  34.938  28.672  1.00  0.00     0.251 C 
ATOM     35  H   UNL A   1      31.659  34.703  27.243  1.00  0.00     0.163 HD
ATOM     36  O   UNL A   1      32.548  36.023  28.996  1.00  0.00    -0.269 OA
BRANCH  34  37
ATOM     37  C   UNL A   1      34.242  34.438  29.384  1.00  0.00     0.039 A 
ATOM     38  C   UNL A   1      34.073  33.826  30.636  1.00  0.00     0.014 A 
ATOM     39  C   UNL A   1      35.536  34.573  28.877  1.00  0.00     0.014 A 
ATOM     40  C   UNL A   1      35.167  33.251  31.306  1.00  0.00     0.010 A 
ATOM     41  C   UNL A   1      36.621  33.960  29.520  1.00  0.00     0.010 A 
ATOM     42  C   UNL A   1      36.447  33.278  30.733  1.00  0.00    -0.014 A 
BRANCH  42  43
ATOM     43  C   UNL A   1      37.619  32.678  31.434  1.00  0.00     0.031 A 
ATOM     44  C   UNL A   1      38.382  31.590  30.764  1.00  0.00     0.074 A 
ATOM     45  C   UNL A   1      37.953  33.022  32.694  1.00  0.00     0.049 A 
ATOM     46  N   UNL A   1      39.368  30.885  31.241  1.00  0.00    -0.248 NA
ATOM     47  C   UNL A   1      37.927  31.190  29.425  1.00  0.00     0.031 C 
ATOM     48  C   UNL A   1      37.137  33.887  33.513  1.00  0.00     0.029 A 
ATOM     49  N   UNL A   1      38.992  32.693  33.529  1.00  0.00    -0.354 N 
ATOM     50  C   UNL A   1      39.611  29.908  30.294  1.00  0.00     0.074 A 
ATOM     51  C   UNL A   1      38.666  30.111  29.216  1.00  0.00     0.031 C 
ATOM     52  C   UNL A   1      37.730  34.124  34.689  1.00  0.00     0.029 A 
ATOM     53  C   UNL A   1      38.952  33.342  34.750  1.00  0.00     0.049 A 
ATOM     54  H   UNL A   1      39.699  32.054  33.281  1.00  0.00     0.167 HD
ATOM     55  C   UNL A   1      40.538  28.926  30.330  1.00  0.00     0.034 A 
ATOM     56  C   UNL A   1      39.779  33.285  35.816  1.00  0.00     0.034 A 
ATOM     57  C   UNL A   1      41.456  28.730  31.418  1.00  0.00     0.049 A 
ATOM     58  C   UNL A   1      40.880  32.266  35.770  1.00  0.00     0.074 A 
ATOM     59  C   UNL A   1      42.454  27.781  31.537  1.00  0.00     0.029 A 
ATOM     60  N   UNL A   1      41.484  29.489  32.580  1.00  0.00    -0.354 N 
ATOM     61  N   UNL A   1      41.163  31.416  34.813  1.00  0.00    -0.248 NA
ATOM     62  C   UNL A   1      41.757  32.165  36.945  1.00  0.00     0.031 C 
ATOM     63  C   UNL A   1      43.082  27.962  32.772  1.00  0.00     0.029 A 
ATOM     64  C   UNL A   1      42.502  29.049  33.408  1.00  0.00     0.049 A 
ATOM     65  H   UNL A   1      40.871  30.232  32.785  1.00  0.00     0.167 HD
ATOM     66  C   UNL A   1      42.244  30.679  35.267  1.00  0.00     0.074 A 
ATOM     67  C   UNL A   1      42.599  31.213  36.567  1.00  0.00     0.031 C 
ATOM     68  C   UNL A   1      42.864  29.633  34.674  1.00  0.00     0.034 A 
BRANCH  55  69
ATOM     69  C   UNL A   1      40.596  28.014  29.140  1.00  0.00     0.023 A 
ATOM     70  C   UNL A   1      39.754  26.883  29.096  1.00  0.00     0.012 A 
ATOM     71  C   UNL A   1      41.484  28.262  28.078  1.00  0.00     0.148 A 
ATOM     72  C   UNL A   1      39.831  25.984  28.035  1.00  0.00     0.002 A 
ATOM     73  C   UNL A   1      41.517  27.390  26.999  1.00  0.00     0.091 A 
ATOM     74  F   UNL A   1      42.292  29.329  28.154  1.00  0.00    -0.205 F 
ATOM     75  C   UNL A   1      40.706  26.242  26.984  1.00  0.00     0.022 A 
BRANCH  73  76
ATOM     76  S   UNL A   1      42.550  27.665  25.558  1.00  0.00     0.127 S 
ATOM     77  O   UNL A   1      43.883  27.722  26.155  1.00  0.00    -0.237 OA
ATOM     78  O   UNL A   1      42.286  26.467  24.764  1.00  0.00    -0.237 OA
ATOM     79  O   UNL A   1      42.087  28.911  24.959  1.00  0.00    -0.744 OA
ENDBRANCH  73  76
ENDBRANCH  55  69
BRANCH  56  80
ATOM     80  C   UNL A   1      39.627  34.199  36.994  1.00  0.00     0.023 A 
ATOM     81  C   UNL A   1      39.991  35.557  36.860  1.00  0.00     0.012 A 
ATOM     82  C   UNL A   1      39.129  33.761  38.234  1.00  0.00     0.148 A 
ATOM     83  C   UNL A   1      39.907  36.439  37.942  1.00  0.00     0.002 A 
ATOM     84  C   UNL A   1      38.958  34.666  39.280  1.00  0.00     0.091 A 
ATOM     85  F   UNL A   1      38.826  32.463  38.383  1.00  0.00    -0.205 F 
ATOM     86  C   UNL A   1      39.376  35.998  39.148  1.00  0.00     0.022 A 
BRANCH  84  87
ATOM     87  S   UNL A   1      38.062  34.217  40.772  1.00  0.00     0.127 S 
ATOM     88  O   UNL A   1      36.892  33.535  40.231  1.00  0.00    -0.237 OA
ATOM     89  O   UNL A   1      39.023  33.354  41.461  1.00  0.00    -0.237 OA
ATOM     90  O   UNL A   1      37.825  35.482  41.459  1.00  0.00    -0.744 OA
ENDBRANCH  84  87
ENDBRANCH  56  80
BRANCH  68  91
ATOM     91  C   UNL A   1      44.041  29.042  35.396  1.00  0.00     0.023 A 
ATOM     92  C   UNL A   1      45.319  29.616  35.266  1.00  0.00     0.012 A 
ATOM     93  C   UNL A   1      43.847  27.952  36.263  1.00  0.00     0.148 A 
ATOM     94  C   UNL A   1      46.399  29.095  35.978  1.00  0.00     0.002 A 
ATOM     95  C   UNL A   1      44.914  27.473  37.008  1.00  0.00     0.091 A 
ATOM     96  F   UNL A   1      42.623  27.410  36.344  1.00  0.00    -0.205 F 
ATOM     97  C   UNL A   1      46.193  28.035  36.859  1.00  0.00     0.022 A 
BRANCH  95  98
ATOM     98  S   UNL A   1      44.720  26.178  38.234  1.00  0.00     0.127 S 
ATOM     99  O   UNL A   1      44.628  24.985  37.393  1.00  0.00    -0.237 OA
ATOM    100  O   UNL A   1      45.962  26.291  38.999  1.00  0.00    -0.237 OA
ATOM    101  O   UNL A   1      43.513  26.504  38.982  1.00  0.00    -0.744 OA
ENDBRANCH  95  98
ENDBRANCH  68  91
ENDBRANCH  42  43
ENDBRANCH  34  37
ENDBRANCH  32  33
ENDBRANCH  31  32
ENDBRANCH   1  31
TORSDOF 18
ENDMDL
MODEL 2
REMARK VINA RESULT:     -12.4      1.600      7.579
REMARK SMILES C[C@H](Oc1ccc(Cl)cc1Cl)C(=O)NNC(=O)[C@H]1CCCC[C@H]1C(=O)NCCCNC(=O)c1ccc(-c2c3nc(c(-c4cccc(S(=O)(=O)[O-])c4F)c4ccc([nH]4)c(-c4cccc(S(=O)(=O)[O-])c4F)c4nc(c(-c5cccc(S(=O)(=O)[O-])c5F)c5ccc2[nH]5)C=C4)C=C3)cc1
REMARK SMILES IDX 27 1 26 2 24 3 25 4 23 6 18 7 19 8 20 9 22 10 21 11 16 12
REMARK SMILES IDX 15 13 17 15 14 16 12 17 13 18 2 20 1 21 3 22 4 23 5 24 10 25
REMARK SMILES IDX 6 26 9 27 11 28 7 29 8 30 28 31 29 32 30 33 31 34 32 36
REMARK SMILES IDX 33 37 34 38 95 39 35 40 94 41 36 42 37 43 38 44 88 45 39 46
REMARK SMILES IDX 93 47 87 48 89 49 40 50 92 51 86 52 85 53 41 55 73 56 53 57
REMARK SMILES IDX 72 58 54 59 57 60 71 61 90 62 55 63 56 64 70 66 91 67 58 68
REMARK SMILES IDX 42 69 43 70 51 71 44 72 46 73 52 74 45 75 47 76 48 77 49 78
REMARK SMILES IDX 50 79 74 80 75 81 83 82 76 83 78 84 84 85 77 86 79 87 80 88
REMARK SMILES IDX 81 89 82 90 59 91 60 92 68 93 61 94 63 95 69 96 62 97 64 98
REMARK SMILES IDX 65 99 66 100 67 101
REMARK H PARENT 26 5 15 14 14 19 30 35 89 54 57 65
REMARK Flexibility Score: inf
ROOT
ATOM      1  C   UNL A   1      33.845  29.990  26.621  1.00  0.00     0.117 C 
ENDROOT
BRANCH   1   2
ATOM      2  N   UNL A   1      32.768  29.064  26.945  1.00  0.00    -0.356 N 
ATOM      3  C   UNL A   1      31.862  28.392  26.183  1.00  0.00     0.223 C 
ATOM      4  O   UNL A   1      31.052  27.670  26.775  1.00  0.00    -0.275 OA
ATOM      5  H   UNL A   1      32.675  28.891  27.910  1.00  0.00     0.163 HD
BRANCH   3   6
ATOM      6  C   UNL A   1      31.860  28.424  24.650  1.00  0.00     0.091 C 
ATOM      7  C   UNL A   1      32.963  27.594  23.893  1.00  0.00     0.092 C 
ATOM      8  C   UNL A   1      32.604  27.403  22.410  1.00  0.00     0.014 C 
ATOM      9  C   UNL A   1      31.148  27.050  22.161  1.00  0.00     0.001 C 
ATOM     10  C   UNL A   1      30.401  28.360  24.144  1.00  0.00     0.014 C 
ATOM     11  C   UNL A   1      30.258  28.178  22.646  1.00  0.00     0.001 C 
BRANCH   7  12
ATOM     12  C   UNL A   1      33.590  26.428  24.693  1.00  0.00     0.242 C 
ATOM     13  N   UNL A   1      33.510  25.111  24.315  1.00  0.00    -0.267 N 
ATOM     14  H   UNL A   1      33.306  24.433  24.998  1.00  0.00     0.191 HD
ATOM     15  O   UNL A   1      34.280  26.671  25.687  1.00  0.00    -0.273 OA
BRANCH  13  16
ATOM     16  N   UNL A   1      33.709  24.699  22.999  1.00  0.00    -0.264 N 
ATOM     17  C   UNL A   1      33.122  23.601  22.409  1.00  0.00     0.279 C 
ATOM     18  O   UNL A   1      33.447  23.348  21.244  1.00  0.00    -0.269 OA
ATOM     19  H   UNL A   1      34.318  25.238  22.445  1.00  0.00     0.191 HD
BRANCH  17  20
ATOM     20  C   UNL A   1      32.027  22.799  23.137  1.00  0.00     0.260 C 
ATOM     21  C   UNL A   1      30.815  23.718  23.348  1.00  0.00     0.064 C 
BRANCH  20  22
ATOM     22  O   UNL A   1      32.564  22.257  24.350  1.00  0.00    -0.479 OA
BRANCH  22  23
ATOM     23  C   UNL A   1      33.051  20.982  24.229  1.00  0.00     0.139 A 
ATOM     24  C   UNL A   1      32.319  19.916  23.708  1.00  0.00     0.049 A 
ATOM     25  C   UNL A   1      34.340  20.759  24.703  1.00  0.00     0.084 A 
ATOM     26  C   UNL A   1      32.836  18.616  23.783  1.00  0.00     0.024 A 
ATOM     27  C   UNL A   1      34.810  19.462  24.886  1.00  0.00     0.045 A 
ATOM     28  Cl  UNL A   1      35.417  22.088  24.890  1.00  0.00    -0.080 Cl
ATOM     29  C   UNL A   1      34.062  18.391  24.407  1.00  0.00     0.042 A 
ATOM     30  Cl  UNL A   1      34.710  16.799  24.490  1.00  0.00    -0.084 Cl
ENDBRANCH  22  23
ENDBRANCH  20  22
ENDBRANCH  17  20
ENDBRANCH  13  16
ENDBRANCH   7  12
ENDBRANCH   3   6
ENDBRANCH   1   2
BRANCH   1  31
ATOM     31  C   UNL A   1      33.701  31.362  27.266  1.00  0.00     0.042 C 
BRANCH  31  32
ATOM     32  C   UNL A   1      32.357  32.060  27.096  1.00  0.00     0.118 C 
BRANCH  32  33
ATOM     33  N   UNL A   1      32.406  33.467  27.461  1.00  0.00    -0.352 N 
ATOM     34  C   UNL A   1      33.234  34.165  28.312  1.00  0.00     0.251 C 
ATOM     35  H   UNL A   1      31.723  34.022  27.020  1.00  0.00     0.163 HD
ATOM     36  O   UNL A   1      32.950  35.335  28.562  1.00  0.00    -0.269 OA
BRANCH  34  37
ATOM     37  C   UNL A   1      34.419  33.546  28.977  1.00  0.00     0.039 A 
ATOM     38  C   UNL A   1      34.196  32.655  30.038  1.00  0.00     0.014 A 
ATOM     39  C   UNL A   1      35.736  33.831  28.612  1.00  0.00     0.014 A 
ATOM     40  C   UNL A   1      35.268  31.970  30.636  1.00  0.00     0.010 A 
ATOM     41  C   UNL A   1      36.803  33.115  29.174  1.00  0.00     0.010 A 
ATOM     42  C   UNL A   1      36.580  32.165  30.180  1.00  0.00    -0.014 A 
BRANCH  42  43
ATOM     43  C   UNL A   1      37.729  31.451  30.809  1.00  0.00     0.031 A 
ATOM     44  C   UNL A   1      38.065  31.735  32.231  1.00  0.00     0.074 A 
ATOM     45  C   UNL A   1      38.532  30.628  30.106  1.00  0.00     0.049 A 
ATOM     46  N   UNL A   1      39.072  31.287  32.927  1.00  0.00    -0.248 NA
ATOM     47  C   UNL A   1      37.212  32.704  32.932  1.00  0.00     0.031 C 
ATOM     48  C   UNL A   1      38.437  30.474  28.673  1.00  0.00     0.029 A 
ATOM     49  N   UNL A   1      39.585  29.811  30.437  1.00  0.00    -0.354 N 
ATOM     50  C   UNL A   1      39.020  31.972  34.127  1.00  0.00     0.074 A 
ATOM     51  C   UNL A   1      37.883  32.866  34.061  1.00  0.00     0.031 C 
ATOM     52  C   UNL A   1      39.298  29.547  28.238  1.00  0.00     0.029 A 
ATOM     53  C   UNL A   1      40.090  29.093  29.367  1.00  0.00     0.049 A 
ATOM     54  H   UNL A   1      39.946  29.742  31.350  1.00  0.00     0.167 HD
ATOM     55  C   UNL A   1      39.856  31.864  35.183  1.00  0.00     0.034 A 
ATOM     56  C   UNL A   1      41.102  28.202  29.291  1.00  0.00     0.034 A 
ATOM     57  C   UNL A   1      40.990  30.983  35.220  1.00  0.00     0.049 A 
ATOM     58  C   UNL A   1      41.935  28.011  30.525  1.00  0.00     0.074 A 
ATOM     59  C   UNL A   1      41.882  30.778  36.256  1.00  0.00     0.029 A 
ATOM     60  N   UNL A   1      41.396  30.165  34.174  1.00  0.00    -0.354 N 
ATOM     61  N   UNL A   1      41.806  28.592  31.692  1.00  0.00    -0.248 NA
ATOM     62  C   UNL A   1      43.067  27.078  30.437  1.00  0.00     0.031 C 
ATOM     63  C   UNL A   1      42.831  29.842  35.835  1.00  0.00     0.029 A 
ATOM     64  C   UNL A   1      42.508  29.433  34.550  1.00  0.00     0.049 A 
ATOM     65  H   UNL A   1      40.957  30.113  33.294  1.00  0.00     0.167 HD
ATOM     66  C   UNL A   1      42.834  28.100  32.477  1.00  0.00     0.074 A 
ATOM     67  C   UNL A   1      43.554  27.135  31.669  1.00  0.00     0.031 C 
ATOM     68  C   UNL A   1      43.173  28.442  33.742  1.00  0.00     0.034 A 
BRANCH  55  69
ATOM     69  C   UNL A   1      39.542  32.718  36.376  1.00  0.00     0.023 A 
ATOM     70  C   UNL A   1      40.174  33.971  36.513  1.00  0.00     0.012 A 
ATOM     71  C   UNL A   1      38.641  32.281  37.363  1.00  0.00     0.148 A 
ATOM     72  C   UNL A   1      39.952  34.756  37.642  1.00  0.00     0.002 A 
ATOM     73  C   UNL A   1      38.384  33.094  38.458  1.00  0.00     0.091 A 
ATOM     74  F   UNL A   1      38.071  31.076  37.223  1.00  0.00    -0.205 F 
ATOM     75  C   UNL A   1      39.051  34.321  38.609  1.00  0.00     0.022 A 
BRANCH  73  76
ATOM     76  S   UNL A   1      37.186  32.667  39.726  1.00  0.00     0.127 S 
ATOM     77  O   UNL A   1      35.946  32.609  38.955  1.00  0.00    -0.237 OA
ATOM     78  O   UNL A   1      37.683  31.372  40.186  1.00  0.00    -0.237 OA
ATOM     79  O   UNL A   1      37.249  33.735  40.717  1.00  0.00    -0.744 OA
ENDBRANCH  73  76
ENDBRANCH  55  69
BRANCH  56  80
ATOM     80  C   UNL A   1      41.385  27.421  28.044  1.00  0.00     0.023 A 
ATOM     81  C   UNL A   1      41.985  28.075  26.946  1.00  0.00     0.012 A 
ATOM     82  C   UNL A   1      41.080  26.054  27.919  1.00  0.00     0.148 A 
ATOM     83  C   UNL A   1      42.230  27.401  25.746  1.00  0.00     0.002 A 
ATOM     84  C   UNL A   1      41.414  25.364  26.755  1.00  0.00     0.091 A 
ATOM     85  F   UNL A   1      40.466  25.437  28.940  1.00  0.00    -0.205 F 
ATOM     86  C   UNL A   1      41.959  26.041  25.655  1.00  0.00     0.022 A 
BRANCH  84  87
ATOM     87  S   UNL A   1      41.310  23.572  26.664  1.00  0.00     0.127 S 
ATOM     88  O   UNL A   1      42.065  23.284  25.449  1.00  0.00    -0.237 OA
ATOM     89  O   UNL A   1      41.958  23.161  27.911  1.00  0.00    -0.237 OA
ATOM     90  O   UNL A   1      39.881  23.283  26.632  1.00  0.00    -0.744 OA
ENDBRANCH  84  87
ENDBRANCH  56  80
BRANCH  68  91
ATOM     91  C   UNL A   1      44.333  27.714  34.357  1.00  0.00     0.023 A 
ATOM     92  C   UNL A   1      45.645  28.197  34.196  1.00  0.00     0.012 A 
ATOM     93  C   UNL A   1      44.096  26.584  35.160  1.00  0.00     0.148 A 
ATOM     94  C   UNL A   1      46.713  27.547  34.812  1.00  0.00     0.002 A 
ATOM     95  C   UNL A   1      45.156  25.974  35.812  1.00  0.00     0.091 A 
ATOM     96  F   UNL A   1      42.838  26.133  35.272  1.00  0.00    -0.205 F 
ATOM     97  C   UNL A   1      46.467  26.446  35.631  1.00  0.00     0.022 A 
BRANCH  95  98
ATOM     98  S   UNL A   1      44.920  24.615  36.959  1.00  0.00     0.127 S 
ATOM     99  O   UNL A   1      43.949  25.181  37.894  1.00  0.00    -0.237 OA
ATOM    100  O   UNL A   1      44.389  23.567  36.087  1.00  0.00    -0.237 OA
ATOM    101  O   UNL A   1      46.231  24.329  37.525  1.00  0.00    -0.744 OA
ENDBRANCH  95  98
ENDBRANCH  68  91
ENDBRANCH  42  43
ENDBRANCH  34  37
ENDBRANCH  32  33
ENDBRANCH  31  32
ENDBRANCH   1  31
TORSDOF 18
ENDMDL
MODEL 3
REMARK VINA RESULT:     -11.7      1.794      2.072
REMARK SMILES C[C@H](Oc1ccc(Cl)cc1Cl)C(=O)NNC(=O)[C@H]1CCCC[C@H]1C(=O)NCCCNC(=O)c1ccc(-c2c3nc(c(-c4cccc(S(=O)(=O)[O-])c4F)c4ccc([nH]4)c(-c4cccc(S(=O)(=O)[O-])c4F)c4nc(c(-c5cccc(S(=O)(=O)[O-])c5F)c5ccc2[nH]5)C=C4)C=C3)cc1
REMARK SMILES IDX 27 1 26 2 24 3 25 4 23 6 18 7 19 8 20 9 22 10 21 11 16 12
REMARK SMILES IDX 15 13 17 15 14 16 12 17 13 18 2 20 1 21 3 22 4 23 5 24 10 25
REMARK SMILES IDX 6 26 9 27 11 28 7 29 8 30 28 31 29 32 30 33 31 34 32 36
REMARK SMILES IDX 33 37 34 38 95 39 35 40 94 41 36 42 37 43 38 44 88 45 39 46
REMARK SMILES IDX 93 47 87 48 89 49 40 50 92 51 86 52 85 53 41 55 73 56 53 57
REMARK SMILES IDX 72 58 54 59 57 60 71 61 90 62 55 63 56 64 70 66 91 67 58 68
REMARK SMILES IDX 42 69 43 70 51 71 44 72 46 73 52 74 45 75 47 76 48 77 49 78
REMARK SMILES IDX 50 79 74 80 75 81 83 82 76 83 78 84 84 85 77 86 79 87 80 88
REMARK SMILES IDX 81 89 82 90 59 91 60 92 68 93 61 94 63 95 69 96 62 97 64 98
REMARK SMILES IDX 65 99 66 100 67 101
REMARK H PARENT 26 5 15 14 14 19 30 35 89 54 57 65
REMARK Flexibility Score: inf
ROOT
ATOM      1  C   UNL A   1      34.455  30.414  27.253  1.00  0.00     0.117 C 
ENDROOT
BRANCH   1   2
ATOM      2  N   UNL A   1      33.298  29.555  27.472  1.00  0.00    -0.356 N 
ATOM      3  C   UNL A   1      32.445  28.916  26.626  1.00  0.00     0.223 C 
ATOM      4  O   UNL A   1      31.536  28.252  27.137  1.00  0.00    -0.275 OA
ATOM      5  H   UNL A   1      33.092  29.408  28.423  1.00  0.00     0.163 HD
BRANCH   3   6
ATOM      6  C   UNL A   1      32.611  28.915  25.102  1.00  0.00     0.091 C 
ATOM      7  C   UNL A   1      33.410  27.727  24.447  1.00  0.00     0.092 C 
ATOM      8  C   UNL A   1      33.160  27.648  22.932  1.00  0.00     0.014 C 
ATOM      9  C   UNL A   1      31.708  27.840  22.528  1.00  0.00     0.001 C 
ATOM     10  C   UNL A   1      31.288  29.372  24.447  1.00  0.00     0.014 C 
ATOM     11  C   UNL A   1      31.242  29.224  22.940  1.00  0.00     0.001 C 
BRANCH   7  12
ATOM     12  C   UNL A   1      33.487  26.430  25.287  1.00  0.00     0.242 C 
ATOM     13  N   UNL A   1      32.410  25.618  25.540  1.00  0.00    -0.267 N 
ATOM     14  H   UNL A   1      32.284  25.267  26.452  1.00  0.00     0.191 HD
ATOM     15  O   UNL A   1      34.581  26.029  25.694  1.00  0.00    -0.273 OA
BRANCH  13  16
ATOM     16  N   UNL A   1      31.488  25.271  24.555  1.00  0.00    -0.264 N 
ATOM     17  C   UNL A   1      30.912  24.029  24.402  1.00  0.00     0.279 C 
ATOM     18  O   UNL A   1      30.150  23.878  23.442  1.00  0.00    -0.269 OA
ATOM     19  H   UNL A   1      31.227  25.972  23.916  1.00  0.00     0.191 HD
BRANCH  17  20
ATOM     20  C   UNL A   1      31.124  22.921  25.450  1.00  0.00     0.260 C 
ATOM     21  C   UNL A   1      30.362  23.310  26.726  1.00  0.00     0.064 C 
BRANCH  20  22
ATOM     22  O   UNL A   1      32.530  22.722  25.651  1.00  0.00    -0.479 OA
BRANCH  22  23
ATOM     23  C   UNL A   1      32.994  21.510  25.214  1.00  0.00     0.139 A 
ATOM     24  C   UNL A   1      32.177  20.407  24.967  1.00  0.00     0.049 A 
ATOM     25  C   UNL A   1      34.371  21.389  25.058  1.00  0.00     0.084 A 
ATOM     26  C   UNL A   1      32.756  19.162  24.691  1.00  0.00     0.024 A 
ATOM     27  C   UNL A   1      34.956  20.136  24.899  1.00  0.00     0.045 A 
ATOM     28  Cl  UNL A   1      35.333  22.805  24.879  1.00  0.00    -0.080 Cl
ATOM     29  C   UNL A   1      34.143  19.024  24.696  1.00  0.00     0.042 A 
ATOM     30  Cl  UNL A   1      34.862  17.501  24.342  1.00  0.00    -0.084 Cl
ENDBRANCH  22  23
ENDBRANCH  20  22
ENDBRANCH  17  20
ENDBRANCH  13  16
ENDBRANCH   7  12
ENDBRANCH   3   6
ENDBRANCH   1   2
BRANCH   1  31
ATOM     31  C   UNL A   1      34.206  31.883  27.570  1.00  0.00     0.042 C 
BRANCH  31  32
ATOM     32  C   UNL A   1      32.842  32.445  27.185  1.00  0.00     0.118 C 
BRANCH  32  33
ATOM     33  N   UNL A   1      32.628  33.792  27.689  1.00  0.00    -0.352 N 
ATOM     34  C   UNL A   1      33.237  34.498  28.703  1.00  0.00     0.251 C 
ATOM     35  H   UNL A   1      31.919  34.290  27.221  1.00  0.00     0.163 HD
ATOM     36  O   UNL A   1      32.745  35.579  29.028  1.00  0.00    -0.269 OA
BRANCH  34  37
ATOM     37  C   UNL A   1      34.423  33.985  29.450  1.00  0.00     0.039 A 
ATOM     38  C   UNL A   1      34.206  33.082  30.502  1.00  0.00     0.014 A 
ATOM     39  C   UNL A   1      35.733  34.378  29.169  1.00  0.00     0.014 A 
ATOM     40  C   UNL A   1      35.289  32.492  31.176  1.00  0.00     0.010 A 
ATOM     41  C   UNL A   1      36.816  33.757  29.806  1.00  0.00     0.010 A 
ATOM     42  C   UNL A   1      36.607  32.795  30.806  1.00  0.00    -0.014 A 
BRANCH  42  43
ATOM     43  C   UNL A   1      37.768  32.183  31.515  1.00  0.00     0.031 A 
ATOM     44  C   UNL A   1      38.569  31.138  30.821  1.00  0.00     0.074 A 
ATOM     45  C   UNL A   1      38.059  32.476  32.798  1.00  0.00     0.049 A 
ATOM     46  N   UNL A   1      39.552  30.427  31.296  1.00  0.00    -0.248 NA
ATOM     47  C   UNL A   1      38.160  30.790  29.453  1.00  0.00     0.031 C 
ATOM     48  C   UNL A   1      37.205  33.291  33.629  1.00  0.00     0.029 A 
ATOM     49  N   UNL A   1      39.079  32.126  33.648  1.00  0.00    -0.354 N 
ATOM     50  C   UNL A   1      39.839  29.497  30.314  1.00  0.00     0.074 A 
ATOM     51  C   UNL A   1      38.923  29.734  29.219  1.00  0.00     0.031 C 
ATOM     52  C   UNL A   1      37.760  33.485  34.832  1.00  0.00     0.029 A 
ATOM     53  C   UNL A   1      38.992  32.720  34.895  1.00  0.00     0.049 A 
ATOM     54  H   UNL A   1      39.803  31.510  33.394  1.00  0.00     0.167 HD
ATOM     55  C   UNL A   1      40.781  28.529  30.336  1.00  0.00     0.034 A 
ATOM     56  C   UNL A   1      39.789  32.629  35.982  1.00  0.00     0.034 A 
ATOM     57  C   UNL A   1      41.670  28.299  31.441  1.00  0.00     0.049 A 
ATOM     58  C   UNL A   1      40.907  31.630  35.924  1.00  0.00     0.074 A 
ATOM     59  C   UNL A   1      42.679  27.361  31.548  1.00  0.00     0.029 A 
ATOM     60  N   UNL A   1      41.651  29.007  32.636  1.00  0.00    -0.354 N 
ATOM     61  N   UNL A   1      41.232  30.827  34.941  1.00  0.00    -0.248 NA
ATOM     62  C   UNL A   1      41.751  31.490  37.120  1.00  0.00     0.031 C 
ATOM     63  C   UNL A   1      43.268  27.497  32.809  1.00  0.00     0.029 A 
ATOM     64  C   UNL A   1      42.651  28.546  33.474  1.00  0.00     0.049 A 
ATOM     65  H   UNL A   1      41.020  29.730  32.854  1.00  0.00     0.167 HD
ATOM     66  C   UNL A   1      42.312  30.088  35.393  1.00  0.00     0.074 A 
ATOM     67  C   UNL A   1      42.620  30.569  36.726  1.00  0.00     0.031 C 
ATOM     68  C   UNL A   1      42.966  29.079  34.775  1.00  0.00     0.034 A 
BRANCH  55  69
ATOM     69  C   UNL A   1      40.889  27.672  29.109  1.00  0.00     0.023 A 
ATOM     70  C   UNL A   1      40.118  26.494  29.020  1.00  0.00     0.012 A 
ATOM     71  C   UNL A   1      41.756  28.016  28.057  1.00  0.00     0.148 A 
ATOM     72  C   UNL A   1      40.245  25.645  27.923  1.00  0.00     0.002 A 
ATOM     73  C   UNL A   1      41.836  27.193  26.943  1.00  0.00     0.091 A 
ATOM     74  F   UNL A   1      42.497  29.127  28.175  1.00  0.00    -0.205 F 
ATOM     75  C   UNL A   1      41.097  25.999  26.882  1.00  0.00     0.022 A 
BRANCH  73  76
ATOM     76  S   UNL A   1      42.844  27.590  25.511  1.00  0.00     0.127 S 
ATOM     77  O   UNL A   1      44.146  27.840  26.126  1.00  0.00    -0.237 OA
ATOM     78  O   UNL A   1      42.762  26.355  24.733  1.00  0.00    -0.237 OA
ATOM     79  O   UNL A   1      42.222  28.751  24.887  1.00  0.00    -0.744 OA
ENDBRANCH  73  76
ENDBRANCH  55  69
BRANCH  56  80
ATOM     80  C   UNL A   1      39.586  33.487  37.193  1.00  0.00     0.023 A 
ATOM     81  C   UNL A   1      38.721  33.039  38.215  1.00  0.00     0.012 A 
ATOM     82  C   UNL A   1      40.229  34.727  37.361  1.00  0.00     0.148 A 
ATOM     83  C   UNL A   1      38.467  33.823  39.345  1.00  0.00     0.002 A 
ATOM     84  C   UNL A   1      40.045  35.460  38.532  1.00  0.00     0.091 A 
ATOM     85  F   UNL A   1      41.015  35.181  36.373  1.00  0.00    -0.205 F 
ATOM     86  C   UNL A   1      39.141  35.027  39.511  1.00  0.00     0.022 A 
BRANCH  84  87
ATOM     87  S   UNL A   1      41.062  36.893  38.910  1.00  0.00     0.127 S 
ATOM     88  O   UNL A   1      40.068  37.958  38.993  1.00  0.00    -0.237 OA
ATOM     89  O   UNL A   1      41.672  36.511  40.185  1.00  0.00    -0.237 OA
ATOM     90  O   UNL A   1      42.018  36.972  37.812  1.00  0.00    -0.744 OA
ENDBRANCH  84  87
ENDBRANCH  56  80
BRANCH  68  91
ATOM     91  C   UNL A   1      44.131  28.474  35.505  1.00  0.00     0.023 A 
ATOM     92  C   UNL A   1      43.950  27.344  36.324  1.00  0.00     0.012 A 
ATOM     93  C   UNL A   1      45.421  28.998  35.308  1.00  0.00     0.148 A 
ATOM     94  C   UNL A   1      45.042  26.755  36.959  1.00  0.00     0.002 A 
ATOM     95  C   UNL A   1      46.509  28.375  35.900  1.00  0.00     0.091 A 
ATOM     96  F   UNL A   1      45.557  30.090  34.543  1.00  0.00    -0.205 F 
ATOM     97  C   UNL A   1      46.322  27.261  36.735  1.00  0.00     0.022 A 
BRANCH  95  98
ATOM     98  S   UNL A   1      48.197  28.898  35.589  1.00  0.00     0.127 S 
ATOM     99  O   UNL A   1      48.326  30.038  36.497  1.00  0.00    -0.237 OA
ATOM    100  O   UNL A   1      48.962  27.714  35.981  1.00  0.00    -0.237 OA
ATOM    101  O   UNL A   1      48.266  29.225  34.171  1.00  0.00    -0.744 OA
ENDBRANCH  95  98
ENDBRANCH  68  91
ENDBRANCH  42  43
ENDBRANCH  34  37
ENDBRANCH  32  33
ENDBRANCH  31  32
ENDBRANCH   1  31
TORSDOF 18
ENDMDL
