MODEL 1
REMARK VINA RESULT:     -13.8      0.000      0.000
REMARK SMILES C[C@@H](CCC(=O)NCCCNC(=O)c1ccc(-c2c3nc(c(-c4cccc(S(=O)(=O)[O-])c4F)c4ccc([nH]4)c(-c4cccc(S(=O)(=O)[O-])c4F)c4nc(c(-c5cccc(S(=O)(=O)[O-])c5F)c5ccc2[nH]5)C=C4)C=C3)cc1)[C@@H]1CC[C@H]2[C@@H]3CC[C@H]4CC(=O)CC[C@@]4(C)[C@H]3CC(=O)[C@@]21C
REMARK SMILES IDX 9 1 8 2 7 3 5 4 6 5 4 7 3 8 2 9 1 10 77 11 78 12 96 13 79 14
REMARK SMILES IDX 80 15 94 16 97 17 81 18 93 19 95 20 82 21 92 22 83 23 90 24
REMARK SMILES IDX 84 25 89 26 91 27 85 28 88 29 86 30 87 31 10 32 11 33 12 34
REMARK SMILES IDX 13 36 14 37 15 38 76 39 16 40 75 41 17 42 18 43 19 44 69 45
REMARK SMILES IDX 20 46 74 47 68 48 70 49 21 50 73 51 67 52 66 53 22 55 54 56
REMARK SMILES IDX 34 57 53 58 35 59 38 60 52 61 71 62 36 63 37 64 51 66 72 67
REMARK SMILES IDX 39 68 23 69 24 70 32 71 25 72 27 73 33 74 26 75 28 76 29 77
REMARK SMILES IDX 30 78 31 79 55 80 56 81 64 82 57 83 59 84 65 85 58 86 60 87
REMARK SMILES IDX 61 88 62 89 63 90 40 91 41 92 49 93 42 94 44 95 50 96 43 97
REMARK SMILES IDX 45 98 46 99 47 100 48 101
REMARK H PARENT 7 6 11 35 70 54 38 65
REMARK Flexibility Score: inf
ROOT
ATOM      1  C   UNL A   1      33.039  28.356  26.875  1.00  0.00     0.042 C 
ENDROOT
BRANCH   1   2
ATOM      2  C   UNL A   1      31.744  28.205  27.683  1.00  0.00     0.117 C 
BRANCH   2   3
ATOM      3  N   UNL A   1      30.878  27.070  27.346  1.00  0.00    -0.356 N 
ATOM      4  C   UNL A   1      30.590  26.420  26.170  1.00  0.00     0.220 C 
ATOM      5  O   UNL A   1      29.925  25.381  26.257  1.00  0.00    -0.275 OA
ATOM      6  H   UNL A   1      30.404  26.696  28.125  1.00  0.00     0.163 HD
BRANCH   4   7
ATOM      7  C   UNL A   1      30.996  26.959  24.793  1.00  0.00     0.100 C 
BRANCH   7   8
ATOM      8  C   UNL A   1      31.938  26.137  23.855  1.00  0.00     0.013 C 
BRANCH   8   9
ATOM      9  C   UNL A   1      33.361  25.686  24.381  1.00  0.00    -0.010 C 
ATOM     10  C   UNL A   1      34.277  25.823  23.163  1.00  0.00     0.008 C 
BRANCH   9  11
ATOM     11  C   UNL A   1      33.175  24.365  25.214  1.00  0.00     0.005 C 
ATOM     12  C   UNL A   1      34.552  24.138  25.934  1.00  0.00     0.005 C 
ATOM     13  C   UNL A   1      32.667  22.890  24.937  1.00  0.00     0.032 C 
ATOM     14  C   UNL A   1      34.673  22.670  26.225  1.00  0.00     0.005 C 
ATOM     15  C   UNL A   1      33.985  22.101  25.001  1.00  0.00     0.006 C 
ATOM     16  C   UNL A   1      31.969  22.395  23.679  1.00  0.00     0.139 C 
ATOM     17  C   UNL A   1      31.699  22.500  26.114  1.00  0.00     0.020 C 
ATOM     18  C   UNL A   1      33.895  20.579  25.001  1.00  0.00    -0.003 C 
ATOM     19  C   UNL A   1      31.751  20.859  23.602  1.00  0.00     0.080 C 
ATOM     20  O   UNL A   1      31.498  23.160  22.843  1.00  0.00    -0.299 OA
ATOM     21  C   UNL A   1      35.333  20.049  24.917  1.00  0.00     0.004 C 
ATOM     22  C   UNL A   1      33.072  20.076  23.795  1.00  0.00     0.006 C 
ATOM     23  C   UNL A   1      35.427  18.560  24.715  1.00  0.00     0.005 C 
ATOM     24  C   UNL A   1      33.011  18.485  23.772  1.00  0.00    -0.025 C 
ATOM     25  C   UNL A   1      34.490  18.004  23.619  1.00  0.00     0.002 C 
ATOM     26  C   UNL A   1      32.347  17.803  25.016  1.00  0.00     0.015 C 
ATOM     27  C   UNL A   1      32.173  18.070  22.532  1.00  0.00     0.012 C 
ATOM     28  C   UNL A   1      34.605  16.482  23.612  1.00  0.00     0.079 C 
ATOM     29  C   UNL A   1      33.069  16.618  25.695  1.00  0.00     0.076 C 
ATOM     30  C   UNL A   1      34.225  15.960  24.968  1.00  0.00     0.133 C 
ATOM     31  O   UNL A   1      34.867  15.049  25.496  1.00  0.00    -0.300 OA
ENDBRANCH   9  11
ENDBRANCH   8   9
ENDBRANCH   7   8
ENDBRANCH   4   7
ENDBRANCH   2   3
ENDBRANCH   1   2
BRANCH   1  32
ATOM     32  C   UNL A   1      33.564  29.611  26.169  1.00  0.00     0.118 C 
BRANCH  32  33
ATOM     33  N   UNL A   1      33.119  30.909  26.591  1.00  0.00    -0.352 N 
ATOM     34  C   UNL A   1      33.780  31.726  27.488  1.00  0.00     0.251 C 
ATOM     35  H   UNL A   1      32.274  31.243  26.212  1.00  0.00     0.163 HD
ATOM     36  O   UNL A   1      33.254  32.769  27.861  1.00  0.00    -0.269 OA
BRANCH  34  37
ATOM     37  C   UNL A   1      35.113  31.339  28.033  1.00  0.00     0.039 A 
ATOM     38  C   UNL A   1      35.229  30.124  28.711  1.00  0.00     0.014 A 
ATOM     39  C   UNL A   1      36.222  32.190  27.961  1.00  0.00     0.014 A 
ATOM     40  C   UNL A   1      36.444  29.763  29.308  1.00  0.00     0.010 A 
ATOM     41  C   UNL A   1      37.453  31.806  28.524  1.00  0.00     0.010 A 
ATOM     42  C   UNL A   1      37.577  30.596  29.224  1.00  0.00    -0.014 A 
BRANCH  42  43
ATOM     43  C   UNL A   1      38.857  30.158  29.867  1.00  0.00     0.031 A 
ATOM     44  C   UNL A   1      39.250  30.609  31.254  1.00  0.00     0.074 A 
ATOM     45  C   UNL A   1      39.673  29.307  29.209  1.00  0.00     0.049 A 
ATOM     46  N   UNL A   1      40.223  30.173  32.019  1.00  0.00    -0.248 NA
ATOM     47  C   UNL A   1      38.467  31.697  31.856  1.00  0.00     0.031 C 
ATOM     48  C   UNL A   1      39.482  28.859  27.829  1.00  0.00     0.029 A 
ATOM     49  N   UNL A   1      40.818  28.658  29.610  1.00  0.00    -0.354 N 
ATOM     50  C   UNL A   1      40.175  30.934  33.182  1.00  0.00     0.074 A 
ATOM     51  C   UNL A   1      39.102  31.889  33.005  1.00  0.00     0.031 C 
ATOM     52  C   UNL A   1      40.446  27.982  27.512  1.00  0.00     0.029 A 
ATOM     53  C   UNL A   1      41.337  27.813  28.657  1.00  0.00     0.049 A 
ATOM     54  H   UNL A   1      41.226  28.788  30.497  1.00  0.00     0.167 HD
ATOM     55  C   UNL A   1      40.930  30.834  34.305  1.00  0.00     0.034 A 
ATOM     56  C   UNL A   1      42.397  26.979  28.698  1.00  0.00     0.034 A 
ATOM     57  C   UNL A   1      41.989  29.875  34.493  1.00  0.00     0.049 A 
ATOM     58  C   UNL A   1      43.181  26.841  29.976  1.00  0.00     0.074 A 
ATOM     59  C   UNL A   1      42.755  29.645  35.626  1.00  0.00     0.029 A 
ATOM     60  N   UNL A   1      42.448  28.996  33.524  1.00  0.00    -0.354 N 
ATOM     61  N   UNL A   1      43.000  27.441  31.126  1.00  0.00    -0.248 NA
ATOM     62  C   UNL A   1      44.288  25.871  29.974  1.00  0.00     0.031 C 
ATOM     63  C   UNL A   1      43.698  28.653  35.328  1.00  0.00     0.029 A 
ATOM     64  C   UNL A   1      43.492  28.233  34.026  1.00  0.00     0.049 A 
ATOM     65  H   UNL A   1      42.086  28.926  32.611  1.00  0.00     0.167 HD
ATOM     66  C   UNL A   1      43.944  26.899  31.993  1.00  0.00     0.074 A 
ATOM     67  C   UNL A   1      44.673  25.898  31.241  1.00  0.00     0.031 C 
ATOM     68  C   UNL A   1      44.193  27.212  33.289  1.00  0.00     0.034 A 
BRANCH  55  69
ATOM     69  C   UNL A   1      40.610  31.761  35.455  1.00  0.00     0.023 A 
ATOM     70  C   UNL A   1      41.458  32.855  35.724  1.00  0.00     0.012 A 
ATOM     71  C   UNL A   1      39.437  31.596  36.220  1.00  0.00     0.148 A 
ATOM     72  C   UNL A   1      41.168  33.745  36.759  1.00  0.00     0.002 A 
ATOM     73  C   UNL A   1      39.131  32.515  37.219  1.00  0.00     0.091 A 
ATOM     74  F   UNL A   1      38.647  30.544  35.962  1.00  0.00    -0.205 F 
ATOM     75  C   UNL A   1      40.000  33.581  37.498  1.00  0.00     0.022 A 
BRANCH  73  76
ATOM     76  S   UNL A   1      37.612  32.440  38.178  1.00  0.00     0.127 S 
ATOM     77  O   UNL A   1      37.999  33.146  39.397  1.00  0.00    -0.237 OA
ATOM     78  O   UNL A   1      36.672  33.165  37.323  1.00  0.00    -0.237 OA
ATOM     79  O   UNL A   1      37.313  31.023  38.345  1.00  0.00    -0.744 OA
ENDBRANCH  73  76
ENDBRANCH  55  69
BRANCH  56  80
ATOM     80  C   UNL A   1      42.735  26.144  27.508  1.00  0.00     0.023 A 
ATOM     81  C   UNL A   1      43.546  26.677  26.486  1.00  0.00     0.012 A 
ATOM     82  C   UNL A   1      42.265  24.823  27.392  1.00  0.00     0.148 A 
ATOM     83  C   UNL A   1      43.853  25.920  25.354  1.00  0.00     0.002 A 
ATOM     84  C   UNL A   1      42.625  24.054  26.292  1.00  0.00     0.091 A 
ATOM     85  F   UNL A   1      41.482  24.340  28.367  1.00  0.00    -0.205 F 
ATOM     86  C   UNL A   1      43.402  24.605  25.262  1.00  0.00     0.022 A 
BRANCH  84  87
ATOM     87  S   UNL A   1      42.205  22.314  26.154  1.00  0.00     0.127 S 
ATOM     88  O   UNL A   1      42.965  21.913  24.976  1.00  0.00    -0.237 OA
ATOM     89  O   UNL A   1      42.703  21.783  27.423  1.00  0.00    -0.237 OA
ATOM     90  O   UNL A   1      40.753  22.270  26.015  1.00  0.00    -0.744 OA
ENDBRANCH  84  87
ENDBRANCH  56  80
BRANCH  68  91
ATOM     91  C   UNL A   1      45.279  26.438  33.996  1.00  0.00     0.023 A 
ATOM     92  C   UNL A   1      46.623  26.851  33.895  1.00  0.00     0.012 A 
ATOM     93  C   UNL A   1      44.964  25.313  34.783  1.00  0.00     0.148 A 
ATOM     94  C   UNL A   1      47.640  26.124  34.515  1.00  0.00     0.002 A 
ATOM     95  C   UNL A   1      45.976  24.625  35.445  1.00  0.00     0.091 A 
ATOM     96  F   UNL A   1      43.684  24.919  34.857  1.00  0.00    -0.205 F 
ATOM     97  C   UNL A   1      47.315  25.018  35.297  1.00  0.00     0.022 A 
BRANCH  95  98
ATOM     98  S   UNL A   1      45.637  23.251  36.552  1.00  0.00     0.127 S 
ATOM     99  O   UNL A   1      46.986  22.833  36.929  1.00  0.00    -0.237 OA
ATOM    100  O   UNL A   1      44.875  23.894  37.623  1.00  0.00    -0.237 OA
ATOM    101  O   UNL A   1      44.876  22.288  35.768  1.00  0.00    -0.744 OA
ENDBRANCH  95  98
ENDBRANCH  68  91
ENDBRANCH  42  43
ENDBRANCH  34  37
ENDBRANCH  32  33
ENDBRANCH   1  32
TORSDOF 16
ENDMDL
MODEL 2
REMARK VINA RESULT:     -13.7      2.166      2.801
REMARK SMILES C[C@@H](CCC(=O)NCCCNC(=O)c1ccc(-c2c3nc(c(-c4cccc(S(=O)(=O)[O-])c4F)c4ccc([nH]4)c(-c4cccc(S(=O)(=O)[O-])c4F)c4nc(c(-c5cccc(S(=O)(=O)[O-])c5F)c5ccc2[nH]5)C=C4)C=C3)cc1)[C@@H]1CC[C@H]2[C@@H]3CC[C@H]4CC(=O)CC[C@@]4(C)[C@H]3CC(=O)[C@@]21C
REMARK SMILES IDX 9 1 8 2 7 3 5 4 6 5 4 7 3 8 2 9 1 10 77 11 78 12 96 13 79 14
REMARK SMILES IDX 80 15 94 16 97 17 81 18 93 19 95 20 82 21 92 22 83 23 90 24
REMARK SMILES IDX 84 25 89 26 91 27 85 28 88 29 86 30 87 31 10 32 11 33 12 34
REMARK SMILES IDX 13 36 14 37 15 38 76 39 16 40 75 41 17 42 18 43 19 44 69 45
REMARK SMILES IDX 20 46 74 47 68 48 70 49 21 50 73 51 67 52 66 53 22 55 54 56
REMARK SMILES IDX 34 57 53 58 35 59 38 60 52 61 71 62 36 63 37 64 51 66 72 67
REMARK SMILES IDX 39 68 23 69 24 70 32 71 25 72 27 73 33 74 26 75 28 76 29 77
REMARK SMILES IDX 30 78 31 79 55 80 56 81 64 82 57 83 59 84 65 85 58 86 60 87
REMARK SMILES IDX 61 88 62 89 63 90 40 91 41 92 49 93 42 94 44 95 50 96 43 97
REMARK SMILES IDX 45 98 46 99 47 100 48 101
REMARK H PARENT 7 6 11 35 70 54 38 65
REMARK Flexibility Score: inf
ROOT
ATOM      1  C   UNL A   1      31.837  31.909  26.891  1.00  0.00     0.042 C 
ENDROOT
BRANCH   1   2
ATOM      2  C   UNL A   1      32.012  30.428  26.535  1.00  0.00     0.117 C 
BRANCH   2   3
ATOM      3  N   UNL A   1      31.926  30.070  25.115  1.00  0.00    -0.356 N 
ATOM      4  C   UNL A   1      32.494  29.076  24.357  1.00  0.00     0.220 C 
ATOM      5  O   UNL A   1      32.085  28.957  23.196  1.00  0.00    -0.275 OA
ATOM      6  H   UNL A   1      31.338  30.668  24.597  1.00  0.00     0.163 HD
BRANCH   4   7
ATOM      7  C   UNL A   1      33.631  28.180  24.865  1.00  0.00     0.100 C 
BRANCH   7   8
ATOM      8  C   UNL A   1      33.355  26.707  25.309  1.00  0.00     0.013 C 
BRANCH   8   9
ATOM      9  C   UNL A   1      34.160  25.525  24.630  1.00  0.00    -0.010 C 
ATOM     10  C   UNL A   1      33.922  25.715  23.131  1.00  0.00     0.008 C 
BRANCH   9  11
ATOM     11  C   UNL A   1      33.844  24.205  25.423  1.00  0.00     0.005 C 
ATOM     12  C   UNL A   1      35.201  23.798  26.100  1.00  0.00     0.005 C 
ATOM     13  C   UNL A   1      33.166  22.807  25.112  1.00  0.00     0.032 C 
ATOM     14  C   UNL A   1      35.162  22.317  26.339  1.00  0.00     0.005 C 
ATOM     15  C   UNL A   1      34.387  21.872  25.115  1.00  0.00     0.006 C 
ATOM     16  C   UNL A   1      32.389  22.439  23.856  1.00  0.00     0.139 C 
ATOM     17  C   UNL A   1      32.186  22.486  26.299  1.00  0.00     0.020 C 
ATOM     18  C   UNL A   1      34.126  20.371  25.067  1.00  0.00    -0.003 C 
ATOM     19  C   UNL A   1      31.996  20.940  23.734  1.00  0.00     0.080 C 
ATOM     20  O   UNL A   1      31.989  23.280  23.058  1.00  0.00    -0.299 OA
ATOM     21  C   UNL A   1      35.492  19.686  24.928  1.00  0.00     0.004 C 
ATOM     22  C   UNL A   1      33.224  20.007  23.867  1.00  0.00     0.006 C 
ATOM     23  C   UNL A   1      35.412  18.204  24.675  1.00  0.00     0.005 C 
ATOM     24  C   UNL A   1      32.984  18.435  23.792  1.00  0.00    -0.025 C 
ATOM     25  C   UNL A   1      34.394  17.797  23.586  1.00  0.00     0.002 C 
ATOM     26  C   UNL A   1      32.274  17.788  25.030  1.00  0.00     0.015 C 
ATOM     27  C   UNL A   1      32.077  18.161  22.562  1.00  0.00     0.012 C 
ATOM     28  C   UNL A   1      34.337  16.272  23.525  1.00  0.00     0.079 C 
ATOM     29  C   UNL A   1      32.872  16.506  25.651  1.00  0.00     0.076 C 
ATOM     30  C   UNL A   1      33.930  15.748  24.873  1.00  0.00     0.133 C 
ATOM     31  O   UNL A   1      34.476  14.753  25.354  1.00  0.00    -0.300 OA
ENDBRANCH   9  11
ENDBRANCH   8   9
ENDBRANCH   7   8
ENDBRANCH   4   7
ENDBRANCH   2   3
ENDBRANCH   1   2
BRANCH   1  32
ATOM     32  C   UNL A   1      32.909  32.889  27.381  1.00  0.00     0.118 C 
BRANCH  32  33
ATOM     33  N   UNL A   1      32.523  34.162  27.920  1.00  0.00    -0.352 N 
ATOM     34  C   UNL A   1      33.154  34.811  28.964  1.00  0.00     0.251 C 
ATOM     35  H   UNL A   1      31.746  34.609  27.514  1.00  0.00     0.163 HD
ATOM     36  O   UNL A   1      32.674  35.844  29.417  1.00  0.00    -0.269 OA
BRANCH  34  37
ATOM     37  C   UNL A   1      34.398  34.251  29.570  1.00  0.00     0.039 A 
ATOM     38  C   UNL A   1      35.620  34.523  28.954  1.00  0.00     0.014 A 
ATOM     39  C   UNL A   1      34.365  33.396  30.679  1.00  0.00     0.014 A 
ATOM     40  C   UNL A   1      36.800  33.949  29.445  1.00  0.00     0.010 A 
ATOM     41  C   UNL A   1      35.556  32.854  31.196  1.00  0.00     0.010 A 
ATOM     42  C   UNL A   1      36.790  33.107  30.575  1.00  0.00    -0.014 A 
BRANCH  42  43
ATOM     43  C   UNL A   1      38.080  32.528  31.070  1.00  0.00     0.031 A 
ATOM     44  C   UNL A   1      38.767  33.053  32.308  1.00  0.00     0.074 A 
ATOM     45  C   UNL A   1      38.632  31.483  30.418  1.00  0.00     0.049 A 
ATOM     46  N   UNL A   1      39.779  32.542  32.969  1.00  0.00    -0.248 NA
ATOM     47  C   UNL A   1      38.273  34.318  32.869  1.00  0.00     0.031 C 
ATOM     48  C   UNL A   1      38.141  30.928  29.155  1.00  0.00     0.029 A 
ATOM     49  N   UNL A   1      39.717  30.695  30.725  1.00  0.00    -0.354 N 
ATOM     50  C   UNL A   1      40.047  33.422  34.013  1.00  0.00     0.074 A 
ATOM     51  C   UNL A   1      39.117  34.522  33.873  1.00  0.00     0.031 C 
ATOM     52  C   UNL A   1      38.893  29.869  28.817  1.00  0.00     0.029 A 
ATOM     53  C   UNL A   1      39.931  29.675  29.828  1.00  0.00     0.049 A 
ATOM     54  H   UNL A   1      40.286  30.848  31.514  1.00  0.00     0.167 HD
ATOM     55  C   UNL A   1      40.959  33.316  35.012  1.00  0.00     0.034 A 
ATOM     56  C   UNL A   1      40.844  28.681  29.820  1.00  0.00     0.034 A 
ATOM     57  C   UNL A   1      41.877  32.215  35.166  1.00  0.00     0.049 A 
ATOM     58  C   UNL A   1      41.804  28.550  30.972  1.00  0.00     0.074 A 
ATOM     59  C   UNL A   1      42.781  31.982  36.190  1.00  0.00     0.029 A 
ATOM     60  N   UNL A   1      42.024  31.171  34.266  1.00  0.00    -0.354 N 
ATOM     61  N   UNL A   1      41.916  29.294  32.044  1.00  0.00    -0.248 NA
ATOM     62  C   UNL A   1      42.734  27.411  30.933  1.00  0.00     0.031 C 
ATOM     63  C   UNL A   1      43.498  30.816  35.890  1.00  0.00     0.029 A 
ATOM     64  C   UNL A   1      43.011  30.300  34.702  1.00  0.00     0.049 A 
ATOM     65  H   UNL A   1      41.505  31.065  33.436  1.00  0.00     0.167 HD
ATOM     66  C   UNL A   1      42.901  28.695  32.824  1.00  0.00     0.074 A 
ATOM     67  C   UNL A   1      43.330  27.508  32.113  1.00  0.00     0.031 C 
ATOM     68  C   UNL A   1      43.412  29.099  34.013  1.00  0.00     0.034 A 
BRANCH  55  69
ATOM     69  C   UNL A   1      40.985  34.403  36.062  1.00  0.00     0.023 A 
ATOM     70  C   UNL A   1      41.569  35.650  35.758  1.00  0.00     0.012 A 
ATOM     71  C   UNL A   1      40.368  34.221  37.316  1.00  0.00     0.148 A 
ATOM     72  C   UNL A   1      41.577  36.683  36.696  1.00  0.00     0.002 A 
ATOM     73  C   UNL A   1      40.339  35.270  38.229  1.00  0.00     0.091 A 
ATOM     74  F   UNL A   1      39.828  33.027  37.597  1.00  0.00    -0.205 F 
ATOM     75  C   UNL A   1      40.953  36.496  37.926  1.00  0.00     0.022 A 
BRANCH  73  76
ATOM     76  S   UNL A   1      39.493  35.161  39.811  1.00  0.00     0.127 S 
ATOM     77  O   UNL A   1      40.470  34.430  40.616  1.00  0.00    -0.237 OA
ATOM     78  O   UNL A   1      39.333  36.569  40.173  1.00  0.00    -0.237 OA
ATOM     79  O   UNL A   1      38.245  34.454  39.551  1.00  0.00    -0.744 OA
ENDBRANCH  73  76
ENDBRANCH  55  69
BRANCH  56  80
ATOM     80  C   UNL A   1      40.842  27.677  28.716  1.00  0.00     0.023 A 
ATOM     81  C   UNL A   1      39.837  26.689  28.669  1.00  0.00     0.012 A 
ATOM     82  C   UNL A   1      41.823  27.705  27.708  1.00  0.00     0.148 A 
ATOM     83  C   UNL A   1      39.832  25.727  27.658  1.00  0.00     0.002 A 
ATOM     84  C   UNL A   1      41.777  26.783  26.670  1.00  0.00     0.091 A 
ATOM     85  F   UNL A   1      42.778  28.643  27.779  1.00  0.00    -0.205 F 
ATOM     86  C   UNL A   1      40.795  25.780  26.652  1.00  0.00     0.022 A 
BRANCH  84  87
ATOM     87  S   UNL A   1      42.890  26.858  25.264  1.00  0.00     0.127 S 
ATOM     88  O   UNL A   1      42.614  25.593  24.593  1.00  0.00    -0.237 OA
ATOM     89  O   UNL A   1      42.410  28.049  24.563  1.00  0.00    -0.237 OA
ATOM     90  O   UNL A   1      44.229  26.994  25.829  1.00  0.00    -0.744 OA
ENDBRANCH  84  87
ENDBRANCH  56  80
BRANCH  68  91
ATOM     91  C   UNL A   1      44.473  28.232  34.645  1.00  0.00     0.023 A 
ATOM     92  C   UNL A   1      45.836  28.565  34.508  1.00  0.00     0.012 A 
ATOM     93  C   UNL A   1      44.118  27.096  35.400  1.00  0.00     0.148 A 
ATOM     94  C   UNL A   1      46.827  27.752  35.059  1.00  0.00     0.002 A 
ATOM     95  C   UNL A   1      45.108  26.321  35.994  1.00  0.00     0.091 A 
ATOM     96  F   UNL A   1      42.819  26.778  35.509  1.00  0.00    -0.205 F 
ATOM     97  C   UNL A   1      46.463  26.637  35.809  1.00  0.00     0.022 A 
BRANCH  95  98
ATOM     98  S   UNL A   1      44.725  24.925  37.058  1.00  0.00     0.127 S 
ATOM     99  O   UNL A   1      46.056  24.513  37.500  1.00  0.00    -0.237 OA
ATOM    100  O   UNL A   1      43.901  25.543  38.098  1.00  0.00    -0.237 OA
ATOM    101  O   UNL A   1      44.016  23.968  36.219  1.00  0.00    -0.744 OA
ENDBRANCH  95  98
ENDBRANCH  68  91
ENDBRANCH  42  43
ENDBRANCH  34  37
ENDBRANCH  32  33
ENDBRANCH   1  32
TORSDOF 16
ENDMDL
MODEL 3
REMARK VINA RESULT:     -13.7      2.360      7.805
REMARK SMILES C[C@@H](CCC(=O)NCCCNC(=O)c1ccc(-c2c3nc(c(-c4cccc(S(=O)(=O)[O-])c4F)c4ccc([nH]4)c(-c4cccc(S(=O)(=O)[O-])c4F)c4nc(c(-c5cccc(S(=O)(=O)[O-])c5F)c5ccc2[nH]5)C=C4)C=C3)cc1)[C@@H]1CC[C@H]2[C@@H]3CC[C@H]4CC(=O)CC[C@@]4(C)[C@H]3CC(=O)[C@@]21C
REMARK SMILES IDX 9 1 8 2 7 3 5 4 6 5 4 7 3 8 2 9 1 10 77 11 78 12 96 13 79 14
REMARK SMILES IDX 80 15 94 16 97 17 81 18 93 19 95 20 82 21 92 22 83 23 90 24
REMARK SMILES IDX 84 25 89 26 91 27 85 28 88 29 86 30 87 31 10 32 11 33 12 34
REMARK SMILES IDX 13 36 14 37 15 38 76 39 16 40 75 41 17 42 18 43 19 44 69 45
REMARK SMILES IDX 20 46 74 47 68 48 70 49 21 50 73 51 67 52 66 53 22 55 54 56
REMARK SMILES IDX 34 57 53 58 35 59 38 60 52 61 71 62 36 63 37 64 51 66 72 67
REMARK SMILES IDX 39 68 23 69 24 70 32 71 25 72 27 73 33 74 26 75 28 76 29 77
REMARK SMILES IDX 30 78 31 79 55 80 56 81 64 82 57 83 59 84 65 85 58 86 60 87
REMARK SMILES IDX 61 88 62 89 63 90 40 91 41 92 49 93 42 94 44 95 50 96 43 97
REMARK SMILES IDX 45 98 46 99 47 100 48 101
REMARK H PARENT 7 6 11 35 70 54 38 65
REMARK Flexibility Score: inf
ROOT
ATOM      1  C   UNL A   1      31.651  32.007  26.676  1.00  0.00     0.042 C 
ENDROOT
BRANCH   1   2
ATOM      2  C   UNL A   1      31.646  30.499  26.395  1.00  0.00     0.117 C 
BRANCH   2   3
ATOM      3  N   UNL A   1      31.594  30.085  24.989  1.00  0.00    -0.356 N 
ATOM      4  C   UNL A   1      32.216  29.088  24.276  1.00  0.00     0.220 C 
ATOM      5  O   UNL A   1      31.827  28.907  23.116  1.00  0.00    -0.275 OA
ATOM      6  H   UNL A   1      30.988  30.636  24.442  1.00  0.00     0.163 HD
BRANCH   4   7
ATOM      7  C   UNL A   1      33.384  28.264  24.831  1.00  0.00     0.100 C 
BRANCH   7   8
ATOM      8  C   UNL A   1      33.174  26.787  25.298  1.00  0.00     0.013 C 
BRANCH   8   9
ATOM      9  C   UNL A   1      34.074  25.640  24.682  1.00  0.00    -0.010 C 
ATOM     10  C   UNL A   1      33.921  25.809  23.168  1.00  0.00     0.008 C 
BRANCH   9  11
ATOM     11  C   UNL A   1      33.771  24.311  25.466  1.00  0.00     0.005 C 
ATOM     12  C   UNL A   1      35.130  23.917  26.145  1.00  0.00     0.005 C 
ATOM     13  C   UNL A   1      33.111  22.907  25.144  1.00  0.00     0.032 C 
ATOM     14  C   UNL A   1      35.107  22.434  26.377  1.00  0.00     0.005 C 
ATOM     15  C   UNL A   1      34.343  21.988  25.147  1.00  0.00     0.006 C 
ATOM     16  C   UNL A   1      32.343  22.537  23.883  1.00  0.00     0.139 C 
ATOM     17  C   UNL A   1      32.130  22.568  26.325  1.00  0.00     0.020 C 
ATOM     18  C   UNL A   1      34.100  20.483  25.089  1.00  0.00    -0.003 C 
ATOM     19  C   UNL A   1      31.969  21.034  23.751  1.00  0.00     0.080 C 
ATOM     20  O   UNL A   1      31.936  23.378  23.088  1.00  0.00    -0.299 OA
ATOM     21  C   UNL A   1      35.475  19.816  24.952  1.00  0.00     0.004 C 
ATOM     22  C   UNL A   1      33.208  20.115  23.883  1.00  0.00     0.006 C 
ATOM     23  C   UNL A   1      35.414  18.335  24.691  1.00  0.00     0.005 C 
ATOM     24  C   UNL A   1      32.986  18.541  23.799  1.00  0.00    -0.025 C 
ATOM     25  C   UNL A   1      34.405  17.921  23.595  1.00  0.00     0.002 C 
ATOM     26  C   UNL A   1      32.280  17.879  25.031  1.00  0.00     0.015 C 
ATOM     27  C   UNL A   1      32.088  18.263  22.564  1.00  0.00     0.012 C 
ATOM     28  C   UNL A   1      34.366  16.396  23.526  1.00  0.00     0.079 C 
ATOM     29  C   UNL A   1      32.891  16.601  25.647  1.00  0.00     0.076 C 
ATOM     30  C   UNL A   1      33.961  15.860  24.869  1.00  0.00     0.133 C 
ATOM     31  O   UNL A   1      34.517  14.869  25.347  1.00  0.00    -0.300 OA
ENDBRANCH   9  11
ENDBRANCH   8   9
ENDBRANCH   7   8
ENDBRANCH   4   7
ENDBRANCH   2   3
ENDBRANCH   1   2
BRANCH   1  32
ATOM     32  C   UNL A   1      32.800  32.853  27.237  1.00  0.00     0.118 C 
BRANCH  32  33
ATOM     33  N   UNL A   1      32.568  34.220  27.606  1.00  0.00    -0.352 N 
ATOM     34  C   UNL A   1      33.153  34.867  28.678  1.00  0.00     0.251 C 
ATOM     35  H   UNL A   1      31.942  34.739  27.051  1.00  0.00     0.163 HD
ATOM     36  O   UNL A   1      32.800  36.005  28.967  1.00  0.00    -0.269 OA
BRANCH  34  37
ATOM     37  C   UNL A   1      34.187  34.185  29.509  1.00  0.00     0.039 A 
ATOM     38  C   UNL A   1      35.521  34.258  29.105  1.00  0.00     0.014 A 
ATOM     39  C   UNL A   1      33.851  33.408  30.625  1.00  0.00     0.014 A 
ATOM     40  C   UNL A   1      36.510  33.562  29.813  1.00  0.00     0.010 A 
ATOM     41  C   UNL A   1      34.851  32.745  31.359  1.00  0.00     0.010 A 
ATOM     42  C   UNL A   1      36.194  32.796  30.953  1.00  0.00    -0.014 A 
BRANCH  42  43
ATOM     43  C   UNL A   1      37.290  32.083  31.684  1.00  0.00     0.031 A 
ATOM     44  C   UNL A   1      38.103  30.989  31.034  1.00  0.00     0.074 A 
ATOM     45  C   UNL A   1      37.591  32.448  32.948  1.00  0.00     0.049 A 
ATOM     46  N   UNL A   1      39.200  30.411  31.463  1.00  0.00    -0.248 NA
ATOM     47  C   UNL A   1      37.620  30.461  29.750  1.00  0.00     0.031 C 
ATOM     48  C   UNL A   1      36.836  33.417  33.744  1.00  0.00     0.029 A 
ATOM     49  N   UNL A   1      38.611  32.058  33.784  1.00  0.00    -0.354 N 
ATOM     50  C   UNL A   1      39.532  29.451  30.512  1.00  0.00     0.074 A 
ATOM     51  C   UNL A   1      38.496  29.496  29.502  1.00  0.00     0.031 C 
ATOM     52  C   UNL A   1      37.438  33.576  34.933  1.00  0.00     0.029 A 
ATOM     53  C   UNL A   1      38.614  32.712  34.995  1.00  0.00     0.049 A 
ATOM     54  H   UNL A   1      39.276  31.375  33.538  1.00  0.00     0.167 HD
ATOM     55  C   UNL A   1      40.611  28.628  30.464  1.00  0.00     0.034 A 
ATOM     56  C   UNL A   1      39.472  32.643  36.034  1.00  0.00     0.034 A 
ATOM     57  C   UNL A   1      41.653  28.590  31.458  1.00  0.00     0.049 A 
ATOM     58  C   UNL A   1      40.692  31.768  35.930  1.00  0.00     0.074 A 
ATOM     59  C   UNL A   1      42.824  27.848  31.453  1.00  0.00     0.029 A 
ATOM     60  N   UNL A   1      41.649  29.309  32.643  1.00  0.00    -0.354 N 
ATOM     61  N   UNL A   1      41.081  31.006  34.938  1.00  0.00    -0.248 NA
ATOM     62  C   UNL A   1      41.619  31.784  37.073  1.00  0.00     0.031 C 
ATOM     63  C   UNL A   1      43.508  28.092  32.650  1.00  0.00     0.029 A 
ATOM     64  C   UNL A   1      42.786  29.020  33.381  1.00  0.00     0.049 A 
ATOM     65  H   UNL A   1      40.940  29.934  32.920  1.00  0.00     0.167 HD
ATOM     66  C   UNL A   1      42.311  30.479  35.321  1.00  0.00     0.074 A 
ATOM     67  C   UNL A   1      42.616  31.037  36.622  1.00  0.00     0.031 C 
ATOM     68  C   UNL A   1      43.107  29.603  34.659  1.00  0.00     0.034 A 
BRANCH  55  69
ATOM     69  C   UNL A   1      40.751  27.721  29.263  1.00  0.00     0.023 A 
ATOM     70  C   UNL A   1      39.993  26.533  29.195  1.00  0.00     0.012 A 
ATOM     71  C   UNL A   1      41.571  28.076  28.172  1.00  0.00     0.148 A 
ATOM     72  C   UNL A   1      40.079  25.694  28.083  1.00  0.00     0.002 A 
ATOM     73  C   UNL A   1      41.615  27.258  27.048  1.00  0.00     0.091 A 
ATOM     74  F   UNL A   1      42.295  29.201  28.256  1.00  0.00    -0.205 F 
ATOM     75  C   UNL A   1      40.881  26.062  27.007  1.00  0.00     0.022 A 
BRANCH  73  76
ATOM     76  S   UNL A   1      42.555  27.679  25.574  1.00  0.00     0.127 S 
ATOM     77  O   UNL A   1      43.910  27.789  26.112  1.00  0.00    -0.237 OA
ATOM     78  O   UNL A   1      42.329  26.513  24.721  1.00  0.00    -0.237 OA
ATOM     79  O   UNL A   1      41.980  28.921  25.073  1.00  0.00    -0.744 OA
ENDBRANCH  73  76
ENDBRANCH  55  69
BRANCH  56  80
ATOM     80  C   UNL A   1      39.248  33.491  37.241  1.00  0.00     0.023 A 
ATOM     81  C   UNL A   1      39.777  34.797  37.289  1.00  0.00     0.012 A 
ATOM     82  C   UNL A   1      38.502  33.014  38.335  1.00  0.00     0.148 A 
ATOM     83  C   UNL A   1      39.598  35.597  38.419  1.00  0.00     0.002 A 
ATOM     84  C   UNL A   1      38.275  33.837  39.431  1.00  0.00     0.091 A 
ATOM     85  F   UNL A   1      38.019  31.764  38.277  1.00  0.00    -0.205 F 
ATOM     86  C   UNL A   1      38.838  35.122  39.485  1.00  0.00     0.022 A 
BRANCH  84  87
ATOM     87  S   UNL A   1      37.199  33.361  40.787  1.00  0.00     0.127 S 
ATOM     88  O   UNL A   1      35.977  32.987  40.084  1.00  0.00    -0.237 OA
ATOM     89  O   UNL A   1      37.938  32.247  41.381  1.00  0.00    -0.237 OA
ATOM     90  O   UNL A   1      37.100  34.539  41.643  1.00  0.00    -0.744 OA
ENDBRANCH  84  87
ENDBRANCH  56  80
BRANCH  68  91
ATOM     91  C   UNL A   1      44.411  29.216  35.315  1.00  0.00     0.023 A 
ATOM     92  C   UNL A   1      45.594  29.918  35.007  1.00  0.00     0.012 A 
ATOM     93  C   UNL A   1      44.460  28.170  36.258  1.00  0.00     0.148 A 
ATOM     94  C   UNL A   1      46.812  29.548  35.581  1.00  0.00     0.002 A 
ATOM     95  C   UNL A   1      45.666  27.843  36.868  1.00  0.00     0.091 A 
ATOM     96  F   UNL A   1      43.331  27.499  36.530  1.00  0.00    -0.205 F 
ATOM     97  C   UNL A   1      46.845  28.519  36.517  1.00  0.00     0.022 A 
BRANCH  95  98
ATOM     98  S   UNL A   1      45.782  26.597  38.158  1.00  0.00     0.127 S 
ATOM     99  O   UNL A   1      44.871  27.130  39.169  1.00  0.00    -0.237 OA
ATOM    100  O   UNL A   1      45.300  25.396  37.474  1.00  0.00    -0.237 OA
ATOM    101  O   UNL A   1      47.187  26.549  38.539  1.00  0.00    -0.744 OA
ENDBRANCH  95  98
ENDBRANCH  68  91
ENDBRANCH  42  43
ENDBRANCH  34  37
ENDBRANCH  32  33
ENDBRANCH   1  32
TORSDOF 16
ENDMDL
