MODEL 1
REMARK VINA RESULT:     -10.3      0.000      0.000
REMARK SMILES O=C(COC[C@@H]1CCCCO1)NCCCNC(=O)c1ccc(-c2c3nc(c(-c4cccc(S(=O)(=O)[O-])c4F)c4ccc([nH]4)c(-c4cccc(S(=O)(=O)[O-])c4F)c4nc(c(-c5cccc(S(=O)(=O)[O-])c5F)c5ccc2[nH]5)C=C4)C=C3)cc1
REMARK SMILES IDX 14 1 13 2 12 3 1 4 2 5 3 7 4 8 5 9 6 10 7 11 11 12 8 13
REMARK SMILES IDX 10 14 9 15 15 16 16 17 17 18 18 20 19 21 20 22 81 23 21 24
REMARK SMILES IDX 80 25 22 26 23 27 24 28 74 29 25 30 79 31 73 32 75 33 26 34
REMARK SMILES IDX 78 35 72 36 71 37 27 39 59 40 39 41 58 42 40 43 43 44 57 45
REMARK SMILES IDX 76 46 41 47 42 48 56 50 77 51 44 52 28 53 29 54 37 55 30 56
REMARK SMILES IDX 32 57 38 58 31 59 33 60 34 61 35 62 36 63 60 64 61 65 69 66
REMARK SMILES IDX 62 67 64 68 70 69 63 70 65 71 66 72 67 73 68 74 45 75 46 76
REMARK SMILES IDX 54 77 47 78 49 79 55 80 48 81 50 82 51 83 52 84 53 85
REMARK H PARENT 12 6 16 19 75 38 43 49
REMARK Flexibility Score: inf
ROOT
ATOM      1  C   UNL A   1      40.999  20.788  27.623  1.00  0.00     0.042 C 
ENDROOT
BRANCH   1   2
ATOM      2  C   UNL A   1      41.945  19.594  27.577  1.00  0.00     0.117 C 
BRANCH   2   3
ATOM      3  N   UNL A   1      43.016  19.778  26.621  1.00  0.00    -0.354 N 
ATOM      4  O   UNL A   1      42.823  17.711  25.629  1.00  0.00    -0.272 OA
ATOM      5  C   UNL A   1      43.389  18.795  25.733  1.00  0.00     0.246 C 
ATOM      6  H   UNL A   1      43.497  20.637  26.606  1.00  0.00     0.163 HD
BRANCH   5   7
ATOM      7  C   UNL A   1      44.569  19.194  24.839  1.00  0.00     0.260 C 
BRANCH   7   8
ATOM      8  O   UNL A   1      44.464  20.394  24.081  1.00  0.00    -0.369 OA
BRANCH   8   9
ATOM      9  C   UNL A   1      45.430  21.403  24.382  1.00  0.00     0.192 C 
BRANCH   9  10
ATOM     10  C   UNL A   1      45.227  22.222  25.680  1.00  0.00     0.144 C 
ATOM     11  C   UNL A   1      43.981  23.101  25.799  1.00  0.00     0.034 C 
ATOM     12  O   UNL A   1      46.405  22.985  26.005  1.00  0.00    -0.376 OA
ATOM     13  C   UNL A   1      44.105  24.422  25.042  1.00  0.00     0.005 C 
ATOM     14  C   UNL A   1      46.583  24.145  25.195  1.00  0.00     0.160 C 
ATOM     15  C   UNL A   1      45.422  25.108  25.376  1.00  0.00     0.029 C 
ENDBRANCH   9  10
ENDBRANCH   8   9
ENDBRANCH   7   8
ENDBRANCH   5   7
ENDBRANCH   2   3
ENDBRANCH   1   2
BRANCH   1  16
ATOM     16  C   UNL A   1      40.722  21.419  26.262  1.00  0.00     0.118 C 
BRANCH  16  17
ATOM     17  N   UNL A   1      39.304  21.646  26.006  1.00  0.00    -0.352 N 
ATOM     18  C   UNL A   1      38.551  22.778  26.214  1.00  0.00     0.251 C 
ATOM     19  H   UNL A   1      38.816  20.878  25.630  1.00  0.00     0.163 HD
ATOM     20  O   UNL A   1      37.340  22.751  26.043  1.00  0.00    -0.269 OA
BRANCH  18  21
ATOM     21  C   UNL A   1      39.213  24.017  26.676  1.00  0.00     0.039 A 
ATOM     22  C   UNL A   1      39.890  24.809  25.744  1.00  0.00     0.014 A 
ATOM     23  C   UNL A   1      39.136  24.408  28.014  1.00  0.00     0.014 A 
ATOM     24  C   UNL A   1      40.416  26.042  26.138  1.00  0.00     0.010 A 
ATOM     25  C   UNL A   1      39.604  25.664  28.390  1.00  0.00     0.010 A 
ATOM     26  C   UNL A   1      40.238  26.497  27.454  1.00  0.00    -0.014 A 
BRANCH  26  27
ATOM     27  C   UNL A   1      40.670  27.852  27.881  1.00  0.00     0.031 A 
ATOM     28  C   UNL A   1      42.133  28.192  27.934  1.00  0.00     0.074 A 
ATOM     29  C   UNL A   1      39.755  28.727  28.345  1.00  0.00     0.049 A 
ATOM     30  N   UNL A   1      42.716  29.256  28.421  1.00  0.00    -0.248 NA
ATOM     31  C   UNL A   1      43.068  27.188  27.397  1.00  0.00     0.031 C 
ATOM     32  C   UNL A   1      38.312  28.487  28.412  1.00  0.00     0.029 A 
ATOM     33  N   UNL A   1      39.907  29.978  28.891  1.00  0.00    -0.354 N 
ATOM     34  C   UNL A   1      44.081  29.032  28.294  1.00  0.00     0.074 A 
ATOM     35  C   UNL A   1      44.242  27.722  27.702  1.00  0.00     0.031 C 
ATOM     36  C   UNL A   1      37.714  29.549  28.975  1.00  0.00     0.029 A 
ATOM     37  C   UNL A   1      38.730  30.530  29.342  1.00  0.00     0.049 A 
ATOM     38  H   UNL A   1      40.776  30.436  28.954  1.00  0.00     0.167 HD
ATOM     39  C   UNL A   1      45.108  29.853  28.619  1.00  0.00     0.034 A 
ATOM     40  C   UNL A   1      38.497  31.687  29.992  1.00  0.00     0.034 A 
ATOM     41  C   UNL A   1      44.942  31.177  29.153  1.00  0.00     0.049 A 
ATOM     42  C   UNL A   1      39.652  32.602  30.295  1.00  0.00     0.074 A 
ATOM     43  C   UNL A   1      45.916  32.119  29.433  1.00  0.00     0.029 A 
ATOM     44  N   UNL A   1      43.724  31.748  29.487  1.00  0.00    -0.354 N 
ATOM     45  N   UNL A   1      40.925  32.436  30.034  1.00  0.00    -0.248 NA
ATOM     46  C   UNL A   1      39.337  33.881  30.950  1.00  0.00     0.031 C 
ATOM     47  C   UNL A   1      45.287  33.258  29.945  1.00  0.00     0.029 A 
ATOM     48  C   UNL A   1      43.920  33.031  29.969  1.00  0.00     0.049 A 
ATOM     49  H   UNL A   1      42.849  31.307  29.396  1.00  0.00     0.167 HD
ATOM     50  C   UNL A   1      41.557  33.601  30.451  1.00  0.00     0.074 A 
ATOM     51  C   UNL A   1      40.526  34.472  30.974  1.00  0.00     0.031 C 
ATOM     52  C   UNL A   1      42.875  33.914  30.417  1.00  0.00     0.034 A 
BRANCH  39  53
ATOM     53  C   UNL A   1      46.506  29.367  28.347  1.00  0.00     0.023 A 
ATOM     54  C   UNL A   1      47.132  29.706  27.131  1.00  0.00     0.012 A 
ATOM     55  C   UNL A   1      47.222  28.632  29.313  1.00  0.00     0.148 A 
ATOM     56  C   UNL A   1      48.438  29.296  26.866  1.00  0.00     0.002 A 
ATOM     57  C   UNL A   1      48.538  28.262  29.058  1.00  0.00     0.091 A 
ATOM     58  F   UNL A   1      46.602  28.299  30.453  1.00  0.00    -0.205 F 
ATOM     59  C   UNL A   1      49.143  28.585  27.832  1.00  0.00     0.022 A 
BRANCH  57  60
ATOM     60  S   UNL A   1      49.552  27.410  30.271  1.00  0.00     0.127 S 
ATOM     61  O   UNL A   1      49.569  28.373  31.370  1.00  0.00    -0.237 OA
ATOM     62  O   UNL A   1      48.772  26.200  30.533  1.00  0.00    -0.237 OA
ATOM     63  O   UNL A   1      50.835  27.173  29.623  1.00  0.00    -0.744 OA
ENDBRANCH  57  60
ENDBRANCH  39  53
BRANCH  40  64
ATOM     64  C   UNL A   1      37.101  32.076  30.337  1.00  0.00     0.023 A 
ATOM     65  C   UNL A   1      36.606  31.790  31.624  1.00  0.00     0.012 A 
ATOM     66  C   UNL A   1      36.274  32.755  29.420  1.00  0.00     0.148 A 
ATOM     67  C   UNL A   1      35.306  32.146  31.984  1.00  0.00     0.002 A 
ATOM     68  C   UNL A   1      34.999  33.155  29.803  1.00  0.00     0.091 A 
ATOM     69  F   UNL A   1      36.758  33.006  28.195  1.00  0.00    -0.205 F 
ATOM     70  C   UNL A   1      34.507  32.838  31.078  1.00  0.00     0.022 A 
BRANCH  68  71
ATOM     71  S   UNL A   1      33.951  34.162  28.746  1.00  0.00     0.127 S 
ATOM     72  O   UNL A   1      34.864  35.231  28.350  1.00  0.00    -0.237 OA
ATOM     73  O   UNL A   1      33.602  33.223  27.678  1.00  0.00    -0.237 OA
ATOM     74  O   UNL A   1      32.826  34.561  29.581  1.00  0.00    -0.744 OA
ENDBRANCH  68  71
ENDBRANCH  40  64
BRANCH  52  75
ATOM     75  C   UNL A   1      43.290  35.276  30.907  1.00  0.00     0.023 A 
ATOM     76  C   UNL A   1      43.677  35.448  32.249  1.00  0.00     0.012 A 
ATOM     77  C   UNL A   1      43.396  36.357  30.009  1.00  0.00     0.148 A 
ATOM     78  C   UNL A   1      44.149  36.681  32.695  1.00  0.00     0.002 A 
ATOM     79  C   UNL A   1      43.909  37.570  30.449  1.00  0.00     0.091 A 
ATOM     80  F   UNL A   1      43.003  36.174  28.739  1.00  0.00    -0.205 F 
ATOM     81  C   UNL A   1      44.278  37.737  31.794  1.00  0.00     0.022 A 
BRANCH  79  82
ATOM     82  S   UNL A   1      44.199  38.953  29.340  1.00  0.00     0.127 S 
ATOM     83  O   UNL A   1      42.862  39.186  28.798  1.00  0.00    -0.237 OA
ATOM     84  O   UNL A   1      44.676  39.991  30.256  1.00  0.00    -0.237 OA
ATOM     85  O   UNL A   1      45.193  38.494  28.379  1.00  0.00    -0.744 OA
ENDBRANCH  79  82
ENDBRANCH  52  75
ENDBRANCH  26  27
ENDBRANCH  18  21
ENDBRANCH  16  17
ENDBRANCH   1  16
TORSDOF 16
ENDMDL
MODEL 2
REMARK VINA RESULT:     -10.2      5.835     10.288
REMARK SMILES O=C(COC[C@@H]1CCCCO1)NCCCNC(=O)c1ccc(-c2c3nc(c(-c4cccc(S(=O)(=O)[O-])c4F)c4ccc([nH]4)c(-c4cccc(S(=O)(=O)[O-])c4F)c4nc(c(-c5cccc(S(=O)(=O)[O-])c5F)c5ccc2[nH]5)C=C4)C=C3)cc1
REMARK SMILES IDX 14 1 13 2 12 3 1 4 2 5 3 7 4 8 5 9 6 10 7 11 11 12 8 13
REMARK SMILES IDX 10 14 9 15 15 16 16 17 17 18 18 20 19 21 20 22 81 23 21 24
REMARK SMILES IDX 80 25 22 26 23 27 24 28 74 29 25 30 79 31 73 32 75 33 26 34
REMARK SMILES IDX 78 35 72 36 71 37 27 39 59 40 39 41 58 42 40 43 43 44 57 45
REMARK SMILES IDX 76 46 41 47 42 48 56 50 77 51 44 52 28 53 29 54 37 55 30 56
REMARK SMILES IDX 32 57 38 58 31 59 33 60 34 61 35 62 36 63 60 64 61 65 69 66
REMARK SMILES IDX 62 67 64 68 70 69 63 70 65 71 66 72 67 73 68 74 45 75 46 76
REMARK SMILES IDX 54 77 47 78 49 79 55 80 48 81 50 82 51 83 52 84 53 85
REMARK H PARENT 12 6 16 19 75 38 43 49
REMARK Flexibility Score: inf
ROOT
ATOM      1  C   UNL A   1      31.766  29.083  27.171  1.00  0.00     0.042 C 
ENDROOT
BRANCH   1   2
ATOM      2  C   UNL A   1      31.976  27.627  26.776  1.00  0.00     0.117 C 
BRANCH   2   3
ATOM      3  N   UNL A   1      31.295  27.288  25.543  1.00  0.00    -0.354 N 
ATOM      4  O   UNL A   1      29.943  25.659  26.445  1.00  0.00    -0.272 OA
ATOM      5  C   UNL A   1      30.342  26.298  25.476  1.00  0.00     0.246 C 
ATOM      6  H   UNL A   1      31.524  27.783  24.723  1.00  0.00     0.163 HD
BRANCH   5   7
ATOM      7  C   UNL A   1      29.780  26.086  24.065  1.00  0.00     0.260 C 
BRANCH   7   8
ATOM      8  O   UNL A   1      30.041  27.079  23.080  1.00  0.00    -0.369 OA
BRANCH   8   9
ATOM      9  C   UNL A   1      29.164  28.207  23.092  1.00  0.00     0.192 C 
BRANCH   9  10
ATOM     10  C   UNL A   1      29.784  29.598  22.815  1.00  0.00     0.144 C 
ATOM     11  C   UNL A   1      29.489  30.735  23.795  1.00  0.00     0.034 C 
ATOM     12  O   UNL A   1      29.522  30.027  21.464  1.00  0.00    -0.376 OA
ATOM     13  C   UNL A   1      28.112  31.362  23.589  1.00  0.00     0.005 C 
ATOM     14  C   UNL A   1      28.187  30.481  21.252  1.00  0.00     0.160 C 
ATOM     15  C   UNL A   1      27.889  31.692  22.120  1.00  0.00     0.029 C 
ENDBRANCH   9  10
ENDBRANCH   8   9
ENDBRANCH   7   8
ENDBRANCH   5   7
ENDBRANCH   2   3
ENDBRANCH   1   2
BRANCH   1  16
ATOM     16  C   UNL A   1      32.471  30.087  26.264  1.00  0.00     0.118 C 
BRANCH  16  17
ATOM     17  N   UNL A   1      32.191  31.476  26.607  1.00  0.00    -0.352 N 
ATOM     18  C   UNL A   1      32.940  32.358  27.350  1.00  0.00     0.251 C 
ATOM     19  H   UNL A   1      31.343  31.834  26.255  1.00  0.00     0.163 HD
ATOM     20  O   UNL A   1      32.491  33.461  27.631  1.00  0.00    -0.269 OA
BRANCH  18  21
ATOM     21  C   UNL A   1      34.277  31.950  27.832  1.00  0.00     0.039 A 
ATOM     22  C   UNL A   1      35.284  32.914  27.927  1.00  0.00     0.014 A 
ATOM     23  C   UNL A   1      34.522  30.630  28.218  1.00  0.00     0.014 A 
ATOM     24  C   UNL A   1      36.515  32.573  28.495  1.00  0.00     0.010 A 
ATOM     25  C   UNL A   1      35.724  30.309  28.841  1.00  0.00     0.010 A 
ATOM     26  C   UNL A   1      36.728  31.279  28.995  1.00  0.00    -0.014 A 
BRANCH  26  27
ATOM     27  C   UNL A   1      37.972  30.912  29.717  1.00  0.00     0.031 A 
ATOM     28  C   UNL A   1      38.927  29.921  29.112  1.00  0.00     0.074 A 
ATOM     29  C   UNL A   1      38.173  31.367  30.970  1.00  0.00     0.049 A 
ATOM     30  N   UNL A   1      39.979  29.357  29.645  1.00  0.00    -0.248 NA
ATOM     31  C   UNL A   1      38.643  29.482  27.735  1.00  0.00     0.031 C 
ATOM     32  C   UNL A   1      37.283  32.277  31.694  1.00  0.00     0.029 A 
ATOM     33  N   UNL A   1      39.169  31.091  31.875  1.00  0.00    -0.354 N 
ATOM     34  C   UNL A   1      40.455  28.465  28.693  1.00  0.00     0.074 A 
ATOM     35  C   UNL A   1      39.565  28.547  27.554  1.00  0.00     0.031 C 
ATOM     36  C   UNL A   1      37.765  32.475  32.930  1.00  0.00     0.029 A 
ATOM     37  C   UNL A   1      38.978  31.682  33.103  1.00  0.00     0.049 A 
ATOM     38  H   UNL A   1      39.946  30.524  31.664  1.00  0.00     0.167 HD
ATOM     39  C   UNL A   1      41.547  27.667  28.751  1.00  0.00     0.034 A 
ATOM     40  C   UNL A   1      39.689  31.583  34.243  1.00  0.00     0.034 A 
ATOM     41  C   UNL A   1      42.460  27.632  29.860  1.00  0.00     0.049 A 
ATOM     42  C   UNL A   1      40.927  30.728  34.262  1.00  0.00     0.074 A 
ATOM     43  C   UNL A   1      43.642  26.922  29.978  1.00  0.00     0.029 A 
ATOM     44  N   UNL A   1      42.296  28.335  31.043  1.00  0.00    -0.354 N 
ATOM     45  N   UNL A   1      41.443  30.003  33.300  1.00  0.00    -0.248 NA
ATOM     46  C   UNL A   1      41.702  30.703  35.512  1.00  0.00     0.031 C 
ATOM     47  C   UNL A   1      44.189  27.191  31.236  1.00  0.00     0.029 A 
ATOM     48  C   UNL A   1      43.355  28.080  31.896  1.00  0.00     0.049 A 
ATOM     49  H   UNL A   1      41.538  28.929  31.246  1.00  0.00     0.167 HD
ATOM     50  C   UNL A   1      42.621  29.472  33.811  1.00  0.00     0.074 A 
ATOM     51  C   UNL A   1      42.750  29.965  35.166  1.00  0.00     0.031 C 
ATOM     52  C   UNL A   1      43.507  28.638  33.214  1.00  0.00     0.034 A 
BRANCH  39  53
ATOM     53  C   UNL A   1      41.851  26.809  27.552  1.00  0.00     0.023 A 
ATOM     54  C   UNL A   1      42.466  27.389  26.425  1.00  0.00     0.012 A 
ATOM     55  C   UNL A   1      41.590  25.424  27.563  1.00  0.00     0.148 A 
ATOM     56  C   UNL A   1      42.789  26.611  25.313  1.00  0.00     0.002 A 
ATOM     57  C   UNL A   1      41.952  24.649  26.467  1.00  0.00     0.091 A 
ATOM     58  F   UNL A   1      40.983  24.895  28.635  1.00  0.00    -0.205 F 
ATOM     59  C   UNL A   1      42.541  25.242  25.338  1.00  0.00     0.022 A 
BRANCH  57  60
ATOM     60  S   UNL A   1      41.743  22.865  26.437  1.00  0.00     0.127 S 
ATOM     61  O   UNL A   1      42.428  22.467  27.665  1.00  0.00    -0.237 OA
ATOM     62  O   UNL A   1      40.287  22.722  26.478  1.00  0.00    -0.237 OA
ATOM     63  O   UNL A   1      42.360  22.411  25.198  1.00  0.00    -0.744 OA
ENDBRANCH  57  60
ENDBRANCH  39  53
BRANCH  40  64
ATOM     64  C   UNL A   1      39.285  32.373  35.440  1.00  0.00     0.023 A 
ATOM     65  C   UNL A   1      38.429  31.785  36.393  1.00  0.00     0.012 A 
ATOM     66  C   UNL A   1      39.765  33.678  35.662  1.00  0.00     0.148 A 
ATOM     67  C   UNL A   1      38.036  32.492  37.530  1.00  0.00     0.002 A 
ATOM     68  C   UNL A   1      39.412  34.357  36.824  1.00  0.00     0.091 A 
ATOM     69  F   UNL A   1      40.567  34.225  34.738  1.00  0.00    -0.205 F 
ATOM     70  C   UNL A   1      38.536  33.772  37.751  1.00  0.00     0.022 A 
BRANCH  68  71
ATOM     71  S   UNL A   1      40.112  35.956  37.251  1.00  0.00     0.127 S 
ATOM     72  O   UNL A   1      39.736  36.766  36.095  1.00  0.00    -0.237 OA
ATOM     73  O   UNL A   1      39.400  36.279  38.488  1.00  0.00    -0.237 OA
ATOM     74  O   UNL A   1      41.539  35.721  37.427  1.00  0.00    -0.744 OA
ENDBRANCH  68  71
ENDBRANCH  40  64
BRANCH  52  75
ATOM     75  C   UNL A   1      44.733  28.239  33.991  1.00  0.00     0.023 A 
ATOM     76  C   UNL A   1      45.880  29.053  33.956  1.00  0.00     0.012 A 
ATOM     77  C   UNL A   1      44.706  27.114  34.840  1.00  0.00     0.148 A 
ATOM     78  C   UNL A   1      46.991  28.744  34.740  1.00  0.00     0.002 A 
ATOM     79  C   UNL A   1      45.798  26.837  35.652  1.00  0.00     0.091 A 
ATOM     80  F   UNL A   1      43.609  26.342  34.843  1.00  0.00    -0.205 F 
ATOM     81  C   UNL A   1      46.945  27.646  35.598  1.00  0.00     0.022 A 
BRANCH  79  82
ATOM     82  S   UNL A   1      45.791  25.502  36.854  1.00  0.00     0.127 S 
ATOM     83  O   UNL A   1      47.157  25.561  37.372  1.00  0.00    -0.237 OA
ATOM     84  O   UNL A   1      44.761  25.939  37.798  1.00  0.00    -0.237 OA
ATOM     85  O   UNL A   1      45.455  24.295  36.111  1.00  0.00    -0.744 OA
ENDBRANCH  79  82
ENDBRANCH  52  75
ENDBRANCH  26  27
ENDBRANCH  18  21
ENDBRANCH  16  17
ENDBRANCH   1  16
TORSDOF 16
ENDMDL
MODEL 3
REMARK VINA RESULT:      -9.9      5.976     11.883
REMARK SMILES O=C(COC[C@@H]1CCCCO1)NCCCNC(=O)c1ccc(-c2c3nc(c(-c4cccc(S(=O)(=O)[O-])c4F)c4ccc([nH]4)c(-c4cccc(S(=O)(=O)[O-])c4F)c4nc(c(-c5cccc(S(=O)(=O)[O-])c5F)c5ccc2[nH]5)C=C4)C=C3)cc1
REMARK SMILES IDX 14 1 13 2 12 3 1 4 2 5 3 7 4 8 5 9 6 10 7 11 11 12 8 13
REMARK SMILES IDX 10 14 9 15 15 16 16 17 17 18 18 20 19 21 20 22 81 23 21 24
REMARK SMILES IDX 80 25 22 26 23 27 24 28 74 29 25 30 79 31 73 32 75 33 26 34
REMARK SMILES IDX 78 35 72 36 71 37 27 39 59 40 39 41 58 42 40 43 43 44 57 45
REMARK SMILES IDX 76 46 41 47 42 48 56 50 77 51 44 52 28 53 29 54 37 55 30 56
REMARK SMILES IDX 32 57 38 58 31 59 33 60 34 61 35 62 36 63 60 64 61 65 69 66
REMARK SMILES IDX 62 67 64 68 70 69 63 70 65 71 66 72 67 73 68 74 45 75 46 76
REMARK SMILES IDX 54 77 47 78 49 79 55 80 48 81 50 82 51 83 52 84 53 85
REMARK H PARENT 12 6 16 19 75 38 43 49
REMARK Flexibility Score: inf
ROOT
ATOM      1  C   UNL A   1      31.780  29.327  27.153  1.00  0.00     0.042 C 
ENDROOT
BRANCH   1   2
ATOM      2  C   UNL A   1      31.587  27.914  26.616  1.00  0.00     0.117 C 
BRANCH   2   3
ATOM      3  N   UNL A   1      30.827  27.894  25.384  1.00  0.00    -0.354 N 
ATOM      4  O   UNL A   1      30.884  25.612  25.094  1.00  0.00    -0.272 OA
ATOM      5  C   UNL A   1      30.560  26.729  24.702  1.00  0.00     0.246 C 
ATOM      6  H   UNL A   1      30.490  28.744  25.020  1.00  0.00     0.163 HD
BRANCH   5   7
ATOM      7  C   UNL A   1      29.772  26.947  23.404  1.00  0.00     0.260 C 
BRANCH   7   8
ATOM      8  O   UNL A   1      28.386  27.253  23.502  1.00  0.00    -0.369 OA
BRANCH   8   9
ATOM      9  C   UNL A   1      27.996  28.528  22.990  1.00  0.00     0.192 C 
BRANCH   9  10
ATOM     10  C   UNL A   1      29.119  29.536  22.646  1.00  0.00     0.144 C 
ATOM     11  C   UNL A   1      29.280  30.775  23.528  1.00  0.00     0.034 C 
ATOM     12  O   UNL A   1      29.071  29.917  21.258  1.00  0.00    -0.376 OA
ATOM     13  C   UNL A   1      28.266  31.872  23.211  1.00  0.00     0.005 C 
ATOM     14  C   UNL A   1      28.028  30.839  20.948  1.00  0.00     0.160 C 
ATOM     15  C   UNL A   1      28.217  32.139  21.713  1.00  0.00     0.029 C 
ENDBRANCH   9  10
ENDBRANCH   8   9
ENDBRANCH   7   8
ENDBRANCH   5   7
ENDBRANCH   2   3
ENDBRANCH   1   2
BRANCH   1  16
ATOM     16  C   UNL A   1      32.482  30.274  26.186  1.00  0.00     0.118 C 
BRANCH  16  17
ATOM     17  N   UNL A   1      32.400  31.675  26.583  1.00  0.00    -0.352 N 
ATOM     18  C   UNL A   1      33.234  32.398  27.405  1.00  0.00     0.251 C 
ATOM     19  H   UNL A   1      31.640  32.175  26.208  1.00  0.00     0.163 HD
ATOM     20  O   UNL A   1      32.945  33.545  27.718  1.00  0.00    -0.269 OA
BRANCH  18  21
ATOM     21  C   UNL A   1      34.462  31.766  27.931  1.00  0.00     0.039 A 
ATOM     22  C   UNL A   1      35.615  32.543  28.070  1.00  0.00     0.014 A 
ATOM     23  C   UNL A   1      34.462  30.424  28.318  1.00  0.00     0.014 A 
ATOM     24  C   UNL A   1      36.748  31.995  28.679  1.00  0.00     0.010 A 
ATOM     25  C   UNL A   1      35.568  29.900  28.981  1.00  0.00     0.010 A 
ATOM     26  C   UNL A   1      36.717  30.683  29.177  1.00  0.00    -0.014 A 
BRANCH  26  27
ATOM     27  C   UNL A   1      37.852  30.107  29.942  1.00  0.00     0.031 A 
ATOM     28  C   UNL A   1      38.133  30.580  31.341  1.00  0.00     0.074 A 
ATOM     29  C   UNL A   1      38.705  29.261  29.330  1.00  0.00     0.049 A 
ATOM     30  N   UNL A   1      39.156  30.318  32.111  1.00  0.00    -0.248 NA
ATOM     31  C   UNL A   1      37.147  31.494  31.942  1.00  0.00     0.031 C 
ATOM     32  C   UNL A   1      38.581  28.784  27.951  1.00  0.00     0.029 A 
ATOM     33  N   UNL A   1      39.871  28.687  29.774  1.00  0.00    -0.354 N 
ATOM     34  C   UNL A   1      38.964  31.068  33.264  1.00  0.00     0.074 A 
ATOM     35  C   UNL A   1      37.735  31.812  33.087  1.00  0.00     0.031 C 
ATOM     36  C   UNL A   1      39.631  28.000  27.660  1.00  0.00     0.029 A 
ATOM     37  C   UNL A   1      40.521  27.946  28.815  1.00  0.00     0.049 A 
ATOM     38  H   UNL A   1      40.209  28.796  30.692  1.00  0.00     0.167 HD
ATOM     39  C   UNL A   1      39.729  31.115  34.381  1.00  0.00     0.034 A 
ATOM     40  C   UNL A   1      41.708  27.309  28.855  1.00  0.00     0.034 A 
ATOM     41  C   UNL A   1      40.917  30.331  34.576  1.00  0.00     0.049 A 
ATOM     42  C   UNL A   1      42.512  27.336  30.125  1.00  0.00     0.074 A 
ATOM     43  C   UNL A   1      41.713  30.242  35.705  1.00  0.00     0.029 A 
ATOM     44  N   UNL A   1      41.482  29.499  33.622  1.00  0.00    -0.354 N 
ATOM     45  N   UNL A   1      42.240  27.935  31.259  1.00  0.00    -0.248 NA
ATOM     46  C   UNL A   1      43.770  26.574  30.138  1.00  0.00     0.031 C 
ATOM     47  C   UNL A   1      42.764  29.363  35.430  1.00  0.00     0.029 A 
ATOM     48  C   UNL A   1      42.614  28.891  34.135  1.00  0.00     0.049 A 
ATOM     49  H   UNL A   1      41.130  29.361  32.714  1.00  0.00     0.167 HD
ATOM     50  C   UNL A   1      43.265  27.588  32.130  1.00  0.00     0.074 A 
ATOM     51  C   UNL A   1      44.162  26.718  31.398  1.00  0.00     0.031 C 
ATOM     52  C   UNL A   1      43.454  27.969  33.417  1.00  0.00     0.034 A 
BRANCH  39  53
ATOM     53  C   UNL A   1      39.269  32.001  35.507  1.00  0.00     0.023 A 
ATOM     54  C   UNL A   1      38.399  31.481  36.486  1.00  0.00     0.012 A 
ATOM     55  C   UNL A   1      39.744  33.322  35.634  1.00  0.00     0.148 A 
ATOM     56  C   UNL A   1      37.983  32.270  37.557  1.00  0.00     0.002 A 
ATOM     57  C   UNL A   1      39.356  34.088  36.728  1.00  0.00     0.091 A 
ATOM     58  F   UNL A   1      40.552  33.807  34.682  1.00  0.00    -0.205 F 
ATOM     59  C   UNL A   1      38.468  33.567  37.684  1.00  0.00     0.022 A 
BRANCH  57  60
ATOM     60  S   UNL A   1      39.989  35.744  37.018  1.00  0.00     0.127 S 
ATOM     61  O   UNL A   1      41.416  35.487  37.202  1.00  0.00    -0.237 OA
ATOM     62  O   UNL A   1      39.650  36.429  35.770  1.00  0.00    -0.237 OA
ATOM     63  O   UNL A   1      39.283  36.242  38.191  1.00  0.00    -0.744 OA
ENDBRANCH  57  60
ENDBRANCH  39  53
BRANCH  40  64
ATOM     64  C   UNL A   1      42.172  26.529  27.672  1.00  0.00     0.023 A 
ATOM     65  C   UNL A   1      42.944  27.174  26.685  1.00  0.00     0.012 A 
ATOM     66  C   UNL A   1      41.889  25.156  27.533  1.00  0.00     0.148 A 
ATOM     67  C   UNL A   1      43.402  26.474  25.569  1.00  0.00     0.002 A 
ATOM     68  C   UNL A   1      42.393  24.453  26.445  1.00  0.00     0.091 A 
ATOM     69  F   UNL A   1      41.141  24.564  28.474  1.00  0.00    -0.205 F 
ATOM     70  C   UNL A   1      43.136  25.113  25.453  1.00  0.00     0.022 A 
BRANCH  68  71
ATOM     71  S   UNL A   1      42.210  22.672  26.285  1.00  0.00     0.127 S 
ATOM     72  O   UNL A   1      42.918  22.191  27.467  1.00  0.00    -0.237 OA
ATOM     73  O   UNL A   1      40.755  22.511  26.329  1.00  0.00    -0.237 OA
ATOM     74  O   UNL A   1      42.809  22.334  25.000  1.00  0.00    -0.744 OA
ENDBRANCH  68  71
ENDBRANCH  40  64
BRANCH  52  75
ATOM     75  C   UNL A   1      44.645  27.411  34.150  1.00  0.00     0.023 A 
ATOM     76  C   UNL A   1      45.857  28.126  34.162  1.00  0.00     0.012 A 
ATOM     77  C   UNL A   1      44.527  26.233  34.915  1.00  0.00     0.148 A 
ATOM     78  C   UNL A   1      46.941  27.668  34.910  1.00  0.00     0.002 A 
ATOM     79  C   UNL A   1      45.595  25.806  35.693  1.00  0.00     0.091 A 
ATOM     80  F   UNL A   1      43.368  25.558  34.873  1.00  0.00    -0.205 F 
ATOM     81  C   UNL A   1      46.806  26.518  35.685  1.00  0.00     0.022 A 
BRANCH  79  82
ATOM     82  S   UNL A   1      45.480  24.391  36.794  1.00  0.00     0.127 S 
ATOM     83  O   UNL A   1      44.904  23.375  35.915  1.00  0.00    -0.237 OA
ATOM     84  O   UNL A   1      46.881  24.164  37.154  1.00  0.00    -0.237 OA
ATOM     85  O   UNL A   1      44.634  24.813  37.902  1.00  0.00    -0.744 OA
ENDBRANCH  79  82
ENDBRANCH  52  75
ENDBRANCH  26  27
ENDBRANCH  18  21
ENDBRANCH  16  17
ENDBRANCH   1  16
TORSDOF 16
ENDMDL
