MODEL 1
REMARK VINA RESULT:     -13.7      0.000      0.000
REMARK SMILES O=C(NCCCNC(=O)[C@@H]1CCCC[C@H]1C(=O)Nc1sc2c(c1C(=O)NC1CCCC1)CCC2)c1ccc(-c2c3nc(c(-c4cccc(S(=O)(=O)[O-])c4F)c4ccc([nH]4)c(-c4cccc(S(=O)(=O)[O-])c4F)c4nc(c(-c5cccc(S(=O)(=O)[O-])c5F)c5ccc2[nH]5)C=C4)C=C3)cc1
REMARK SMILES IDX 5 1 4 2 3 3 1 4 2 5 35 7 36 8 97 9 37 10 96 11 38 12 39 13
REMARK SMILES IDX 40 14 90 15 41 16 95 17 89 18 91 19 42 20 94 21 88 22 87 23
REMARK SMILES IDX 43 25 75 26 55 27 74 28 56 29 59 30 73 31 92 32 57 33 58 34
REMARK SMILES IDX 72 36 93 37 60 38 44 39 45 40 53 41 46 42 48 43 54 44 47 45
REMARK SMILES IDX 49 46 50 47 51 48 52 49 76 50 77 51 85 52 78 53 80 54 86 55
REMARK SMILES IDX 79 56 81 57 82 58 83 59 84 60 61 61 62 62 70 63 63 64 65 65
REMARK SMILES IDX 71 66 64 67 66 68 67 69 68 70 69 71 6 72 7 73 8 74 9 76
REMARK SMILES IDX 10 77 11 78 15 79 12 80 14 81 13 82 16 83 17 84 18 85 19 87
REMARK SMILES IDX 20 88 23 89 21 90 22 91 34 92 32 93 33 94 24 95 25 96 26 97
REMARK SMILES IDX 27 99 28 100 31 101 29 102 30 103
REMARK H PARENT 3 6 91 24 59 35 7 75 18 86 26 98
REMARK Flexibility Score: inf
ROOT
ATOM      1  C   UNL A   1      32.574  30.440  26.197  1.00  0.00     0.042 C 
ENDROOT
BRANCH   1   2
ATOM      2  C   UNL A   1      33.559  30.366  27.367  1.00  0.00     0.118 C 
BRANCH   2   3
ATOM      3  N   UNL A   1      34.232  31.631  27.612  1.00  0.00    -0.352 N 
ATOM      4  O   UNL A   1      35.618  33.276  28.020  1.00  0.00    -0.269 OA
ATOM      5  C   UNL A   1      35.491  32.049  27.948  1.00  0.00     0.251 C 
ATOM      6  H   UNL A   1      33.615  32.391  27.512  1.00  0.00     0.163 HD
BRANCH   5   7
ATOM      7  C   UNL A   1      36.679  31.194  28.236  1.00  0.00     0.039 A 
ATOM      8  C   UNL A   1      36.868  29.871  27.833  1.00  0.00     0.014 A 
ATOM      9  C   UNL A   1      37.700  31.807  28.995  1.00  0.00     0.014 A 
ATOM     10  C   UNL A   1      38.040  29.184  28.182  1.00  0.00     0.010 A 
ATOM     11  C   UNL A   1      38.864  31.125  29.349  1.00  0.00     0.010 A 
ATOM     12  C   UNL A   1      39.032  29.802  28.952  1.00  0.00    -0.014 A 
BRANCH  12  13
ATOM     13  C   UNL A   1      40.284  29.083  29.217  1.00  0.00     0.031 A 
ATOM     14  C   UNL A   1      40.543  28.725  30.646  1.00  0.00     0.074 A 
ATOM     15  C   UNL A   1      41.084  28.580  28.252  1.00  0.00     0.049 A 
ATOM     16  N   UNL A   1      41.555  29.048  31.388  1.00  0.00    -0.248 NA
ATOM     17  C   UNL A   1      39.508  27.957  31.352  1.00  0.00     0.031 C 
ATOM     18  C   UNL A   1      40.811  28.514  26.814  1.00  0.00     0.029 A 
ATOM     19  N   UNL A   1      42.255  27.882  28.378  1.00  0.00    -0.354 N 
ATOM     20  C   UNL A   1      41.379  28.364  32.596  1.00  0.00     0.074 A 
ATOM     21  C   UNL A   1      40.046  27.824  32.564  1.00  0.00     0.031 C 
ATOM     22  C   UNL A   1      41.646  27.617  26.245  1.00  0.00     0.029 A 
ATOM     23  C   UNL A   1      42.591  27.151  27.244  1.00  0.00     0.049 A 
ATOM     24  H   UNL A   1      42.806  27.898  29.194  1.00  0.00     0.167 HD
ATOM     25  C   UNL A   1      42.405  28.129  33.462  1.00  0.00     0.034 A 
ATOM     26  C   UNL A   1      43.525  26.173  27.151  1.00  0.00     0.034 A 
ATOM     27  C   UNL A   1      43.547  28.955  33.186  1.00  0.00     0.049 A 
ATOM     28  C   UNL A   1      44.453  26.316  28.293  1.00  0.00     0.074 A 
ATOM     29  C   UNL A   1      43.804  30.309  33.147  1.00  0.00     0.029 A 
ATOM     30  N   UNL A   1      44.625  28.351  32.590  1.00  0.00    -0.354 N 
ATOM     31  N   UNL A   1      45.284  27.309  28.440  1.00  0.00    -0.248 NA
ATOM     32  C   UNL A   1      44.222  25.508  29.479  1.00  0.00     0.031 C 
ATOM     33  C   UNL A   1      44.777  30.469  32.119  1.00  0.00     0.029 A 
ATOM     34  C   UNL A   1      45.069  29.199  31.615  1.00  0.00     0.049 A 
ATOM     35  H   UNL A   1      45.006  27.473  32.820  1.00  0.00     0.167 HD
ATOM     36  C   UNL A   1      45.337  27.514  29.812  1.00  0.00     0.074 A 
ATOM     37  C   UNL A   1      44.776  26.301  30.398  1.00  0.00     0.031 C 
ATOM     38  C   UNL A   1      45.559  28.758  30.328  1.00  0.00     0.034 A 
BRANCH  25  39
ATOM     39  C   UNL A   1      42.529  26.930  34.381  1.00  0.00     0.023 A 
ATOM     40  C   UNL A   1      42.160  27.107  35.737  1.00  0.00     0.012 A 
ATOM     41  C   UNL A   1      43.243  25.754  34.065  1.00  0.00     0.148 A 
ATOM     42  C   UNL A   1      42.537  26.197  36.732  1.00  0.00     0.002 A 
ATOM     43  C   UNL A   1      43.548  24.813  35.045  1.00  0.00     0.091 A 
ATOM     44  F   UNL A   1      43.756  25.592  32.841  1.00  0.00    -0.205 F 
ATOM     45  C   UNL A   1      43.228  25.045  36.384  1.00  0.00     0.022 A 
BRANCH  43  46
ATOM     46  S   UNL A   1      44.388  23.278  34.637  1.00  0.00     0.127 S 
ATOM     47  O   UNL A   1      43.396  22.617  33.795  1.00  0.00    -0.237 OA
ATOM     48  O   UNL A   1      45.577  23.761  33.933  1.00  0.00    -0.237 OA
ATOM     49  O   UNL A   1      44.674  22.650  35.921  1.00  0.00    -0.744 OA
ENDBRANCH  43  46
ENDBRANCH  25  39
BRANCH  26  50
ATOM     50  C   UNL A   1      43.551  24.977  26.278  1.00  0.00     0.023 A 
ATOM     51  C   UNL A   1      44.570  24.828  25.316  1.00  0.00     0.012 A 
ATOM     52  C   UNL A   1      42.738  23.857  26.565  1.00  0.00     0.148 A 
ATOM     53  C   UNL A   1      44.787  23.599  24.679  1.00  0.00     0.002 A 
ATOM     54  C   UNL A   1      42.950  22.643  25.923  1.00  0.00     0.091 A 
ATOM     55  F   UNL A   1      41.820  23.962  27.535  1.00  0.00    -0.205 F 
ATOM     56  C   UNL A   1      43.982  22.506  24.985  1.00  0.00     0.022 A 
BRANCH  54  57
ATOM     57  S   UNL A   1      41.958  21.186  26.280  1.00  0.00     0.127 S 
ATOM     58  O   UNL A   1      42.266  20.948  27.690  1.00  0.00    -0.237 OA
ATOM     59  O   UNL A   1      40.606  21.671  26.022  1.00  0.00    -0.237 OA
ATOM     60  O   UNL A   1      42.443  20.147  25.380  1.00  0.00    -0.744 OA
ENDBRANCH  54  57
ENDBRANCH  26  50
BRANCH  38  61
ATOM     61  C   UNL A   1      46.044  29.845  29.405  1.00  0.00     0.023 A 
ATOM     62  C   UNL A   1      47.416  30.037  29.139  1.00  0.00     0.012 A 
ATOM     63  C   UNL A   1      45.096  30.538  28.632  1.00  0.00     0.148 A 
ATOM     64  C   UNL A   1      47.833  30.916  28.137  1.00  0.00     0.002 A 
ATOM     65  C   UNL A   1      45.515  31.369  27.601  1.00  0.00     0.091 A 
ATOM     66  F   UNL A   1      43.795  30.337  28.892  1.00  0.00    -0.205 F 
ATOM     67  C   UNL A   1      46.883  31.569  27.358  1.00  0.00     0.022 A 
BRANCH  65  68
ATOM     68  S   UNL A   1      44.350  32.118  26.461  1.00  0.00     0.127 S 
ATOM     69  O   UNL A   1      45.223  32.554  25.373  1.00  0.00    -0.237 OA
ATOM     70  O   UNL A   1      43.472  30.993  26.129  1.00  0.00    -0.237 OA
ATOM     71  O   UNL A   1      43.691  33.186  27.202  1.00  0.00    -0.744 OA
ENDBRANCH  65  68
ENDBRANCH  38  61
ENDBRANCH  12  13
ENDBRANCH   5   7
ENDBRANCH   2   3
ENDBRANCH   1   2
BRANCH   1  72
ATOM     72  C   UNL A   1      32.454  29.130  25.403  1.00  0.00     0.117 C 
BRANCH  72  73
ATOM     73  N   UNL A   1      33.479  28.941  24.386  1.00  0.00    -0.356 N 
ATOM     74  C   UNL A   1      33.387  28.515  23.086  1.00  0.00     0.223 C 
ATOM     75  H   UNL A   1      34.392  29.156  24.682  1.00  0.00     0.163 HD
ATOM     76  O   UNL A   1      34.392  28.649  22.383  1.00  0.00    -0.275 OA
BRANCH  74  77
ATOM     77  C   UNL A   1      32.137  27.777  22.573  1.00  0.00     0.091 C 
ATOM     78  C   UNL A   1      30.920  28.550  23.103  1.00  0.00     0.014 C 
ATOM     79  C   UNL A   1      32.133  26.281  22.973  1.00  0.00     0.091 C 
ATOM     80  C   UNL A   1      29.618  27.773  23.001  1.00  0.00     0.001 C 
ATOM     81  C   UNL A   1      30.772  25.591  23.203  1.00  0.00     0.014 C 
ATOM     82  C   UNL A   1      29.704  26.489  23.798  1.00  0.00     0.001 C 
BRANCH  79  83
ATOM     83  C   UNL A   1      33.023  25.432  22.055  1.00  0.00     0.228 C 
ATOM     84  O   UNL A   1      33.267  25.856  20.916  1.00  0.00    -0.274 OA
ATOM     85  N   UNL A   1      33.681  24.291  22.414  1.00  0.00    -0.317 N 
ATOM     86  H   UNL A   1      34.249  23.918  21.702  1.00  0.00     0.170 HD
BRANCH  85  87
ATOM     87  C   UNL A   1      33.703  23.561  23.583  1.00  0.00     0.108 A 
ATOM     88  S   UNL A   1      35.037  24.030  24.563  1.00  0.00    -0.122 S 
ATOM     89  C   UNL A   1      33.013  22.447  24.089  1.00  0.00     0.078 A 
ATOM     90  C   UNL A   1      34.530  22.996  25.763  1.00  0.00     0.011 A 
ATOM     91  C   UNL A   1      33.438  22.230  25.440  1.00  0.00    -0.019 A 
ATOM     92  C   UNL A   1      35.144  22.681  27.075  1.00  0.00     0.047 C 
ATOM     93  C   UNL A   1      33.172  21.274  26.551  1.00  0.00     0.038 C 
ATOM     94  C   UNL A   1      34.015  21.846  27.724  1.00  0.00     0.010 C 
BRANCH  89  95
ATOM     95  C   UNL A   1      32.200  21.617  23.207  1.00  0.00     0.254 C 
ATOM     96  O   UNL A   1      31.425  22.148  22.411  1.00  0.00    -0.269 OA
ATOM     97  N   UNL A   1      32.150  20.247  23.256  1.00  0.00    -0.349 N 
ATOM     98  H   UNL A   1      31.248  19.883  23.107  1.00  0.00     0.164 HD
BRANCH  97  99
ATOM     99  C   UNL A   1      33.148  19.233  23.482  1.00  0.00     0.082 C 
ATOM    100  C   UNL A   1      33.140  18.561  24.849  1.00  0.00     0.025 C 
ATOM    101  C   UNL A   1      32.905  18.021  22.577  1.00  0.00     0.025 C 
ATOM    102  C   UNL A   1      33.985  17.305  24.627  1.00  0.00     0.002 C 
ATOM    103  C   UNL A   1      33.849  16.970  23.139  1.00  0.00     0.002 C 
ENDBRANCH  97  99
ENDBRANCH  89  95
ENDBRANCH  85  87
ENDBRANCH  79  83
ENDBRANCH  74  77
ENDBRANCH  72  73
ENDBRANCH   1  72
TORSDOF 17
ENDMDL
MODEL 2
REMARK VINA RESULT:     -13.6      1.752      2.210
REMARK SMILES O=C(NCCCNC(=O)[C@@H]1CCCC[C@H]1C(=O)Nc1sc2c(c1C(=O)NC1CCCC1)CCC2)c1ccc(-c2c3nc(c(-c4cccc(S(=O)(=O)[O-])c4F)c4ccc([nH]4)c(-c4cccc(S(=O)(=O)[O-])c4F)c4nc(c(-c5cccc(S(=O)(=O)[O-])c5F)c5ccc2[nH]5)C=C4)C=C3)cc1
REMARK SMILES IDX 5 1 4 2 3 3 1 4 2 5 35 7 36 8 97 9 37 10 96 11 38 12 39 13
REMARK SMILES IDX 40 14 90 15 41 16 95 17 89 18 91 19 42 20 94 21 88 22 87 23
REMARK SMILES IDX 43 25 75 26 55 27 74 28 56 29 59 30 73 31 92 32 57 33 58 34
REMARK SMILES IDX 72 36 93 37 60 38 44 39 45 40 53 41 46 42 48 43 54 44 47 45
REMARK SMILES IDX 49 46 50 47 51 48 52 49 76 50 77 51 85 52 78 53 80 54 86 55
REMARK SMILES IDX 79 56 81 57 82 58 83 59 84 60 61 61 62 62 70 63 63 64 65 65
REMARK SMILES IDX 71 66 64 67 66 68 67 69 68 70 69 71 6 72 7 73 8 74 9 76
REMARK SMILES IDX 10 77 11 78 15 79 12 80 14 81 13 82 16 83 17 84 18 85 19 87
REMARK SMILES IDX 20 88 23 89 21 90 22 91 34 92 32 93 33 94 24 95 25 96 26 97
REMARK SMILES IDX 27 99 28 100 31 101 29 102 30 103
REMARK H PARENT 3 6 91 24 59 35 7 75 18 86 26 98
REMARK Flexibility Score: inf
ROOT
ATOM      1  C   UNL A   1      35.177  29.628  27.512  1.00  0.00     0.042 C 
ENDROOT
BRANCH   1   2
ATOM      2  C   UNL A   1      34.655  31.066  27.575  1.00  0.00     0.118 C 
BRANCH   2   3
ATOM      3  N   UNL A   1      34.728  31.629  28.913  1.00  0.00    -0.352 N 
ATOM      4  O   UNL A   1      35.264  32.322  30.920  1.00  0.00    -0.269 OA
ATOM      5  C   UNL A   1      35.635  31.672  29.937  1.00  0.00     0.251 C 
ATOM      6  H   UNL A   1      33.900  32.109  29.146  1.00  0.00     0.163 HD
BRANCH   5   7
ATOM      7  C   UNL A   1      36.977  31.019  29.981  1.00  0.00     0.039 A 
ATOM      8  C   UNL A   1      38.212  31.650  29.831  1.00  0.00     0.014 A 
ATOM      9  C   UNL A   1      36.967  29.623  30.195  1.00  0.00     0.014 A 
ATOM     10  C   UNL A   1      39.400  30.907  29.891  1.00  0.00     0.010 A 
ATOM     11  C   UNL A   1      38.145  28.879  30.250  1.00  0.00     0.010 A 
ATOM     12  C   UNL A   1      39.369  29.521  30.085  1.00  0.00    -0.014 A 
BRANCH  12  13
ATOM     13  C   UNL A   1      40.635  28.792  30.236  1.00  0.00     0.031 A 
ATOM     14  C   UNL A   1      41.141  28.645  31.637  1.00  0.00     0.074 A 
ATOM     15  C   UNL A   1      41.237  28.108  29.239  1.00  0.00     0.049 A 
ATOM     16  N   UNL A   1      42.277  29.029  32.128  1.00  0.00    -0.248 NA
ATOM     17  C   UNL A   1      40.235  28.046  32.627  1.00  0.00     0.031 C 
ATOM     18  C   UNL A   1      40.706  27.835  27.901  1.00  0.00     0.029 A 
ATOM     19  N   UNL A   1      42.397  27.382  29.268  1.00  0.00    -0.354 N 
ATOM     20  C   UNL A   1      42.308  28.549  33.442  1.00  0.00     0.074 A 
ATOM     21  C   UNL A   1      40.981  28.075  33.732  1.00  0.00     0.031 C 
ATOM     22  C   UNL A   1      41.407  26.822  27.346  1.00  0.00     0.029 A 
ATOM     23  C   UNL A   1      42.508  26.470  28.225  1.00  0.00     0.049 A 
ATOM     24  H   UNL A   1      43.086  27.497  29.961  1.00  0.00     0.167 HD
ATOM     25  C   UNL A   1      43.469  28.400  34.141  1.00  0.00     0.034 A 
ATOM     26  C   UNL A   1      43.390  25.445  28.127  1.00  0.00     0.034 A 
ATOM     27  C   UNL A   1      44.558  29.118  33.540  1.00  0.00     0.049 A 
ATOM     28  C   UNL A   1      44.512  25.717  29.050  1.00  0.00     0.074 A 
ATOM     29  C   UNL A   1      44.830  30.436  33.241  1.00  0.00     0.029 A 
ATOM     30  N   UNL A   1      45.499  28.378  32.869  1.00  0.00    -0.354 N 
ATOM     31  N   UNL A   1      45.375  26.680  28.889  1.00  0.00    -0.248 NA
ATOM     32  C   UNL A   1      44.483  25.114  30.372  1.00  0.00     0.031 C 
ATOM     33  C   UNL A   1      45.605  30.388  32.046  1.00  0.00     0.029 A 
ATOM     34  C   UNL A   1      45.775  29.044  31.708  1.00  0.00     0.049 A 
ATOM     35  H   UNL A   1      45.897  27.529  33.166  1.00  0.00     0.167 HD
ATOM     36  C   UNL A   1      45.679  27.091  30.179  1.00  0.00     0.074 A 
ATOM     37  C   UNL A   1      45.210  26.010  31.040  1.00  0.00     0.031 C 
ATOM     38  C   UNL A   1      46.016  28.387  30.443  1.00  0.00     0.034 A 
BRANCH  25  39
ATOM     39  C   UNL A   1      43.733  27.352  35.204  1.00  0.00     0.023 A 
ATOM     40  C   UNL A   1      44.037  27.809  36.509  1.00  0.00     0.012 A 
ATOM     41  C   UNL A   1      43.982  25.989  34.934  1.00  0.00     0.148 A 
ATOM     42  C   UNL A   1      44.615  26.972  37.471  1.00  0.00     0.002 A 
ATOM     43  C   UNL A   1      44.484  25.142  35.919  1.00  0.00     0.091 A 
ATOM     44  F   UNL A   1      43.865  25.521  33.686  1.00  0.00    -0.205 F 
ATOM     45  C   UNL A   1      44.834  25.634  37.177  1.00  0.00     0.022 A 
BRANCH  43  46
ATOM     46  S   UNL A   1      44.729  23.389  35.606  1.00  0.00     0.127 S 
ATOM     47  O   UNL A   1      45.767  23.417  34.581  1.00  0.00    -0.237 OA
ATOM     48  O   UNL A   1      45.163  22.904  36.917  1.00  0.00    -0.237 OA
ATOM     49  O   UNL A   1      43.422  22.892  35.194  1.00  0.00    -0.744 OA
ENDBRANCH  43  46
ENDBRANCH  25  39
BRANCH  26  50
ATOM     50  C   UNL A   1      43.234  24.129  27.465  1.00  0.00     0.023 A 
ATOM     51  C   UNL A   1      41.998  23.455  27.520  1.00  0.00     0.012 A 
ATOM     52  C   UNL A   1      44.210  23.658  26.559  1.00  0.00     0.148 A 
ATOM     53  C   UNL A   1      41.734  22.364  26.682  1.00  0.00     0.002 A 
ATOM     54  C   UNL A   1      43.947  22.568  25.737  1.00  0.00     0.091 A 
ATOM     55  F   UNL A   1      45.358  24.339  26.439  1.00  0.00    -0.205 F 
ATOM     56  C   UNL A   1      42.705  21.923  25.788  1.00  0.00     0.022 A 
BRANCH  54  57
ATOM     57  S   UNL A   1      45.149  21.955  24.548  1.00  0.00     0.127 S 
ATOM     58  O   UNL A   1      44.495  20.743  24.053  1.00  0.00    -0.237 OA
ATOM     59  O   UNL A   1      45.212  23.052  23.589  1.00  0.00    -0.237 OA
ATOM     60  O   UNL A   1      46.366  21.706  25.309  1.00  0.00    -0.744 OA
ENDBRANCH  54  57
ENDBRANCH  26  50
BRANCH  38  61
ATOM     61  C   UNL A   1      46.348  29.295  29.287  1.00  0.00     0.023 A 
ATOM     62  C   UNL A   1      47.604  29.254  28.646  1.00  0.00     0.012 A 
ATOM     63  C   UNL A   1      45.309  30.042  28.705  1.00  0.00     0.148 A 
ATOM     64  C   UNL A   1      47.824  29.958  27.461  1.00  0.00     0.002 A 
ATOM     65  C   UNL A   1      45.517  30.698  27.498  1.00  0.00     0.091 A 
ATOM     66  F   UNL A   1      44.119  30.064  29.323  1.00  0.00    -0.205 F 
ATOM     67  C   UNL A   1      46.777  30.666  26.878  1.00  0.00     0.022 A 
BRANCH  65  68
ATOM     68  S   UNL A   1      44.176  31.498  26.615  1.00  0.00     0.127 S 
ATOM     69  O   UNL A   1      44.861  32.040  25.444  1.00  0.00    -0.237 OA
ATOM     70  O   UNL A   1      43.276  30.376  26.333  1.00  0.00    -0.237 OA
ATOM     71  O   UNL A   1      43.623  32.486  27.532  1.00  0.00    -0.744 OA
ENDBRANCH  65  68
ENDBRANCH  38  61
ENDBRANCH  12  13
ENDBRANCH   5   7
ENDBRANCH   2   3
ENDBRANCH   1   2
BRANCH   1  72
ATOM     72  C   UNL A   1      34.278  28.677  26.707  1.00  0.00     0.117 C 
BRANCH  72  73
ATOM     73  N   UNL A   1      33.522  29.315  25.638  1.00  0.00    -0.356 N 
ATOM     74  C   UNL A   1      32.820  28.778  24.591  1.00  0.00     0.223 C 
ATOM     75  H   UNL A   1      33.515  30.298  25.674  1.00  0.00     0.163 HD
ATOM     76  O   UNL A   1      32.097  29.546  23.952  1.00  0.00    -0.275 OA
BRANCH  74  77
ATOM     77  C   UNL A   1      33.034  27.318  24.148  1.00  0.00     0.091 C 
ATOM     78  C   UNL A   1      33.455  27.363  22.672  1.00  0.00     0.014 C 
ATOM     79  C   UNL A   1      31.785  26.439  24.402  1.00  0.00     0.091 C 
ATOM     80  C   UNL A   1      33.360  26.016  21.975  1.00  0.00     0.001 C 
ATOM     81  C   UNL A   1      31.520  25.255  23.449  1.00  0.00     0.014 C 
ATOM     82  C   UNL A   1      31.937  25.501  22.011  1.00  0.00     0.001 C 
BRANCH  79  83
ATOM     83  C   UNL A   1      31.678  25.990  25.866  1.00  0.00     0.228 C 
ATOM     84  O   UNL A   1      30.838  26.545  26.591  1.00  0.00    -0.274 OA
ATOM     85  N   UNL A   1      32.345  24.941  26.430  1.00  0.00    -0.317 N 
ATOM     86  H   UNL A   1      32.102  24.773  27.369  1.00  0.00     0.170 HD
BRANCH  85  87
ATOM     87  C   UNL A   1      33.294  24.072  25.936  1.00  0.00     0.108 A 
ATOM     88  S   UNL A   1      34.717  24.925  25.482  1.00  0.00    -0.122 S 
ATOM     89  C   UNL A   1      33.327  22.715  25.575  1.00  0.00     0.078 A 
ATOM     90  C   UNL A   1      35.468  23.490  25.105  1.00  0.00     0.011 A 
ATOM     91  C   UNL A   1      34.673  22.377  25.218  1.00  0.00    -0.019 A 
ATOM     92  C   UNL A   1      36.818  23.236  24.548  1.00  0.00     0.047 C 
ATOM     93  C   UNL A   1      35.432  21.189  24.737  1.00  0.00     0.038 C 
ATOM     94  C   UNL A   1      36.900  21.698  24.693  1.00  0.00     0.010 C 
BRANCH  89  95
ATOM     95  C   UNL A   1      32.089  21.959  25.423  1.00  0.00     0.254 C 
ATOM     96  O   UNL A   1      31.019  22.557  25.304  1.00  0.00    -0.269 OA
ATOM     97  N   UNL A   1      31.996  20.593  25.501  1.00  0.00    -0.349 N 
ATOM     98  H   UNL A   1      31.187  20.281  25.965  1.00  0.00     0.164 HD
BRANCH  97  99
ATOM     99  C   UNL A   1      32.843  19.522  25.042  1.00  0.00     0.082 C 
ATOM    100  C   UNL A   1      32.699  18.184  25.756  1.00  0.00     0.025 C 
ATOM    101  C   UNL A   1      32.472  19.112  23.612  1.00  0.00     0.025 C 
ATOM    102  C   UNL A   1      33.378  17.201  24.801  1.00  0.00     0.002 C 
ATOM    103  C   UNL A   1      33.249  17.822  23.406  1.00  0.00     0.002 C 
ENDBRANCH  97  99
ENDBRANCH  89  95
ENDBRANCH  85  87
ENDBRANCH  79  83
ENDBRANCH  74  77
ENDBRANCH  72  73
ENDBRANCH   1  72
TORSDOF 17
ENDMDL
MODEL 3
REMARK VINA RESULT:     -13.4      2.245      2.855
REMARK SMILES O=C(NCCCNC(=O)[C@@H]1CCCC[C@H]1C(=O)Nc1sc2c(c1C(=O)NC1CCCC1)CCC2)c1ccc(-c2c3nc(c(-c4cccc(S(=O)(=O)[O-])c4F)c4ccc([nH]4)c(-c4cccc(S(=O)(=O)[O-])c4F)c4nc(c(-c5cccc(S(=O)(=O)[O-])c5F)c5ccc2[nH]5)C=C4)C=C3)cc1
REMARK SMILES IDX 5 1 4 2 3 3 1 4 2 5 35 7 36 8 97 9 37 10 96 11 38 12 39 13
REMARK SMILES IDX 40 14 90 15 41 16 95 17 89 18 91 19 42 20 94 21 88 22 87 23
REMARK SMILES IDX 43 25 75 26 55 27 74 28 56 29 59 30 73 31 92 32 57 33 58 34
REMARK SMILES IDX 72 36 93 37 60 38 44 39 45 40 53 41 46 42 48 43 54 44 47 45
REMARK SMILES IDX 49 46 50 47 51 48 52 49 76 50 77 51 85 52 78 53 80 54 86 55
REMARK SMILES IDX 79 56 81 57 82 58 83 59 84 60 61 61 62 62 70 63 63 64 65 65
REMARK SMILES IDX 71 66 64 67 66 68 67 69 68 70 69 71 6 72 7 73 8 74 9 76
REMARK SMILES IDX 10 77 11 78 15 79 12 80 14 81 13 82 16 83 17 84 18 85 19 87
REMARK SMILES IDX 20 88 23 89 21 90 22 91 34 92 32 93 33 94 24 95 25 96 26 97
REMARK SMILES IDX 27 99 28 100 31 101 29 102 30 103
REMARK H PARENT 3 6 91 24 59 35 7 75 18 86 26 98
REMARK Flexibility Score: inf
ROOT
ATOM      1  C   UNL A   1      32.685  29.472  27.274  1.00  0.00     0.042 C 
ENDROOT
BRANCH   1   2
ATOM      2  C   UNL A   1      34.093  30.073  27.256  1.00  0.00     0.118 C 
BRANCH   2   3
ATOM      3  N   UNL A   1      34.294  31.061  28.302  1.00  0.00    -0.352 N 
ATOM      4  O   UNL A   1      35.023  32.391  29.882  1.00  0.00    -0.269 OA
ATOM      5  C   UNL A   1      35.300  31.433  29.152  1.00  0.00     0.251 C 
ATOM      6  H   UNL A   1      33.488  31.610  28.437  1.00  0.00     0.163 HD
BRANCH   5   7
ATOM      7  C   UNL A   1      36.648  30.806  29.285  1.00  0.00     0.039 A 
ATOM      8  C   UNL A   1      37.877  31.463  29.246  1.00  0.00     0.014 A 
ATOM      9  C   UNL A   1      36.651  29.405  29.466  1.00  0.00     0.014 A 
ATOM     10  C   UNL A   1      39.072  30.742  29.380  1.00  0.00     0.010 A 
ATOM     11  C   UNL A   1      37.837  28.683  29.593  1.00  0.00     0.010 A 
ATOM     12  C   UNL A   1      39.056  29.351  29.538  1.00  0.00    -0.014 A 
BRANCH  12  13
ATOM     13  C   UNL A   1      40.321  28.643  29.770  1.00  0.00     0.031 A 
ATOM     14  C   UNL A   1      40.846  28.684  31.171  1.00  0.00     0.074 A 
ATOM     15  C   UNL A   1      40.907  27.828  28.867  1.00  0.00     0.049 A 
ATOM     16  N   UNL A   1      41.990  29.125  31.591  1.00  0.00    -0.248 NA
ATOM     17  C   UNL A   1      39.952  28.228  32.245  1.00  0.00     0.031 C 
ATOM     18  C   UNL A   1      40.358  27.380  27.584  1.00  0.00     0.029 A 
ATOM     19  N   UNL A   1      42.065  27.107  28.978  1.00  0.00    -0.354 N 
ATOM     20  C   UNL A   1      42.038  28.826  32.957  1.00  0.00     0.074 A 
ATOM     21  C   UNL A   1      40.714  28.402  33.325  1.00  0.00     0.031 C 
ATOM     22  C   UNL A   1      41.048  26.297  27.162  1.00  0.00     0.029 A 
ATOM     23  C   UNL A   1      42.159  26.062  28.065  1.00  0.00     0.049 A 
ATOM     24  H   UNL A   1      42.765  27.310  29.640  1.00  0.00     0.167 HD
ATOM     25  C   UNL A   1      43.208  28.767  33.654  1.00  0.00     0.034 A 
ATOM     26  C   UNL A   1      43.037  25.029  28.095  1.00  0.00     0.034 A 
ATOM     27  C   UNL A   1      44.291  29.392  32.948  1.00  0.00     0.049 A 
ATOM     28  C   UNL A   1      44.172  25.417  28.959  1.00  0.00     0.074 A 
ATOM     29  C   UNL A   1      44.563  30.656  32.470  1.00  0.00     0.029 A 
ATOM     30  N   UNL A   1      45.220  28.563  32.370  1.00  0.00    -0.354 N 
ATOM     31  N   UNL A   1      45.036  26.345  28.657  1.00  0.00    -0.248 NA
ATOM     32  C   UNL A   1      44.159  24.997  30.350  1.00  0.00     0.031 C 
ATOM     33  C   UNL A   1      45.321  30.444  31.283  1.00  0.00     0.029 A 
ATOM     34  C   UNL A   1      45.482  29.065  31.127  1.00  0.00     0.049 A 
ATOM     35  H   UNL A   1      45.620  27.760  32.774  1.00  0.00     0.167 HD
ATOM     36  C   UNL A   1      45.359  26.924  29.876  1.00  0.00     0.074 A 
ATOM     37  C   UNL A   1      44.898  25.972  30.881  1.00  0.00     0.031 C 
ATOM     38  C   UNL A   1      45.704  28.243  29.958  1.00  0.00     0.034 A 
BRANCH  25  39
ATOM     39  C   UNL A   1      43.483  27.870  34.845  1.00  0.00     0.023 A 
ATOM     40  C   UNL A   1      43.829  28.497  36.067  1.00  0.00     0.012 A 
ATOM     41  C   UNL A   1      43.702  26.478  34.760  1.00  0.00     0.148 A 
ATOM     42  C   UNL A   1      44.419  27.789  37.121  1.00  0.00     0.002 A 
ATOM     43  C   UNL A   1      44.216  25.765  35.841  1.00  0.00     0.091 A 
ATOM     44  F   UNL A   1      43.544  25.846  33.593  1.00  0.00    -0.205 F 
ATOM     45  C   UNL A   1      44.608  26.420  37.010  1.00  0.00     0.022 A 
BRANCH  43  46
ATOM     46  S   UNL A   1      44.424  23.981  35.767  1.00  0.00     0.127 S 
ATOM     47  O   UNL A   1      44.903  23.687  37.114  1.00  0.00    -0.237 OA
ATOM     48  O   UNL A   1      43.063  23.529  35.479  1.00  0.00    -0.237 OA
ATOM     49  O   UNL A   1      45.367  23.755  34.679  1.00  0.00    -0.744 OA
ENDBRANCH  43  46
ENDBRANCH  25  39
BRANCH  26  50
ATOM     50  C   UNL A   1      42.867  23.636  27.619  1.00  0.00     0.023 A 
ATOM     51  C   UNL A   1      41.665  22.946  27.873  1.00  0.00     0.012 A 
ATOM     52  C   UNL A   1      43.773  23.077  26.690  1.00  0.00     0.148 A 
ATOM     53  C   UNL A   1      41.364  21.752  27.205  1.00  0.00     0.002 A 
ATOM     54  C   UNL A   1      43.475  21.885  26.038  1.00  0.00     0.091 A 
ATOM     55  F   UNL A   1      44.881  23.763  26.380  1.00  0.00    -0.205 F 
ATOM     56  C   UNL A   1      42.265  21.224  26.285  1.00  0.00     0.022 A 
BRANCH  54  57
ATOM     57  S   UNL A   1      44.585  21.155  24.827  1.00  0.00     0.127 S 
ATOM     58  O   UNL A   1      45.856  21.134  25.554  1.00  0.00    -0.237 OA
ATOM     59  O   UNL A   1      43.980  19.844  24.615  1.00  0.00    -0.237 OA
ATOM     60  O   UNL A   1      44.569  22.055  23.681  1.00  0.00    -0.744 OA
ENDBRANCH  54  57
ENDBRANCH  26  50
BRANCH  38  61
ATOM     61  C   UNL A   1      46.022  28.984  28.686  1.00  0.00     0.023 A 
ATOM     62  C   UNL A   1      45.009  29.520  27.865  1.00  0.00     0.012 A 
ATOM     63  C   UNL A   1      47.361  29.329  28.431  1.00  0.00     0.148 A 
ATOM     64  C   UNL A   1      45.325  30.367  26.800  1.00  0.00     0.002 A 
ATOM     65  C   UNL A   1      47.667  30.213  27.404  1.00  0.00     0.091 A 
ATOM     66  F   UNL A   1      48.312  28.816  29.227  1.00  0.00    -0.205 F 
ATOM     67  C   UNL A   1      46.652  30.727  26.580  1.00  0.00     0.022 A 
BRANCH  65  68
ATOM     68  S   UNL A   1      49.330  30.840  27.163  1.00  0.00     0.127 S 
ATOM     69  O   UNL A   1      49.898  29.856  26.243  1.00  0.00    -0.237 OA
ATOM     70  O   UNL A   1      49.084  32.158  26.573  1.00  0.00    -0.237 OA
ATOM     71  O   UNL A   1      49.939  30.886  28.486  1.00  0.00    -0.744 OA
ENDBRANCH  65  68
ENDBRANCH  38  61
ENDBRANCH  12  13
ENDBRANCH   5   7
ENDBRANCH   2   3
ENDBRANCH   1   2
BRANCH   1  72
ATOM     72  C   UNL A   1      32.643  27.976  26.926  1.00  0.00     0.117 C 
BRANCH  72  73
ATOM     73  N   UNL A   1      31.303  27.424  26.781  1.00  0.00    -0.356 N 
ATOM     74  C   UNL A   1      30.881  26.194  26.350  1.00  0.00     0.223 C 
ATOM     75  H   UNL A   1      30.579  28.039  27.037  1.00  0.00     0.163 HD
ATOM     76  O   UNL A   1      29.691  25.919  26.527  1.00  0.00    -0.275 OA
BRANCH  74  77
ATOM     77  C   UNL A   1      31.814  25.260  25.557  1.00  0.00     0.091 C 
ATOM     78  C   UNL A   1      32.374  26.086  24.389  1.00  0.00     0.014 C 
ATOM     79  C   UNL A   1      31.099  23.964  25.103  1.00  0.00     0.091 C 
ATOM     80  C   UNL A   1      33.021  25.239  23.306  1.00  0.00     0.001 C 
ATOM     81  C   UNL A   1      31.559  23.299  23.789  1.00  0.00     0.014 C 
ATOM     82  C   UNL A   1      32.016  24.272  22.718  1.00  0.00     0.001 C 
BRANCH  79  83
ATOM     83  C   UNL A   1      31.004  22.927  26.231  1.00  0.00     0.228 C 
ATOM     84  O   UNL A   1      29.920  22.797  26.820  1.00  0.00    -0.274 OA
ATOM     85  N   UNL A   1      31.976  22.035  26.579  1.00  0.00    -0.317 N 
ATOM     86  H   UNL A   1      31.708  21.410  27.291  1.00  0.00     0.170 HD
BRANCH  85  87
ATOM     87  C   UNL A   1      33.262  21.839  26.122  1.00  0.00     0.108 A 
ATOM     88  S   UNL A   1      34.289  23.117  26.644  1.00  0.00    -0.122 S 
ATOM     89  C   UNL A   1      33.892  20.958  25.228  1.00  0.00     0.078 A 
ATOM     90  C   UNL A   1      35.599  22.357  25.959  1.00  0.00     0.011 A 
ATOM     91  C   UNL A   1      35.301  21.210  25.265  1.00  0.00    -0.019 A 
ATOM     92  C   UNL A   1      37.015  22.787  25.871  1.00  0.00     0.047 C 
ATOM     93  C   UNL A   1      36.540  20.707  24.608  1.00  0.00     0.038 C 
ATOM     94  C   UNL A   1      37.671  21.496  25.326  1.00  0.00     0.010 C 
BRANCH  89  95
ATOM     95  C   UNL A   1      33.100  20.135  24.320  1.00  0.00     0.254 C 
ATOM     96  O   UNL A   1      32.660  20.624  23.279  1.00  0.00    -0.269 OA
ATOM     97  N   UNL A   1      32.707  18.847  24.580  1.00  0.00    -0.349 N 
ATOM     98  H   UNL A   1      31.795  18.646  24.271  1.00  0.00     0.164 HD
BRANCH  97  99
ATOM     99  C   UNL A   1      33.358  17.728  25.212  1.00  0.00     0.082 C 
ATOM    100  C   UNL A   1      32.607  16.403  25.197  1.00  0.00     0.025 C 
ATOM    101  C   UNL A   1      34.626  17.335  24.447  1.00  0.00     0.025 C 
ATOM    102  C   UNL A   1      33.692  15.381  25.538  1.00  0.00     0.002 C 
ATOM    103  C   UNL A   1      35.011  16.002  25.070  1.00  0.00     0.002 C 
ENDBRANCH  97  99
ENDBRANCH  89  95
ENDBRANCH  85  87
ENDBRANCH  79  83
ENDBRANCH  74  77
ENDBRANCH  72  73
ENDBRANCH   1  72
TORSDOF 17
ENDMDL
