MODEL 1
REMARK VINA RESULT:     -10.7      0.000      0.000
REMARK SMILES Nc1c(Nc2ccc(I)cc2)ncnc1Nc1ccc(C(=O)NCCCNC(=O)c2ccc(-c3c4nc(c(-c5cccc(S(=O)(=O)[O-])c5F)c5ccc([nH]5)c(-c5cccc(S(=O)(=O)[O-])c5F)c5nc(c(-c6cccc(S(=O)(=O)[O-])c6F)c6ccc3[nH]6)C=C5)C=C4)cc2)cc1
REMARK SMILES IDX 24 1 23 2 21 3 22 4 20 6 17 7 18 8 94 9 19 10 93 11 16 12
REMARK SMILES IDX 15 14 2 15 3 16 12 17 14 18 13 19 1 20 4 23 5 25 6 26 11 27
REMARK SMILES IDX 7 28 10 29 8 30 9 31 25 32 26 33 27 34 28 35 29 37 30 38
REMARK SMILES IDX 31 39 92 40 32 41 91 42 33 43 34 44 35 45 85 46 36 47 90 48
REMARK SMILES IDX 84 49 86 50 37 51 89 52 83 53 82 54 38 56 70 57 50 58 69 59
REMARK SMILES IDX 51 60 54 61 68 62 87 63 52 64 53 65 67 67 88 68 55 69 39 70
REMARK SMILES IDX 40 71 48 72 41 73 43 74 49 75 42 76 44 77 45 78 46 79 47 80
REMARK SMILES IDX 71 81 72 82 80 83 73 84 75 85 81 86 74 87 76 88 77 89 78 90
REMARK SMILES IDX 79 91 56 92 57 93 65 94 58 95 60 96 66 97 59 98 61 99 62 100
REMARK SMILES IDX 63 101 64 102
REMARK H PARENT 23 5 16 13 1 21 1 22 4 24 27 36 86 55 54 66
REMARK Flexibility Score: inf
ROOT
ATOM      1  C   UNL A   1      33.158  34.452  28.421  1.00  0.00     0.118 C 
ENDROOT
BRANCH   1   2
ATOM      2  N   UNL A   1      32.906  35.700  29.120  1.00  0.00    -0.352 N 
ATOM      3  C   UNL A   1      33.172  36.126  30.395  1.00  0.00     0.251 C 
ATOM      4  O   UNL A   1      32.857  37.285  30.675  1.00  0.00    -0.269 OA
ATOM      5  H   UNL A   1      32.454  36.376  28.567  1.00  0.00     0.163 HD
BRANCH   3   6
ATOM      6  C   UNL A   1      33.877  35.304  31.421  1.00  0.00     0.039 A 
ATOM      7  C   UNL A   1      35.382  33.988  33.423  1.00  0.00     0.040 A 
ATOM      8  C   UNL A   1      34.913  35.285  33.631  1.00  0.00     0.027 A 
ATOM      9  C   UNL A   1      35.036  33.336  32.235  1.00  0.00     0.027 A 
ATOM     10  C   UNL A   1      34.178  35.939  32.637  1.00  0.00     0.016 A 
ATOM     11  C   UNL A   1      34.257  33.972  31.261  1.00  0.00     0.016 A 
BRANCH   7  12
ATOM     12  N   UNL A   1      36.300  33.414  34.318  1.00  0.00    -0.338 N 
ATOM     13  H   UNL A   1      35.995  32.646  34.854  1.00  0.00     0.168 HD
BRANCH  12  14
ATOM     14  C   UNL A   1      37.632  33.863  34.503  1.00  0.00     0.159 A 
ATOM     15  C   UNL A   1      38.129  33.962  35.810  1.00  0.00     0.118 A 
ATOM     16  C   UNL A   1      39.435  34.462  35.915  1.00  0.00     0.159 A 
ATOM     17  N   UNL A   1      40.152  34.845  34.841  1.00  0.00    -0.217 NA
ATOM     18  N   UNL A   1      38.366  34.186  33.421  1.00  0.00    -0.217 NA
ATOM     19  C   UNL A   1      39.586  34.670  33.647  1.00  0.00     0.226 A 
BRANCH  15  20
ATOM     20  N   UNL A   1      37.347  33.634  36.924  1.00  0.00    -0.393 N 
ATOM     21  H   UNL A   1      36.543  34.162  37.134  1.00  0.00     0.156 HD
ATOM     22  H   UNL A   1      37.601  32.875  37.498  1.00  0.00     0.156 HD
ENDBRANCH  15  20
BRANCH  16  23
ATOM     23  N   UNL A   1      40.039  34.527  37.197  1.00  0.00    -0.338 N 
ATOM     24  H   UNL A   1      40.342  33.675  37.589  1.00  0.00     0.168 HD
BRANCH  23  25
ATOM     25  C   UNL A   1      40.247  35.688  37.964  1.00  0.00     0.040 A 
ATOM     26  C   UNL A   1      39.229  36.152  38.807  1.00  0.00     0.027 A 
ATOM     27  C   UNL A   1      41.482  36.347  37.982  1.00  0.00     0.027 A 
ATOM     28  C   UNL A   1      39.447  37.237  39.663  1.00  0.00     0.017 A 
ATOM     29  C   UNL A   1      41.704  37.440  38.825  1.00  0.00     0.017 A 
ATOM     30  C   UNL A   1      40.686  37.875  39.670  1.00  0.00     0.013 A 
ATOM     31  I   UNL A   1      41.025  39.463  40.967  1.00  0.00    -0.044 I 
ENDBRANCH  23  25
ENDBRANCH  16  23
ENDBRANCH  12  14
ENDBRANCH   7  12
ENDBRANCH   3   6
ENDBRANCH   1   2
BRANCH   1  32
ATOM     32  C   UNL A   1      34.547  34.452  27.786  1.00  0.00     0.042 C 
BRANCH  32  33
ATOM     33  C   UNL A   1      35.314  33.151  28.022  1.00  0.00     0.118 C 
BRANCH  33  34
ATOM     34  N   UNL A   1      34.448  31.984  27.902  1.00  0.00    -0.352 N 
ATOM     35  C   UNL A   1      34.768  30.650  27.877  1.00  0.00     0.251 C 
ATOM     36  H   UNL A   1      33.486  32.183  27.829  1.00  0.00     0.163 HD
ATOM     37  O   UNL A   1      33.926  29.833  27.515  1.00  0.00    -0.269 OA
BRANCH  35  38
ATOM     38  C   UNL A   1      36.116  30.194  28.281  1.00  0.00     0.039 A 
ATOM     39  C   UNL A   1      37.164  30.276  27.360  1.00  0.00     0.014 A 
ATOM     40  C   UNL A   1      36.337  29.640  29.546  1.00  0.00     0.014 A 
ATOM     41  C   UNL A   1      38.441  29.843  27.722  1.00  0.00     0.010 A 
ATOM     42  C   UNL A   1      37.624  29.274  29.930  1.00  0.00     0.010 A 
ATOM     43  C   UNL A   1      38.686  29.359  29.017  1.00  0.00    -0.014 A 
BRANCH  43  44
ATOM     44  C   UNL A   1      40.045  28.925  29.432  1.00  0.00     0.031 A 
ATOM     45  C   UNL A   1      40.684  27.726  28.786  1.00  0.00     0.074 A 
ATOM     46  C   UNL A   1      40.672  29.572  30.433  1.00  0.00     0.049 A 
ATOM     47  N   UNL A   1      41.839  27.170  29.044  1.00  0.00    -0.248 NA
ATOM     48  C   UNL A   1      39.920  27.048  27.723  1.00  0.00     0.031 C 
ATOM     49  C   UNL A   1      40.124  30.710  31.177  1.00  0.00     0.029 A 
ATOM     50  N   UNL A   1      41.898  29.357  31.013  1.00  0.00    -0.354 N 
ATOM     51  C   UNL A   1      41.929  26.069  28.200  1.00  0.00     0.074 A 
ATOM     52  C   UNL A   1      40.697  26.010  27.447  1.00  0.00     0.031 C 
ATOM     53  C   UNL A   1      41.013  31.098  32.105  1.00  0.00     0.029 A 
ATOM     54  C   UNL A   1      42.180  30.222  32.046  1.00  0.00     0.049 A 
ATOM     55  H   UNL A   1      42.517  28.651  30.718  1.00  0.00     0.167 HD
ATOM     56  C   UNL A   1      42.961  25.208  28.042  1.00  0.00     0.034 A 
ATOM     57  C   UNL A   1      43.256  30.298  32.855  1.00  0.00     0.034 A 
ATOM     58  C   UNL A   1      44.203  25.301  28.761  1.00  0.00     0.049 A 
ATOM     59  C   UNL A   1      44.397  29.339  32.641  1.00  0.00     0.074 A 
ATOM     60  C   UNL A   1      45.335  24.521  28.618  1.00  0.00     0.029 A 
ATOM     61  N   UNL A   1      44.477  26.230  29.752  1.00  0.00    -0.354 N 
ATOM     62  N   UNL A   1      44.522  28.395  31.739  1.00  0.00    -0.248 NA
ATOM     63  C   UNL A   1      45.560  29.474  33.530  1.00  0.00     0.031 C 
ATOM     64  C   UNL A   1      46.288  24.963  29.540  1.00  0.00     0.029 A 
ATOM     65  C   UNL A   1      45.759  26.037  30.238  1.00  0.00     0.049 A 
ATOM     66  H   UNL A   1      43.853  26.924  30.064  1.00  0.00     0.167 HD
ATOM     67  C   UNL A   1      45.784  27.845  31.933  1.00  0.00     0.074 A 
ATOM     68  C   UNL A   1      46.396  28.580  33.021  1.00  0.00     0.031 C 
ATOM     69  C   UNL A   1      46.375  26.812  31.283  1.00  0.00     0.034 A 
BRANCH  56  70
ATOM     70  C   UNL A   1      42.832  24.127  27.000  1.00  0.00     0.023 A 
ATOM     71  C   UNL A   1      43.459  24.299  25.749  1.00  0.00     0.012 A 
ATOM     72  C   UNL A   1      42.195  22.905  27.292  1.00  0.00     0.148 A 
ATOM     73  C   UNL A   1      43.438  23.281  24.797  1.00  0.00     0.002 A 
ATOM     74  C   UNL A   1      42.219  21.877  26.356  1.00  0.00     0.091 A 
ATOM     75  F   UNL A   1      41.593  22.767  28.482  1.00  0.00    -0.205 F 
ATOM     76  C   UNL A   1      42.831  22.067  25.105  1.00  0.00     0.022 A 
BRANCH  74  77
ATOM     77  S   UNL A   1      41.543  20.244  26.683  1.00  0.00     0.127 S 
ATOM     78  O   UNL A   1      40.121  20.541  26.850  1.00  0.00    -0.237 OA
ATOM     79  O   UNL A   1      41.875  19.525  25.452  1.00  0.00    -0.237 OA
ATOM     80  O   UNL A   1      42.219  19.758  27.877  1.00  0.00    -0.744 OA
ENDBRANCH  74  77
ENDBRANCH  56  70
BRANCH  57  81
ATOM     81  C   UNL A   1      43.336  31.372  33.888  1.00  0.00     0.023 A 
ATOM     82  C   UNL A   1      43.712  32.673  33.500  1.00  0.00     0.012 A 
ATOM     83  C   UNL A   1      43.003  31.128  35.236  1.00  0.00     0.148 A 
ATOM     84  C   UNL A   1      43.785  33.703  34.439  1.00  0.00     0.002 A 
ATOM     85  C   UNL A   1      43.019  32.174  36.153  1.00  0.00     0.091 A 
ATOM     86  F   UNL A   1      42.660  29.882  35.590  1.00  0.00    -0.205 F 
ATOM     87  C   UNL A   1      43.426  33.458  35.761  1.00  0.00     0.022 A 
BRANCH  85  88
ATOM     88  S   UNL A   1      42.436  31.982  37.843  1.00  0.00     0.127 S 
ATOM     89  O   UNL A   1      43.236  30.851  38.309  1.00  0.00    -0.237 OA
ATOM     90  O   UNL A   1      42.791  33.272  38.433  1.00  0.00    -0.237 OA
ATOM     91  O   UNL A   1      41.003  31.745  37.739  1.00  0.00    -0.744 OA
ENDBRANCH  85  88
ENDBRANCH  57  81
BRANCH  69  92
ATOM     92  C   UNL A   1      47.763  26.409  31.709  1.00  0.00     0.023 A 
ATOM     93  C   UNL A   1      47.926  25.477  32.753  1.00  0.00     0.012 A 
ATOM     94  C   UNL A   1      48.894  26.854  30.995  1.00  0.00     0.148 A 
ATOM     95  C   UNL A   1      49.194  25.011  33.095  1.00  0.00     0.002 A 
ATOM     96  C   UNL A   1      50.149  26.345  31.307  1.00  0.00     0.091 A 
ATOM     97  F   UNL A   1      48.718  27.751  30.014  1.00  0.00    -0.205 F 
ATOM     98  C   UNL A   1      50.302  25.433  32.363  1.00  0.00     0.022 A 
BRANCH  96  99
ATOM     99  S   UNL A   1      51.618  26.743  30.352  1.00  0.00     0.127 S 
ATOM    100  O   UNL A   1      51.426  25.926  29.156  1.00  0.00    -0.237 OA
ATOM    101  O   UNL A   1      51.466  28.183  30.138  1.00  0.00    -0.237 OA
ATOM    102  O   UNL A   1      52.754  26.371  31.184  1.00  0.00    -0.744 OA
ENDBRANCH  96  99
ENDBRANCH  69  92
ENDBRANCH  43  44
ENDBRANCH  35  38
ENDBRANCH  33  34
ENDBRANCH  32  33
ENDBRANCH   1  32
TORSDOF 18
ENDMDL
MODEL 2
REMARK VINA RESULT:     -10.6      4.898     11.779
REMARK SMILES Nc1c(Nc2ccc(I)cc2)ncnc1Nc1ccc(C(=O)NCCCNC(=O)c2ccc(-c3c4nc(c(-c5cccc(S(=O)(=O)[O-])c5F)c5ccc([nH]5)c(-c5cccc(S(=O)(=O)[O-])c5F)c5nc(c(-c6cccc(S(=O)(=O)[O-])c6F)c6ccc3[nH]6)C=C5)C=C4)cc2)cc1
REMARK SMILES IDX 24 1 23 2 21 3 22 4 20 6 17 7 18 8 94 9 19 10 93 11 16 12
REMARK SMILES IDX 15 14 2 15 3 16 12 17 14 18 13 19 1 20 4 23 5 25 6 26 11 27
REMARK SMILES IDX 7 28 10 29 8 30 9 31 25 32 26 33 27 34 28 35 29 37 30 38
REMARK SMILES IDX 31 39 92 40 32 41 91 42 33 43 34 44 35 45 85 46 36 47 90 48
REMARK SMILES IDX 84 49 86 50 37 51 89 52 83 53 82 54 38 56 70 57 50 58 69 59
REMARK SMILES IDX 51 60 54 61 68 62 87 63 52 64 53 65 67 67 88 68 55 69 39 70
REMARK SMILES IDX 40 71 48 72 41 73 43 74 49 75 42 76 44 77 45 78 46 79 47 80
REMARK SMILES IDX 71 81 72 82 80 83 73 84 75 85 81 86 74 87 76 88 77 89 78 90
REMARK SMILES IDX 79 91 56 92 57 93 65 94 58 95 60 96 66 97 59 98 61 99 62 100
REMARK SMILES IDX 63 101 64 102
REMARK H PARENT 23 5 16 13 1 21 1 22 4 24 27 36 86 55 54 66
REMARK Flexibility Score: inf
ROOT
ATOM      1  C   UNL A   1      34.606  35.235  27.951  1.00  0.00     0.118 C 
ENDROOT
BRANCH   1   2
ATOM      2  N   UNL A   1      35.820  34.862  28.654  1.00  0.00    -0.352 N 
ATOM      3  C   UNL A   1      36.446  33.661  28.862  1.00  0.00     0.251 C 
ATOM      4  O   UNL A   1      37.510  33.685  29.486  1.00  0.00    -0.269 OA
ATOM      5  H   UNL A   1      36.289  35.625  29.062  1.00  0.00     0.163 HD
BRANCH   3   6
ATOM      6  C   UNL A   1      35.958  32.359  28.323  1.00  0.00     0.039 A 
ATOM      7  C   UNL A   1      34.804  29.911  27.497  1.00  0.00     0.040 A 
ATOM      8  C   UNL A   1      34.002  31.032  27.714  1.00  0.00     0.027 A 
ATOM      9  C   UNL A   1      36.189  30.046  27.635  1.00  0.00     0.027 A 
ATOM     10  C   UNL A   1      34.571  32.239  28.131  1.00  0.00     0.016 A 
ATOM     11  C   UNL A   1      36.764  31.267  28.004  1.00  0.00     0.016 A 
BRANCH   7  12
ATOM     12  N   UNL A   1      34.221  28.650  27.294  1.00  0.00    -0.338 N 
ATOM     13  H   UNL A   1      34.228  28.017  28.049  1.00  0.00     0.168 HD
BRANCH  12  14
ATOM     14  C   UNL A   1      33.622  28.225  26.081  1.00  0.00     0.159 A 
ATOM     15  C   UNL A   1      32.260  28.486  25.879  1.00  0.00     0.118 A 
ATOM     16  C   UNL A   1      31.728  27.990  24.680  1.00  0.00     0.159 A 
ATOM     17  N   UNL A   1      32.465  27.289  23.797  1.00  0.00    -0.217 NA
ATOM     18  N   UNL A   1      34.379  27.578  25.174  1.00  0.00    -0.217 NA
ATOM     19  C   UNL A   1      33.759  27.135  24.082  1.00  0.00     0.226 A 
BRANCH  15  20
ATOM     20  N   UNL A   1      31.485  29.148  26.840  1.00  0.00    -0.393 N 
ATOM     21  H   UNL A   1      31.633  30.105  27.018  1.00  0.00     0.156 HD
ATOM     22  H   UNL A   1      30.793  28.655  27.338  1.00  0.00     0.156 HD
ENDBRANCH  15  20
BRANCH  16  23
ATOM     23  N   UNL A   1      30.375  28.273  24.366  1.00  0.00    -0.338 N 
ATOM     24  H   UNL A   1      29.692  27.698  24.781  1.00  0.00     0.168 HD
BRANCH  23  25
ATOM     25  C   UNL A   1      29.913  29.295  23.516  1.00  0.00     0.040 A 
ATOM     26  C   UNL A   1      29.759  29.041  22.147  1.00  0.00     0.027 A 
ATOM     27  C   UNL A   1      29.508  30.540  24.015  1.00  0.00     0.027 A 
ATOM     28  C   UNL A   1      29.197  30.001  21.300  1.00  0.00     0.017 A 
ATOM     29  C   UNL A   1      28.957  31.510  23.172  1.00  0.00     0.017 A 
ATOM     30  C   UNL A   1      28.795  31.231  21.817  1.00  0.00     0.013 A 
ATOM     31  I   UNL A   1      27.925  32.645  20.567  1.00  0.00    -0.044 I 
ENDBRANCH  23  25
ENDBRANCH  16  23
ENDBRANCH  12  14
ENDBRANCH   7  12
ENDBRANCH   3   6
ENDBRANCH   1   2
BRANCH   1  32
ATOM     32  C   UNL A   1      33.683  36.057  28.850  1.00  0.00     0.042 C 
BRANCH  32  33
ATOM     33  C   UNL A   1      32.939  35.209  29.880  1.00  0.00     0.118 C 
BRANCH  33  34
ATOM     34  N   UNL A   1      32.551  35.992  31.046  1.00  0.00    -0.352 N 
ATOM     35  C   UNL A   1      32.964  35.892  32.351  1.00  0.00     0.251 C 
ATOM     36  H   UNL A   1      31.891  36.703  30.871  1.00  0.00     0.163 HD
ATOM     37  O   UNL A   1      32.334  36.473  33.230  1.00  0.00    -0.269 OA
BRANCH  35  38
ATOM     38  C   UNL A   1      34.158  35.093  32.701  1.00  0.00     0.039 A 
ATOM     39  C   UNL A   1      35.426  35.613  32.424  1.00  0.00     0.014 A 
ATOM     40  C   UNL A   1      34.030  33.814  33.253  1.00  0.00     0.014 A 
ATOM     41  C   UNL A   1      36.565  34.870  32.741  1.00  0.00     0.010 A 
ATOM     42  C   UNL A   1      35.166  33.104  33.632  1.00  0.00     0.010 A 
ATOM     43  C   UNL A   1      36.444  33.618  33.367  1.00  0.00    -0.014 A 
BRANCH  43  44
ATOM     44  C   UNL A   1      37.644  32.827  33.742  1.00  0.00     0.031 A 
ATOM     45  C   UNL A   1      38.456  33.213  34.949  1.00  0.00     0.074 A 
ATOM     46  C   UNL A   1      38.037  31.804  32.959  1.00  0.00     0.049 A 
ATOM     47  N   UNL A   1      39.556  32.676  35.407  1.00  0.00    -0.248 NA
ATOM     48  C   UNL A   1      37.984  34.368  35.735  1.00  0.00     0.031 C 
ATOM     49  C   UNL A   1      37.364  31.376  31.729  1.00  0.00     0.029 A 
ATOM     50  N   UNL A   1      39.105  30.948  33.067  1.00  0.00    -0.354 N 
ATOM     51  C   UNL A   1      39.920  33.435  36.513  1.00  0.00     0.074 A 
ATOM     52  C   UNL A   1      38.947  34.497  36.637  1.00  0.00     0.031 C 
ATOM     53  C   UNL A   1      38.029  30.335  31.204  1.00  0.00     0.029 A 
ATOM     54  C   UNL A   1      39.190  30.037  32.038  1.00  0.00     0.049 A 
ATOM     55  H   UNL A   1      39.750  30.983  33.810  1.00  0.00     0.167 HD
ATOM     56  C   UNL A   1      40.951  33.243  37.368  1.00  0.00     0.034 A 
ATOM     57  C   UNL A   1      40.101  29.075  31.795  1.00  0.00     0.034 A 
ATOM     58  C   UNL A   1      41.887  32.157  37.266  1.00  0.00     0.049 A 
ATOM     59  C   UNL A   1      41.226  28.872  32.776  1.00  0.00     0.074 A 
ATOM     60  C   UNL A   1      42.922  31.834  38.125  1.00  0.00     0.029 A 
ATOM     61  N   UNL A   1      41.902  31.216  36.249  1.00  0.00    -0.354 N 
ATOM     62  N   UNL A   1      41.469  29.511  33.895  1.00  0.00    -0.248 NA
ATOM     63  C   UNL A   1      42.182  27.794  32.482  1.00  0.00     0.031 C 
ATOM     64  C   UNL A   1      43.578  30.711  37.615  1.00  0.00     0.029 A 
ATOM     65  C   UNL A   1      42.934  30.317  36.453  1.00  0.00     0.049 A 
ATOM     66  H   UNL A   1      41.272  31.191  35.493  1.00  0.00     0.167 HD
ATOM     67  C   UNL A   1      42.585  28.897  34.451  1.00  0.00     0.074 A 
ATOM     68  C   UNL A   1      42.954  27.817  33.561  1.00  0.00     0.031 C 
ATOM     69  C   UNL A   1      43.256  29.213  35.586  1.00  0.00     0.034 A 
BRANCH  56  70
ATOM     70  C   UNL A   1      41.087  34.181  38.541  1.00  0.00     0.023 A 
ATOM     71  C   UNL A   1      41.938  35.299  38.432  1.00  0.00     0.012 A 
ATOM     72  C   UNL A   1      40.297  34.022  39.696  1.00  0.00     0.148 A 
ATOM     73  C   UNL A   1      42.016  36.236  39.460  1.00  0.00     0.002 A 
ATOM     74  C   UNL A   1      40.344  34.986  40.697  1.00  0.00     0.091 A 
ATOM     75  F   UNL A   1      39.505  32.944  39.785  1.00  0.00    -0.205 F 
ATOM     76  C   UNL A   1      41.210  36.087  40.586  1.00  0.00     0.022 A 
BRANCH  74  77
ATOM     77  S   UNL A   1      39.286  34.937  42.149  1.00  0.00     0.127 S 
ATOM     78  O   UNL A   1      39.673  33.663  42.754  1.00  0.00    -0.237 OA
ATOM     79  O   UNL A   1      39.726  36.121  42.887  1.00  0.00    -0.237 OA
ATOM     80  O   UNL A   1      37.918  34.998  41.654  1.00  0.00    -0.744 OA
ENDBRANCH  74  77
ENDBRANCH  56  70
BRANCH  57  81
ATOM     81  C   UNL A   1      39.940  28.179  30.611  1.00  0.00     0.023 A 
ATOM     82  C   UNL A   1      38.956  27.172  30.640  1.00  0.00     0.012 A 
ATOM     83  C   UNL A   1      40.720  28.343  29.449  1.00  0.00     0.148 A 
ATOM     84  C   UNL A   1      38.770  26.326  29.546  1.00  0.00     0.002 A 
ATOM     85  C   UNL A   1      40.487  27.535  28.340  1.00  0.00     0.091 A 
ATOM     86  F   UNL A   1      41.660  29.297  29.443  1.00  0.00    -0.205 F 
ATOM     87  C   UNL A   1      39.525  26.516  28.393  1.00  0.00     0.022 A 
BRANCH  85  88
ATOM     88  S   UNL A   1      41.312  27.801  26.765  1.00  0.00     0.127 S 
ATOM     89  O   UNL A   1      40.881  26.633  26.001  1.00  0.00    -0.237 OA
ATOM     90  O   UNL A   1      40.731  29.071  26.330  1.00  0.00    -0.237 OA
ATOM     91  O   UNL A   1      42.734  27.869  27.073  1.00  0.00    -0.744 OA
ENDBRANCH  85  88
ENDBRANCH  57  81
BRANCH  69  92
ATOM     92  C   UNL A   1      44.456  28.378  35.955  1.00  0.00     0.023 A 
ATOM     93  C   UNL A   1      45.728  28.739  35.469  1.00  0.00     0.012 A 
ATOM     94  C   UNL A   1      44.341  27.319  36.879  1.00  0.00     0.148 A 
ATOM     95  C   UNL A   1      46.865  28.045  35.878  1.00  0.00     0.002 A 
ATOM     96  C   UNL A   1      45.485  26.667  37.322  1.00  0.00     0.091 A 
ATOM     97  F   UNL A   1      43.119  26.983  37.318  1.00  0.00    -0.205 F 
ATOM     98  C   UNL A   1      46.746  27.020  36.815  1.00  0.00     0.022 A 
BRANCH  96  99
ATOM     99  S   UNL A   1      45.444  25.411  38.606  1.00  0.00     0.127 S 
ATOM    100  O   UNL A   1      44.546  24.417  38.022  1.00  0.00    -0.237 OA
ATOM    101  O   UNL A   1      46.847  24.998  38.679  1.00  0.00    -0.237 OA
ATOM    102  O   UNL A   1      44.945  26.073  39.804  1.00  0.00    -0.744 OA
ENDBRANCH  96  99
ENDBRANCH  69  92
ENDBRANCH  43  44
ENDBRANCH  35  38
ENDBRANCH  33  34
ENDBRANCH  32  33
ENDBRANCH   1  32
TORSDOF 18
ENDMDL
MODEL 3
REMARK VINA RESULT:     -10.6      6.289     11.566
REMARK SMILES Nc1c(Nc2ccc(I)cc2)ncnc1Nc1ccc(C(=O)NCCCNC(=O)c2ccc(-c3c4nc(c(-c5cccc(S(=O)(=O)[O-])c5F)c5ccc([nH]5)c(-c5cccc(S(=O)(=O)[O-])c5F)c5nc(c(-c6cccc(S(=O)(=O)[O-])c6F)c6ccc3[nH]6)C=C5)C=C4)cc2)cc1
REMARK SMILES IDX 24 1 23 2 21 3 22 4 20 6 17 7 18 8 94 9 19 10 93 11 16 12
REMARK SMILES IDX 15 14 2 15 3 16 12 17 14 18 13 19 1 20 4 23 5 25 6 26 11 27
REMARK SMILES IDX 7 28 10 29 8 30 9 31 25 32 26 33 27 34 28 35 29 37 30 38
REMARK SMILES IDX 31 39 92 40 32 41 91 42 33 43 34 44 35 45 85 46 36 47 90 48
REMARK SMILES IDX 84 49 86 50 37 51 89 52 83 53 82 54 38 56 70 57 50 58 69 59
REMARK SMILES IDX 51 60 54 61 68 62 87 63 52 64 53 65 67 67 88 68 55 69 39 70
REMARK SMILES IDX 40 71 48 72 41 73 43 74 49 75 42 76 44 77 45 78 46 79 47 80
REMARK SMILES IDX 71 81 72 82 80 83 73 84 75 85 81 86 74 87 76 88 77 89 78 90
REMARK SMILES IDX 79 91 56 92 57 93 65 94 58 95 60 96 66 97 59 98 61 99 62 100
REMARK SMILES IDX 63 101 64 102
REMARK H PARENT 23 5 16 13 1 21 1 22 4 24 27 36 86 55 54 66
REMARK Flexibility Score: inf
ROOT
ATOM      1  C   UNL A   1      40.071  19.623  25.740  1.00  0.00     0.118 C 
ENDROOT
BRANCH   1   2
ATOM      2  N   UNL A   1      40.263  20.891  26.421  1.00  0.00    -0.352 N 
ATOM      3  C   UNL A   1      39.524  22.043  26.475  1.00  0.00     0.251 C 
ATOM      4  O   UNL A   1      39.953  22.951  27.192  1.00  0.00    -0.269 OA
ATOM      5  H   UNL A   1      41.091  20.931  26.952  1.00  0.00     0.163 HD
BRANCH   3   6
ATOM      6  C   UNL A   1      38.214  22.229  25.786  1.00  0.00     0.039 A 
ATOM      7  C   UNL A   1      35.652  22.758  24.709  1.00  0.00     0.040 A 
ATOM      8  C   UNL A   1      36.416  23.791  25.253  1.00  0.00     0.027 A 
ATOM      9  C   UNL A   1      36.208  21.477  24.651  1.00  0.00     0.027 A 
ATOM     10  C   UNL A   1      37.678  23.527  25.794  1.00  0.00     0.016 A 
ATOM     11  C   UNL A   1      37.492  21.222  25.147  1.00  0.00     0.016 A 
BRANCH   7  12
ATOM     12  N   UNL A   1      34.307  22.975  24.368  1.00  0.00    -0.338 N 
ATOM     13  H   UNL A   1      33.984  22.595  23.520  1.00  0.00     0.168 HD
BRANCH  12  14
ATOM     14  C   UNL A   1      33.383  23.703  25.161  1.00  0.00     0.159 A 
ATOM     15  C   UNL A   1      33.173  25.058  24.869  1.00  0.00     0.118 A 
ATOM     16  C   UNL A   1      32.286  25.723  25.727  1.00  0.00     0.159 A 
ATOM     17  N   UNL A   1      31.697  25.112  26.774  1.00  0.00    -0.217 NA
ATOM     18  N   UNL A   1      32.751  23.071  26.168  1.00  0.00    -0.217 NA
ATOM     19  C   UNL A   1      31.946  23.811  26.929  1.00  0.00     0.226 A 
BRANCH  15  20
ATOM     20  N   UNL A   1      33.850  25.702  23.826  1.00  0.00    -0.393 N 
ATOM     21  H   UNL A   1      33.636  26.636  23.602  1.00  0.00     0.156 HD
ATOM     22  H   UNL A   1      34.540  25.219  23.315  1.00  0.00     0.156 HD
ENDBRANCH  15  20
BRANCH  16  23
ATOM     23  N   UNL A   1      31.962  27.077  25.458  1.00  0.00    -0.338 N 
ATOM     24  H   UNL A   1      31.225  27.241  24.827  1.00  0.00     0.168 HD
BRANCH  23  25
ATOM     25  C   UNL A   1      32.594  28.210  26.004  1.00  0.00     0.040 A 
ATOM     26  C   UNL A   1      31.840  29.358  26.281  1.00  0.00     0.027 A 
ATOM     27  C   UNL A   1      33.946  28.193  26.371  1.00  0.00     0.027 A 
ATOM     28  C   UNL A   1      32.418  30.456  26.926  1.00  0.00     0.017 A 
ATOM     29  C   UNL A   1      34.534  29.292  27.005  1.00  0.00     0.017 A 
ATOM     30  C   UNL A   1      33.763  30.417  27.288  1.00  0.00     0.013 A 
ATOM     31  I   UNL A   1      34.614  32.031  28.281  1.00  0.00    -0.044 I 
ENDBRANCH  23  25
ENDBRANCH  16  23
ENDBRANCH  12  14
ENDBRANCH   7  12
ENDBRANCH   3   6
ENDBRANCH   1   2
BRANCH   1  32
ATOM     32  C   UNL A   1      41.253  18.686  25.983  1.00  0.00     0.042 C 
BRANCH  32  33
ATOM     33  C   UNL A   1      42.572  19.428  26.195  1.00  0.00     0.118 C 
BRANCH  33  34
ATOM     34  N   UNL A   1      43.522  19.159  25.122  1.00  0.00    -0.352 N 
ATOM     35  C   UNL A   1      44.316  20.024  24.413  1.00  0.00     0.251 C 
ATOM     36  H   UNL A   1      43.607  18.211  24.868  1.00  0.00     0.163 HD
ATOM     37  O   UNL A   1      44.858  19.639  23.381  1.00  0.00    -0.269 OA
BRANCH  35  38
ATOM     38  C   UNL A   1      44.522  21.411  24.884  1.00  0.00     0.039 A 
ATOM     39  C   UNL A   1      45.253  21.627  26.056  1.00  0.00     0.014 A 
ATOM     40  C   UNL A   1      43.954  22.493  24.203  1.00  0.00     0.014 A 
ATOM     41  C   UNL A   1      45.452  22.929  26.519  1.00  0.00     0.010 A 
ATOM     42  C   UNL A   1      44.211  23.793  24.627  1.00  0.00     0.010 A 
ATOM     43  C   UNL A   1      44.951  24.025  25.796  1.00  0.00    -0.014 A 
BRANCH  43  44
ATOM     44  C   UNL A   1      45.180  25.418  26.255  1.00  0.00     0.031 A 
ATOM     45  C   UNL A   1      46.570  25.995  26.253  1.00  0.00     0.074 A 
ATOM     46  C   UNL A   1      44.147  26.139  26.733  1.00  0.00     0.049 A 
ATOM     47  N   UNL A   1      46.973  27.171  26.657  1.00  0.00    -0.248 NA
ATOM     48  C   UNL A   1      47.654  25.133  25.750  1.00  0.00     0.031 C 
ATOM     49  C   UNL A   1      42.765  25.663  26.843  1.00  0.00     0.029 A 
ATOM     50  N   UNL A   1      44.097  27.416  27.235  1.00  0.00    -0.354 N 
ATOM     51  C   UNL A   1      48.352  27.182  26.482  1.00  0.00     0.074 A 
ATOM     52  C   UNL A   1      48.725  25.882  25.971  1.00  0.00     0.031 C 
ATOM     53  C   UNL A   1      42.005  26.637  27.367  1.00  0.00     0.029 A 
ATOM     54  C   UNL A   1      42.844  27.795  27.660  1.00  0.00     0.049 A 
ATOM     55  H   UNL A   1      44.884  28.005  27.286  1.00  0.00     0.167 HD
ATOM     56  C   UNL A   1      49.223  28.196  26.693  1.00  0.00     0.034 A 
ATOM     57  C   UNL A   1      42.422  28.945  28.222  1.00  0.00     0.034 A 
ATOM     58  C   UNL A   1      48.838  29.502  27.156  1.00  0.00     0.049 A 
ATOM     59  C   UNL A   1      43.411  30.062  28.426  1.00  0.00     0.074 A 
ATOM     60  C   UNL A   1      49.637  30.617  27.332  1.00  0.00     0.029 A 
ATOM     61  N   UNL A   1      47.551  29.868  27.513  1.00  0.00    -0.354 N 
ATOM     62  N   UNL A   1      44.685  30.101  28.119  1.00  0.00    -0.248 NA
ATOM     63  C   UNL A   1      42.900  31.306  29.021  1.00  0.00     0.031 C 
ATOM     64  C   UNL A   1      48.835  31.654  27.817  1.00  0.00     0.029 A 
ATOM     65  C   UNL A   1      47.532  31.192  27.918  1.00  0.00     0.049 A 
ATOM     66  H   UNL A   1      46.766  29.276  27.484  1.00  0.00     0.167 HD
ATOM     67  C   UNL A   1      45.120  31.378  28.456  1.00  0.00     0.074 A 
ATOM     68  C   UNL A   1      43.967  32.091  28.965  1.00  0.00     0.031 C 
ATOM     69  C   UNL A   1      46.366  31.905  28.370  1.00  0.00     0.034 A 
BRANCH  56  70
ATOM     70  C   UNL A   1      50.675  27.969  26.357  1.00  0.00     0.023 A 
ATOM     71  C   UNL A   1      51.581  27.661  27.391  1.00  0.00     0.012 A 
ATOM     72  C   UNL A   1      51.118  27.947  25.019  1.00  0.00     0.148 A 
ATOM     73  C   UNL A   1      52.909  27.354  27.105  1.00  0.00     0.002 A 
ATOM     74  C   UNL A   1      52.433  27.594  24.738  1.00  0.00     0.091 A 
ATOM     75  F   UNL A   1      50.243  28.257  24.052  1.00  0.00    -0.205 F 
ATOM     76  C   UNL A   1      53.332  27.307  25.779  1.00  0.00     0.022 A 
BRANCH  74  77
ATOM     77  S   UNL A   1      53.058  27.418  23.062  1.00  0.00     0.127 S 
ATOM     78  O   UNL A   1      53.204  28.815  22.653  1.00  0.00    -0.237 OA
ATOM     79  O   UNL A   1      54.321  26.711  23.281  1.00  0.00    -0.237 OA
ATOM     80  O   UNL A   1      52.051  26.661  22.332  1.00  0.00    -0.744 OA
ENDBRANCH  74  77
ENDBRANCH  56  70
BRANCH  57  81
ATOM     81  C   UNL A   1      40.978  29.122  28.559  1.00  0.00     0.023 A 
ATOM     82  C   UNL A   1      40.054  29.352  27.522  1.00  0.00     0.012 A 
ATOM     83  C   UNL A   1      40.510  29.023  29.885  1.00  0.00     0.148 A 
ATOM     84  C   UNL A   1      38.695  29.509  27.800  1.00  0.00     0.002 A 
ATOM     85  C   UNL A   1      39.148  29.121  30.147  1.00  0.00     0.091 A 
ATOM     86  F   UNL A   1      41.405  28.817  30.861  1.00  0.00    -0.205 F 
ATOM     87  C   UNL A   1      38.241  29.381  29.109  1.00  0.00     0.022 A 
BRANCH  85  88
ATOM     88  S   UNL A   1      38.458  28.826  31.781  1.00  0.00     0.127 S 
ATOM     89  O   UNL A   1      39.102  29.873  32.571  1.00  0.00    -0.237 OA
ATOM     90  O   UNL A   1      37.028  29.024  31.545  1.00  0.00    -0.237 OA
ATOM     91  O   UNL A   1      38.824  27.459  32.121  1.00  0.00    -0.744 OA
ENDBRANCH  85  88
ENDBRANCH  57  81
BRANCH  69  92
ATOM     92  C   UNL A   1      46.565  33.330  28.820  1.00  0.00     0.023 A 
ATOM     93  C   UNL A   1      47.032  33.587  30.124  1.00  0.00     0.012 A 
ATOM     94  C   UNL A   1      46.410  34.400  27.916  1.00  0.00     0.148 A 
ATOM     95  C   UNL A   1      47.321  34.889  30.529  1.00  0.00     0.002 A 
ATOM     96  C   UNL A   1      46.751  35.689  28.310  1.00  0.00     0.091 A 
ATOM     97  F   UNL A   1      45.951  34.135  26.684  1.00  0.00    -0.205 F 
ATOM     98  C   UNL A   1      47.196  35.936  29.619  1.00  0.00     0.022 A 
BRANCH  96  99
ATOM     99  S   UNL A   1      46.727  37.083  27.178  1.00  0.00     0.127 S 
ATOM    100  O   UNL A   1      47.187  38.172  28.037  1.00  0.00    -0.237 OA
ATOM    101  O   UNL A   1      47.687  36.666  26.154  1.00  0.00    -0.237 OA
ATOM    102  O   UNL A   1      45.353  37.199  26.709  1.00  0.00    -0.744 OA
ENDBRANCH  96  99
ENDBRANCH  69  92
ENDBRANCH  43  44
ENDBRANCH  35  38
ENDBRANCH  33  34
ENDBRANCH  32  33
ENDBRANCH   1  32
TORSDOF 18
ENDMDL
