MODEL 1
REMARK VINA RESULT:     -13.2      0.000      0.000
REMARK SMILES Cc1ccc(C(=O)NCCCNC(=O)c2ccc(-c3c4nc(c(-c5cccc(S(=O)(=O)[O-])c5F)c5ccc([nH]5)c(-c5cccc(S(=O)(=O)[O-])c5F)c5nc(c(-c6cccc(S(=O)(=O)[O-])c6F)c6ccc3[nH]6)C=C5)C=C4)cc2)c2c1N[C@H](c1ccccc1F)[C@H]1CC=C[C@@H]21
REMARK SMILES IDX 11 1 10 2 9 3 8 4 6 5 7 6 5 8 1 9 2 10 3 11 79 12 4 13 78 14
REMARK SMILES IDX 80 15 93 16 81 17 89 19 92 20 90 21 91 22 82 23 83 24 87 25
REMARK SMILES IDX 84 26 86 27 88 28 85 29 12 30 13 31 14 33 15 34 16 35 77 36
REMARK SMILES IDX 17 37 76 38 18 39 19 40 20 41 70 42 21 43 75 44 69 45 71 46
REMARK SMILES IDX 22 47 74 48 68 49 67 50 23 52 55 53 35 54 54 55 36 56 39 57
REMARK SMILES IDX 53 58 72 59 37 60 38 61 52 63 73 64 40 65 24 66 25 67 33 68
REMARK SMILES IDX 26 69 28 70 34 71 27 72 29 73 30 74 31 75 32 76 56 77 57 78
REMARK SMILES IDX 65 79 58 80 60 81 66 82 59 83 61 84 62 85 63 86 64 87 41 88
REMARK SMILES IDX 42 89 50 90 43 91 45 92 51 93 44 94 46 95 47 96 48 97 49 98
REMARK H PARENT 8 7 80 18 12 32 71 51 39 62
REMARK Flexibility Score: inf
ROOT
ATOM      1  C   UNL A   1      32.722  30.114  27.001  1.00  0.00     0.118 C 
ENDROOT
BRANCH   1   2
ATOM      2  C   UNL A   1      33.381  29.436  25.799  1.00  0.00     0.042 C 
BRANCH   2   3
ATOM      3  C   UNL A   1      33.826  28.003  26.099  1.00  0.00     0.118 C 
BRANCH   3   4
ATOM      4  N   UNL A   1      32.699  27.220  26.563  1.00  0.00    -0.352 N 
ATOM      5  C   UNL A   1      31.890  26.260  26.015  1.00  0.00     0.251 C 
ATOM      6  O   UNL A   1      30.896  26.010  26.697  1.00  0.00    -0.269 OA
ATOM      7  H   UNL A   1      32.456  27.427  27.495  1.00  0.00     0.163 HD
BRANCH   5   8
ATOM      8  C   UNL A   1      32.172  25.522  24.729  1.00  0.00     0.045 A 
ATOM      9  C   UNL A   1      33.160  23.578  20.978  1.00  0.00     0.046 C 
ATOM     10  C   UNL A   1      32.767  24.193  22.295  1.00  0.00    -0.028 A 
ATOM     11  C   UNL A   1      32.301  25.509  22.298  1.00  0.00     0.006 A 
ATOM     12  C   UNL A   1      32.857  23.482  23.512  1.00  0.00     0.042 A 
ATOM     13  C   UNL A   1      31.970  26.143  23.493  1.00  0.00     0.014 A 
ATOM     14  C   UNL A   1      32.597  24.156  24.734  1.00  0.00    -0.005 A 
ATOM     15  N   UNL A   1      33.203  22.139  23.490  1.00  0.00    -0.377 N 
ATOM     16  C   UNL A   1      32.700  23.370  26.024  1.00  0.00     0.050 C 
ATOM     17  C   UNL A   1      33.632  21.422  24.678  1.00  0.00     0.117 C 
ATOM     18  H   UNL A   1      33.156  21.653  22.634  1.00  0.00     0.161 HD
ATOM     19  C   UNL A   1      32.783  21.840  25.885  1.00  0.00     0.031 C 
ATOM     20  C   UNL A   1      33.903  23.665  26.882  1.00  0.00    -0.023 C 
ATOM     21  C   UNL A   1      33.438  21.399  27.210  1.00  0.00     0.034 C 
ATOM     22  C   UNL A   1      34.294  22.576  27.556  1.00  0.00    -0.030 C 
BRANCH  17  23
ATOM     23  C   UNL A   1      33.679  19.926  24.367  1.00  0.00     0.010 A 
ATOM     24  C   UNL A   1      32.540  19.325  23.794  1.00  0.00     0.009 A 
ATOM     25  C   UNL A   1      34.791  19.101  24.588  1.00  0.00     0.128 A 
ATOM     26  C   UNL A   1      32.531  17.970  23.443  1.00  0.00     0.001 A 
ATOM     27  C   UNL A   1      34.789  17.752  24.237  1.00  0.00     0.039 A 
ATOM     28  F   UNL A   1      35.923  19.578  25.122  1.00  0.00    -0.207 F 
ATOM     29  C   UNL A   1      33.660  17.184  23.659  1.00  0.00     0.003 A 
ENDBRANCH  17  23
ENDBRANCH   5   8
ENDBRANCH   3   4
ENDBRANCH   2   3
ENDBRANCH   1   2
BRANCH   1  30
ATOM     30  N   UNL A   1      32.818  31.565  26.912  1.00  0.00    -0.352 N 
ATOM     31  C   UNL A   1      33.673  32.412  27.570  1.00  0.00     0.251 C 
ATOM     32  H   UNL A   1      32.182  31.997  26.295  1.00  0.00     0.163 HD
ATOM     33  O   UNL A   1      33.431  33.613  27.627  1.00  0.00    -0.269 OA
BRANCH  31  34
ATOM     34  C   UNL A   1      34.891  31.865  28.198  1.00  0.00     0.039 A 
ATOM     35  C   UNL A   1      36.089  32.576  28.105  1.00  0.00     0.014 A 
ATOM     36  C   UNL A   1      34.844  30.628  28.848  1.00  0.00     0.014 A 
ATOM     37  C   UNL A   1      37.240  32.060  28.702  1.00  0.00     0.010 A 
ATOM     38  C   UNL A   1      35.977  30.143  29.489  1.00  0.00     0.010 A 
ATOM     39  C   UNL A   1      37.187  30.846  29.404  1.00  0.00    -0.014 A 
BRANCH  39  40
ATOM     40  C   UNL A   1      38.400  30.268  30.027  1.00  0.00     0.031 A 
ATOM     41  C   UNL A   1      38.816  30.717  31.399  1.00  0.00     0.074 A 
ATOM     42  C   UNL A   1      39.158  29.398  29.334  1.00  0.00     0.049 A 
ATOM     43  N   UNL A   1      39.853  30.350  32.101  1.00  0.00    -0.248 NA
ATOM     44  C   UNL A   1      37.966  31.722  32.062  1.00  0.00     0.031 C 
ATOM     45  C   UNL A   1      38.882  28.936  27.973  1.00  0.00     0.029 A 
ATOM     46  N   UNL A   1      40.325  28.763  29.674  1.00  0.00    -0.354 N 
ATOM     47  C   UNL A   1      39.802  31.099  33.269  1.00  0.00     0.074 A 
ATOM     48  C   UNL A   1      38.643  31.958  33.176  1.00  0.00     0.031 C 
ATOM     49  C   UNL A   1      39.850  28.085  27.596  1.00  0.00     0.029 A 
ATOM     50  C   UNL A   1      40.821  27.955  28.679  1.00  0.00     0.049 A 
ATOM     51  H   UNL A   1      40.764  28.875  30.549  1.00  0.00     0.167 HD
ATOM     52  C   UNL A   1      40.635  31.057  34.334  1.00  0.00     0.034 A 
ATOM     53  C   UNL A   1      41.933  27.194  28.646  1.00  0.00     0.034 A 
ATOM     54  C   UNL A   1      41.755  30.167  34.442  1.00  0.00     0.049 A 
ATOM     55  C   UNL A   1      42.825  27.140  29.853  1.00  0.00     0.074 A 
ATOM     56  C   UNL A   1      42.595  29.978  35.524  1.00  0.00     0.029 A 
ATOM     57  N   UNL A   1      42.199  29.328  33.434  1.00  0.00    -0.354 N 
ATOM     58  N   UNL A   1      42.682  27.750  31.005  1.00  0.00    -0.248 NA
ATOM     59  C   UNL A   1      44.012  26.277  29.772  1.00  0.00     0.031 C 
ATOM     60  C   UNL A   1      43.564  29.040  35.161  1.00  0.00     0.029 A 
ATOM     61  C   UNL A   1      43.313  28.630  33.861  1.00  0.00     0.049 A 
ATOM     62  H   UNL A   1      41.783  29.242  32.545  1.00  0.00     0.167 HD
ATOM     63  C   UNL A   1      43.746  27.328  31.795  1.00  0.00     0.074 A 
ATOM     64  C   UNL A   1      44.521  26.403  30.993  1.00  0.00     0.031 C 
ATOM     65  C   UNL A   1      44.051  27.683  33.065  1.00  0.00     0.034 A 
BRANCH  52  66
ATOM     66  C   UNL A   1      40.338  31.961  35.496  1.00  0.00     0.023 A 
ATOM     67  C   UNL A   1      41.093  33.137  35.669  1.00  0.00     0.012 A 
ATOM     68  C   UNL A   1      39.256  31.693  36.356  1.00  0.00     0.148 A 
ATOM     69  C   UNL A   1      40.784  34.031  36.691  1.00  0.00     0.002 A 
ATOM     70  C   UNL A   1      38.933  32.606  37.352  1.00  0.00     0.091 A 
ATOM     71  F   UNL A   1      38.566  30.559  36.179  1.00  0.00    -0.205 F 
ATOM     72  C   UNL A   1      39.698  33.772  37.525  1.00  0.00     0.022 A 
BRANCH  70  73
ATOM     73  S   UNL A   1      37.523  32.394  38.444  1.00  0.00     0.127 S 
ATOM     74  O   UNL A   1      37.942  33.163  39.617  1.00  0.00    -0.237 OA
ATOM     75  O   UNL A   1      36.444  33.004  37.669  1.00  0.00    -0.237 OA
ATOM     76  O   UNL A   1      37.389  30.961  38.661  1.00  0.00    -0.744 OA
ENDBRANCH  70  73
ENDBRANCH  52  66
BRANCH  53  77
ATOM     77  C   UNL A   1      42.197  26.358  27.445  1.00  0.00     0.023 A 
ATOM     78  C   UNL A   1      42.857  26.935  26.344  1.00  0.00     0.012 A 
ATOM     79  C   UNL A   1      41.892  24.983  27.427  1.00  0.00     0.148 A 
ATOM     80  C   UNL A   1      43.209  26.157  25.240  1.00  0.00     0.002 A 
ATOM     81  C   UNL A   1      42.277  24.207  26.340  1.00  0.00     0.091 A 
ATOM     82  F   UNL A   1      41.271  24.459  28.492  1.00  0.00    -0.205 F 
ATOM     83  C   UNL A   1      42.928  24.793  25.243  1.00  0.00     0.022 A 
BRANCH  81  84
ATOM     84  S   UNL A   1      42.049  22.426  26.286  1.00  0.00     0.127 S 
ATOM     85  O   UNL A   1      40.593  22.309  26.268  1.00  0.00    -0.237 OA
ATOM     86  O   UNL A   1      42.710  22.082  25.027  1.00  0.00    -0.237 OA
ATOM     87  O   UNL A   1      42.700  21.905  27.480  1.00  0.00    -0.744 OA
ENDBRANCH  81  84
ENDBRANCH  53  77
BRANCH  65  88
ATOM     88  C   UNL A   1      45.271  27.077  33.702  1.00  0.00     0.023 A 
ATOM     89  C   UNL A   1      46.492  27.778  33.660  1.00  0.00     0.012 A 
ATOM     90  C   UNL A   1      45.167  25.902  34.471  1.00  0.00     0.148 A 
ATOM     91  C   UNL A   1      47.595  27.315  34.374  1.00  0.00     0.002 A 
ATOM     92  C   UNL A   1      46.260  25.466  35.209  1.00  0.00     0.091 A 
ATOM     93  F   UNL A   1      43.993  25.255  34.490  1.00  0.00    -0.205 F 
ATOM     94  C   UNL A   1      47.475  26.169  35.158  1.00  0.00     0.022 A 
BRANCH  92  95
ATOM     95  S   UNL A   1      46.182  24.049  36.310  1.00  0.00     0.127 S 
ATOM     96  O   UNL A   1      45.206  24.497  37.302  1.00  0.00    -0.237 OA
ATOM     97  O   UNL A   1      45.704  22.992  35.418  1.00  0.00    -0.237 OA
ATOM     98  O   UNL A   1      47.533  23.854  36.817  1.00  0.00    -0.744 OA
ENDBRANCH  92  95
ENDBRANCH  65  88
ENDBRANCH  39  40
ENDBRANCH  31  34
ENDBRANCH   1  30
TORSDOF 14
ENDMDL
MODEL 2
REMARK VINA RESULT:     -13.1      5.251     10.412
REMARK SMILES Cc1ccc(C(=O)NCCCNC(=O)c2ccc(-c3c4nc(c(-c5cccc(S(=O)(=O)[O-])c5F)c5ccc([nH]5)c(-c5cccc(S(=O)(=O)[O-])c5F)c5nc(c(-c6cccc(S(=O)(=O)[O-])c6F)c6ccc3[nH]6)C=C5)C=C4)cc2)c2c1N[C@H](c1ccccc1F)[C@H]1CC=C[C@@H]21
REMARK SMILES IDX 11 1 10 2 9 3 8 4 6 5 7 6 5 8 1 9 2 10 3 11 79 12 4 13 78 14
REMARK SMILES IDX 80 15 93 16 81 17 89 19 92 20 90 21 91 22 82 23 83 24 87 25
REMARK SMILES IDX 84 26 86 27 88 28 85 29 12 30 13 31 14 33 15 34 16 35 77 36
REMARK SMILES IDX 17 37 76 38 18 39 19 40 20 41 70 42 21 43 75 44 69 45 71 46
REMARK SMILES IDX 22 47 74 48 68 49 67 50 23 52 55 53 35 54 54 55 36 56 39 57
REMARK SMILES IDX 53 58 72 59 37 60 38 61 52 63 73 64 40 65 24 66 25 67 33 68
REMARK SMILES IDX 26 69 28 70 34 71 27 72 29 73 30 74 31 75 32 76 56 77 57 78
REMARK SMILES IDX 65 79 58 80 60 81 66 82 59 83 61 84 62 85 63 86 64 87 41 88
REMARK SMILES IDX 42 89 50 90 43 91 45 92 51 93 44 94 46 95 47 96 48 97 49 98
REMARK H PARENT 8 7 80 18 12 32 71 51 39 62
REMARK Flexibility Score: inf
ROOT
ATOM      1  C   UNL A   1      37.657  22.142  25.173  1.00  0.00     0.118 C 
ENDROOT
BRANCH   1   2
ATOM      2  C   UNL A   1      36.351  22.430  25.918  1.00  0.00     0.042 C 
BRANCH   2   3
ATOM      3  C   UNL A   1      35.793  23.821  25.615  1.00  0.00     0.118 C 
BRANCH   3   4
ATOM      4  N   UNL A   1      35.376  23.900  24.230  1.00  0.00    -0.352 N 
ATOM      5  C   UNL A   1      34.173  23.974  23.580  1.00  0.00     0.251 C 
ATOM      6  O   UNL A   1      34.263  23.799  22.365  1.00  0.00    -0.269 OA
ATOM      7  H   UNL A   1      36.139  23.900  23.608  1.00  0.00     0.163 HD
BRANCH   5   8
ATOM      8  C   UNL A   1      32.850  24.281  24.239  1.00  0.00     0.045 A 
ATOM      9  C   UNL A   1      29.159  25.118  26.360  1.00  0.00     0.046 C 
ATOM     10  C   UNL A   1      30.404  24.848  25.556  1.00  0.00    -0.028 A 
ATOM     11  C   UNL A   1      31.002  23.591  25.665  1.00  0.00     0.006 A 
ATOM     12  C   UNL A   1      30.973  25.820  24.706  1.00  0.00     0.042 A 
ATOM     13  C   UNL A   1      32.182  23.305  24.982  1.00  0.00     0.014 A 
ATOM     14  C   UNL A   1      32.218  25.554  24.077  1.00  0.00    -0.005 A 
ATOM     15  N   UNL A   1      30.308  27.022  24.507  1.00  0.00    -0.377 N 
ATOM     16  C   UNL A   1      32.806  26.614  23.170  1.00  0.00     0.050 C 
ATOM     17  C   UNL A   1      30.955  28.187  23.928  1.00  0.00     0.117 C 
ATOM     18  H   UNL A   1      29.361  27.087  24.769  1.00  0.00     0.161 HD
ATOM     19  C   UNL A   1      31.867  27.765  22.770  1.00  0.00     0.031 C 
ATOM     20  C   UNL A   1      33.995  27.363  23.715  1.00  0.00    -0.023 C 
ATOM     21  C   UNL A   1      32.841  28.897  22.384  1.00  0.00     0.034 C 
ATOM     22  C   UNL A   1      34.023  28.621  23.258  1.00  0.00    -0.030 C 
BRANCH  17  23
ATOM     23  C   UNL A   1      29.891  29.237  23.606  1.00  0.00     0.010 A 
ATOM     24  C   UNL A   1      28.851  28.888  22.721  1.00  0.00     0.009 A 
ATOM     25  C   UNL A   1      29.858  30.529  24.152  1.00  0.00     0.128 A 
ATOM     26  C   UNL A   1      27.822  29.787  22.418  1.00  0.00     0.001 A 
ATOM     27  C   UNL A   1      28.832  31.426  23.857  1.00  0.00     0.039 A 
ATOM     28  F   UNL A   1      30.796  30.954  25.007  1.00  0.00    -0.207 F 
ATOM     29  C   UNL A   1      27.809  31.055  22.993  1.00  0.00     0.003 A 
ENDBRANCH  17  23
ENDBRANCH   5   8
ENDBRANCH   3   4
ENDBRANCH   2   3
ENDBRANCH   1   2
BRANCH   1  30
ATOM     30  N   UNL A   1      38.456  21.141  25.869  1.00  0.00    -0.352 N 
ATOM     31  C   UNL A   1      39.670  21.291  26.491  1.00  0.00     0.251 C 
ATOM     32  H   UNL A   1      38.073  20.235  25.897  1.00  0.00     0.163 HD
ATOM     33  O   UNL A   1      40.353  20.308  26.757  1.00  0.00    -0.269 OA
BRANCH  31  34
ATOM     34  C   UNL A   1      40.137  22.645  26.846  1.00  0.00     0.039 A 
ATOM     35  C   UNL A   1      39.680  23.742  26.113  1.00  0.00     0.014 A 
ATOM     36  C   UNL A   1      41.055  22.814  27.887  1.00  0.00     0.014 A 
ATOM     37  C   UNL A   1      40.119  25.023  26.451  1.00  0.00     0.010 A 
ATOM     38  C   UNL A   1      41.448  24.094  28.258  1.00  0.00     0.010 A 
ATOM     39  C   UNL A   1      40.998  25.206  27.531  1.00  0.00    -0.014 A 
BRANCH  39  40
ATOM     40  C   UNL A   1      41.494  26.552  27.895  1.00  0.00     0.031 A 
ATOM     41  C   UNL A   1      42.916  26.928  27.588  1.00  0.00     0.074 A 
ATOM     42  C   UNL A   1      40.690  27.405  28.557  1.00  0.00     0.049 A 
ATOM     43  N   UNL A   1      43.542  28.044  27.847  1.00  0.00    -0.248 NA
ATOM     44  C   UNL A   1      43.748  25.913  26.919  1.00  0.00     0.031 C 
ATOM     45  C   UNL A   1      39.311  27.124  28.959  1.00  0.00     0.029 A 
ATOM     46  N   UNL A   1      40.925  28.672  29.027  1.00  0.00    -0.354 N 
ATOM     47  C   UNL A   1      44.845  27.855  27.408  1.00  0.00     0.074 A 
ATOM     48  C   UNL A   1      44.930  26.512  26.882  1.00  0.00     0.031 C 
ATOM     49  C   UNL A   1      38.819  28.192  29.608  1.00  0.00     0.029 A 
ATOM     50  C   UNL A   1      39.852  29.222  29.684  1.00  0.00     0.049 A 
ATOM     51  H   UNL A   1      41.782  29.142  28.903  1.00  0.00     0.167 HD
ATOM     52  C   UNL A   1      45.874  28.734  27.420  1.00  0.00     0.034 A 
ATOM     53  C   UNL A   1      39.715  30.424  30.279  1.00  0.00     0.034 A 
ATOM     54  C   UNL A   1      45.771  30.084  27.897  1.00  0.00     0.049 A 
ATOM     55  C   UNL A   1      40.861  31.394  30.252  1.00  0.00     0.074 A 
ATOM     56  C   UNL A   1      46.729  31.080  27.855  1.00  0.00     0.029 A 
ATOM     57  N   UNL A   1      44.653  30.621  28.513  1.00  0.00    -0.354 N 
ATOM     58  N   UNL A   1      42.044  31.249  29.704  1.00  0.00    -0.248 NA
ATOM     59  C   UNL A   1      40.652  32.699  30.895  1.00  0.00     0.031 C 
ATOM     60  C   UNL A   1      46.197  32.217  28.468  1.00  0.00     0.029 A 
ATOM     61  C   UNL A   1      44.901  31.933  28.871  1.00  0.00     0.049 A 
ATOM     62  H   UNL A   1      43.808  30.142  28.670  1.00  0.00     0.167 HD
ATOM     63  C   UNL A   1      42.712  32.450  29.915  1.00  0.00     0.074 A 
ATOM     64  C   UNL A   1      41.799  33.316  30.634  1.00  0.00     0.031 C 
ATOM     65  C   UNL A   1      43.970  32.796  29.551  1.00  0.00     0.034 A 
BRANCH  52  66
ATOM     66  C   UNL A   1      47.190  28.286  26.852  1.00  0.00     0.023 A 
ATOM     67  C   UNL A   1      48.249  27.968  27.724  1.00  0.00     0.012 A 
ATOM     68  C   UNL A   1      47.344  28.091  25.465  1.00  0.00     0.148 A 
ATOM     69  C   UNL A   1      49.451  27.474  27.224  1.00  0.00     0.002 A 
ATOM     70  C   UNL A   1      48.534  27.566  24.978  1.00  0.00     0.091 A 
ATOM     71  F   UNL A   1      46.326  28.418  24.658  1.00  0.00    -0.205 F 
ATOM     72  C   UNL A   1      49.590  27.262  25.854  1.00  0.00     0.022 A 
BRANCH  70  73
ATOM     73  S   UNL A   1      48.796  27.205  23.238  1.00  0.00     0.127 S 
ATOM     74  O   UNL A   1      50.257  27.147  23.167  1.00  0.00    -0.237 OA
ATOM     75  O   UNL A   1      48.127  25.913  23.092  1.00  0.00    -0.237 OA
ATOM     76  O   UNL A   1      48.186  28.300  22.500  1.00  0.00    -0.744 OA
ENDBRANCH  70  73
ENDBRANCH  52  66
BRANCH  53  77
ATOM     77  C   UNL A   1      38.400  30.790  30.868  1.00  0.00     0.023 A 
ATOM     78  C   UNL A   1      38.170  30.538  32.233  1.00  0.00     0.012 A 
ATOM     79  C   UNL A   1      37.423  31.471  30.116  1.00  0.00     0.148 A 
ATOM     80  C   UNL A   1      36.987  30.956  32.843  1.00  0.00     0.002 A 
ATOM     81  C   UNL A   1      36.262  31.916  30.737  1.00  0.00     0.091 A 
ATOM     82  F   UNL A   1      37.672  31.705  28.820  1.00  0.00    -0.205 F 
ATOM     83  C   UNL A   1      36.039  31.653  32.099  1.00  0.00     0.022 A 
BRANCH  81  84
ATOM     84  S   UNL A   1      35.023  32.905  29.893  1.00  0.00     0.127 S 
ATOM     85  O   UNL A   1      34.501  31.958  28.910  1.00  0.00    -0.237 OA
ATOM     86  O   UNL A   1      34.106  33.226  30.987  1.00  0.00    -0.237 OA
ATOM     87  O   UNL A   1      35.736  34.047  29.338  1.00  0.00    -0.744 OA
ENDBRANCH  81  84
ENDBRANCH  53  77
BRANCH  65  88
ATOM     88  C   UNL A   1      44.461  34.172  29.903  1.00  0.00     0.023 A 
ATOM     89  C   UNL A   1      45.253  34.349  31.054  1.00  0.00     0.012 A 
ATOM     90  C   UNL A   1      44.273  35.248  29.013  1.00  0.00     0.148 A 
ATOM     91  C   UNL A   1      45.850  35.580  31.316  1.00  0.00     0.002 A 
ATOM     92  C   UNL A   1      44.900  36.462  29.262  1.00  0.00     0.091 A 
ATOM     93  F   UNL A   1      43.513  35.051  27.927  1.00  0.00    -0.205 F 
ATOM     94  C   UNL A   1      45.685  36.631  30.415  1.00  0.00     0.022 A 
BRANCH  92  95
ATOM     95  S   UNL A   1      44.815  37.848  28.122  1.00  0.00     0.127 S 
ATOM     96  O   UNL A   1      45.600  38.861  28.827  1.00  0.00    -0.237 OA
ATOM     97  O   UNL A   1      45.457  37.302  26.926  1.00  0.00    -0.237 OA
ATOM     98  O   UNL A   1      43.401  38.160  27.967  1.00  0.00    -0.744 OA
ENDBRANCH  92  95
ENDBRANCH  65  88
ENDBRANCH  39  40
ENDBRANCH  31  34
ENDBRANCH   1  30
TORSDOF 14
ENDMDL
MODEL 3
REMARK VINA RESULT:     -13.0      5.093      9.895
REMARK SMILES Cc1ccc(C(=O)NCCCNC(=O)c2ccc(-c3c4nc(c(-c5cccc(S(=O)(=O)[O-])c5F)c5ccc([nH]5)c(-c5cccc(S(=O)(=O)[O-])c5F)c5nc(c(-c6cccc(S(=O)(=O)[O-])c6F)c6ccc3[nH]6)C=C5)C=C4)cc2)c2c1N[C@H](c1ccccc1F)[C@H]1CC=C[C@@H]21
REMARK SMILES IDX 11 1 10 2 9 3 8 4 6 5 7 6 5 8 1 9 2 10 3 11 79 12 4 13 78 14
REMARK SMILES IDX 80 15 93 16 81 17 89 19 92 20 90 21 91 22 82 23 83 24 87 25
REMARK SMILES IDX 84 26 86 27 88 28 85 29 12 30 13 31 14 33 15 34 16 35 77 36
REMARK SMILES IDX 17 37 76 38 18 39 19 40 20 41 70 42 21 43 75 44 69 45 71 46
REMARK SMILES IDX 22 47 74 48 68 49 67 50 23 52 55 53 35 54 54 55 36 56 39 57
REMARK SMILES IDX 53 58 72 59 37 60 38 61 52 63 73 64 40 65 24 66 25 67 33 68
REMARK SMILES IDX 26 69 28 70 34 71 27 72 29 73 30 74 31 75 32 76 56 77 57 78
REMARK SMILES IDX 65 79 58 80 60 81 66 82 59 83 61 84 62 85 63 86 64 87 41 88
REMARK SMILES IDX 42 89 50 90 43 91 45 92 51 93 44 94 46 95 47 96 48 97 49 98
REMARK H PARENT 8 7 80 18 12 32 71 51 39 62
REMARK Flexibility Score: inf
ROOT
ATOM      1  C   UNL A   1      36.828  23.517  25.620  1.00  0.00     0.118 C 
ENDROOT
BRANCH   1   2
ATOM      2  C   UNL A   1      35.435  23.151  26.137  1.00  0.00     0.042 C 
BRANCH   2   3
ATOM      3  C   UNL A   1      34.961  21.783  25.642  1.00  0.00     0.118 C 
BRANCH   3   4
ATOM      4  N   UNL A   1      34.386  21.905  24.318  1.00  0.00    -0.352 N 
ATOM      5  C   UNL A   1      33.157  22.242  23.819  1.00  0.00     0.251 C 
ATOM      6  O   UNL A   1      33.034  22.003  22.618  1.00  0.00    -0.269 OA
ATOM      7  H   UNL A   1      35.035  21.697  23.607  1.00  0.00     0.163 HD
BRANCH   5   8
ATOM      8  C   UNL A   1      32.047  22.887  24.615  1.00  0.00     0.045 A 
ATOM      9  C   UNL A   1      28.997  24.699  27.112  1.00  0.00     0.046 C 
ATOM     10  C   UNL A   1      30.012  24.089  26.182  1.00  0.00    -0.028 A 
ATOM     11  C   UNL A   1      30.390  22.762  26.393  1.00  0.00     0.006 A 
ATOM     12  C   UNL A   1      30.583  24.815  25.114  1.00  0.00     0.042 A 
ATOM     13  C   UNL A   1      31.360  22.163  25.593  1.00  0.00     0.014 A 
ATOM     14  C   UNL A   1      31.630  24.230  24.353  1.00  0.00    -0.005 A 
ATOM     15  N   UNL A   1      30.115  26.091  24.833  1.00  0.00    -0.377 N 
ATOM     16  C   UNL A   1      32.224  25.030  23.214  1.00  0.00     0.050 C 
ATOM     17  C   UNL A   1      30.843  27.022  23.989  1.00  0.00     0.117 C 
ATOM     18  H   UNL A   1      29.256  26.375  25.221  1.00  0.00     0.161 HD
ATOM     19  C   UNL A   1      31.447  26.287  22.786  1.00  0.00     0.031 C 
ATOM     20  C   UNL A   1      33.603  25.589  23.450  1.00  0.00    -0.023 C 
ATOM     21  C   UNL A   1      32.520  27.145  22.086  1.00  0.00     0.034 C 
ATOM     22  C   UNL A   1      33.771  26.750  22.804  1.00  0.00    -0.030 C 
BRANCH  17  23
ATOM     23  C   UNL A   1      29.941  28.215  23.671  1.00  0.00     0.010 A 
ATOM     24  C   UNL A   1      28.657  27.964  23.146  1.00  0.00     0.009 A 
ATOM     25  C   UNL A   1      30.289  29.556  23.890  1.00  0.00     0.128 A 
ATOM     26  C   UNL A   1      27.765  29.007  22.875  1.00  0.00     0.001 A 
ATOM     27  C   UNL A   1      29.402  30.599  23.627  1.00  0.00     0.039 A 
ATOM     28  F   UNL A   1      31.482  29.899  24.392  1.00  0.00    -0.207 F 
ATOM     29  C   UNL A   1      28.135  30.327  23.122  1.00  0.00     0.003 A 
ENDBRANCH  17  23
ENDBRANCH   5   8
ENDBRANCH   3   4
ENDBRANCH   2   3
ENDBRANCH   1   2
BRANCH   1  30
ATOM     30  N   UNL A   1      37.820  22.527  26.020  1.00  0.00    -0.352 N 
ATOM     31  C   UNL A   1      39.109  22.726  26.448  1.00  0.00     0.251 C 
ATOM     32  H   UNL A   1      37.525  21.588  25.978  1.00  0.00     0.163 HD
ATOM     33  O   UNL A   1      39.909  21.796  26.450  1.00  0.00    -0.269 OA
BRANCH  31  34
ATOM     34  C   UNL A   1      39.517  24.065  26.914  1.00  0.00     0.039 A 
ATOM     35  C   UNL A   1      39.304  24.420  28.248  1.00  0.00     0.014 A 
ATOM     36  C   UNL A   1      40.080  24.974  26.014  1.00  0.00     0.014 A 
ATOM     37  C   UNL A   1      39.694  25.685  28.690  1.00  0.00     0.010 A 
ATOM     38  C   UNL A   1      40.518  26.212  26.468  1.00  0.00     0.010 A 
ATOM     39  C   UNL A   1      40.311  26.583  27.804  1.00  0.00    -0.014 A 
BRANCH  39  40
ATOM     40  C   UNL A   1      40.713  27.938  28.245  1.00  0.00     0.031 A 
ATOM     41  C   UNL A   1      42.167  28.319  28.240  1.00  0.00     0.074 A 
ATOM     42  C   UNL A   1      39.784  28.794  28.710  1.00  0.00     0.049 A 
ATOM     43  N   UNL A   1      42.719  29.443  28.610  1.00  0.00    -0.248 NA
ATOM     44  C   UNL A   1      43.125  27.301  27.778  1.00  0.00     0.031 C 
ATOM     45  C   UNL A   1      38.352  28.509  28.816  1.00  0.00     0.029 A 
ATOM     46  N   UNL A   1      39.910  30.069  29.200  1.00  0.00    -0.354 N 
ATOM     47  C   UNL A   1      44.087  29.257  28.458  1.00  0.00     0.074 A 
ATOM     48  C   UNL A   1      44.286  27.908  27.982  1.00  0.00     0.031 C 
ATOM     49  C   UNL A   1      37.730  29.582  29.330  1.00  0.00     0.029 A 
ATOM     50  C   UNL A   1      38.719  30.621  29.608  1.00  0.00     0.049 A 
ATOM     51  H   UNL A   1      40.771  30.543  29.254  1.00  0.00     0.167 HD
ATOM     52  C   UNL A   1      45.086  30.143  28.675  1.00  0.00     0.034 A 
ATOM     53  C   UNL A   1      38.455  31.829  30.143  1.00  0.00     0.034 A 
ATOM     54  C   UNL A   1      44.880  31.498  29.100  1.00  0.00     0.049 A 
ATOM     55  C   UNL A   1      39.578  32.807  30.344  1.00  0.00     0.074 A 
ATOM     56  C   UNL A   1      45.820  32.500  29.247  1.00  0.00     0.029 A 
ATOM     57  N   UNL A   1      43.655  32.037  29.458  1.00  0.00    -0.354 N 
ATOM     58  N   UNL A   1      40.850  32.662  30.061  1.00  0.00    -0.248 NA
ATOM     59  C   UNL A   1      39.232  34.118  30.910  1.00  0.00     0.031 C 
ATOM     60  C   UNL A   1      45.167  33.642  29.717  1.00  0.00     0.029 A 
ATOM     61  C   UNL A   1      43.816  33.355  29.841  1.00  0.00     0.049 A 
ATOM     62  H   UNL A   1      42.797  31.554  29.440  1.00  0.00     0.167 HD
ATOM     63  C   UNL A   1      41.454  33.870  30.391  1.00  0.00     0.074 A 
ATOM     64  C   UNL A   1      40.406  34.740  30.888  1.00  0.00     0.031 C 
ATOM     65  C   UNL A   1      42.758  34.220  30.296  1.00  0.00     0.034 A 
BRANCH  52  66
ATOM     66  C   UNL A   1      46.494  29.697  28.404  1.00  0.00     0.023 A 
ATOM     67  C   UNL A   1      47.068  29.944  27.143  1.00  0.00     0.012 A 
ATOM     68  C   UNL A   1      47.273  29.121  29.426  1.00  0.00     0.148 A 
ATOM     69  C   UNL A   1      48.398  29.612  26.895  1.00  0.00     0.002 A 
ATOM     70  C   UNL A   1      48.608  28.824  29.182  1.00  0.00     0.091 A 
ATOM     71  F   UNL A   1      46.696  28.882  30.611  1.00  0.00    -0.205 F 
ATOM     72  C   UNL A   1      49.171  29.063  27.917  1.00  0.00     0.022 A 
BRANCH  70  73
ATOM     73  S   UNL A   1      49.704  28.165  30.443  1.00  0.00     0.127 S 
ATOM     74  O   UNL A   1      49.083  26.870  30.726  1.00  0.00    -0.237 OA
ATOM     75  O   UNL A   1      50.977  28.088  29.730  1.00  0.00    -0.237 OA
ATOM     76  O   UNL A   1      49.673  29.117  31.544  1.00  0.00    -0.744 OA
ENDBRANCH  70  73
ENDBRANCH  52  66
BRANCH  53  77
ATOM     77  C   UNL A   1      37.044  32.194  30.435  1.00  0.00     0.023 A 
ATOM     78  C   UNL A   1      36.545  32.001  31.737  1.00  0.00     0.012 A 
ATOM     79  C   UNL A   1      36.232  32.818  29.468  1.00  0.00     0.148 A 
ATOM     80  C   UNL A   1      35.258  32.421  32.074  1.00  0.00     0.002 A 
ATOM     81  C   UNL A   1      34.964  33.267  29.820  1.00  0.00     0.091 A 
ATOM     82  F   UNL A   1      36.736  32.996  28.240  1.00  0.00    -0.205 F 
ATOM     83  C   UNL A   1      34.473  33.062  31.119  1.00  0.00     0.022 A 
BRANCH  81  84
ATOM     84  S   UNL A   1      33.911  34.188  28.694  1.00  0.00     0.127 S 
ATOM     85  O   UNL A   1      32.827  34.614  29.577  1.00  0.00    -0.237 OA
ATOM     86  O   UNL A   1      34.808  35.258  28.260  1.00  0.00    -0.237 OA
ATOM     87  O   UNL A   1      33.527  33.250  27.648  1.00  0.00    -0.744 OA
ENDBRANCH  81  84
ENDBRANCH  53  77
BRANCH  65  88
ATOM     88  C   UNL A   1      43.160  35.604  30.724  1.00  0.00     0.023 A 
ATOM     89  C   UNL A   1      43.600  35.818  32.044  1.00  0.00     0.012 A 
ATOM     90  C   UNL A   1      43.250  36.646  29.780  1.00  0.00     0.148 A 
ATOM     91  C   UNL A   1      44.124  37.053  32.420  1.00  0.00     0.002 A 
ATOM     92  C   UNL A   1      43.806  37.864  30.153  1.00  0.00     0.091 A 
ATOM     93  F   UNL A   1      42.820  36.414  28.532  1.00  0.00    -0.205 F 
ATOM     94  C   UNL A   1      44.239  38.069  31.473  1.00  0.00     0.022 A 
BRANCH  92  95
ATOM     95  S   UNL A   1      44.071  39.205  28.988  1.00  0.00     0.127 S 
ATOM     96  O   UNL A   1      42.700  39.543  28.608  1.00  0.00    -0.237 OA
ATOM     97  O   UNL A   1      44.739  40.207  29.819  1.00  0.00    -0.237 OA
ATOM     98  O   UNL A   1      44.891  38.657  27.917  1.00  0.00    -0.744 OA
ENDBRANCH  92  95
ENDBRANCH  65  88
ENDBRANCH  39  40
ENDBRANCH  31  34
ENDBRANCH   1  30
TORSDOF 14
ENDMDL
