MODEL 1
REMARK VINA RESULT:     -10.5      0.000      0.000
REMARK SMILES C[N@H+]1CC[C@H](C[N@@H+](CC(=O)NCCCNC(=O)c2ccc(-c3c4nc(c(-c5cccc(S(=O)(=O)[O-])c5F)c5ccc([nH]5)c(-c5cccc(S(=O)(=O)[O-])c5F)c5nc(c(-c6cccc(S(=O)(=O)[O-])c6F)c6ccc3[nH]6)C=C5)C=C4)cc2)C2CC2)C1
REMARK SMILES IDX 13 1 12 2 11 3 9 4 10 5 8 7 7 8 6 10 5 11 1 12 2 13 3 14
REMARK SMILES IDX 84 15 4 17 81 18 82 19 83 20 14 21 15 22 16 23 17 25 18 26
REMARK SMILES IDX 19 27 80 28 20 29 79 30 21 31 22 32 23 33 73 34 24 35 78 36
REMARK SMILES IDX 72 37 74 38 25 39 77 40 71 41 70 42 26 44 58 45 38 46 57 47
REMARK SMILES IDX 39 48 42 49 56 50 75 51 40 52 41 53 55 55 76 56 43 57 27 58
REMARK SMILES IDX 28 59 36 60 29 61 31 62 37 63 30 64 32 65 33 66 34 67 35 68
REMARK SMILES IDX 59 69 60 70 68 71 61 72 63 73 69 74 62 75 64 76 65 77 66 78
REMARK SMILES IDX 67 79 44 80 45 81 53 82 46 83 48 84 54 85 47 86 49 87 50 88
REMARK SMILES IDX 51 89 52 90
REMARK H PARENT 11 6 7 9 2 16 15 24 74 43 42 54
REMARK Flexibility Score: inf
ROOT
ATOM      1  C   UNL A   1      33.237  29.008  24.641  1.00  0.00     0.042 C 
ENDROOT
BRANCH   1   2
ATOM      2  C   UNL A   1      32.466  28.910  23.323  1.00  0.00     0.118 C 
BRANCH   2   3
ATOM      3  N   UNL A   1      33.082  27.997  22.370  1.00  0.00    -0.351 N 
ATOM      4  C   UNL A   1      32.791  26.708  22.021  1.00  0.00     0.275 C 
ATOM      5  O   UNL A   1      33.475  26.218  21.115  1.00  0.00    -0.269 OA
ATOM      6  H   UNL A   1      33.851  28.379  21.889  1.00  0.00     0.163 HD
BRANCH   4   7
ATOM      7  C   UNL A   1      31.660  25.903  22.685  1.00  0.00     0.363 C 
BRANCH   7   8
ATOM      8  N   UNL A   1      32.107  24.930  23.726  1.00  0.00    -0.324 N 
ATOM      9  H   UNL A   1      33.012  25.240  24.084  1.00  0.00     0.348 HD
BRANCH   8  10
ATOM     10  C   UNL A   1      32.279  23.597  23.131  1.00  0.00     0.272 C 
BRANCH  10  11
ATOM     11  C   UNL A   1      33.666  22.940  23.214  1.00  0.00     0.105 C 
ATOM     12  C   UNL A   1      34.777  21.568  26.441  1.00  0.00     0.332 C 
ATOM     13  N   UNL A   1      34.246  22.505  25.458  1.00  0.00    -0.337 N 
ATOM     14  C   UNL A   1      35.296  23.403  24.970  1.00  0.00     0.262 C 
ATOM     15  C   UNL A   1      33.756  21.821  24.252  1.00  0.00     0.271 C 
ATOM     16  H   UNL A   1      33.495  23.001  25.939  1.00  0.00     0.347 HD
ATOM     17  C   UNL A   1      34.695  23.982  23.701  1.00  0.00     0.076 C 
ENDBRANCH  10  11
ENDBRANCH   8  10
BRANCH   8  18
ATOM     18  C   UNL A   1      31.189  24.902  24.890  1.00  0.00     0.184 C 
ATOM     19  C   UNL A   1      31.517  25.661  26.147  1.00  0.00     0.071 C 
ATOM     20  C   UNL A   1      30.410  26.135  25.256  1.00  0.00     0.071 C 
ENDBRANCH   8  18
ENDBRANCH   7   8
ENDBRANCH   4   7
ENDBRANCH   2   3
ENDBRANCH   1   2
BRANCH   1  21
ATOM     21  C   UNL A   1      32.384  29.298  25.872  1.00  0.00     0.118 C 
BRANCH  21  22
ATOM     22  N   UNL A   1      32.266  30.723  26.118  1.00  0.00    -0.352 N 
ATOM     23  C   UNL A   1      32.962  31.547  26.971  1.00  0.00     0.251 C 
ATOM     24  H   UNL A   1      31.572  31.175  25.585  1.00  0.00     0.163 HD
ATOM     25  O   UNL A   1      32.497  32.665  27.200  1.00  0.00    -0.269 OA
BRANCH  23  26
ATOM     26  C   UNL A   1      34.239  31.143  27.620  1.00  0.00     0.039 A 
ATOM     27  C   UNL A   1      34.388  29.805  28.012  1.00  0.00     0.014 A 
ATOM     28  C   UNL A   1      35.241  32.057  27.953  1.00  0.00     0.014 A 
ATOM     29  C   UNL A   1      35.531  29.389  28.707  1.00  0.00     0.010 A 
ATOM     30  C   UNL A   1      36.419  31.624  28.575  1.00  0.00     0.010 A 
ATOM     31  C   UNL A   1      36.569  30.292  28.986  1.00  0.00    -0.014 A 
BRANCH  31  32
ATOM     32  C   UNL A   1      37.789  29.866  29.730  1.00  0.00     0.031 A 
ATOM     33  C   UNL A   1      38.075  30.408  31.110  1.00  0.00     0.074 A 
ATOM     34  C   UNL A   1      38.681  29.039  29.148  1.00  0.00     0.049 A 
ATOM     35  N   UNL A   1      39.106  30.189  31.888  1.00  0.00    -0.248 NA
ATOM     36  C   UNL A   1      37.086  31.336  31.682  1.00  0.00     0.031 C 
ATOM     37  C   UNL A   1      38.569  28.493  27.795  1.00  0.00     0.029 A 
ATOM     38  N   UNL A   1      39.872  28.534  29.612  1.00  0.00    -0.354 N 
ATOM     39  C   UNL A   1      38.911  30.979  33.015  1.00  0.00     0.074 A 
ATOM     40  C   UNL A   1      37.678  31.707  32.808  1.00  0.00     0.031 C 
ATOM     41  C   UNL A   1      39.643  27.729  27.539  1.00  0.00     0.029 A 
ATOM     42  C   UNL A   1      40.535  27.750  28.695  1.00  0.00     0.049 A 
ATOM     43  H   UNL A   1      40.219  28.716  30.515  1.00  0.00     0.167 HD
ATOM     44  C   UNL A   1      39.668  31.072  34.136  1.00  0.00     0.034 A 
ATOM     45  C   UNL A   1      41.725  27.122  28.771  1.00  0.00     0.034 A 
ATOM     46  C   UNL A   1      40.863  30.306  34.373  1.00  0.00     0.049 A 
ATOM     47  C   UNL A   1      42.524  27.202  30.044  1.00  0.00     0.074 A 
ATOM     48  C   UNL A   1      41.641  30.258  35.517  1.00  0.00     0.029 A 
ATOM     49  N   UNL A   1      41.454  29.455  33.453  1.00  0.00    -0.354 N 
ATOM     50  N   UNL A   1      42.239  27.829  31.159  1.00  0.00    -0.248 NA
ATOM     51  C   UNL A   1      43.793  26.458  30.083  1.00  0.00     0.031 C 
ATOM     52  C   UNL A   1      42.714  29.391  35.282  1.00  0.00     0.029 A 
ATOM     53  C   UNL A   1      42.592  28.884  33.999  1.00  0.00     0.049 A 
ATOM     54  H   UNL A   1      41.114  29.281  32.546  1.00  0.00     0.167 HD
ATOM     55  C   UNL A   1      43.272  27.529  32.041  1.00  0.00     0.074 A 
ATOM     56  C   UNL A   1      44.179  26.647  31.338  1.00  0.00     0.031 C 
ATOM     57  C   UNL A   1      43.460  27.962  33.312  1.00  0.00     0.034 A 
BRANCH  44  58
ATOM     58  C   UNL A   1      39.193  31.995  35.229  1.00  0.00     0.023 A 
ATOM     59  C   UNL A   1      38.241  31.533  36.162  1.00  0.00     0.012 A 
ATOM     60  C   UNL A   1      39.726  33.291  35.373  1.00  0.00     0.148 A 
ATOM     61  C   UNL A   1      37.802  32.356  37.198  1.00  0.00     0.002 A 
ATOM     62  C   UNL A   1      39.314  34.091  36.434  1.00  0.00     0.091 A 
ATOM     63  F   UNL A   1      40.616  33.722  34.467  1.00  0.00    -0.205 F 
ATOM     64  C   UNL A   1      38.345  33.630  37.340  1.00  0.00     0.022 A 
BRANCH  62  65
ATOM     65  S   UNL A   1      40.013  35.717  36.746  1.00  0.00     0.127 S 
ATOM     66  O   UNL A   1      41.437  35.407  36.869  1.00  0.00    -0.237 OA
ATOM     67  O   UNL A   1      39.653  36.448  35.531  1.00  0.00    -0.237 OA
ATOM     68  O   UNL A   1      39.368  36.204  37.957  1.00  0.00    -0.744 OA
ENDBRANCH  62  65
ENDBRANCH  44  58
BRANCH  45  69
ATOM     69  C   UNL A   1      42.201  26.298  27.622  1.00  0.00     0.023 A 
ATOM     70  C   UNL A   1      43.080  26.867  26.682  1.00  0.00     0.012 A 
ATOM     71  C   UNL A   1      41.819  24.950  27.479  1.00  0.00     0.148 A 
ATOM     72  C   UNL A   1      43.552  26.116  25.604  1.00  0.00     0.002 A 
ATOM     73  C   UNL A   1      42.338  24.191  26.436  1.00  0.00     0.091 A 
ATOM     74  F   UNL A   1      40.968  24.431  28.374  1.00  0.00    -0.205 F 
ATOM     75  C   UNL A   1      43.191  24.778  25.487  1.00  0.00     0.022 A 
BRANCH  73  76
ATOM     76  S   UNL A   1      42.040  22.426  26.291  1.00  0.00     0.127 S 
ATOM     77  O   UNL A   1      40.583  22.371  26.230  1.00  0.00    -0.237 OA
ATOM     78  O   UNL A   1      42.724  22.104  25.037  1.00  0.00    -0.237 OA
ATOM     79  O   UNL A   1      42.651  21.828  27.472  1.00  0.00    -0.744 OA
ENDBRANCH  73  76
ENDBRANCH  45  69
BRANCH  57  80
ATOM     80  C   UNL A   1      44.680  27.470  34.048  1.00  0.00     0.023 A 
ATOM     81  C   UNL A   1      45.867  28.228  34.015  1.00  0.00     0.012 A 
ATOM     82  C   UNL A   1      44.628  26.301  34.832  1.00  0.00     0.148 A 
ATOM     83  C   UNL A   1      46.993  27.816  34.727  1.00  0.00     0.002 A 
ATOM     84  C   UNL A   1      45.740  25.920  35.575  1.00  0.00     0.091 A 
ATOM     85  F   UNL A   1      43.496  25.581  34.835  1.00  0.00    -0.205 F 
ATOM     86  C   UNL A   1      46.925  26.670  35.517  1.00  0.00     0.022 A 
BRANCH  84  87
ATOM     87  S   UNL A   1      45.714  24.510  36.690  1.00  0.00     0.127 S 
ATOM     88  O   UNL A   1      44.626  24.868  37.598  1.00  0.00    -0.237 OA
ATOM     89  O   UNL A   1      45.411  23.401  35.784  1.00  0.00    -0.237 OA
ATOM     90  O   UNL A   1      47.040  24.451  37.291  1.00  0.00    -0.744 OA
ENDBRANCH  84  87
ENDBRANCH  57  80
ENDBRANCH  31  32
ENDBRANCH  23  26
ENDBRANCH  21  22
ENDBRANCH   1  21
TORSDOF 17
ENDMDL
MODEL 2
REMARK VINA RESULT:     -10.3      0.842      8.051
REMARK SMILES C[N@H+]1CC[C@H](C[N@@H+](CC(=O)NCCCNC(=O)c2ccc(-c3c4nc(c(-c5cccc(S(=O)(=O)[O-])c5F)c5ccc([nH]5)c(-c5cccc(S(=O)(=O)[O-])c5F)c5nc(c(-c6cccc(S(=O)(=O)[O-])c6F)c6ccc3[nH]6)C=C5)C=C4)cc2)C2CC2)C1
REMARK SMILES IDX 13 1 12 2 11 3 9 4 10 5 8 7 7 8 6 10 5 11 1 12 2 13 3 14
REMARK SMILES IDX 84 15 4 17 81 18 82 19 83 20 14 21 15 22 16 23 17 25 18 26
REMARK SMILES IDX 19 27 80 28 20 29 79 30 21 31 22 32 23 33 73 34 24 35 78 36
REMARK SMILES IDX 72 37 74 38 25 39 77 40 71 41 70 42 26 44 58 45 38 46 57 47
REMARK SMILES IDX 39 48 42 49 56 50 75 51 40 52 41 53 55 55 76 56 43 57 27 58
REMARK SMILES IDX 28 59 36 60 29 61 31 62 37 63 30 64 32 65 33 66 34 67 35 68
REMARK SMILES IDX 59 69 60 70 68 71 61 72 63 73 69 74 62 75 64 76 65 77 66 78
REMARK SMILES IDX 67 79 44 80 45 81 53 82 46 83 48 84 54 85 47 86 49 87 50 88
REMARK SMILES IDX 51 89 52 90
REMARK H PARENT 11 6 7 9 2 16 15 24 74 43 42 54
REMARK Flexibility Score: inf
ROOT
ATOM      1  C   UNL A   1      33.516  29.030  23.737  1.00  0.00     0.042 C 
ENDROOT
BRANCH   1   2
ATOM      2  C   UNL A   1      32.461  28.636  22.701  1.00  0.00     0.118 C 
BRANCH   2   3
ATOM      3  N   UNL A   1      32.934  27.626  21.764  1.00  0.00    -0.351 N 
ATOM      4  C   UNL A   1      32.753  26.273  21.713  1.00  0.00     0.275 C 
ATOM      5  O   UNL A   1      33.241  25.690  20.737  1.00  0.00    -0.269 OA
ATOM      6  H   UNL A   1      33.487  27.985  21.033  1.00  0.00     0.163 HD
BRANCH   4   7
ATOM      7  C   UNL A   1      31.964  25.499  22.784  1.00  0.00     0.363 C 
BRANCH   7   8
ATOM      8  N   UNL A   1      32.569  25.522  24.150  1.00  0.00    -0.324 N 
ATOM      9  H   UNL A   1      32.472  26.467  24.525  1.00  0.00     0.348 HD
BRANCH   8  10
ATOM     10  C   UNL A   1      34.001  25.201  24.075  1.00  0.00     0.272 C 
BRANCH  10  11
ATOM     11  C   UNL A   1      34.440  23.768  24.412  1.00  0.00     0.105 C 
ATOM     12  C   UNL A   1      37.824  23.229  25.750  1.00  0.00     0.332 C 
ATOM     13  N   UNL A   1      36.750  23.695  24.880  1.00  0.00    -0.337 N 
ATOM     14  C   UNL A   1      36.574  22.795  23.737  1.00  0.00     0.262 C 
ATOM     15  C   UNL A   1      35.446  23.686  25.561  1.00  0.00     0.271 C 
ATOM     16  H   UNL A   1      37.021  24.638  24.601  1.00  0.00     0.347 HD
ATOM     17  C   UNL A   1      35.200  23.170  23.209  1.00  0.00     0.076 C 
ENDBRANCH  10  11
ENDBRANCH   8  10
BRANCH   8  18
ATOM     18  C   UNL A   1      31.850  24.628  25.090  1.00  0.00     0.184 C 
ATOM     19  C   UNL A   1      31.563  25.065  26.500  1.00  0.00     0.071 C 
ATOM     20  C   UNL A   1      30.445  24.961  25.510  1.00  0.00     0.071 C 
ENDBRANCH   8  18
ENDBRANCH   7   8
ENDBRANCH   4   7
ENDBRANCH   2   3
ENDBRANCH   1   2
BRANCH   1  21
ATOM     21  C   UNL A   1      33.036  29.029  25.185  1.00  0.00     0.118 C 
BRANCH  21  22
ATOM     22  N   UNL A   1      32.592  30.345  25.603  1.00  0.00    -0.352 N 
ATOM     23  C   UNL A   1      32.946  31.110  26.690  1.00  0.00     0.251 C 
ATOM     24  H   UNL A   1      31.925  30.761  25.009  1.00  0.00     0.163 HD
ATOM     25  O   UNL A   1      32.233  32.072  26.976  1.00  0.00    -0.269 OA
BRANCH  23  26
ATOM     26  C   UNL A   1      34.144  30.818  27.523  1.00  0.00     0.039 A 
ATOM     27  C   UNL A   1      35.082  31.841  27.716  1.00  0.00     0.014 A 
ATOM     28  C   UNL A   1      34.426  29.545  28.023  1.00  0.00     0.014 A 
ATOM     29  C   UNL A   1      36.271  31.597  28.415  1.00  0.00     0.010 A 
ATOM     30  C   UNL A   1      35.575  29.321  28.792  1.00  0.00     0.010 A 
ATOM     31  C   UNL A   1      36.527  30.335  28.975  1.00  0.00    -0.014 A 
BRANCH  31  32
ATOM     32  C   UNL A   1      37.790  30.056  29.717  1.00  0.00     0.031 A 
ATOM     33  C   UNL A   1      38.838  29.139  29.132  1.00  0.00     0.074 A 
ATOM     34  C   UNL A   1      37.978  30.573  30.948  1.00  0.00     0.049 A 
ATOM     35  N   UNL A   1      39.974  28.745  29.651  1.00  0.00    -0.248 NA
ATOM     36  C   UNL A   1      38.563  28.573  27.802  1.00  0.00     0.031 C 
ATOM     37  C   UNL A   1      37.022  31.418  31.665  1.00  0.00     0.029 A 
ATOM     38  N   UNL A   1      39.028  30.442  31.826  1.00  0.00    -0.354 N 
ATOM     39  C   UNL A   1      40.527  27.857  28.735  1.00  0.00     0.074 A 
ATOM     40  C   UNL A   1      39.587  27.747  27.640  1.00  0.00     0.031 C 
ATOM     41  C   UNL A   1      37.529  31.731  32.868  1.00  0.00     0.029 A 
ATOM     42  C   UNL A   1      38.831  31.090  33.024  1.00  0.00     0.049 A 
ATOM     43  H   UNL A   1      39.844  29.932  31.617  1.00  0.00     0.167 HD
ATOM     44  C   UNL A   1      41.719  27.213  28.778  1.00  0.00     0.034 A 
ATOM     45  C   UNL A   1      39.605  31.159  34.125  1.00  0.00     0.034 A 
ATOM     46  C   UNL A   1      42.683  27.365  29.835  1.00  0.00     0.049 A 
ATOM     47  C   UNL A   1      40.947  30.475  34.131  1.00  0.00     0.074 A 
ATOM     48  C   UNL A   1      43.958  26.832  29.919  1.00  0.00     0.029 A 
ATOM     49  N   UNL A   1      42.482  28.102  30.991  1.00  0.00    -0.354 N 
ATOM     50  N   UNL A   1      41.517  29.771  33.184  1.00  0.00    -0.248 NA
ATOM     51  C   UNL A   1      41.766  30.624  35.343  1.00  0.00     0.031 C 
ATOM     52  C   UNL A   1      44.522  27.233  31.136  1.00  0.00     0.029 A 
ATOM     53  C   UNL A   1      43.605  28.031  31.800  1.00  0.00     0.049 A 
ATOM     54  H   UNL A   1      41.663  28.603  31.206  1.00  0.00     0.167 HD
ATOM     55  C   UNL A   1      42.772  29.422  33.671  1.00  0.00     0.074 A 
ATOM     56  C   UNL A   1      42.888  30.011  34.988  1.00  0.00     0.031 C 
ATOM     57  C   UNL A   1      43.734  28.666  33.086  1.00  0.00     0.034 A 
BRANCH  44  58
ATOM     58  C   UNL A   1      42.081  26.326  27.614  1.00  0.00     0.023 A 
ATOM     59  C   UNL A   1      42.690  26.892  26.475  1.00  0.00     0.012 A 
ATOM     60  C   UNL A   1      41.878  24.933  27.667  1.00  0.00     0.148 A 
ATOM     61  C   UNL A   1      43.058  26.093  25.394  1.00  0.00     0.002 A 
ATOM     62  C   UNL A   1      42.286  24.137  26.602  1.00  0.00     0.091 A 
ATOM     63  F   UNL A   1      41.280  24.413  28.749  1.00  0.00    -0.205 F 
ATOM     64  C   UNL A   1      42.866  24.715  25.461  1.00  0.00     0.022 A 
BRANCH  62  65
ATOM     65  S   UNL A   1      42.152  22.345  26.628  1.00  0.00     0.127 S 
ATOM     66  O   UNL A   1      42.594  21.997  25.279  1.00  0.00    -0.237 OA
ATOM     67  O   UNL A   1      43.092  21.979  27.689  1.00  0.00    -0.237 OA
ATOM     68  O   UNL A   1      40.759  22.052  26.929  1.00  0.00    -0.744 OA
ENDBRANCH  62  65
ENDBRANCH  44  58
BRANCH  45  69
ATOM     69  C   UNL A   1      39.158  31.970  35.294  1.00  0.00     0.023 A 
ATOM     70  C   UNL A   1      38.277  31.402  36.232  1.00  0.00     0.012 A 
ATOM     71  C   UNL A   1      39.630  33.282  35.499  1.00  0.00     0.148 A 
ATOM     72  C   UNL A   1      37.851  32.133  37.343  1.00  0.00     0.002 A 
ATOM     73  C   UNL A   1      39.248  33.983  36.637  1.00  0.00     0.091 A 
ATOM     74  F   UNL A   1      40.455  33.812  34.587  1.00  0.00    -0.205 F 
ATOM     75  C   UNL A   1      38.345  33.417  37.551  1.00  0.00     0.022 A 
BRANCH  73  76
ATOM     76  S   UNL A   1      39.945  35.585  37.058  1.00  0.00     0.127 S 
ATOM     77  O   UNL A   1      39.241  35.903  38.296  1.00  0.00    -0.237 OA
ATOM     78  O   UNL A   1      41.364  35.266  37.218  1.00  0.00    -0.237 OA
ATOM     79  O   UNL A   1      39.654  36.448  35.919  1.00  0.00    -0.744 OA
ENDBRANCH  73  76
ENDBRANCH  45  69
BRANCH  57  80
ATOM     80  C   UNL A   1      45.016  28.448  33.848  1.00  0.00     0.023 A 
ATOM     81  C   UNL A   1      46.103  29.321  33.648  1.00  0.00     0.012 A 
ATOM     82  C   UNL A   1      45.117  27.429  34.816  1.00  0.00     0.148 A 
ATOM     83  C   UNL A   1      47.282  29.167  34.378  1.00  0.00     0.002 A 
ATOM     84  C   UNL A   1      46.278  27.309  35.572  1.00  0.00     0.091 A 
ATOM     85  F   UNL A   1      44.080  26.595  34.979  1.00  0.00    -0.205 F 
ATOM     86  C   UNL A   1      47.364  28.170  35.348  1.00  0.00     0.022 A 
BRANCH  84  87
ATOM     87  S   UNL A   1      46.439  26.114  36.905  1.00  0.00     0.127 S 
ATOM     88  O   UNL A   1      47.781  26.402  37.404  1.00  0.00    -0.237 OA
ATOM     89  O   UNL A   1      45.355  26.505  37.807  1.00  0.00    -0.237 OA
ATOM     90  O   UNL A   1      46.265  24.804  36.289  1.00  0.00    -0.744 OA
ENDBRANCH  84  87
ENDBRANCH  57  80
ENDBRANCH  31  32
ENDBRANCH  23  26
ENDBRANCH  21  22
ENDBRANCH   1  21
TORSDOF 17
ENDMDL
MODEL 3
REMARK VINA RESULT:     -10.3      2.104      2.943
REMARK SMILES C[N@H+]1CC[C@H](C[N@@H+](CC(=O)NCCCNC(=O)c2ccc(-c3c4nc(c(-c5cccc(S(=O)(=O)[O-])c5F)c5ccc([nH]5)c(-c5cccc(S(=O)(=O)[O-])c5F)c5nc(c(-c6cccc(S(=O)(=O)[O-])c6F)c6ccc3[nH]6)C=C5)C=C4)cc2)C2CC2)C1
REMARK SMILES IDX 13 1 12 2 11 3 9 4 10 5 8 7 7 8 6 10 5 11 1 12 2 13 3 14
REMARK SMILES IDX 84 15 4 17 81 18 82 19 83 20 14 21 15 22 16 23 17 25 18 26
REMARK SMILES IDX 19 27 80 28 20 29 79 30 21 31 22 32 23 33 73 34 24 35 78 36
REMARK SMILES IDX 72 37 74 38 25 39 77 40 71 41 70 42 26 44 58 45 38 46 57 47
REMARK SMILES IDX 39 48 42 49 56 50 75 51 40 52 41 53 55 55 76 56 43 57 27 58
REMARK SMILES IDX 28 59 36 60 29 61 31 62 37 63 30 64 32 65 33 66 34 67 35 68
REMARK SMILES IDX 59 69 60 70 68 71 61 72 63 73 69 74 62 75 64 76 65 77 66 78
REMARK SMILES IDX 67 79 44 80 45 81 53 82 46 83 48 84 54 85 47 86 49 87 50 88
REMARK SMILES IDX 51 89 52 90
REMARK H PARENT 11 6 7 9 2 16 15 24 74 43 42 54
REMARK Flexibility Score: inf
ROOT
ATOM      1  C   UNL A   1      32.811  28.259  27.209  1.00  0.00     0.042 C 
ENDROOT
BRANCH   1   2
ATOM      2  C   UNL A   1      31.513  27.662  26.662  1.00  0.00     0.118 C 
BRANCH   2   3
ATOM      3  N   UNL A   1      31.394  26.232  26.912  1.00  0.00    -0.351 N 
ATOM      4  C   UNL A   1      31.454  25.151  26.078  1.00  0.00     0.275 C 
ATOM      5  O   UNL A   1      31.378  24.039  26.615  1.00  0.00    -0.269 OA
ATOM      6  H   UNL A   1      31.244  26.002  27.858  1.00  0.00     0.163 HD
BRANCH   4   7
ATOM      7  C   UNL A   1      31.632  25.286  24.556  1.00  0.00     0.363 C 
BRANCH   7   8
ATOM      8  N   UNL A   1      33.049  25.393  24.095  1.00  0.00    -0.324 N 
ATOM      9  H   UNL A   1      33.178  24.754  23.310  1.00  0.00     0.348 HD
BRANCH   8  10
ATOM     10  C   UNL A   1      33.963  24.989  25.173  1.00  0.00     0.272 C 
BRANCH  10  11
ATOM     11  C   UNL A   1      34.728  23.667  25.016  1.00  0.00     0.105 C 
ATOM     12  C   UNL A   1      32.884  20.506  25.388  1.00  0.00     0.332 C 
ATOM     13  N   UNL A   1      33.384  21.845  25.676  1.00  0.00    -0.337 N 
ATOM     14  C   UNL A   1      34.548  21.789  26.565  1.00  0.00     0.262 C 
ATOM     15  C   UNL A   1      33.876  22.523  24.467  1.00  0.00     0.271 C 
ATOM     16  H   UNL A   1      32.596  22.343  26.090  1.00  0.00     0.347 HD
ATOM     17  C   UNL A   1      35.171  23.166  26.407  1.00  0.00     0.076 C 
ENDBRANCH  10  11
ENDBRANCH   8  10
BRANCH   8  18
ATOM     18  C   UNL A   1      33.364  26.748  23.582  1.00  0.00     0.184 C 
ATOM     19  C   UNL A   1      33.514  26.995  22.105  1.00  0.00     0.071 C 
ATOM     20  C   UNL A   1      32.316  27.524  22.832  1.00  0.00     0.071 C 
ENDBRANCH   8  18
ENDBRANCH   7   8
ENDBRANCH   4   7
ENDBRANCH   2   3
ENDBRANCH   1   2
BRANCH   1  21
ATOM     21  C   UNL A   1      33.579  29.146  26.235  1.00  0.00     0.118 C 
BRANCH  21  22
ATOM     22  N   UNL A   1      33.663  30.514  26.710  1.00  0.00    -0.352 N 
ATOM     23  C   UNL A   1      34.518  31.100  27.615  1.00  0.00     0.251 C 
ATOM     24  H   UNL A   1      32.997  31.126  26.320  1.00  0.00     0.163 HD
ATOM     25  O   UNL A   1      34.219  32.209  28.057  1.00  0.00    -0.269 OA
BRANCH  23  26
ATOM     26  C   UNL A   1      35.775  30.448  28.073  1.00  0.00     0.039 A 
ATOM     27  C   UNL A   1      35.736  29.688  29.250  1.00  0.00     0.014 A 
ATOM     28  C   UNL A   1      37.006  30.654  27.446  1.00  0.00     0.014 A 
ATOM     29  C   UNL A   1      36.907  29.127  29.776  1.00  0.00     0.010 A 
ATOM     30  C   UNL A   1      38.162  30.026  27.926  1.00  0.00     0.010 A 
ATOM     31  C   UNL A   1      38.135  29.278  29.112  1.00  0.00    -0.014 A 
BRANCH  31  32
ATOM     32  C   UNL A   1      39.391  28.692  29.662  1.00  0.00     0.031 A 
ATOM     33  C   UNL A   1      40.038  29.281  30.893  1.00  0.00     0.074 A 
ATOM     34  C   UNL A   1      39.995  27.668  29.025  1.00  0.00     0.049 A 
ATOM     35  N   UNL A   1      41.154  28.935  31.486  1.00  0.00    -0.248 NA
ATOM     36  C   UNL A   1      39.357  30.421  31.526  1.00  0.00     0.031 C 
ATOM     37  C   UNL A   1      39.520  27.045  27.789  1.00  0.00     0.029 A 
ATOM     38  N   UNL A   1      41.153  26.987  29.315  1.00  0.00    -0.354 N 
ATOM     39  C   UNL A   1      41.329  29.837  32.531  1.00  0.00     0.074 A 
ATOM     40  C   UNL A   1      40.219  30.764  32.473  1.00  0.00     0.031 C 
ATOM     41  C   UNL A   1      40.375  26.075  27.429  1.00  0.00     0.029 A 
ATOM     42  C   UNL A   1      41.474  26.022  28.389  1.00  0.00     0.049 A 
ATOM     43  H   UNL A   1      41.702  27.174  30.111  1.00  0.00     0.167 HD
ATOM     44  C   UNL A   1      42.302  29.876  33.474  1.00  0.00     0.034 A 
ATOM     45  C   UNL A   1      42.532  25.190  28.315  1.00  0.00     0.034 A 
ATOM     46  C   UNL A   1      43.374  28.921  33.572  1.00  0.00     0.049 A 
ATOM     47  C   UNL A   1      43.575  25.221  29.401  1.00  0.00     0.074 A 
ATOM     48  C   UNL A   1      44.349  28.821  34.550  1.00  0.00     0.029 A 
ATOM     49  N   UNL A   1      43.613  27.903  32.664  1.00  0.00    -0.354 N 
ATOM     50  N   UNL A   1      43.631  25.978  30.469  1.00  0.00    -0.248 NA
ATOM     51  C   UNL A   1      44.681  24.257  29.290  1.00  0.00     0.031 C 
ATOM     52  C   UNL A   1      45.190  27.751  34.222  1.00  0.00     0.029 A 
ATOM     53  C   UNL A   1      44.727  27.174  33.052  1.00  0.00     0.049 A 
ATOM     54  H   UNL A   1      43.072  27.723  31.862  1.00  0.00     0.167 HD
ATOM     55  C   UNL A   1      44.756  25.562  31.173  1.00  0.00     0.074 A 
ATOM     56  C   UNL A   1      45.340  24.471  30.421  1.00  0.00     0.031 C 
ATOM     57  C   UNL A   1      45.269  26.054  32.328  1.00  0.00     0.034 A 
BRANCH  44  58
ATOM     58  C   UNL A   1      42.221  30.958  34.521  1.00  0.00     0.023 A 
ATOM     59  C   UNL A   1      41.578  30.688  35.747  1.00  0.00     0.012 A 
ATOM     60  C   UNL A   1      42.828  32.213  34.322  1.00  0.00     0.148 A 
ATOM     61  C   UNL A   1      41.510  31.661  36.743  1.00  0.00     0.002 A 
ATOM     62  C   UNL A   1      42.792  33.164  35.337  1.00  0.00     0.091 A 
ATOM     63  F   UNL A   1      43.418  32.460  33.144  1.00  0.00    -0.205 F 
ATOM     64  C   UNL A   1      42.125  32.894  36.543  1.00  0.00     0.022 A 
BRANCH  62  65
ATOM     65  S   UNL A   1      43.622  34.752  35.203  1.00  0.00     0.127 S 
ATOM     66  O   UNL A   1      43.018  35.299  33.989  1.00  0.00    -0.237 OA
ATOM     67  O   UNL A   1      43.214  35.420  36.440  1.00  0.00    -0.237 OA
ATOM     68  O   UNL A   1      45.044  34.454  35.119  1.00  0.00    -0.744 OA
ENDBRANCH  62  65
ENDBRANCH  44  58
BRANCH  45  69
ATOM     69  C   UNL A   1      42.618  24.201  27.202  1.00  0.00     0.023 A 
ATOM     70  C   UNL A   1      43.352  24.525  26.046  1.00  0.00     0.012 A 
ATOM     71  C   UNL A   1      42.013  22.932  27.299  1.00  0.00     0.148 A 
ATOM     72  C   UNL A   1      43.462  23.616  24.993  1.00  0.00     0.002 A 
ATOM     73  C   UNL A   1      42.175  22.010  26.272  1.00  0.00     0.091 A 
ATOM     74  F   UNL A   1      41.304  22.648  28.400  1.00  0.00    -0.205 F 
ATOM     75  C   UNL A   1      42.884  22.355  25.111  1.00  0.00     0.022 A 
BRANCH  73  76
ATOM     76  S   UNL A   1      41.586  20.317  26.400  1.00  0.00     0.127 S 
ATOM     77  O   UNL A   1      42.047  19.938  27.732  1.00  0.00    -0.237 OA
ATOM     78  O   UNL A   1      40.138  20.488  26.273  1.00  0.00    -0.237 OA
ATOM     79  O   UNL A   1      42.201  19.605  25.286  1.00  0.00    -0.744 OA
ENDBRANCH  73  76
ENDBRANCH  45  69
BRANCH  57  80
ATOM     80  C   UNL A   1      46.513  25.402  32.877  1.00  0.00     0.023 A 
ATOM     81  C   UNL A   1      47.777  25.933  32.556  1.00  0.00     0.012 A 
ATOM     82  C   UNL A   1      46.425  24.316  33.769  1.00  0.00     0.148 A 
ATOM     83  C   UNL A   1      48.938  25.375  33.091  1.00  0.00     0.002 A 
ATOM     84  C   UNL A   1      47.584  23.793  34.334  1.00  0.00     0.091 A 
ATOM     85  F   UNL A   1      45.214  23.811  34.048  1.00  0.00    -0.205 F 
ATOM     86  C   UNL A   1      48.840  24.315  33.989  1.00  0.00     0.022 A 
BRANCH  84  87
ATOM     87  S   UNL A   1      47.546  22.488  35.570  1.00  0.00     0.127 S 
ATOM     88  O   UNL A   1      46.583  23.017  36.533  1.00  0.00    -0.237 OA
ATOM     89  O   UNL A   1      47.068  21.340  34.798  1.00  0.00    -0.237 OA
ATOM     90  O   UNL A   1      48.914  22.358  36.055  1.00  0.00    -0.744 OA
ENDBRANCH  84  87
ENDBRANCH  57  80
ENDBRANCH  31  32
ENDBRANCH  23  26
ENDBRANCH  21  22
ENDBRANCH   1  21
TORSDOF 17
ENDMDL
