MODEL 1
REMARK VINA RESULT:     -12.6      0.000      0.000
REMARK SMILES COc1ccc(-c2cccc(/C=C\C(=O)NCCCNC(=O)c3ccc(-c4c5nc(c(-c6cccc(S(=O)(=O)[O-])c6F)c6ccc([nH]6)c(-c6cccc(S(=O)(=O)[O-])c6F)c6nc(c(-c7cccc(S(=O)(=O)[O-])c7F)c7ccc4[nH]7)C=C6)C=C5)cc3)c2)c(Cl)c1OC
REMARK SMILES IDX 18 1 17 2 16 3 14 4 15 5 13 7 12 8 11 9 7 10 8 11 86 12 9 13
REMARK SMILES IDX 10 14 6 15 3 16 4 17 89 18 5 19 87 20 88 21 2 22 1 23 90 24
REMARK SMILES IDX 91 25 19 26 20 27 21 28 22 30 23 31 24 32 85 33 25 34 84 35
REMARK SMILES IDX 26 36 27 37 28 38 78 39 29 40 83 41 77 42 79 43 30 44 82 45
REMARK SMILES IDX 76 46 75 47 31 49 63 50 43 51 62 52 44 53 47 54 61 55 80 56
REMARK SMILES IDX 45 57 46 58 60 60 81 61 48 62 32 63 33 64 41 65 34 66 36 67
REMARK SMILES IDX 42 68 35 69 37 70 38 71 39 72 40 73 64 74 65 75 73 76 66 77
REMARK SMILES IDX 68 78 74 79 67 80 69 81 70 82 71 83 72 84 49 85 50 86 58 87
REMARK SMILES IDX 51 88 53 89 59 90 52 91 54 92 55 93 56 94 57 95
REMARK H PARENT 16 6 20 29 79 48 47 59
REMARK Flexibility Score: inf
ROOT
ATOM      1  C   UNL A   1      35.701  22.593  25.062  1.00  0.00     0.042 C 
ENDROOT
BRANCH   1   2
ATOM      2  C   UNL A   1      35.234  21.434  25.920  1.00  0.00     0.118 C 
BRANCH   2   3
ATOM      3  N   UNL A   1      34.897  20.212  25.222  1.00  0.00    -0.352 N 
ATOM      4  C   UNL A   1      33.667  19.735  24.886  1.00  0.00     0.244 C 
ATOM      5  O   UNL A   1      33.589  18.698  24.223  1.00  0.00    -0.270 OA
ATOM      6  H   UNL A   1      35.660  19.650  24.954  1.00  0.00     0.163 HD
BRANCH   4   7
ATOM      7  C   UNL A   1      32.399  20.349  25.372  1.00  0.00     0.072 C 
ATOM      8  C   UNL A   1      31.708  21.452  25.029  1.00  0.00     0.014 C 
BRANCH   8   9
ATOM      9  C   UNL A   1      32.058  22.468  24.032  1.00  0.00    -0.025 A 
ATOM     10  C   UNL A   1      32.298  24.856  23.501  1.00  0.00    -0.016 A 
ATOM     11  C   UNL A   1      33.122  24.462  22.424  1.00  0.00     0.009 A 
ATOM     12  C   UNL A   1      31.784  23.824  24.308  1.00  0.00     0.017 A 
ATOM     13  C   UNL A   1      33.278  23.122  22.063  1.00  0.00     0.001 A 
ATOM     14  C   UNL A   1      32.715  22.124  22.849  1.00  0.00     0.008 A 
BRANCH  10  15
ATOM     15  C   UNL A   1      31.883  26.290  23.632  1.00  0.00     0.004 A 
ATOM     16  C   UNL A   1      30.687  28.843  23.781  1.00  0.00     0.162 A 
ATOM     17  C   UNL A   1      30.344  27.980  22.751  1.00  0.00     0.051 A 
ATOM     18  C   UNL A   1      31.699  28.509  24.713  1.00  0.00     0.180 A 
ATOM     19  C   UNL A   1      30.909  26.720  22.704  1.00  0.00     0.014 A 
ATOM     20  C   UNL A   1      32.319  27.233  24.614  1.00  0.00     0.094 A 
ATOM     21  Cl  UNL A   1      33.675  26.795  25.608  1.00  0.00    -0.079 Cl
BRANCH  16  22
ATOM     22  O   UNL A   1      30.069  30.072  23.885  1.00  0.00    -0.493 OA
ATOM     23  C   UNL A   1      28.880  30.170  23.102  1.00  0.00     0.278 C 
ENDBRANCH  16  22
BRANCH  18  24
ATOM     24  O   UNL A   1      31.910  29.533  25.600  1.00  0.00    -0.491 OA
ATOM     25  C   UNL A   1      31.842  29.380  27.006  1.00  0.00     0.278 C 
ENDBRANCH  18  24
ENDBRANCH  10  15
ENDBRANCH   8   9
ENDBRANCH   4   7
ENDBRANCH   2   3
ENDBRANCH   1   2
BRANCH   1  26
ATOM     26  C   UNL A   1      37.022  22.355  24.334  1.00  0.00     0.118 C 
BRANCH  26  27
ATOM     27  N   UNL A   1      37.831  21.248  24.852  1.00  0.00    -0.352 N 
ATOM     28  C   UNL A   1      38.879  21.177  25.750  1.00  0.00     0.251 C 
ATOM     29  H   UNL A   1      37.575  20.373  24.482  1.00  0.00     0.163 HD
ATOM     30  O   UNL A   1      39.431  20.101  25.930  1.00  0.00    -0.269 OA
BRANCH  28  31
ATOM     31  C   UNL A   1      39.371  22.383  26.461  1.00  0.00     0.039 A 
ATOM     32  C   UNL A   1      40.443  22.260  27.354  1.00  0.00     0.014 A 
ATOM     33  C   UNL A   1      38.805  23.635  26.252  1.00  0.00     0.014 A 
ATOM     34  C   UNL A   1      41.028  23.405  27.910  1.00  0.00     0.010 A 
ATOM     35  C   UNL A   1      39.467  24.775  26.689  1.00  0.00     0.010 A 
ATOM     36  C   UNL A   1      40.597  24.680  27.512  1.00  0.00    -0.014 A 
BRANCH  36  37
ATOM     37  C   UNL A   1      41.330  25.924  27.878  1.00  0.00     0.031 A 
ATOM     38  C   UNL A   1      40.634  27.029  28.631  1.00  0.00     0.074 A 
ATOM     39  C   UNL A   1      42.567  26.135  27.380  1.00  0.00     0.049 A 
ATOM     40  N   UNL A   1      41.043  28.247  28.878  1.00  0.00    -0.248 NA
ATOM     41  C   UNL A   1      39.275  26.745  29.122  1.00  0.00     0.031 C 
ATOM     42  C   UNL A   1      43.311  25.197  26.535  1.00  0.00     0.029 A 
ATOM     43  N   UNL A   1      43.398  27.226  27.469  1.00  0.00    -0.354 N 
ATOM     44  C   UNL A   1      39.972  28.890  29.487  1.00  0.00     0.074 A 
ATOM     45  C   UNL A   1      38.884  27.940  29.538  1.00  0.00     0.031 C 
ATOM     46  C   UNL A   1      44.483  25.749  26.186  1.00  0.00     0.029 A 
ATOM     47  C   UNL A   1      44.559  27.095  26.742  1.00  0.00     0.049 A 
ATOM     48  H   UNL A   1      43.183  28.025  28.003  1.00  0.00     0.167 HD
ATOM     49  C   UNL A   1      39.906  30.148  29.988  1.00  0.00     0.034 A 
ATOM     50  C   UNL A   1      45.566  27.963  26.524  1.00  0.00     0.034 A 
ATOM     51  C   UNL A   1      41.017  31.062  30.005  1.00  0.00     0.049 A 
ATOM     52  C   UNL A   1      45.514  29.319  27.167  1.00  0.00     0.074 A 
ATOM     53  C   UNL A   1      41.106  32.296  30.625  1.00  0.00     0.029 A 
ATOM     54  N   UNL A   1      42.228  30.846  29.368  1.00  0.00    -0.354 N 
ATOM     55  N   UNL A   1      44.567  29.842  27.908  1.00  0.00    -0.248 NA
ATOM     56  C   UNL A   1      46.678  30.196  26.972  1.00  0.00     0.031 C 
ATOM     57  C   UNL A   1      42.366  32.835  30.342  1.00  0.00     0.029 A 
ATOM     58  C   UNL A   1      43.067  31.931  29.560  1.00  0.00     0.049 A 
ATOM     59  H   UNL A   1      42.458  30.039  28.854  1.00  0.00     0.167 HD
ATOM     60  C   UNL A   1      45.023  31.101  28.280  1.00  0.00     0.074 A 
ATOM     61  C   UNL A   1      46.346  31.250  27.708  1.00  0.00     0.031 C 
ATOM     62  C   UNL A   1      44.394  32.056  29.011  1.00  0.00     0.034 A 
BRANCH  49  63
ATOM     63  C   UNL A   1      38.604  30.581  30.613  1.00  0.00     0.023 A 
ATOM     64  C   UNL A   1      38.362  30.315  31.978  1.00  0.00     0.012 A 
ATOM     65  C   UNL A   1      37.628  31.266  29.863  1.00  0.00     0.148 A 
ATOM     66  C   UNL A   1      37.152  30.673  32.571  1.00  0.00     0.002 A 
ATOM     67  C   UNL A   1      36.442  31.662  30.475  1.00  0.00     0.091 A 
ATOM     68  F   UNL A   1      37.859  31.494  28.563  1.00  0.00    -0.205 F 
ATOM     69  C   UNL A   1      36.197  31.352  31.822  1.00  0.00     0.022 A 
BRANCH  67  70
ATOM     70  S   UNL A   1      35.186  32.615  29.614  1.00  0.00     0.127 S 
ATOM     71  O   UNL A   1      34.227  32.876  30.685  1.00  0.00    -0.237 OA
ATOM     72  O   UNL A   1      35.937  33.790  29.169  1.00  0.00    -0.237 OA
ATOM     73  O   UNL A   1      34.711  31.761  28.534  1.00  0.00    -0.744 OA
ENDBRANCH  67  70
ENDBRANCH  49  63
BRANCH  50  74
ATOM     74  C   UNL A   1      46.737  27.531  25.707  1.00  0.00     0.023 A 
ATOM     75  C   UNL A   1      46.745  27.797  24.324  1.00  0.00     0.012 A 
ATOM     76  C   UNL A   1      47.873  26.946  26.301  1.00  0.00     0.148 A 
ATOM     77  C   UNL A   1      47.857  27.475  23.545  1.00  0.00     0.002 A 
ATOM     78  C   UNL A   1      48.999  26.682  25.530  1.00  0.00     0.091 A 
ATOM     79  F   UNL A   1      47.841  26.698  27.619  1.00  0.00    -0.205 F 
ATOM     80  C   UNL A   1      48.987  26.930  24.149  1.00  0.00     0.022 A 
BRANCH  78  81
ATOM     81  S   UNL A   1      50.550  26.113  26.238  1.00  0.00     0.127 S 
ATOM     82  O   UNL A   1      50.159  24.837  26.832  1.00  0.00    -0.237 OA
ATOM     83  O   UNL A   1      51.400  26.004  25.051  1.00  0.00    -0.237 OA
ATOM     84  O   UNL A   1      50.960  27.145  27.180  1.00  0.00    -0.744 OA
ENDBRANCH  78  81
ENDBRANCH  50  74
BRANCH  62  85
ATOM     85  C   UNL A   1      45.122  33.355  29.234  1.00  0.00     0.023 A 
ATOM     86  C   UNL A   1      45.995  33.480  30.333  1.00  0.00     0.012 A 
ATOM     87  C   UNL A   1      45.007  34.418  28.317  1.00  0.00     0.148 A 
ATOM     88  C   UNL A   1      46.722  34.653  30.531  1.00  0.00     0.002 A 
ATOM     89  C   UNL A   1      45.769  35.567  28.496  1.00  0.00     0.091 A 
ATOM     90  F   UNL A   1      44.157  34.287  27.288  1.00  0.00    -0.205 F 
ATOM     91  C   UNL A   1      46.619  35.690  29.607  1.00  0.00     0.022 A 
BRANCH  89  92
ATOM     92  S   UNL A   1      45.773  36.916  27.309  1.00  0.00     0.127 S 
ATOM     93  O   UNL A   1      44.366  37.311  27.302  1.00  0.00    -0.237 OA
ATOM     94  O   UNL A   1      46.674  37.882  27.939  1.00  0.00    -0.237 OA
ATOM     95  O   UNL A   1      46.271  36.352  26.062  1.00  0.00    -0.744 OA
ENDBRANCH  89  92
ENDBRANCH  62  85
ENDBRANCH  36  37
ENDBRANCH  28  31
ENDBRANCH  26  27
ENDBRANCH   1  26
TORSDOF 17
ENDMDL
MODEL 2
REMARK VINA RESULT:     -12.5      1.352      1.909
REMARK SMILES COc1ccc(-c2cccc(/C=C\C(=O)NCCCNC(=O)c3ccc(-c4c5nc(c(-c6cccc(S(=O)(=O)[O-])c6F)c6ccc([nH]6)c(-c6cccc(S(=O)(=O)[O-])c6F)c6nc(c(-c7cccc(S(=O)(=O)[O-])c7F)c7ccc4[nH]7)C=C6)C=C5)cc3)c2)c(Cl)c1OC
REMARK SMILES IDX 18 1 17 2 16 3 14 4 15 5 13 7 12 8 11 9 7 10 8 11 86 12 9 13
REMARK SMILES IDX 10 14 6 15 3 16 4 17 89 18 5 19 87 20 88 21 2 22 1 23 90 24
REMARK SMILES IDX 91 25 19 26 20 27 21 28 22 30 23 31 24 32 85 33 25 34 84 35
REMARK SMILES IDX 26 36 27 37 28 38 78 39 29 40 83 41 77 42 79 43 30 44 82 45
REMARK SMILES IDX 76 46 75 47 31 49 63 50 43 51 62 52 44 53 47 54 61 55 80 56
REMARK SMILES IDX 45 57 46 58 60 60 81 61 48 62 32 63 33 64 41 65 34 66 36 67
REMARK SMILES IDX 42 68 35 69 37 70 38 71 39 72 40 73 64 74 65 75 73 76 66 77
REMARK SMILES IDX 68 78 74 79 67 80 69 81 70 82 71 83 72 84 49 85 50 86 58 87
REMARK SMILES IDX 51 88 53 89 59 90 52 91 54 92 55 93 56 94 57 95
REMARK H PARENT 16 6 20 29 79 48 47 59
REMARK Flexibility Score: inf
ROOT
ATOM      1  C   UNL A   1      35.795  22.289  24.969  1.00  0.00     0.042 C 
ENDROOT
BRANCH   1   2
ATOM      2  C   UNL A   1      35.345  21.079  25.761  1.00  0.00     0.118 C 
BRANCH   2   3
ATOM      3  N   UNL A   1      35.042  19.887  24.997  1.00  0.00    -0.352 N 
ATOM      4  C   UNL A   1      33.825  19.379  24.659  1.00  0.00     0.244 C 
ATOM      5  O   UNL A   1      33.773  18.380  23.936  1.00  0.00    -0.270 OA
ATOM      6  H   UNL A   1      35.820  19.375  24.680  1.00  0.00     0.163 HD
BRANCH   4   7
ATOM      7  C   UNL A   1      32.544  19.909  25.208  1.00  0.00     0.072 C 
ATOM      8  C   UNL A   1      31.844  21.040  25.009  1.00  0.00     0.014 C 
BRANCH   8   9
ATOM      9  C   UNL A   1      32.193  22.186  24.164  1.00  0.00    -0.025 A 
ATOM     10  C   UNL A   1      32.700  24.588  24.031  1.00  0.00    -0.016 A 
ATOM     11  C   UNL A   1      33.296  24.321  22.779  1.00  0.00     0.009 A 
ATOM     12  C   UNL A   1      32.161  23.484  24.716  1.00  0.00     0.017 A 
ATOM     13  C   UNL A   1      33.203  23.070  22.166  1.00  0.00     0.001 A 
ATOM     14  C   UNL A   1      32.619  22.008  22.846  1.00  0.00     0.008 A 
BRANCH  10  15
ATOM     15  C   UNL A   1      32.520  26.005  24.481  1.00  0.00     0.004 A 
ATOM     16  C   UNL A   1      32.621  28.725  25.233  1.00  0.00     0.162 A 
ATOM     17  C   UNL A   1      33.644  27.868  25.609  1.00  0.00     0.051 A 
ATOM     18  C   UNL A   1      31.472  28.246  24.558  1.00  0.00     0.180 A 
ATOM     19  C   UNL A   1      33.604  26.546  25.208  1.00  0.00     0.014 A 
ATOM     20  C   UNL A   1      31.415  26.869  24.208  1.00  0.00     0.094 A 
ATOM     21  Cl  UNL A   1      29.985  26.158  23.522  1.00  0.00    -0.079 Cl
BRANCH  16  22
ATOM     22  O   UNL A   1      32.690  30.064  25.558  1.00  0.00    -0.493 OA
ATOM     23  C   UNL A   1      33.011  30.293  26.928  1.00  0.00     0.278 C 
ENDBRANCH  16  22
BRANCH  18  24
ATOM     24  O   UNL A   1      30.569  29.257  24.344  1.00  0.00    -0.491 OA
ATOM     25  C   UNL A   1      30.093  29.625  23.062  1.00  0.00     0.278 C 
ENDBRANCH  18  24
ENDBRANCH  10  15
ENDBRANCH   8   9
ENDBRANCH   4   7
ENDBRANCH   2   3
ENDBRANCH   1   2
BRANCH   1  26
ATOM     26  C   UNL A   1      37.189  22.167  24.357  1.00  0.00     0.118 C 
BRANCH  26  27
ATOM     27  N   UNL A   1      38.011  21.076  24.888  1.00  0.00    -0.352 N 
ATOM     28  C   UNL A   1      39.055  21.026  25.792  1.00  0.00     0.251 C 
ATOM     29  H   UNL A   1      37.771  20.194  24.522  1.00  0.00     0.163 HD
ATOM     30  O   UNL A   1      39.622  19.959  25.982  1.00  0.00    -0.269 OA
BRANCH  28  31
ATOM     31  C   UNL A   1      39.525  22.244  26.497  1.00  0.00     0.039 A 
ATOM     32  C   UNL A   1      40.538  22.128  27.458  1.00  0.00     0.014 A 
ATOM     33  C   UNL A   1      38.998  23.499  26.218  1.00  0.00     0.014 A 
ATOM     34  C   UNL A   1      41.110  23.279  28.017  1.00  0.00     0.010 A 
ATOM     35  C   UNL A   1      39.654  24.640  26.662  1.00  0.00     0.010 A 
ATOM     36  C   UNL A   1      40.729  24.549  27.557  1.00  0.00    -0.014 A 
BRANCH  36  37
ATOM     37  C   UNL A   1      41.462  25.791  27.932  1.00  0.00     0.031 A 
ATOM     38  C   UNL A   1      40.755  26.907  28.656  1.00  0.00     0.074 A 
ATOM     39  C   UNL A   1      42.713  25.987  27.465  1.00  0.00     0.049 A 
ATOM     40  N   UNL A   1      41.167  28.124  28.904  1.00  0.00    -0.248 NA
ATOM     41  C   UNL A   1      39.381  26.639  29.112  1.00  0.00     0.031 C 
ATOM     42  C   UNL A   1      43.472  25.036  26.649  1.00  0.00     0.029 A 
ATOM     43  N   UNL A   1      43.550  27.072  27.568  1.00  0.00    -0.354 N 
ATOM     44  C   UNL A   1      40.085  28.781  29.477  1.00  0.00     0.074 A 
ATOM     45  C   UNL A   1      38.988  27.840  29.507  1.00  0.00     0.031 C 
ATOM     46  C   UNL A   1      44.658  25.576  26.328  1.00  0.00     0.029 A 
ATOM     47  C   UNL A   1      44.730  26.926  26.874  1.00  0.00     0.049 A 
ATOM     48  H   UNL A   1      43.327  27.877  28.090  1.00  0.00     0.167 HD
ATOM     49  C   UNL A   1      40.016  30.044  29.966  1.00  0.00     0.034 A 
ATOM     50  C   UNL A   1      45.750  27.783  26.677  1.00  0.00     0.034 A 
ATOM     51  C   UNL A   1      41.133  30.949  30.006  1.00  0.00     0.049 A 
ATOM     52  C   UNL A   1      45.691  29.146  27.307  1.00  0.00     0.074 A 
ATOM     53  C   UNL A   1      41.216  32.187  30.617  1.00  0.00     0.029 A 
ATOM     54  N   UNL A   1      42.359  30.718  29.404  1.00  0.00    -0.354 N 
ATOM     55  N   UNL A   1      44.729  29.683  28.017  1.00  0.00    -0.248 NA
ATOM     56  C   UNL A   1      46.867  30.011  27.135  1.00  0.00     0.031 C 
ATOM     57  C   UNL A   1      42.487  32.714  30.364  1.00  0.00     0.029 A 
ATOM     58  C   UNL A   1      43.202  31.797  29.609  1.00  0.00     0.049 A 
ATOM     59  H   UNL A   1      42.597  29.904  28.903  1.00  0.00     0.167 HD
ATOM     60  C   UNL A   1      45.185  30.941  28.391  1.00  0.00     0.074 A 
ATOM     61  C   UNL A   1      46.524  31.074  27.853  1.00  0.00     0.031 C 
ATOM     62  C   UNL A   1      44.544  31.907  29.096  1.00  0.00     0.034 A 
BRANCH  49  63
ATOM     63  C   UNL A   1      38.700  30.492  30.552  1.00  0.00     0.023 A 
ATOM     64  C   UNL A   1      38.354  30.110  31.865  1.00  0.00     0.012 A 
ATOM     65  C   UNL A   1      37.815  31.306  29.818  1.00  0.00     0.148 A 
ATOM     66  C   UNL A   1      37.129  30.481  32.417  1.00  0.00     0.002 A 
ATOM     67  C   UNL A   1      36.615  31.713  30.393  1.00  0.00     0.091 A 
ATOM     68  F   UNL A   1      38.145  31.646  28.564  1.00  0.00    -0.205 F 
ATOM     69  C   UNL A   1      36.264  31.288  31.684  1.00  0.00     0.022 A 
BRANCH  67  70
ATOM     70  S   UNL A   1      35.474  32.821  29.559  1.00  0.00     0.127 S 
ATOM     71  O   UNL A   1      36.179  34.098  29.655  1.00  0.00    -0.237 OA
ATOM     72  O   UNL A   1      35.420  32.256  28.210  1.00  0.00    -0.237 OA
ATOM     73  O   UNL A   1      34.223  32.732  30.299  1.00  0.00    -0.744 OA
ENDBRANCH  67  70
ENDBRANCH  49  63
BRANCH  50  74
ATOM     74  C   UNL A   1      46.939  27.335  25.896  1.00  0.00     0.023 A 
ATOM     75  C   UNL A   1      47.816  26.390  26.462  1.00  0.00     0.012 A 
ATOM     76  C   UNL A   1      47.154  27.765  24.571  1.00  0.00     0.148 A 
ATOM     77  C   UNL A   1      48.894  25.893  25.729  1.00  0.00     0.002 A 
ATOM     78  C   UNL A   1      48.195  27.222  23.827  1.00  0.00     0.091 A 
ATOM     79  F   UNL A   1      46.308  28.669  24.054  1.00  0.00    -0.205 F 
ATOM     80  C   UNL A   1      49.076  26.298  24.409  1.00  0.00     0.022 A 
BRANCH  78  81
ATOM     81  S   UNL A   1      48.426  27.573  22.079  1.00  0.00     0.127 S 
ATOM     82  O   UNL A   1      47.164  28.222  21.734  1.00  0.00    -0.237 OA
ATOM     83  O   UNL A   1      49.589  28.462  22.103  1.00  0.00    -0.237 OA
ATOM     84  O   UNL A   1      48.664  26.285  21.443  1.00  0.00    -0.744 OA
ENDBRANCH  78  81
ENDBRANCH  50  74
BRANCH  62  85
ATOM     85  C   UNL A   1      45.276  33.202  29.328  1.00  0.00     0.023 A 
ATOM     86  C   UNL A   1      46.103  33.338  30.460  1.00  0.00     0.012 A 
ATOM     87  C   UNL A   1      45.212  34.251  28.389  1.00  0.00     0.148 A 
ATOM     88  C   UNL A   1      46.834  34.506  30.669  1.00  0.00     0.002 A 
ATOM     89  C   UNL A   1      45.979  35.394  28.580  1.00  0.00     0.091 A 
ATOM     90  F   UNL A   1      44.405  34.110  27.327  1.00  0.00    -0.205 F 
ATOM     91  C   UNL A   1      46.782  35.528  29.724  1.00  0.00     0.022 A 
BRANCH  89  92
ATOM     92  S   UNL A   1      46.048  36.722  27.372  1.00  0.00     0.127 S 
ATOM     93  O   UNL A   1      46.499  36.013  26.175  1.00  0.00    -0.237 OA
ATOM     94  O   UNL A   1      44.657  37.173  27.325  1.00  0.00    -0.237 OA
ATOM     95  O   UNL A   1      46.982  37.703  27.906  1.00  0.00    -0.744 OA
ENDBRANCH  89  92
ENDBRANCH  62  85
ENDBRANCH  36  37
ENDBRANCH  28  31
ENDBRANCH  26  27
ENDBRANCH   1  26
TORSDOF 17
ENDMDL
MODEL 3
REMARK VINA RESULT:     -12.2      4.940      8.252
REMARK SMILES COc1ccc(-c2cccc(/C=C\C(=O)NCCCNC(=O)c3ccc(-c4c5nc(c(-c6cccc(S(=O)(=O)[O-])c6F)c6ccc([nH]6)c(-c6cccc(S(=O)(=O)[O-])c6F)c6nc(c(-c7cccc(S(=O)(=O)[O-])c7F)c7ccc4[nH]7)C=C6)C=C5)cc3)c2)c(Cl)c1OC
REMARK SMILES IDX 18 1 17 2 16 3 14 4 15 5 13 7 12 8 11 9 7 10 8 11 86 12 9 13
REMARK SMILES IDX 10 14 6 15 3 16 4 17 89 18 5 19 87 20 88 21 2 22 1 23 90 24
REMARK SMILES IDX 91 25 19 26 20 27 21 28 22 30 23 31 24 32 85 33 25 34 84 35
REMARK SMILES IDX 26 36 27 37 28 38 78 39 29 40 83 41 77 42 79 43 30 44 82 45
REMARK SMILES IDX 76 46 75 47 31 49 63 50 43 51 62 52 44 53 47 54 61 55 80 56
REMARK SMILES IDX 45 57 46 58 60 60 81 61 48 62 32 63 33 64 41 65 34 66 36 67
REMARK SMILES IDX 42 68 35 69 37 70 38 71 39 72 40 73 64 74 65 75 73 76 66 77
REMARK SMILES IDX 68 78 74 79 67 80 69 81 70 82 71 83 72 84 49 85 50 86 58 87
REMARK SMILES IDX 51 88 53 89 59 90 52 91 54 92 55 93 56 94 57 95
REMARK H PARENT 16 6 20 29 79 48 47 59
REMARK Flexibility Score: inf
ROOT
ATOM      1  C   UNL A   1      32.343  29.703  24.992  1.00  0.00     0.042 C 
ENDROOT
BRANCH   1   2
ATOM      2  C   UNL A   1      32.196  28.231  24.661  1.00  0.00     0.118 C 
BRANCH   2   3
ATOM      3  N   UNL A   1      33.102  27.703  23.663  1.00  0.00    -0.352 N 
ATOM      4  C   UNL A   1      32.808  27.028  22.518  1.00  0.00     0.244 C 
ATOM      5  O   UNL A   1      33.725  26.718  21.753  1.00  0.00    -0.270 OA
ATOM      6  H   UNL A   1      34.059  27.852  23.835  1.00  0.00     0.163 HD
BRANCH   4   7
ATOM      7  C   UNL A   1      31.435  26.548  22.190  1.00  0.00     0.072 C 
ATOM      8  C   UNL A   1      30.587  25.682  22.776  1.00  0.00     0.014 C 
BRANCH   8   9
ATOM      9  C   UNL A   1      30.809  24.865  23.973  1.00  0.00    -0.025 A 
ATOM     10  C   UNL A   1      32.131  23.104  25.067  1.00  0.00    -0.016 A 
ATOM     11  C   UNL A   1      31.636  23.593  26.295  1.00  0.00     0.009 A 
ATOM     12  C   UNL A   1      31.706  23.778  23.907  1.00  0.00     0.017 A 
ATOM     13  C   UNL A   1      30.642  24.572  26.356  1.00  0.00     0.001 A 
ATOM     14  C   UNL A   1      30.202  25.185  25.189  1.00  0.00     0.008 A 
BRANCH  10  15
ATOM     15  C   UNL A   1      32.922  21.832  25.038  1.00  0.00     0.004 A 
ATOM     16  C   UNL A   1      34.160  19.328  24.626  1.00  0.00     0.162 A 
ATOM     17  C   UNL A   1      32.781  19.440  24.527  1.00  0.00     0.051 A 
ATOM     18  C   UNL A   1      34.959  20.427  25.025  1.00  0.00     0.180 A 
ATOM     19  C   UNL A   1      32.186  20.676  24.697  1.00  0.00     0.014 A 
ATOM     20  C   UNL A   1      34.325  21.678  25.260  1.00  0.00     0.094 A 
ATOM     21  Cl  UNL A   1      35.195  23.038  25.903  1.00  0.00    -0.079 Cl
BRANCH  16  22
ATOM     22  O   UNL A   1      34.773  18.117  24.378  1.00  0.00    -0.493 OA
ATOM     23  C   UNL A   1      34.021  17.277  23.503  1.00  0.00     0.278 C 
ENDBRANCH  16  22
BRANCH  18  24
ATOM     24  O   UNL A   1      36.280  20.069  25.113  1.00  0.00    -0.491 OA
ATOM     25  C   UNL A   1      37.344  20.867  24.627  1.00  0.00     0.278 C 
ENDBRANCH  18  24
ENDBRANCH  10  15
ENDBRANCH   8   9
ENDBRANCH   4   7
ENDBRANCH   2   3
ENDBRANCH   1   2
BRANCH   1  26
ATOM     26  C   UNL A   1      32.068  30.057  26.452  1.00  0.00     0.118 C 
BRANCH  26  27
ATOM     27  N   UNL A   1      32.200  31.479  26.785  1.00  0.00    -0.352 N 
ATOM     28  C   UNL A   1      33.187  32.221  27.404  1.00  0.00     0.251 C 
ATOM     29  H   UNL A   1      31.422  32.016  26.512  1.00  0.00     0.163 HD
ATOM     30  O   UNL A   1      32.981  33.406  27.631  1.00  0.00    -0.269 OA
BRANCH  28  31
ATOM     31  C   UNL A   1      34.464  31.602  27.836  1.00  0.00     0.039 A 
ATOM     32  C   UNL A   1      35.558  32.427  28.129  1.00  0.00     0.014 A 
ATOM     33  C   UNL A   1      34.599  30.226  27.973  1.00  0.00     0.014 A 
ATOM     34  C   UNL A   1      36.718  31.879  28.693  1.00  0.00     0.010 A 
ATOM     35  C   UNL A   1      35.687  29.701  28.658  1.00  0.00     0.010 A 
ATOM     36  C   UNL A   1      36.758  30.520  29.042  1.00  0.00    -0.014 A 
BRANCH  36  37
ATOM     37  C   UNL A   1      37.859  29.933  29.856  1.00  0.00     0.031 A 
ATOM     38  C   UNL A   1      38.115  30.419  31.259  1.00  0.00     0.074 A 
ATOM     39  C   UNL A   1      38.737  29.091  29.272  1.00  0.00     0.049 A 
ATOM     40  N   UNL A   1      39.125  30.164  32.051  1.00  0.00    -0.248 NA
ATOM     41  C   UNL A   1      37.135  31.359  31.827  1.00  0.00     0.031 C 
ATOM     42  C   UNL A   1      38.675  28.632  27.882  1.00  0.00     0.029 A 
ATOM     43  N   UNL A   1      39.883  28.509  29.758  1.00  0.00    -0.354 N 
ATOM     44  C   UNL A   1      38.938  30.963  33.173  1.00  0.00     0.074 A 
ATOM     45  C   UNL A   1      37.738  31.737  32.943  1.00  0.00     0.031 C 
ATOM     46  C   UNL A   1      39.730  27.843  27.628  1.00  0.00     0.029 A 
ATOM     47  C   UNL A   1      40.569  27.772  28.819  1.00  0.00     0.049 A 
ATOM     48  H   UNL A   1      40.185  28.610  30.690  1.00  0.00     0.167 HD
ATOM     49  C   UNL A   1      39.678  31.027  34.307  1.00  0.00     0.034 A 
ATOM     50  C   UNL A   1      41.749  27.128  28.893  1.00  0.00     0.034 A 
ATOM     51  C   UNL A   1      40.825  30.198  34.562  1.00  0.00     0.049 A 
ATOM     52  C   UNL A   1      42.506  27.136  30.190  1.00  0.00     0.074 A 
ATOM     53  C   UNL A   1      41.550  30.068  35.733  1.00  0.00     0.029 A 
ATOM     54  N   UNL A   1      41.420  29.363  33.630  1.00  0.00    -0.354 N 
ATOM     55  N   UNL A   1      42.209  27.746  31.312  1.00  0.00    -0.248 NA
ATOM     56  C   UNL A   1      43.744  26.345  30.245  1.00  0.00     0.031 C 
ATOM     57  C   UNL A   1      42.598  29.171  35.500  1.00  0.00     0.029 A 
ATOM     58  C   UNL A   1      42.516  28.729  34.189  1.00  0.00     0.049 A 
ATOM     59  H   UNL A   1      41.108  29.239  32.704  1.00  0.00     0.167 HD
ATOM     60  C   UNL A   1      43.212  27.404  32.211  1.00  0.00     0.074 A 
ATOM     61  C   UNL A   1      44.109  26.507  31.512  1.00  0.00     0.031 C 
ATOM     62  C   UNL A   1      43.385  27.813  33.493  1.00  0.00     0.034 A 
BRANCH  49  63
ATOM     63  C   UNL A   1      39.225  31.986  35.380  1.00  0.00     0.023 A 
ATOM     64  C   UNL A   1      38.252  31.578  36.315  1.00  0.00     0.012 A 
ATOM     65  C   UNL A   1      39.774  33.280  35.479  1.00  0.00     0.148 A 
ATOM     66  C   UNL A   1      37.790  32.457  37.295  1.00  0.00     0.002 A 
ATOM     67  C   UNL A   1      39.344  34.135  36.489  1.00  0.00     0.091 A 
ATOM     68  F   UNL A   1      40.683  33.663  34.572  1.00  0.00    -0.205 F 
ATOM     69  C   UNL A   1      38.342  33.731  37.386  1.00  0.00     0.022 A 
BRANCH  67  70
ATOM     70  S   UNL A   1      40.055  35.765  36.738  1.00  0.00     0.127 S 
ATOM     71  O   UNL A   1      41.479  35.454  36.834  1.00  0.00    -0.237 OA
ATOM     72  O   UNL A   1      39.665  36.466  35.514  1.00  0.00    -0.237 OA
ATOM     73  O   UNL A   1      39.438  36.285  37.951  1.00  0.00    -0.744 OA
ENDBRANCH  67  70
ENDBRANCH  49  63
BRANCH  50  74
ATOM     74  C   UNL A   1      42.241  26.368  27.707  1.00  0.00     0.023 A 
ATOM     75  C   UNL A   1      43.162  26.979  26.834  1.00  0.00     0.012 A 
ATOM     76  C   UNL A   1      41.875  25.025  27.491  1.00  0.00     0.148 A 
ATOM     77  C   UNL A   1      43.700  26.270  25.759  1.00  0.00     0.002 A 
ATOM     78  C   UNL A   1      42.459  24.307  26.453  1.00  0.00     0.091 A 
ATOM     79  F   UNL A   1      40.993  24.465  28.332  1.00  0.00    -0.205 F 
ATOM     80  C   UNL A   1      43.359  24.932  25.576  1.00  0.00     0.022 A 
BRANCH  78  81
ATOM     81  S   UNL A   1      42.193  22.544  26.221  1.00  0.00     0.127 S 
ATOM     82  O   UNL A   1      42.966  22.281  25.011  1.00  0.00    -0.237 OA
ATOM     83  O   UNL A   1      42.765  21.991  27.450  1.00  0.00    -0.237 OA
ATOM     84  O   UNL A   1      40.753  22.372  26.096  1.00  0.00    -0.744 OA
ENDBRANCH  78  81
ENDBRANCH  50  74
BRANCH  62  85
ATOM     85  C   UNL A   1      44.595  27.302  34.230  1.00  0.00     0.023 A 
ATOM     86  C   UNL A   1      45.785  28.055  34.214  1.00  0.00     0.012 A 
ATOM     87  C   UNL A   1      44.531  26.125  35.003  1.00  0.00     0.148 A 
ATOM     88  C   UNL A   1      46.902  27.633  34.933  1.00  0.00     0.002 A 
ATOM     89  C   UNL A   1      45.634  25.734  35.753  1.00  0.00     0.091 A 
ATOM     90  F   UNL A   1      43.395  25.413  34.990  1.00  0.00    -0.205 F 
ATOM     91  C   UNL A   1      46.823  26.480  35.711  1.00  0.00     0.022 A 
BRANCH  89  92
ATOM     92  S   UNL A   1      45.595  24.317  36.857  1.00  0.00     0.127 S 
ATOM     93  O   UNL A   1      44.552  24.706  37.805  1.00  0.00    -0.237 OA
ATOM     94  O   UNL A   1      45.223  23.228  35.953  1.00  0.00    -0.237 OA
ATOM     95  O   UNL A   1      46.936  24.206  37.415  1.00  0.00    -0.744 OA
ENDBRANCH  89  92
ENDBRANCH  62  85
ENDBRANCH  36  37
ENDBRANCH  28  31
ENDBRANCH  26  27
ENDBRANCH   1  26
TORSDOF 17
ENDMDL
