MODEL 1
REMARK VINA RESULT:     -11.6      0.000      0.000
REMARK SMILES CSc1ccc(C[C@H]([NH3+])C(=O)NCCCNC(=O)c2ccc(-c3c4nc(c(-c5cccc(S(=O)(=O)[O-])c5F)c5ccc([nH]5)c(-c5cccc(S(=O)(=O)[O-])c5F)c5nc(c(-c6cccc(S(=O)(=O)[O-])c6F)c6ccc3[nH]6)C=C5)C=C4)cc2)cc1
REMARK SMILES IDX 14 1 13 2 12 3 10 4 11 5 8 7 7 8 6 9 3 10 4 11 83 12 5 13
REMARK SMILES IDX 82 14 2 15 1 16 9 17 15 21 16 22 17 23 18 25 19 26 20 27
REMARK SMILES IDX 81 28 21 29 80 30 22 31 23 32 24 33 74 34 25 35 79 36 73 37
REMARK SMILES IDX 75 38 26 39 78 40 72 41 71 42 27 44 59 45 39 46 58 47 40 48
REMARK SMILES IDX 43 49 57 50 76 51 41 52 42 53 56 55 77 56 44 57 28 58 29 59
REMARK SMILES IDX 37 60 30 61 32 62 38 63 31 64 33 65 34 66 35 67 36 68 60 69
REMARK SMILES IDX 61 70 69 71 62 72 64 73 70 74 63 75 65 76 66 77 67 78 68 79
REMARK SMILES IDX 45 80 46 81 54 82 47 83 49 84 55 85 48 86 50 87 51 88 52 89
REMARK SMILES IDX 53 90
REMARK H PARENT 12 6 9 18 9 19 9 20 16 24 75 43 43 54
REMARK Flexibility Score: inf
ROOT
ATOM      1  C   UNL A   1      35.445  21.898  25.873  1.00  0.00     0.042 C 
ENDROOT
BRANCH   1   2
ATOM      2  C   UNL A   1      34.405  22.930  25.478  1.00  0.00     0.118 C 
BRANCH   2   3
ATOM      3  N   UNL A   1      34.472  23.298  24.072  1.00  0.00    -0.351 N 
ATOM      4  C   UNL A   1      33.553  23.100  23.080  1.00  0.00     0.278 C 
ATOM      5  O   UNL A   1      33.815  23.522  21.950  1.00  0.00    -0.268 OA
ATOM      6  H   UNL A   1      35.297  23.756  23.795  1.00  0.00     0.163 HD
BRANCH   4   7
ATOM      7  C   UNL A   1      32.218  22.378  23.361  1.00  0.00     0.275 C 
BRANCH   7   8
ATOM      8  C   UNL A   1      32.115  21.094  22.514  1.00  0.00     0.111 C 
BRANCH   8   9
ATOM      9  C   UNL A   1      32.283  19.784  23.241  1.00  0.00    -0.041 A 
ATOM     10  C   UNL A   1      32.918  17.356  24.514  1.00  0.00     0.007 A 
ATOM     11  C   UNL A   1      32.779  18.532  25.259  1.00  0.00     0.015 A 
ATOM     12  C   UNL A   1      32.729  17.399  23.132  1.00  0.00     0.015 A 
ATOM     13  C   UNL A   1      32.464  19.739  24.628  1.00  0.00     0.005 A 
ATOM     14  C   UNL A   1      32.410  18.601  22.501  1.00  0.00     0.005 A 
BRANCH  10  15
ATOM     15  S   UNL A   1      33.417  15.809  25.252  1.00  0.00    -0.130 SA
ATOM     16  C   UNL A   1      35.214  16.015  25.256  1.00  0.00     0.091 C 
ENDBRANCH  10  15
ENDBRANCH   8   9
ENDBRANCH   7   8
BRANCH   7  17
ATOM     17  N   UNL A   1      31.096  23.310  23.114  1.00  0.00    -0.347 N 
ATOM     18  H   UNL A   1      31.425  24.098  22.557  1.00  0.00     0.345 HD
ATOM     19  H   UNL A   1      30.734  23.650  24.005  1.00  0.00     0.345 HD
ATOM     20  H   UNL A   1      30.354  22.823  22.609  1.00  0.00     0.345 HD
ENDBRANCH   7  17
ENDBRANCH   4   7
ENDBRANCH   2   3
ENDBRANCH   1   2
BRANCH   1  21
ATOM     21  C   UNL A   1      36.720  21.959  25.046  1.00  0.00     0.118 C 
BRANCH  21  22
ATOM     22  N   UNL A   1      37.688  20.930  25.417  1.00  0.00    -0.352 N 
ATOM     23  C   UNL A   1      38.933  21.050  25.988  1.00  0.00     0.251 C 
ATOM     24  H   UNL A   1      37.404  20.006  25.232  1.00  0.00     0.163 HD
ATOM     25  O   UNL A   1      39.665  20.066  26.064  1.00  0.00    -0.269 OA
BRANCH  23  26
ATOM     26  C   UNL A   1      39.401  22.362  26.484  1.00  0.00     0.039 A 
ATOM     27  C   UNL A   1      40.469  22.409  27.384  1.00  0.00     0.014 A 
ATOM     28  C   UNL A   1      38.796  23.546  26.054  1.00  0.00     0.014 A 
ATOM     29  C   UNL A   1      40.987  23.645  27.779  1.00  0.00     0.010 A 
ATOM     30  C   UNL A   1      39.372  24.770  26.374  1.00  0.00     0.010 A 
ATOM     31  C   UNL A   1      40.475  24.834  27.238  1.00  0.00    -0.014 A 
BRANCH  31  32
ATOM     32  C   UNL A   1      41.086  26.156  27.531  1.00  0.00     0.031 A 
ATOM     33  C   UNL A   1      42.509  26.438  27.129  1.00  0.00     0.074 A 
ATOM     34  C   UNL A   1      40.400  27.058  28.261  1.00  0.00     0.049 A 
ATOM     35  N   UNL A   1      43.246  27.487  27.389  1.00  0.00    -0.248 NA
ATOM     36  C   UNL A   1      43.205  25.393  26.361  1.00  0.00     0.031 C 
ATOM     37  C   UNL A   1      39.043  26.871  28.781  1.00  0.00     0.029 A 
ATOM     38  N   UNL A   1      40.761  28.300  28.723  1.00  0.00    -0.354 N 
ATOM     39  C   UNL A   1      44.500  27.211  26.856  1.00  0.00     0.074 A 
ATOM     40  C   UNL A   1      44.434  25.884  26.285  1.00  0.00     0.031 C 
ATOM     41  C   UNL A   1      38.688  27.955  29.489  1.00  0.00     0.029 A 
ATOM     42  C   UNL A   1      39.801  28.899  29.505  1.00  0.00     0.049 A 
ATOM     43  H   UNL A   1      41.627  28.720  28.517  1.00  0.00     0.167 HD
ATOM     44  C   UNL A   1      45.597  28.002  26.818  1.00  0.00     0.034 A 
ATOM     45  C   UNL A   1      39.817  30.070  30.171  1.00  0.00     0.034 A 
ATOM     46  C   UNL A   1      45.645  29.340  27.342  1.00  0.00     0.049 A 
ATOM     47  C   UNL A   1      41.037  30.945  30.082  1.00  0.00     0.074 A 
ATOM     48  C   UNL A   1      46.678  30.257  27.266  1.00  0.00     0.029 A 
ATOM     49  N   UNL A   1      44.618  29.951  28.047  1.00  0.00    -0.354 N 
ATOM     50  N   UNL A   1      42.156  30.735  29.432  1.00  0.00    -0.248 NA
ATOM     51  C   UNL A   1      40.987  32.233  30.789  1.00  0.00     0.031 C 
ATOM     52  C   UNL A   1      46.284  31.416  27.945  1.00  0.00     0.029 A 
ATOM     53  C   UNL A   1      44.997  31.228  28.423  1.00  0.00     0.049 A 
ATOM     54  H   UNL A   1      43.749  29.536  28.251  1.00  0.00     0.167 HD
ATOM     55  C   UNL A   1      42.928  31.875  29.623  1.00  0.00     0.074 A 
ATOM     56  C   UNL A   1      42.140  32.783  30.432  1.00  0.00     0.031 C 
ATOM     57  C   UNL A   1      44.182  32.141  29.182  1.00  0.00     0.034 A 
BRANCH  44  58
ATOM     58  C   UNL A   1      46.827  27.462  26.133  1.00  0.00     0.023 A 
ATOM     59  C   UNL A   1      47.657  26.550  26.816  1.00  0.00     0.012 A 
ATOM     60  C   UNL A   1      47.127  27.805  24.800  1.00  0.00     0.148 A 
ATOM     61  C   UNL A   1      48.785  26.015  26.197  1.00  0.00     0.002 A 
ATOM     62  C   UNL A   1      48.228  27.233  24.175  1.00  0.00     0.091 A 
ATOM     63  F   UNL A   1      46.338  28.689  24.174  1.00  0.00    -0.205 F 
ATOM     64  C   UNL A   1      49.063  26.346  24.875  1.00  0.00     0.022 A 
BRANCH  62  65
ATOM     65  S   UNL A   1      48.628  27.533  22.449  1.00  0.00     0.127 S 
ATOM     66  O   UNL A   1      49.892  28.259  22.563  1.00  0.00    -0.237 OA
ATOM     67  O   UNL A   1      48.750  26.175  21.920  1.00  0.00    -0.237 OA
ATOM     68  O   UNL A   1      47.515  28.299  21.907  1.00  0.00    -0.744 OA
ENDBRANCH  62  65
ENDBRANCH  44  58
BRANCH  45  69
ATOM     69  C   UNL A   1      38.612  30.512  30.931  1.00  0.00     0.023 A 
ATOM     70  C   UNL A   1      38.529  30.242  32.310  1.00  0.00     0.012 A 
ATOM     71  C   UNL A   1      37.567  31.220  30.305  1.00  0.00     0.148 A 
ATOM     72  C   UNL A   1      37.415  30.640  33.049  1.00  0.00     0.002 A 
ATOM     73  C   UNL A   1      36.485  31.662  31.058  1.00  0.00     0.091 A 
ATOM     74  F   UNL A   1      37.659  31.457  28.990  1.00  0.00    -0.205 F 
ATOM     75  C   UNL A   1      36.398  31.359  32.425  1.00  0.00     0.022 A 
BRANCH  73  76
ATOM     76  S   UNL A   1      35.194  32.706  30.369  1.00  0.00     0.127 S 
ATOM     77  O   UNL A   1      34.327  32.913  31.524  1.00  0.00    -0.237 OA
ATOM     78  O   UNL A   1      35.952  33.885  29.947  1.00  0.00    -0.237 OA
ATOM     79  O   UNL A   1      34.618  31.941  29.270  1.00  0.00    -0.744 OA
ENDBRANCH  73  76
ENDBRANCH  45  69
BRANCH  57  80
ATOM     80  C   UNL A   1      44.780  33.479  29.531  1.00  0.00     0.023 A 
ATOM     81  C   UNL A   1      45.565  33.612  30.693  1.00  0.00     0.012 A 
ATOM     82  C   UNL A   1      44.636  34.579  28.662  1.00  0.00     0.148 A 
ATOM     83  C   UNL A   1      46.176  34.827  31.000  1.00  0.00     0.002 A 
ATOM     84  C   UNL A   1      45.287  35.772  28.949  1.00  0.00     0.091 A 
ATOM     85  F   UNL A   1      43.870  34.435  27.571  1.00  0.00    -0.205 F 
ATOM     86  C   UNL A   1      46.048  35.902  30.123  1.00  0.00     0.022 A 
BRANCH  84  87
ATOM     87  S   UNL A   1      45.259  37.179  27.832  1.00  0.00     0.127 S 
ATOM     88  O   UNL A   1      45.789  38.245  28.683  1.00  0.00    -0.237 OA
ATOM     89  O   UNL A   1      46.160  36.746  26.766  1.00  0.00    -0.237 OA
ATOM     90  O   UNL A   1      43.870  37.341  27.423  1.00  0.00    -0.744 OA
ENDBRANCH  84  87
ENDBRANCH  57  80
ENDBRANCH  31  32
ENDBRANCH  23  26
ENDBRANCH  21  22
ENDBRANCH   1  21
TORSDOF 17
ENDMDL
MODEL 2
REMARK VINA RESULT:     -11.4      6.533     12.696
REMARK SMILES CSc1ccc(C[C@H]([NH3+])C(=O)NCCCNC(=O)c2ccc(-c3c4nc(c(-c5cccc(S(=O)(=O)[O-])c5F)c5ccc([nH]5)c(-c5cccc(S(=O)(=O)[O-])c5F)c5nc(c(-c6cccc(S(=O)(=O)[O-])c6F)c6ccc3[nH]6)C=C5)C=C4)cc2)cc1
REMARK SMILES IDX 14 1 13 2 12 3 10 4 11 5 8 7 7 8 6 9 3 10 4 11 83 12 5 13
REMARK SMILES IDX 82 14 2 15 1 16 9 17 15 21 16 22 17 23 18 25 19 26 20 27
REMARK SMILES IDX 81 28 21 29 80 30 22 31 23 32 24 33 74 34 25 35 79 36 73 37
REMARK SMILES IDX 75 38 26 39 78 40 72 41 71 42 27 44 59 45 39 46 58 47 40 48
REMARK SMILES IDX 43 49 57 50 76 51 41 52 42 53 56 55 77 56 44 57 28 58 29 59
REMARK SMILES IDX 37 60 30 61 32 62 38 63 31 64 33 65 34 66 35 67 36 68 60 69
REMARK SMILES IDX 61 70 69 71 62 72 64 73 70 74 63 75 65 76 66 77 67 78 68 79
REMARK SMILES IDX 45 80 46 81 54 82 47 83 49 84 55 85 48 86 50 87 51 88 52 89
REMARK SMILES IDX 53 90
REMARK H PARENT 12 6 9 18 9 19 9 20 16 24 75 43 43 54
REMARK Flexibility Score: inf
ROOT
ATOM      1  C   UNL A   1      33.927  35.509  28.696  1.00  0.00     0.042 C 
ENDROOT
BRANCH   1   2
ATOM      2  C   UNL A   1      33.437  35.807  30.101  1.00  0.00     0.118 C 
BRANCH   2   3
ATOM      3  N   UNL A   1      33.374  34.624  30.946  1.00  0.00    -0.351 N 
ATOM      4  C   UNL A   1      33.935  34.405  32.172  1.00  0.00     0.278 C 
ATOM      5  O   UNL A   1      33.728  33.320  32.723  1.00  0.00    -0.268 OA
ATOM      6  H   UNL A   1      32.852  33.874  30.582  1.00  0.00     0.163 HD
BRANCH   4   7
ATOM      7  C   UNL A   1      34.798  35.485  32.860  1.00  0.00     0.275 C 
BRANCH   7   8
ATOM      8  C   UNL A   1      35.869  34.827  33.751  1.00  0.00     0.111 C 
BRANCH   8   9
ATOM      9  C   UNL A   1      37.224  34.598  33.129  1.00  0.00    -0.041 A 
ATOM     10  C   UNL A   1      39.741  34.490  31.876  1.00  0.00     0.007 A 
ATOM     11  C   UNL A   1      39.646  34.620  33.265  1.00  0.00     0.015 A 
ATOM     12  C   UNL A   1      38.572  34.405  31.119  1.00  0.00     0.015 A 
ATOM     13  C   UNL A   1      38.396  34.675  33.889  1.00  0.00     0.005 A 
ATOM     14  C   UNL A   1      37.324  34.454  31.739  1.00  0.00     0.005 A 
BRANCH  10  15
ATOM     15  S   UNL A   1      41.306  34.517  31.017  1.00  0.00    -0.130 SA
ATOM     16  C   UNL A   1      41.294  32.872  30.266  1.00  0.00     0.091 C 
ENDBRANCH  10  15
ENDBRANCH   8   9
ENDBRANCH   7   8
BRANCH   7  17
ATOM     17  N   UNL A   1      33.919  36.404  33.617  1.00  0.00    -0.347 N 
ATOM     18  H   UNL A   1      33.063  35.916  33.879  1.00  0.00     0.345 HD
ATOM     19  H   UNL A   1      33.688  37.209  33.035  1.00  0.00     0.345 HD
ATOM     20  H   UNL A   1      34.402  36.719  34.459  1.00  0.00     0.345 HD
ENDBRANCH   7  17
ENDBRANCH   4   7
ENDBRANCH   2   3
ENDBRANCH   1   2
BRANCH   1  21
ATOM     21  C   UNL A   1      34.609  34.157  28.553  1.00  0.00     0.118 C 
BRANCH  21  22
ATOM     22  N   UNL A   1      33.744  33.144  27.954  1.00  0.00    -0.352 N 
ATOM     23  C   UNL A   1      33.997  31.825  27.661  1.00  0.00     0.251 C 
ATOM     24  H   UNL A   1      32.838  33.454  27.726  1.00  0.00     0.163 HD
ATOM     25  O   UNL A   1      33.186  31.183  26.998  1.00  0.00    -0.269 OA
BRANCH  23  26
ATOM     26  C   UNL A   1      35.250  31.188  28.119  1.00  0.00     0.039 A 
ATOM     27  C   UNL A   1      36.410  31.961  28.219  1.00  0.00     0.014 A 
ATOM     28  C   UNL A   1      35.281  29.834  28.459  1.00  0.00     0.014 A 
ATOM     29  C   UNL A   1      37.574  31.398  28.748  1.00  0.00     0.010 A 
ATOM     30  C   UNL A   1      36.410  29.302  29.071  1.00  0.00     0.010 A 
ATOM     31  C   UNL A   1      37.569  30.077  29.225  1.00  0.00    -0.014 A 
BRANCH  31  32
ATOM     32  C   UNL A   1      38.746  29.489  29.914  1.00  0.00     0.031 A 
ATOM     33  C   UNL A   1      39.153  29.984  31.275  1.00  0.00     0.074 A 
ATOM     34  C   UNL A   1      39.514  28.591  29.265  1.00  0.00     0.049 A 
ATOM     35  N   UNL A   1      40.204  29.670  31.987  1.00  0.00    -0.248 NA
ATOM     36  C   UNL A   1      38.281  30.988  31.908  1.00  0.00     0.031 C 
ATOM     37  C   UNL A   1      39.273  28.091  27.910  1.00  0.00     0.029 A 
ATOM     38  N   UNL A   1      40.677  27.965  29.645  1.00  0.00    -0.354 N 
ATOM     39  C   UNL A   1      40.143  30.464  33.126  1.00  0.00     0.074 A 
ATOM     40  C   UNL A   1      38.968  31.297  32.998  1.00  0.00     0.031 C 
ATOM     41  C   UNL A   1      40.253  27.238  27.572  1.00  0.00     0.029 A 
ATOM     42  C   UNL A   1      41.212  27.156  28.669  1.00  0.00     0.049 A 
ATOM     43  H   UNL A   1      41.088  28.084  30.530  1.00  0.00     0.167 HD
ATOM     44  C   UNL A   1      40.973  30.476  34.196  1.00  0.00     0.034 A 
ATOM     45  C   UNL A   1      42.353  26.440  28.652  1.00  0.00     0.034 A 
ATOM     46  C   UNL A   1      42.111  29.611  34.342  1.00  0.00     0.049 A 
ATOM     47  C   UNL A   1      43.238  26.444  29.868  1.00  0.00     0.074 A 
ATOM     48  C   UNL A   1      42.956  29.478  35.430  1.00  0.00     0.029 A 
ATOM     49  N   UNL A   1      42.571  28.736  33.370  1.00  0.00    -0.354 N 
ATOM     50  N   UNL A   1      43.074  27.079  31.004  1.00  0.00    -0.248 NA
ATOM     51  C   UNL A   1      44.447  25.610  29.816  1.00  0.00     0.031 C 
ATOM     52  C   UNL A   1      43.941  28.539  35.106  1.00  0.00     0.029 A 
ATOM     53  C   UNL A   1      43.694  28.068  33.827  1.00  0.00     0.049 A 
ATOM     54  H   UNL A   1      42.159  28.609  32.485  1.00  0.00     0.167 HD
ATOM     55  C   UNL A   1      44.138  26.696  31.812  1.00  0.00     0.074 A 
ATOM     56  C   UNL A   1      44.929  25.756  31.044  1.00  0.00     0.031 C 
ATOM     57  C   UNL A   1      44.441  27.096  33.071  1.00  0.00     0.034 A 
BRANCH  44  58
ATOM     58  C   UNL A   1      40.646  31.419  35.324  1.00  0.00     0.023 A 
ATOM     59  C   UNL A   1      41.466  32.545  35.548  1.00  0.00     0.012 A 
ATOM     60  C   UNL A   1      39.499  31.231  36.121  1.00  0.00     0.148 A 
ATOM     61  C   UNL A   1      41.171  33.448  36.567  1.00  0.00     0.002 A 
ATOM     62  C   UNL A   1      39.187  32.159  37.107  1.00  0.00     0.091 A 
ATOM     63  F   UNL A   1      38.744  30.144  35.908  1.00  0.00    -0.205 F 
ATOM     64  C   UNL A   1      40.027  33.261  37.339  1.00  0.00     0.022 A 
BRANCH  62  65
ATOM     65  S   UNL A   1      37.694  32.053  38.101  1.00  0.00     0.127 S 
ATOM     66  O   UNL A   1      37.261  30.682  37.835  1.00  0.00    -0.237 OA
ATOM     67  O   UNL A   1      38.207  32.279  39.452  1.00  0.00    -0.237 OA
ATOM     68  O   UNL A   1      36.807  33.096  37.606  1.00  0.00    -0.744 OA
ENDBRANCH  62  65
ENDBRANCH  44  58
BRANCH  45  69
ATOM     69  C   UNL A   1      42.692  25.606  27.462  1.00  0.00     0.023 A 
ATOM     70  C   UNL A   1      43.482  26.159  26.436  1.00  0.00     0.012 A 
ATOM     71  C   UNL A   1      42.263  24.268  27.356  1.00  0.00     0.148 A 
ATOM     72  C   UNL A   1      43.815  25.406  25.310  1.00  0.00     0.002 A 
ATOM     73  C   UNL A   1      42.644  23.507  26.257  1.00  0.00     0.091 A 
ATOM     74  F   UNL A   1      41.503  23.765  28.337  1.00  0.00    -0.205 F 
ATOM     75  C   UNL A   1      43.405  24.077  25.225  1.00  0.00     0.022 A 
BRANCH  73  76
ATOM     76  S   UNL A   1      42.274  21.753  26.125  1.00  0.00     0.127 S 
ATOM     77  O   UNL A   1      42.635  21.269  27.455  1.00  0.00    -0.237 OA
ATOM     78  O   UNL A   1      40.838  21.767  25.843  1.00  0.00    -0.237 OA
ATOM     79  O   UNL A   1      43.095  21.261  25.026  1.00  0.00    -0.744 OA
ENDBRANCH  73  76
ENDBRANCH  45  69
BRANCH  57  80
ATOM     80  C   UNL A   1      45.663  26.501  33.721  1.00  0.00     0.023 A 
ATOM     81  C   UNL A   1      46.895  27.181  33.646  1.00  0.00     0.012 A 
ATOM     82  C   UNL A   1      45.570  25.317  34.478  1.00  0.00     0.148 A 
ATOM     83  C   UNL A   1      48.022  26.676  34.293  1.00  0.00     0.002 A 
ATOM     84  C   UNL A   1      46.685  24.846  35.160  1.00  0.00     0.091 A 
ATOM     85  F   UNL A   1      44.391  24.677  34.522  1.00  0.00    -0.205 F 
ATOM     86  C   UNL A   1      47.915  25.517  35.059  1.00  0.00     0.022 A 
BRANCH  84  87
ATOM     87  S   UNL A   1      46.619  23.417  36.247  1.00  0.00     0.127 S 
ATOM     88  O   UNL A   1      47.996  23.352  36.736  1.00  0.00    -0.237 OA
ATOM     89  O   UNL A   1      45.637  23.835  37.247  1.00  0.00    -0.237 OA
ATOM     90  O   UNL A   1      46.199  22.298  35.416  1.00  0.00    -0.744 OA
ENDBRANCH  84  87
ENDBRANCH  57  80
ENDBRANCH  31  32
ENDBRANCH  23  26
ENDBRANCH  21  22
ENDBRANCH   1  21
TORSDOF 17
ENDMDL
MODEL 3
REMARK VINA RESULT:     -11.3      5.917     10.558
REMARK SMILES CSc1ccc(C[C@H]([NH3+])C(=O)NCCCNC(=O)c2ccc(-c3c4nc(c(-c5cccc(S(=O)(=O)[O-])c5F)c5ccc([nH]5)c(-c5cccc(S(=O)(=O)[O-])c5F)c5nc(c(-c6cccc(S(=O)(=O)[O-])c6F)c6ccc3[nH]6)C=C5)C=C4)cc2)cc1
REMARK SMILES IDX 14 1 13 2 12 3 10 4 11 5 8 7 7 8 6 9 3 10 4 11 83 12 5 13
REMARK SMILES IDX 82 14 2 15 1 16 9 17 15 21 16 22 17 23 18 25 19 26 20 27
REMARK SMILES IDX 81 28 21 29 80 30 22 31 23 32 24 33 74 34 25 35 79 36 73 37
REMARK SMILES IDX 75 38 26 39 78 40 72 41 71 42 27 44 59 45 39 46 58 47 40 48
REMARK SMILES IDX 43 49 57 50 76 51 41 52 42 53 56 55 77 56 44 57 28 58 29 59
REMARK SMILES IDX 37 60 30 61 32 62 38 63 31 64 33 65 34 66 35 67 36 68 60 69
REMARK SMILES IDX 61 70 69 71 62 72 64 73 70 74 63 75 65 76 66 77 67 78 68 79
REMARK SMILES IDX 45 80 46 81 54 82 47 83 49 84 55 85 48 86 50 87 51 88 52 89
REMARK SMILES IDX 53 90
REMARK H PARENT 12 6 9 18 9 19 9 20 16 24 75 43 43 54
REMARK Flexibility Score: inf
ROOT
ATOM      1  C   UNL A   1      32.722  28.273  26.635  1.00  0.00     0.042 C 
ENDROOT
BRANCH   1   2
ATOM      2  C   UNL A   1      32.669  26.922  25.946  1.00  0.00     0.118 C 
BRANCH   2   3
ATOM      3  N   UNL A   1      31.675  26.028  26.520  1.00  0.00    -0.351 N 
ATOM      4  C   UNL A   1      30.602  25.430  25.923  1.00  0.00     0.278 C 
ATOM      5  O   UNL A   1      29.896  24.681  26.606  1.00  0.00    -0.268 OA
ATOM      6  H   UNL A   1      31.793  25.825  27.475  1.00  0.00     0.163 HD
BRANCH   4   7
ATOM      7  C   UNL A   1      30.279  25.671  24.433  1.00  0.00     0.275 C 
BRANCH   7   8
ATOM      8  C   UNL A   1      28.922  26.387  24.288  1.00  0.00     0.111 C 
BRANCH   8   9
ATOM      9  C   UNL A   1      28.902  27.643  23.453  1.00  0.00    -0.041 A 
ATOM     10  C   UNL A   1      28.816  30.151  22.179  1.00  0.00     0.007 A 
ATOM     11  C   UNL A   1      30.041  29.529  22.438  1.00  0.00     0.015 A 
ATOM     12  C   UNL A   1      27.634  29.509  22.553  1.00  0.00     0.015 A 
ATOM     13  C   UNL A   1      30.086  28.283  23.071  1.00  0.00     0.005 A 
ATOM     14  C   UNL A   1      27.675  28.264  23.180  1.00  0.00     0.005 A 
BRANCH  10  15
ATOM     15  S   UNL A   1      28.703  31.784  21.467  1.00  0.00    -0.130 SA
ATOM     16  C   UNL A   1      28.713  32.795  22.967  1.00  0.00     0.091 C 
ENDBRANCH  10  15
ENDBRANCH   8   9
ENDBRANCH   7   8
BRANCH   7  17
ATOM     17  N   UNL A   1      30.318  24.381  23.709  1.00  0.00    -0.347 N 
ATOM     18  H   UNL A   1      30.823  24.500  22.830  1.00  0.00     0.345 HD
ATOM     19  H   UNL A   1      29.366  24.071  23.515  1.00  0.00     0.345 HD
ATOM     20  H   UNL A   1      30.793  23.684  24.282  1.00  0.00     0.345 HD
ENDBRANCH   7  17
ENDBRANCH   4   7
ENDBRANCH   2   3
ENDBRANCH   1   2
BRANCH   1  21
ATOM     21  C   UNL A   1      33.783  29.210  26.079  1.00  0.00     0.118 C 
BRANCH  21  22
ATOM     22  N   UNL A   1      33.773  30.524  26.716  1.00  0.00    -0.352 N 
ATOM     23  C   UNL A   1      34.609  31.051  27.671  1.00  0.00     0.251 C 
ATOM     24  H   UNL A   1      33.057  31.126  26.412  1.00  0.00     0.163 HD
ATOM     25  O   UNL A   1      34.326  32.122  28.203  1.00  0.00    -0.269 OA
BRANCH  23  26
ATOM     26  C   UNL A   1      35.829  30.322  28.076  1.00  0.00     0.039 A 
ATOM     27  C   UNL A   1      36.981  30.430  27.292  1.00  0.00     0.014 A 
ATOM     28  C   UNL A   1      35.844  29.541  29.234  1.00  0.00     0.014 A 
ATOM     29  C   UNL A   1      38.168  29.832  27.719  1.00  0.00     0.010 A 
ATOM     30  C   UNL A   1      37.047  29.025  29.704  1.00  0.00     0.010 A 
ATOM     31  C   UNL A   1      38.223  29.166  28.953  1.00  0.00    -0.014 A 
BRANCH  31  32
ATOM     32  C   UNL A   1      39.497  28.634  29.501  1.00  0.00     0.031 A 
ATOM     33  C   UNL A   1      40.201  29.354  30.620  1.00  0.00     0.074 A 
ATOM     34  C   UNL A   1      40.078  27.568  28.914  1.00  0.00     0.049 A 
ATOM     35  N   UNL A   1      41.367  29.104  31.156  1.00  0.00    -0.248 NA
ATOM     36  C   UNL A   1      39.519  30.528  31.190  1.00  0.00     0.031 C 
ATOM     37  C   UNL A   1      39.538  26.832  27.769  1.00  0.00     0.029 A 
ATOM     38  N   UNL A   1      41.271  26.940  29.176  1.00  0.00    -0.354 N 
ATOM     39  C   UNL A   1      41.577  30.109  32.093  1.00  0.00     0.074 A 
ATOM     40  C   UNL A   1      40.433  30.991  32.031  1.00  0.00     0.031 C 
ATOM     41  C   UNL A   1      40.392  25.855  27.428  1.00  0.00     0.029 A 
ATOM     42  C   UNL A   1      41.558  25.915  28.303  1.00  0.00     0.049 A 
ATOM     43  H   UNL A   1      41.865  27.198  29.917  1.00  0.00     0.167 HD
ATOM     44  C   UNL A   1      42.614  30.266  32.949  1.00  0.00     0.034 A 
ATOM     45  C   UNL A   1      42.643  25.122  28.209  1.00  0.00     0.034 A 
ATOM     46  C   UNL A   1      43.726  29.360  33.042  1.00  0.00     0.049 A 
ATOM     47  C   UNL A   1      43.765  25.296  29.196  1.00  0.00     0.074 A 
ATOM     48  C   UNL A   1      44.776  29.378  33.943  1.00  0.00     0.029 A 
ATOM     49  N   UNL A   1      43.937  28.277  32.203  1.00  0.00    -0.354 N 
ATOM     50  N   UNL A   1      43.868  26.153  30.184  1.00  0.00    -0.248 NA
ATOM     51  C   UNL A   1      44.904  24.376  29.079  1.00  0.00     0.031 C 
ATOM     52  C   UNL A   1      45.636  28.318  33.633  1.00  0.00     0.029 A 
ATOM     53  C   UNL A   1      45.107  27.626  32.555  1.00  0.00     0.049 A 
ATOM     54  H   UNL A   1      43.343  28.011  31.464  1.00  0.00     0.167 HD
ATOM     55  C   UNL A   1      45.064  25.853  30.825  1.00  0.00     0.074 A 
ATOM     56  C   UNL A   1      45.640  24.722  30.127  1.00  0.00     0.031 C 
ATOM     57  C   UNL A   1      45.641  26.469  31.886  1.00  0.00     0.034 A 
BRANCH  44  58
ATOM     58  C   UNL A   1      42.568  31.436  33.898  1.00  0.00     0.023 A 
ATOM     59  C   UNL A   1      43.261  32.621  33.574  1.00  0.00     0.012 A 
ATOM     60  C   UNL A   1      41.793  31.389  35.073  1.00  0.00     0.148 A 
ATOM     61  C   UNL A   1      43.212  33.727  34.420  1.00  0.00     0.002 A 
ATOM     62  C   UNL A   1      41.714  32.511  35.890  1.00  0.00     0.091 A 
ATOM     63  F   UNL A   1      41.158  30.248  35.375  1.00  0.00    -0.205 F 
ATOM     64  C   UNL A   1      42.431  33.676  35.570  1.00  0.00     0.022 A 
BRANCH  62  65
ATOM     65  S   UNL A   1      40.672  32.575  37.352  1.00  0.00     0.127 S 
ATOM     66  O   UNL A   1      41.553  31.997  38.366  1.00  0.00    -0.237 OA
ATOM     67  O   UNL A   1      40.433  34.010  37.498  1.00  0.00    -0.237 OA
ATOM     68  O   UNL A   1      39.487  31.790  37.035  1.00  0.00    -0.744 OA
ENDBRANCH  62  65
ENDBRANCH  44  58
BRANCH  45  69
ATOM     69  C   UNL A   1      42.692  24.046  27.177  1.00  0.00     0.023 A 
ATOM     70  C   UNL A   1      43.408  24.267  25.984  1.00  0.00     0.012 A 
ATOM     71  C   UNL A   1      42.062  22.803  27.380  1.00  0.00     0.148 A 
ATOM     72  C   UNL A   1      43.471  23.282  24.999  1.00  0.00     0.002 A 
ATOM     73  C   UNL A   1      42.176  21.806  26.418  1.00  0.00     0.091 A 
ATOM     74  F   UNL A   1      41.376  22.616  28.516  1.00  0.00    -0.205 F 
ATOM     75  C   UNL A   1      42.864  22.049  25.219  1.00  0.00     0.022 A 
BRANCH  73  76
ATOM     76  S   UNL A   1      41.539  20.144  26.672  1.00  0.00     0.127 S 
ATOM     77  O   UNL A   1      40.105  20.387  26.792  1.00  0.00    -0.237 OA
ATOM     78  O   UNL A   1      41.950  19.471  25.440  1.00  0.00    -0.237 OA
ATOM     79  O   UNL A   1      42.202  19.651  27.873  1.00  0.00    -0.744 OA
ENDBRANCH  73  76
ENDBRANCH  45  69
BRANCH  57  80
ATOM     80  C   UNL A   1      46.951  25.919  32.388  1.00  0.00     0.023 A 
ATOM     81  C   UNL A   1      48.163  26.429  31.882  1.00  0.00     0.012 A 
ATOM     82  C   UNL A   1      46.980  24.962  33.422  1.00  0.00     0.148 A 
ATOM     83  C   UNL A   1      49.384  25.976  32.379  1.00  0.00     0.002 A 
ATOM     84  C   UNL A   1      48.199  24.552  33.945  1.00  0.00     0.091 A 
ATOM     85  F   UNL A   1      45.815  24.478  33.876  1.00  0.00    -0.205 F 
ATOM     86  C   UNL A   1      49.403  25.048  33.418  1.00  0.00     0.022 A 
BRANCH  84  87
ATOM     87  S   UNL A   1      48.319  23.433  35.347  1.00  0.00     0.127 S 
ATOM     88  O   UNL A   1      47.752  22.203  34.796  1.00  0.00    -0.237 OA
ATOM     89  O   UNL A   1      49.762  23.387  35.583  1.00  0.00    -0.237 OA
ATOM     90  O   UNL A   1      47.550  24.048  36.420  1.00  0.00    -0.744 OA
ENDBRANCH  84  87
ENDBRANCH  57  80
ENDBRANCH  31  32
ENDBRANCH  23  26
ENDBRANCH  21  22
ENDBRANCH   1  21
TORSDOF 17
ENDMDL
