MODEL 1
REMARK VINA RESULT:     -11.2      0.000      0.000
REMARK SMILES CC(C)(C)N(CC(=O)NCCCNC(=O)c1ccc(-c2c3nc(c(-c4cccc(S(=O)(=O)[O-])c4F)c4ccc([nH]4)c(-c4cccc(S(=O)(=O)[O-])c4F)c4nc(c(-c5cccc(S(=O)(=O)[O-])c5F)c5ccc2[nH]5)C=C4)C=C3)cc1)C(=O)C1C[NH2+]C1
REMARK SMILES IDX 11 1 10 2 9 3 7 4 8 5 6 7 5 8 2 9 1 10 3 11 4 12 79 13 80 14
REMARK SMILES IDX 81 15 82 16 84 17 83 18 12 21 13 22 14 23 15 25 16 26 17 27
REMARK SMILES IDX 78 28 18 29 77 30 19 31 20 32 21 33 71 34 22 35 76 36 70 37
REMARK SMILES IDX 72 38 23 39 75 40 69 41 68 42 24 44 56 45 36 46 55 47 37 48
REMARK SMILES IDX 40 49 54 50 73 51 38 52 39 53 53 55 74 56 41 57 25 58 26 59
REMARK SMILES IDX 34 60 27 61 29 62 35 63 28 64 30 65 31 66 32 67 33 68 57 69
REMARK SMILES IDX 58 70 66 71 59 72 61 73 67 74 60 75 62 76 63 77 64 78 65 79
REMARK SMILES IDX 42 80 43 81 51 82 44 83 46 84 52 85 45 86 47 87 48 88 49 89
REMARK SMILES IDX 50 90
REMARK H PARENT 9 6 83 19 83 20 13 24 72 43 40 54
REMARK Flexibility Score: inf
ROOT
ATOM      1  C   UNL A   1      34.912  21.710  26.552  1.00  0.00     0.042 C 
ENDROOT
BRANCH   1   2
ATOM      2  C   UNL A   1      33.597  22.116  25.913  1.00  0.00     0.117 C 
BRANCH   2   3
ATOM      3  N   UNL A   1      32.698  22.804  26.806  1.00  0.00    -0.354 N 
ATOM      4  C   UNL A   1      32.149  24.036  26.652  1.00  0.00     0.239 C 
ATOM      5  O   UNL A   1      31.015  24.191  27.124  1.00  0.00    -0.273 OA
ATOM      6  H   UNL A   1      32.453  22.321  27.629  1.00  0.00     0.163 HD
BRANCH   4   7
ATOM      7  C   UNL A   1      32.802  25.174  25.835  1.00  0.00     0.219 C 
BRANCH   7   8
ATOM      8  N   UNL A   1      32.149  25.730  24.636  1.00  0.00    -0.328 N 
BRANCH   8   9
ATOM      9  C   UNL A   1      32.184  24.956  23.312  1.00  0.00     0.035 C 
ATOM     10  C   UNL A   1      31.174  23.777  23.224  1.00  0.00     0.034 C 
ATOM     11  C   UNL A   1      33.576  24.345  23.010  1.00  0.00     0.034 C 
ATOM     12  C   UNL A   1      31.794  25.893  22.140  1.00  0.00     0.034 C 
ENDBRANCH   8   9
BRANCH   8  13
ATOM     13  C   UNL A   1      31.229  26.816  24.737  1.00  0.00     0.238 C 
ATOM     14  O   UNL A   1      30.042  26.566  25.019  1.00  0.00    -0.274 OA
BRANCH  13  15
ATOM     15  C   UNL A   1      31.554  28.299  24.601  1.00  0.00     0.188 C 
ATOM     16  C   UNL A   1      30.545  29.240  23.922  1.00  0.00     0.280 C 
ATOM     17  C   UNL A   1      31.664  29.391  25.663  1.00  0.00     0.280 C 
ATOM     18  N   UNL A   1      31.137  30.369  24.678  1.00  0.00    -0.345 N 
ATOM     19  H   UNL A   1      30.455  31.024  25.059  1.00  0.00     0.346 HD
ATOM     20  H   UNL A   1      31.754  31.042  24.223  1.00  0.00     0.346 HD
ENDBRANCH  13  15
ENDBRANCH   8  13
ENDBRANCH   7   8
ENDBRANCH   4   7
ENDBRANCH   2   3
ENDBRANCH   1   2
BRANCH   1  21
ATOM     21  C   UNL A   1      36.132  22.133  25.750  1.00  0.00     0.118 C 
BRANCH  21  22
ATOM     22  N   UNL A   1      37.102  21.050  25.599  1.00  0.00    -0.352 N 
ATOM     23  C   UNL A   1      38.473  21.060  25.713  1.00  0.00     0.251 C 
ATOM     24  H   UNL A   1      36.712  20.173  25.378  1.00  0.00     0.163 HD
ATOM     25  O   UNL A   1      39.124  20.104  25.307  1.00  0.00    -0.269 OA
BRANCH  23  26
ATOM     26  C   UNL A   1      39.156  22.224  26.318  1.00  0.00     0.039 A 
ATOM     27  C   UNL A   1      40.197  22.020  27.229  1.00  0.00     0.014 A 
ATOM     28  C   UNL A   1      38.763  23.519  25.987  1.00  0.00     0.014 A 
ATOM     29  C   UNL A   1      40.898  23.118  27.738  1.00  0.00     0.010 A 
ATOM     30  C   UNL A   1      39.525  24.600  26.407  1.00  0.00     0.010 A 
ATOM     31  C   UNL A   1      40.595  24.414  27.295  1.00  0.00    -0.014 A 
BRANCH  31  32
ATOM     32  C   UNL A   1      41.356  25.611  27.737  1.00  0.00     0.031 A 
ATOM     33  C   UNL A   1      40.649  26.686  28.521  1.00  0.00     0.074 A 
ATOM     34  C   UNL A   1      42.622  25.800  27.315  1.00  0.00     0.049 A 
ATOM     35  N   UNL A   1      41.058  27.887  28.832  1.00  0.00    -0.248 NA
ATOM     36  C   UNL A   1      39.282  26.381  28.982  1.00  0.00     0.031 C 
ATOM     37  C   UNL A   1      43.393  24.860  26.498  1.00  0.00     0.029 A 
ATOM     38  N   UNL A   1      43.468  26.870  27.476  1.00  0.00    -0.354 N 
ATOM     39  C   UNL A   1      39.985  28.500  29.468  1.00  0.00     0.074 A 
ATOM     40  C   UNL A   1      38.896  27.549  29.475  1.00  0.00     0.031 C 
ATOM     41  C   UNL A   1      44.593  25.397  26.224  1.00  0.00     0.029 A 
ATOM     42  C   UNL A   1      44.659  26.736  26.800  1.00  0.00     0.049 A 
ATOM     43  H   UNL A   1      43.243  27.656  28.025  1.00  0.00     0.167 HD
ATOM     44  C   UNL A   1      39.920  29.734  30.019  1.00  0.00     0.034 A 
ATOM     45  C   UNL A   1      45.677  27.605  26.637  1.00  0.00     0.034 A 
ATOM     46  C   UNL A   1      41.023  30.654  30.053  1.00  0.00     0.049 A 
ATOM     47  C   UNL A   1      45.588  28.963  27.281  1.00  0.00     0.074 A 
ATOM     48  C   UNL A   1      41.089  31.891  30.668  1.00  0.00     0.029 A 
ATOM     49  N   UNL A   1      42.247  30.441  29.441  1.00  0.00    -0.354 N 
ATOM     50  N   UNL A   1      44.616  29.473  27.998  1.00  0.00    -0.248 NA
ATOM     51  C   UNL A   1      46.746  29.856  27.120  1.00  0.00     0.031 C 
ATOM     52  C   UNL A   1      42.345  32.441  30.398  1.00  0.00     0.029 A 
ATOM     53  C   UNL A   1      43.074  31.528  29.652  1.00  0.00     0.049 A 
ATOM     54  H   UNL A   1      42.492  29.635  28.930  1.00  0.00     0.167 HD
ATOM     55  C   UNL A   1      45.062  30.724  28.411  1.00  0.00     0.074 A 
ATOM     56  C   UNL A   1      46.395  30.892  27.871  1.00  0.00     0.031 C 
ATOM     57  C   UNL A   1      44.422  31.652  29.163  1.00  0.00     0.034 A 
BRANCH  44  58
ATOM     58  C   UNL A   1      38.624  30.149  30.666  1.00  0.00     0.023 A 
ATOM     59  C   UNL A   1      38.375  29.817  32.013  1.00  0.00     0.012 A 
ATOM     60  C   UNL A   1      37.678  30.918  29.960  1.00  0.00     0.148 A 
ATOM     61  C   UNL A   1      37.191  30.208  32.636  1.00  0.00     0.002 A 
ATOM     62  C   UNL A   1      36.523  31.348  30.601  1.00  0.00     0.091 A 
ATOM     63  F   UNL A   1      37.923  31.207  28.674  1.00  0.00    -0.205 F 
ATOM     64  C   UNL A   1      36.271  30.983  31.933  1.00  0.00     0.022 A 
BRANCH  62  65
ATOM     65  S   UNL A   1      35.317  32.420  29.812  1.00  0.00     0.127 S 
ATOM     66  O   UNL A   1      34.813  31.559  28.742  1.00  0.00    -0.237 OA
ATOM     67  O   UNL A   1      34.367  32.663  30.898  1.00  0.00    -0.237 OA
ATOM     68  O   UNL A   1      36.051  33.597  29.371  1.00  0.00    -0.744 OA
ENDBRANCH  62  65
ENDBRANCH  44  58
BRANCH  45  69
ATOM     69  C   UNL A   1      46.888  27.204  25.866  1.00  0.00     0.023 A 
ATOM     70  C   UNL A   1      47.860  26.392  26.483  1.00  0.00     0.012 A 
ATOM     71  C   UNL A   1      47.077  27.603  24.530  1.00  0.00     0.148 A 
ATOM     72  C   UNL A   1      49.015  26.016  25.797  1.00  0.00     0.002 A 
ATOM     73  C   UNL A   1      48.203  27.178  23.832  1.00  0.00     0.091 A 
ATOM     74  F   UNL A   1      46.144  28.380  23.962  1.00  0.00    -0.205 F 
ATOM     75  C   UNL A   1      49.182  26.402  24.469  1.00  0.00     0.022 A 
BRANCH  73  76
ATOM     76  S   UNL A   1      48.444  27.518  22.085  1.00  0.00     0.127 S 
ATOM     77  O   UNL A   1      49.624  28.380  22.108  1.00  0.00    -0.237 OA
ATOM     78  O   UNL A   1      48.672  26.176  21.548  1.00  0.00    -0.237 OA
ATOM     79  O   UNL A   1      47.212  28.147  21.633  1.00  0.00    -0.744 OA
ENDBRANCH  73  76
ENDBRANCH  45  69
BRANCH  57  80
ATOM     80  C   UNL A   1      45.165  32.913  29.518  1.00  0.00     0.023 A 
ATOM     81  C   UNL A   1      45.975  32.958  30.669  1.00  0.00     0.012 A 
ATOM     82  C   UNL A   1      45.149  34.012  28.635  1.00  0.00     0.148 A 
ATOM     83  C   UNL A   1      46.744  34.087  30.946  1.00  0.00     0.002 A 
ATOM     84  C   UNL A   1      45.959  35.110  28.890  1.00  0.00     0.091 A 
ATOM     85  F   UNL A   1      44.358  33.950  27.554  1.00  0.00    -0.205 F 
ATOM     86  C   UNL A   1      46.748  35.155  30.050  1.00  0.00     0.022 A 
BRANCH  84  87
ATOM     87  S   UNL A   1      46.109  36.484  27.742  1.00  0.00     0.127 S 
ATOM     88  O   UNL A   1      44.759  37.047  27.773  1.00  0.00    -0.237 OA
ATOM     89  O   UNL A   1      47.130  37.311  28.386  1.00  0.00    -0.237 OA
ATOM     90  O   UNL A   1      46.510  35.907  26.467  1.00  0.00    -0.744 OA
ENDBRANCH  84  87
ENDBRANCH  57  80
ENDBRANCH  31  32
ENDBRANCH  23  26
ENDBRANCH  21  22
ENDBRANCH   1  21
TORSDOF 17
ENDMDL
MODEL 2
REMARK VINA RESULT:     -11.2      5.252      9.964
REMARK SMILES CC(C)(C)N(CC(=O)NCCCNC(=O)c1ccc(-c2c3nc(c(-c4cccc(S(=O)(=O)[O-])c4F)c4ccc([nH]4)c(-c4cccc(S(=O)(=O)[O-])c4F)c4nc(c(-c5cccc(S(=O)(=O)[O-])c5F)c5ccc2[nH]5)C=C4)C=C3)cc1)C(=O)C1C[NH2+]C1
REMARK SMILES IDX 11 1 10 2 9 3 7 4 8 5 6 7 5 8 2 9 1 10 3 11 4 12 79 13 80 14
REMARK SMILES IDX 81 15 82 16 84 17 83 18 12 21 13 22 14 23 15 25 16 26 17 27
REMARK SMILES IDX 78 28 18 29 77 30 19 31 20 32 21 33 71 34 22 35 76 36 70 37
REMARK SMILES IDX 72 38 23 39 75 40 69 41 68 42 24 44 56 45 36 46 55 47 37 48
REMARK SMILES IDX 40 49 54 50 73 51 38 52 39 53 53 55 74 56 41 57 25 58 26 59
REMARK SMILES IDX 34 60 27 61 29 62 35 63 28 64 30 65 31 66 32 67 33 68 57 69
REMARK SMILES IDX 58 70 66 71 59 72 61 73 67 74 60 75 62 76 63 77 64 78 65 79
REMARK SMILES IDX 42 80 43 81 51 82 44 83 46 84 52 85 45 86 47 87 48 88 49 89
REMARK SMILES IDX 50 90
REMARK H PARENT 9 6 83 19 83 20 13 24 72 43 40 54
REMARK Flexibility Score: inf
ROOT
ATOM      1  C   UNL A   1      32.609  28.951  23.817  1.00  0.00     0.042 C 
ENDROOT
BRANCH   1   2
ATOM      2  C   UNL A   1      33.590  28.426  22.785  1.00  0.00     0.117 C 
BRANCH   2   3
ATOM      3  N   UNL A   1      33.063  27.370  21.958  1.00  0.00    -0.354 N 
ATOM      4  C   UNL A   1      33.023  26.040  22.227  1.00  0.00     0.239 C 
ATOM      5  O   UNL A   1      32.056  25.419  21.767  1.00  0.00    -0.273 OA
ATOM      6  H   UNL A   1      32.686  27.647  21.092  1.00  0.00     0.163 HD
BRANCH   4   7
ATOM      7  C   UNL A   1      34.027  25.318  23.153  1.00  0.00     0.219 C 
BRANCH   7   8
ATOM      8  N   UNL A   1      33.571  24.447  24.251  1.00  0.00    -0.328 N 
BRANCH   8   9
ATOM      9  C   UNL A   1      34.251  23.093  24.493  1.00  0.00     0.035 C 
ATOM     10  C   UNL A   1      35.580  22.888  23.709  1.00  0.00     0.034 C 
ATOM     11  C   UNL A   1      33.348  21.890  24.117  1.00  0.00     0.034 C 
ATOM     12  C   UNL A   1      34.653  22.960  25.984  1.00  0.00     0.034 C 
ENDBRANCH   8   9
BRANCH   8  13
ATOM     13  C   UNL A   1      32.721  24.947  25.282  1.00  0.00     0.238 C 
ATOM     14  O   UNL A   1      33.147  25.864  26.011  1.00  0.00    -0.274 OA
BRANCH  13  15
ATOM     15  C   UNL A   1      31.284  24.524  25.562  1.00  0.00     0.188 C 
ATOM     16  C   UNL A   1      30.992  23.532  26.700  1.00  0.00     0.280 C 
ATOM     17  C   UNL A   1      30.109  25.319  26.124  1.00  0.00     0.280 C 
ATOM     18  N   UNL A   1      29.618  24.082  26.784  1.00  0.00    -0.345 N 
ATOM     19  H   UNL A   1      29.278  24.220  27.736  1.00  0.00     0.346 HD
ATOM     20  H   UNL A   1      28.821  23.568  26.411  1.00  0.00     0.346 HD
ENDBRANCH  13  15
ENDBRANCH   8  13
ENDBRANCH   7   8
ENDBRANCH   4   7
ENDBRANCH   2   3
ENDBRANCH   1   2
BRANCH   1  21
ATOM     21  C   UNL A   1      33.254  29.285  25.152  1.00  0.00     0.118 C 
BRANCH  21  22
ATOM     22  N   UNL A   1      32.666  30.471  25.773  1.00  0.00    -0.352 N 
ATOM     23  C   UNL A   1      33.055  31.177  26.889  1.00  0.00     0.251 C 
ATOM     24  H   UNL A   1      31.863  30.820  25.322  1.00  0.00     0.163 HD
ATOM     25  O   UNL A   1      32.289  31.994  27.388  1.00  0.00    -0.269 OA
BRANCH  23  26
ATOM     26  C   UNL A   1      34.388  30.944  27.484  1.00  0.00     0.039 A 
ATOM     27  C   UNL A   1      35.280  32.011  27.625  1.00  0.00     0.014 A 
ATOM     28  C   UNL A   1      34.757  29.666  27.900  1.00  0.00     0.014 A 
ATOM     29  C   UNL A   1      36.508  31.808  28.263  1.00  0.00     0.010 A 
ATOM     30  C   UNL A   1      35.925  29.489  28.628  1.00  0.00     0.010 A 
ATOM     31  C   UNL A   1      36.819  30.554  28.809  1.00  0.00    -0.014 A 
BRANCH  31  32
ATOM     32  C   UNL A   1      38.071  30.298  29.568  1.00  0.00     0.031 A 
ATOM     33  C   UNL A   1      39.077  29.318  29.022  1.00  0.00     0.074 A 
ATOM     34  C   UNL A   1      38.234  30.825  30.797  1.00  0.00     0.049 A 
ATOM     35  N   UNL A   1      40.126  28.801  29.604  1.00  0.00    -0.248 NA
ATOM     36  C   UNL A   1      38.846  28.824  27.653  1.00  0.00     0.031 C 
ATOM     37  C   UNL A   1      37.301  31.738  31.461  1.00  0.00     0.029 A 
ATOM     38  N   UNL A   1      39.224  30.630  31.730  1.00  0.00    -0.354 N 
ATOM     39  C   UNL A   1      40.644  27.881  28.700  1.00  0.00     0.074 A 
ATOM     40  C   UNL A   1      39.778  27.889  27.542  1.00  0.00     0.031 C 
ATOM     41  C   UNL A   1      37.757  32.017  32.692  1.00  0.00     0.029 A 
ATOM     42  C   UNL A   1      38.986  31.266  32.926  1.00  0.00     0.049 A 
ATOM     43  H   UNL A   1      40.028  30.087  31.557  1.00  0.00     0.167 HD
ATOM     44  C   UNL A   1      41.754  27.115  28.814  1.00  0.00     0.034 A 
ATOM     45  C   UNL A   1      39.664  31.225  34.091  1.00  0.00     0.034 A 
ATOM     46  C   UNL A   1      42.637  27.150  29.946  1.00  0.00     0.049 A 
ATOM     47  C   UNL A   1      40.909  30.384  34.182  1.00  0.00     0.074 A 
ATOM     48  C   UNL A   1      43.837  26.484  30.119  1.00  0.00     0.029 A 
ATOM     49  N   UNL A   1      42.412  27.883  31.100  1.00  0.00    -0.354 N 
ATOM     50  N   UNL A   1      41.460  29.626  33.266  1.00  0.00    -0.248 NA
ATOM     51  C   UNL A   1      41.644  30.414  35.456  1.00  0.00     0.031 C 
ATOM     52  C   UNL A   1      44.321  26.790  31.394  1.00  0.00     0.029 A 
ATOM     53  C   UNL A   1      43.445  27.679  31.996  1.00  0.00     0.049 A 
ATOM     54  H   UNL A   1      41.632  28.464  31.259  1.00  0.00     0.167 HD
ATOM     55  C   UNL A   1      42.627  29.126  33.834  1.00  0.00     0.074 A 
ATOM     56  C   UNL A   1      42.708  29.674  35.172  1.00  0.00     0.031 C 
ATOM     57  C   UNL A   1      43.544  28.284  33.299  1.00  0.00     0.034 A 
BRANCH  44  58
ATOM     58  C   UNL A   1      42.100  26.202  27.666  1.00  0.00     0.023 A 
ATOM     59  C   UNL A   1      42.897  26.681  26.606  1.00  0.00     0.012 A 
ATOM     60  C   UNL A   1      41.688  24.855  27.666  1.00  0.00     0.148 A 
ATOM     61  C   UNL A   1      43.245  25.846  25.545  1.00  0.00     0.002 A 
ATOM     62  C   UNL A   1      42.081  24.015  26.631  1.00  0.00     0.091 A 
ATOM     63  F   UNL A   1      40.916  24.424  28.672  1.00  0.00    -0.205 F 
ATOM     64  C   UNL A   1      42.847  24.511  25.564  1.00  0.00     0.022 A 
BRANCH  62  65
ATOM     65  S   UNL A   1      41.693  22.262  26.604  1.00  0.00     0.127 S 
ATOM     66  O   UNL A   1      40.232  22.285  26.535  1.00  0.00    -0.237 OA
ATOM     67  O   UNL A   1      42.354  21.821  25.375  1.00  0.00    -0.237 OA
ATOM     68  O   UNL A   1      42.250  21.707  27.829  1.00  0.00    -0.744 OA
ENDBRANCH  62  65
ENDBRANCH  44  58
BRANCH  45  69
ATOM     69  C   UNL A   1      39.206  32.039  35.253  1.00  0.00     0.023 A 
ATOM     70  C   UNL A   1      38.266  31.493  36.150  1.00  0.00     0.012 A 
ATOM     71  C   UNL A   1      39.703  33.335  35.487  1.00  0.00     0.148 A 
ATOM     72  C   UNL A   1      37.801  32.237  37.235  1.00  0.00     0.002 A 
ATOM     73  C   UNL A   1      39.279  34.050  36.602  1.00  0.00     0.091 A 
ATOM     74  F   UNL A   1      40.593  33.839  34.620  1.00  0.00    -0.205 F 
ATOM     75  C   UNL A   1      38.314  33.510  37.466  1.00  0.00     0.022 A 
BRANCH  73  76
ATOM     76  S   UNL A   1      39.974  35.644  37.052  1.00  0.00     0.127 S 
ATOM     77  O   UNL A   1      41.389  35.319  37.207  1.00  0.00    -0.237 OA
ATOM     78  O   UNL A   1      39.653  36.453  35.876  1.00  0.00    -0.237 OA
ATOM     79  O   UNL A   1      39.281  36.046  38.268  1.00  0.00    -0.744 OA
ENDBRANCH  73  76
ENDBRANCH  45  69
BRANCH  57  80
ATOM     80  C   UNL A   1      44.760  27.944  34.119  1.00  0.00     0.023 A 
ATOM     81  C   UNL A   1      45.897  28.773  34.076  1.00  0.00     0.012 A 
ATOM     82  C   UNL A   1      44.720  26.864  35.024  1.00  0.00     0.148 A 
ATOM     83  C   UNL A   1      46.986  28.521  34.910  1.00  0.00     0.002 A 
ATOM     84  C   UNL A   1      45.786  26.652  35.889  1.00  0.00     0.091 A 
ATOM     85  F   UNL A   1      43.632  26.081  35.035  1.00  0.00    -0.205 F 
ATOM     86  C   UNL A   1      46.924  27.471  35.826  1.00  0.00     0.022 A 
BRANCH  84  87
ATOM     87  S   UNL A   1      45.752  25.394  37.170  1.00  0.00     0.127 S 
ATOM     88  O   UNL A   1      44.563  25.778  37.933  1.00  0.00    -0.237 OA
ATOM     89  O   UNL A   1      45.605  24.165  36.390  1.00  0.00    -0.237 OA
ATOM     90  O   UNL A   1      47.013  25.511  37.889  1.00  0.00    -0.744 OA
ENDBRANCH  84  87
ENDBRANCH  57  80
ENDBRANCH  31  32
ENDBRANCH  23  26
ENDBRANCH  21  22
ENDBRANCH   1  21
TORSDOF 17
ENDMDL
MODEL 3
REMARK VINA RESULT:     -11.2      1.437      1.903
REMARK SMILES CC(C)(C)N(CC(=O)NCCCNC(=O)c1ccc(-c2c3nc(c(-c4cccc(S(=O)(=O)[O-])c4F)c4ccc([nH]4)c(-c4cccc(S(=O)(=O)[O-])c4F)c4nc(c(-c5cccc(S(=O)(=O)[O-])c5F)c5ccc2[nH]5)C=C4)C=C3)cc1)C(=O)C1C[NH2+]C1
REMARK SMILES IDX 11 1 10 2 9 3 7 4 8 5 6 7 5 8 2 9 1 10 3 11 4 12 79 13 80 14
REMARK SMILES IDX 81 15 82 16 84 17 83 18 12 21 13 22 14 23 15 25 16 26 17 27
REMARK SMILES IDX 78 28 18 29 77 30 19 31 20 32 21 33 71 34 22 35 76 36 70 37
REMARK SMILES IDX 72 38 23 39 75 40 69 41 68 42 24 44 56 45 36 46 55 47 37 48
REMARK SMILES IDX 40 49 54 50 73 51 38 52 39 53 53 55 74 56 41 57 25 58 26 59
REMARK SMILES IDX 34 60 27 61 29 62 35 63 28 64 30 65 31 66 32 67 33 68 57 69
REMARK SMILES IDX 58 70 66 71 59 72 61 73 67 74 60 75 62 76 63 77 64 78 65 79
REMARK SMILES IDX 42 80 43 81 51 82 44 83 46 84 52 85 45 86 47 87 48 88 49 89
REMARK SMILES IDX 50 90
REMARK H PARENT 9 6 83 19 83 20 13 24 72 43 40 54
REMARK Flexibility Score: inf
ROOT
ATOM      1  C   UNL A   1      35.023  21.988  26.673  1.00  0.00     0.042 C 
ENDROOT
BRANCH   1   2
ATOM      2  C   UNL A   1      33.668  22.244  26.040  1.00  0.00     0.117 C 
BRANCH   2   3
ATOM      3  N   UNL A   1      32.710  22.851  26.930  1.00  0.00    -0.354 N 
ATOM      4  C   UNL A   1      32.123  24.071  26.820  1.00  0.00     0.239 C 
ATOM      5  O   UNL A   1      30.966  24.160  27.251  1.00  0.00    -0.273 OA
ATOM      6  H   UNL A   1      32.449  22.315  27.714  1.00  0.00     0.163 HD
BRANCH   4   7
ATOM      7  C   UNL A   1      32.768  25.273  26.094  1.00  0.00     0.219 C 
BRANCH   7   8
ATOM      8  N   UNL A   1      32.006  26.506  25.826  1.00  0.00    -0.328 N 
BRANCH   8   9
ATOM      9  C   UNL A   1      31.073  26.585  24.610  1.00  0.00     0.035 C 
ATOM     10  C   UNL A   1      31.512  25.711  23.400  1.00  0.00     0.034 C 
ATOM     11  C   UNL A   1      30.923  28.026  24.059  1.00  0.00     0.034 C 
ATOM     12  C   UNL A   1      29.666  26.053  24.986  1.00  0.00     0.034 C 
ENDBRANCH   8   9
BRANCH   8  13
ATOM     13  C   UNL A   1      31.873  27.520  26.821  1.00  0.00     0.238 C 
ATOM     14  O   UNL A   1      30.925  27.443  27.626  1.00  0.00    -0.274 OA
BRANCH  13  15
ATOM     15  C   UNL A   1      32.824  28.686  27.064  1.00  0.00     0.188 C 
ATOM     16  C   UNL A   1      34.029  28.891  26.131  1.00  0.00     0.280 C 
ATOM     17  C   UNL A   1      32.609  30.189  26.909  1.00  0.00     0.280 C 
ATOM     18  N   UNL A   1      34.030  30.326  26.501  1.00  0.00    -0.345 N 
ATOM     19  H   UNL A   1      34.183  30.962  25.719  1.00  0.00     0.346 HD
ATOM     20  H   UNL A   1      34.728  30.704  27.142  1.00  0.00     0.346 HD
ENDBRANCH  13  15
ENDBRANCH   8  13
ENDBRANCH   7   8
ENDBRANCH   4   7
ENDBRANCH   2   3
ENDBRANCH   1   2
BRANCH   1  21
ATOM     21  C   UNL A   1      36.192  22.316  25.758  1.00  0.00     0.118 C 
BRANCH  21  22
ATOM     22  N   UNL A   1      37.160  21.223  25.678  1.00  0.00    -0.352 N 
ATOM     23  C   UNL A   1      38.528  21.233  25.826  1.00  0.00     0.251 C 
ATOM     24  H   UNL A   1      36.772  20.339  25.486  1.00  0.00     0.163 HD
ATOM     25  O   UNL A   1      39.184  20.257  25.479  1.00  0.00    -0.269 OA
BRANCH  23  26
ATOM     26  C   UNL A   1      39.202  22.419  26.397  1.00  0.00     0.039 A 
ATOM     27  C   UNL A   1      40.290  22.251  27.258  1.00  0.00     0.014 A 
ATOM     28  C   UNL A   1      38.752  23.701  26.082  1.00  0.00     0.014 A 
ATOM     29  C   UNL A   1      40.979  23.372  27.732  1.00  0.00     0.010 A 
ATOM     30  C   UNL A   1      39.499  24.806  26.464  1.00  0.00     0.010 A 
ATOM     31  C   UNL A   1      40.615  24.657  27.301  1.00  0.00    -0.014 A 
BRANCH  31  32
ATOM     32  C   UNL A   1      41.358  25.879  27.705  1.00  0.00     0.031 A 
ATOM     33  C   UNL A   1      40.649  26.943  28.502  1.00  0.00     0.074 A 
ATOM     34  C   UNL A   1      42.603  26.096  27.238  1.00  0.00     0.049 A 
ATOM     35  N   UNL A   1      41.036  28.157  28.786  1.00  0.00    -0.248 NA
ATOM     36  C   UNL A   1      39.307  26.607  29.012  1.00  0.00     0.031 C 
ATOM     37  C   UNL A   1      43.372  25.169  26.405  1.00  0.00     0.029 A 
ATOM     38  N   UNL A   1      43.425  27.190  27.360  1.00  0.00    -0.354 N 
ATOM     39  C   UNL A   1      39.968  28.748  29.453  1.00  0.00     0.074 A 
ATOM     40  C   UNL A   1      38.907  27.769  29.506  1.00  0.00     0.031 C 
ATOM     41  C   UNL A   1      44.547  25.735  26.085  1.00  0.00     0.029 A 
ATOM     42  C   UNL A   1      44.596  27.080  26.645  1.00  0.00     0.049 A 
ATOM     43  H   UNL A   1      43.198  27.976  27.908  1.00  0.00     0.167 HD
ATOM     44  C   UNL A   1      39.888  29.986  29.993  1.00  0.00     0.034 A 
ATOM     45  C   UNL A   1      45.584  27.975  26.439  1.00  0.00     0.034 A 
ATOM     46  C   UNL A   1      40.967  30.935  29.980  1.00  0.00     0.049 A 
ATOM     47  C   UNL A   1      45.480  29.336  27.072  1.00  0.00     0.074 A 
ATOM     48  C   UNL A   1      41.020  32.181  30.580  1.00  0.00     0.029 A 
ATOM     49  N   UNL A   1      42.175  30.749  29.329  1.00  0.00    -0.354 N 
ATOM     50  N   UNL A   1      44.520  29.828  27.816  1.00  0.00    -0.248 NA
ATOM     51  C   UNL A   1      46.607  30.258  26.863  1.00  0.00     0.031 C 
ATOM     52  C   UNL A   1      42.251  32.761  30.262  1.00  0.00     0.029 A 
ATOM     53  C   UNL A   1      42.980  31.860  29.501  1.00  0.00     0.049 A 
ATOM     54  H   UNL A   1      42.425  29.944  28.818  1.00  0.00     0.167 HD
ATOM     55  C   UNL A   1      44.945  31.095  28.202  1.00  0.00     0.074 A 
ATOM     56  C   UNL A   1      46.254  31.293  27.615  1.00  0.00     0.031 C 
ATOM     57  C   UNL A   1      44.306  32.014  28.966  1.00  0.00     0.034 A 
BRANCH  44  58
ATOM     58  C   UNL A   1      38.604  30.373  30.679  1.00  0.00     0.023 A 
ATOM     59  C   UNL A   1      38.372  29.970  32.010  1.00  0.00     0.012 A 
ATOM     60  C   UNL A   1      37.655  31.185  30.029  1.00  0.00     0.148 A 
ATOM     61  C   UNL A   1      37.199  30.335  32.669  1.00  0.00     0.002 A 
ATOM     62  C   UNL A   1      36.511  31.587  30.709  1.00  0.00     0.091 A 
ATOM     63  F   UNL A   1      37.884  31.542  28.757  1.00  0.00    -0.205 F 
ATOM     64  C   UNL A   1      36.275  31.152  32.023  1.00  0.00     0.022 A 
BRANCH  62  65
ATOM     65  S   UNL A   1      35.302  32.707  29.996  1.00  0.00     0.127 S 
ATOM     66  O   UNL A   1      36.140  33.846  29.621  1.00  0.00    -0.237 OA
ATOM     67  O   UNL A   1      34.791  31.928  28.867  1.00  0.00    -0.237 OA
ATOM     68  O   UNL A   1      34.328  32.970  31.045  1.00  0.00    -0.744 OA
ENDBRANCH  62  65
ENDBRANCH  44  58
BRANCH  45  69
ATOM     69  C   UNL A   1      46.779  27.597  25.632  1.00  0.00     0.023 A 
ATOM     70  C   UNL A   1      46.768  27.815  24.240  1.00  0.00     0.012 A 
ATOM     71  C   UNL A   1      47.927  27.043  26.229  1.00  0.00     0.148 A 
ATOM     72  C   UNL A   1      47.862  27.453  23.453  1.00  0.00     0.002 A 
ATOM     73  C   UNL A   1      49.036  26.736  25.448  1.00  0.00     0.091 A 
ATOM     74  F   UNL A   1      47.915  26.838  27.554  1.00  0.00    -0.205 F 
ATOM     75  C   UNL A   1      48.999  26.923  24.058  1.00  0.00     0.022 A 
BRANCH  73  76
ATOM     76  S   UNL A   1      50.588  26.167  26.152  1.00  0.00     0.127 S 
ATOM     77  O   UNL A   1      50.940  27.277  27.034  1.00  0.00    -0.237 OA
ATOM     78  O   UNL A   1      50.174  24.942  26.837  1.00  0.00    -0.237 OA
ATOM     79  O   UNL A   1      51.478  25.954  25.020  1.00  0.00    -0.744 OA
ENDBRANCH  73  76
ENDBRANCH  45  69
BRANCH  57  80
ATOM     80  C   UNL A   1      45.026  33.298  29.282  1.00  0.00     0.023 A 
ATOM     81  C   UNL A   1      45.880  33.375  30.399  1.00  0.00     0.012 A 
ATOM     82  C   UNL A   1      44.943  34.390  28.394  1.00  0.00     0.148 A 
ATOM     83  C   UNL A   1      46.627  34.528  30.638  1.00  0.00     0.002 A 
ATOM     84  C   UNL A   1      45.731  35.513  28.609  1.00  0.00     0.091 A 
ATOM     85  F   UNL A   1      44.112  34.297  27.346  1.00  0.00    -0.205 F 
ATOM     86  C   UNL A   1      46.565  35.589  29.736  1.00  0.00     0.022 A 
BRANCH  84  87
ATOM     87  S   UNL A   1      45.796  36.881  27.447  1.00  0.00     0.127 S 
ATOM     88  O   UNL A   1      46.194  36.205  26.212  1.00  0.00    -0.237 OA
ATOM     89  O   UNL A   1      44.415  37.361  27.462  1.00  0.00    -0.237 OA
ATOM     90  O   UNL A   1      46.772  37.821  27.980  1.00  0.00    -0.744 OA
ENDBRANCH  84  87
ENDBRANCH  57  80
ENDBRANCH  31  32
ENDBRANCH  23  26
ENDBRANCH  21  22
ENDBRANCH   1  21
TORSDOF 17
ENDMDL
