MODEL 1
REMARK VINA RESULT:     -10.7      0.000      0.000
REMARK SMILES C[C@H]([NH2+]Cc1ccccc1F)C(=O)NCCCNC(=O)c1ccc(-c2c3nc(c(-c4cccc(S(=O)(=O)[O-])c4F)c4ccc([nH]4)c(-c4cccc(S(=O)(=O)[O-])c4F)c4nc(c(-c5cccc(S(=O)(=O)[O-])c5F)c5ccc2[nH]5)C=C4)C=C3)cc1
REMARK SMILES IDX 16 1 15 2 14 3 12 4 13 5 2 7 1 8 3 9 4 12 5 13 6 14 10 15
REMARK SMILES IDX 7 16 9 17 11 18 8 19 17 20 18 21 19 22 20 24 21 25 22 26
REMARK SMILES IDX 83 27 23 28 82 29 24 30 25 31 26 32 76 33 27 34 81 35 75 36
REMARK SMILES IDX 77 37 28 38 80 39 74 40 73 41 29 43 61 44 41 45 60 46 42 47
REMARK SMILES IDX 45 48 59 49 78 50 43 51 44 52 58 54 79 55 46 56 30 57 31 58
REMARK SMILES IDX 39 59 32 60 34 61 40 62 33 63 35 64 36 65 37 66 38 67 62 68
REMARK SMILES IDX 63 69 71 70 64 71 66 72 72 73 65 74 67 75 68 76 69 77 70 78
REMARK SMILES IDX 47 79 48 80 56 81 49 82 51 83 57 84 50 85 52 86 53 87 54 88
REMARK SMILES IDX 55 89
REMARK H PARENT 14 6 3 10 3 11 18 23 77 42 45 53
REMARK Flexibility Score: inf
ROOT
ATOM      1  C   UNL A   1      34.736  34.681  28.448  1.00  0.00     0.042 C 
ENDROOT
BRANCH   1   2
ATOM      2  C   UNL A   1      33.711  34.792  29.570  1.00  0.00     0.118 C 
BRANCH   2   3
ATOM      3  N   UNL A   1      33.382  36.169  29.897  1.00  0.00    -0.351 N 
ATOM      4  C   UNL A   1      33.052  36.763  31.082  1.00  0.00     0.277 C 
ATOM      5  O   UNL A   1      32.903  37.989  31.078  1.00  0.00    -0.268 OA
ATOM      6  H   UNL A   1      33.399  36.782  29.127  1.00  0.00     0.163 HD
BRANCH   4   7
ATOM      7  C   UNL A   1      32.919  35.943  32.386  1.00  0.00     0.269 C 
ATOM      8  C   UNL A   1      31.460  35.910  32.846  1.00  0.00     0.086 C 
BRANCH   7   9
ATOM      9  N   UNL A   1      33.939  36.390  33.349  1.00  0.00    -0.332 N 
ATOM     10  H   UNL A   1      33.474  36.954  34.061  1.00  0.00     0.347 HD
ATOM     11  H   UNL A   1      34.632  36.903  32.804  1.00  0.00     0.347 HD
BRANCH   9  12
ATOM     12  C   UNL A   1      34.675  35.328  34.030  1.00  0.00     0.301 C 
BRANCH  12  13
ATOM     13  C   UNL A   1      35.340  34.381  33.057  1.00  0.00     0.042 A 
ATOM     14  C   UNL A   1      36.578  34.684  32.462  1.00  0.00     0.012 A 
ATOM     15  C   UNL A   1      34.772  33.132  32.783  1.00  0.00     0.132 A 
ATOM     16  C   UNL A   1      37.194  33.782  31.590  1.00  0.00     0.001 A 
ATOM     17  C   UNL A   1      35.386  32.224  31.923  1.00  0.00     0.040 A 
ATOM     18  F   UNL A   1      33.618  32.778  33.370  1.00  0.00    -0.206 F 
ATOM     19  C   UNL A   1      36.598  32.552  31.319  1.00  0.00     0.003 A 
ENDBRANCH  12  13
ENDBRANCH   9  12
ENDBRANCH   7   9
ENDBRANCH   4   7
ENDBRANCH   2   3
ENDBRANCH   1   2
BRANCH   1  20
ATOM     20  C   UNL A   1      35.338  33.291  28.282  1.00  0.00     0.118 C 
BRANCH  20  21
ATOM     21  N   UNL A   1      34.350  32.290  27.899  1.00  0.00    -0.352 N 
ATOM     22  C   UNL A   1      34.481  30.933  27.727  1.00  0.00     0.251 C 
ATOM     23  H   UNL A   1      33.445  32.643  27.738  1.00  0.00     0.163 HD
ATOM     24  O   UNL A   1      33.558  30.298  27.219  1.00  0.00    -0.269 OA
BRANCH  22  25
ATOM     25  C   UNL A   1      35.725  30.239  28.124  1.00  0.00     0.039 A 
ATOM     26  C   UNL A   1      36.817  30.255  27.252  1.00  0.00     0.014 A 
ATOM     27  C   UNL A   1      35.819  29.569  29.346  1.00  0.00     0.014 A 
ATOM     28  C   UNL A   1      38.028  29.677  27.645  1.00  0.00     0.010 A 
ATOM     29  C   UNL A   1      37.047  29.070  29.770  1.00  0.00     0.010 A 
ATOM     30  C   UNL A   1      38.167  29.124  28.928  1.00  0.00    -0.014 A 
BRANCH  30  31
ATOM     31  C   UNL A   1      39.480  28.640  29.429  1.00  0.00     0.031 A 
ATOM     32  C   UNL A   1      40.202  29.381  30.521  1.00  0.00     0.074 A 
ATOM     33  C   UNL A   1      40.070  27.589  28.826  1.00  0.00     0.049 A 
ATOM     34  N   UNL A   1      41.392  29.159  31.017  1.00  0.00    -0.248 NA
ATOM     35  C   UNL A   1      39.509  30.534  31.120  1.00  0.00     0.031 C 
ATOM     36  C   UNL A   1      39.503  26.828  27.710  1.00  0.00     0.029 A 
ATOM     37  N   UNL A   1      41.289  26.994  29.044  1.00  0.00    -0.354 N 
ATOM     38  C   UNL A   1      41.606  30.160  31.956  1.00  0.00     0.074 A 
ATOM     39  C   UNL A   1      40.434  31.008  31.943  1.00  0.00     0.031 C 
ATOM     40  C   UNL A   1      40.367  25.869  27.346  1.00  0.00     0.029 A 
ATOM     41  C   UNL A   1      41.567  25.969  28.171  1.00  0.00     0.049 A 
ATOM     42  H   UNL A   1      41.905  27.275  29.758  1.00  0.00     0.167 HD
ATOM     43  C   UNL A   1      42.669  30.341  32.774  1.00  0.00     0.034 A 
ATOM     44  C   UNL A   1      42.667  25.200  28.035  1.00  0.00     0.034 A 
ATOM     45  C   UNL A   1      43.816  29.473  32.812  1.00  0.00     0.049 A 
ATOM     46  C   UNL A   1      43.823  25.403  28.977  1.00  0.00     0.074 A 
ATOM     47  C   UNL A   1      44.907  29.531  33.660  1.00  0.00     0.029 A 
ATOM     48  N   UNL A   1      44.026  28.396  31.964  1.00  0.00    -0.354 N 
ATOM     49  N   UNL A   1      43.947  26.271  29.950  1.00  0.00    -0.248 NA
ATOM     50  C   UNL A   1      44.973  24.500  28.827  1.00  0.00     0.031 C 
ATOM     51  C   UNL A   1      45.791  28.508  33.309  1.00  0.00     0.029 A 
ATOM     52  C   UNL A   1      45.232  27.787  32.265  1.00  0.00     0.049 A 
ATOM     53  H   UNL A   1      43.408  28.107  31.254  1.00  0.00     0.167 HD
ATOM     54  C   UNL A   1      45.171  25.999  30.551  1.00  0.00     0.074 A 
ATOM     55  C   UNL A   1      45.742  24.873  29.841  1.00  0.00     0.031 C 
ATOM     56  C   UNL A   1      45.771  26.636  31.587  1.00  0.00     0.034 A 
BRANCH  43  57
ATOM     57  C   UNL A   1      42.630  31.492  33.746  1.00  0.00     0.023 A 
ATOM     58  C   UNL A   1      43.117  32.753  33.348  1.00  0.00     0.012 A 
ATOM     59  C   UNL A   1      42.018  31.354  35.008  1.00  0.00     0.148 A 
ATOM     60  C   UNL A   1      43.018  33.854  34.198  1.00  0.00     0.002 A 
ATOM     61  C   UNL A   1      41.880  32.466  35.831  1.00  0.00     0.091 A 
ATOM     62  F   UNL A   1      41.579  30.143  35.376  1.00  0.00    -0.205 F 
ATOM     63  C   UNL A   1      42.389  33.713  35.432  1.00  0.00     0.022 A 
BRANCH  61  64
ATOM     64  S   UNL A   1      41.004  32.413  37.399  1.00  0.00     0.127 S 
ATOM     65  O   UNL A   1      41.894  31.578  38.204  1.00  0.00    -0.237 OA
ATOM     66  O   UNL A   1      40.979  33.825  37.782  1.00  0.00    -0.237 OA
ATOM     67  O   UNL A   1      39.699  31.834  37.112  1.00  0.00    -0.744 OA
ENDBRANCH  61  64
ENDBRANCH  43  57
BRANCH  44  68
ATOM     68  C   UNL A   1      42.686  24.120  27.007  1.00  0.00     0.023 A 
ATOM     69  C   UNL A   1      43.429  24.308  25.826  1.00  0.00     0.012 A 
ATOM     70  C   UNL A   1      42.037  22.889  27.223  1.00  0.00     0.148 A 
ATOM     71  C   UNL A   1      43.507  23.296  24.867  1.00  0.00     0.002 A 
ATOM     72  C   UNL A   1      42.171  21.863  26.293  1.00  0.00     0.091 A 
ATOM     73  F   UNL A   1      41.326  22.733  28.348  1.00  0.00    -0.205 F 
ATOM     74  C   UNL A   1      42.891  22.072  25.106  1.00  0.00     0.022 A 
BRANCH  72  75
ATOM     75  S   UNL A   1      41.546  20.205  26.591  1.00  0.00     0.127 S 
ATOM     76  O   UNL A   1      41.957  19.506  25.377  1.00  0.00    -0.237 OA
ATOM     77  O   UNL A   1      42.276  19.820  27.801  1.00  0.00    -0.237 OA
ATOM     78  O   UNL A   1      40.109  20.348  26.786  1.00  0.00    -0.744 OA
ENDBRANCH  72  75
ENDBRANCH  44  68
BRANCH  56  79
ATOM     79  C   UNL A   1      47.108  26.121  32.057  1.00  0.00     0.023 A 
ATOM     80  C   UNL A   1      48.294  26.645  31.506  1.00  0.00     0.012 A 
ATOM     81  C   UNL A   1      47.187  25.202  33.122  1.00  0.00     0.148 A 
ATOM     82  C   UNL A   1      49.539  26.243  31.992  1.00  0.00     0.002 A 
ATOM     83  C   UNL A   1      48.429  24.846  33.636  1.00  0.00     0.091 A 
ATOM     84  F   UNL A   1      46.047  24.702  33.621  1.00  0.00    -0.205 F 
ATOM     85  C   UNL A   1      49.606  25.357  33.065  1.00  0.00     0.022 A 
BRANCH  83  86
ATOM     86  S   UNL A   1      48.610  23.796  35.083  1.00  0.00     0.127 S 
ATOM     87  O   UNL A   1      47.876  24.556  36.094  1.00  0.00    -0.237 OA
ATOM     88  O   UNL A   1      47.955  22.560  34.653  1.00  0.00    -0.237 OA
ATOM     89  O   UNL A   1      50.043  23.674  35.315  1.00  0.00    -0.744 OA
ENDBRANCH  83  86
ENDBRANCH  56  79
ENDBRANCH  30  31
ENDBRANCH  22  25
ENDBRANCH  20  21
ENDBRANCH   1  20
TORSDOF 16
ENDMDL
MODEL 2
REMARK VINA RESULT:     -10.5      5.234     12.583
REMARK SMILES C[C@H]([NH2+]Cc1ccccc1F)C(=O)NCCCNC(=O)c1ccc(-c2c3nc(c(-c4cccc(S(=O)(=O)[O-])c4F)c4ccc([nH]4)c(-c4cccc(S(=O)(=O)[O-])c4F)c4nc(c(-c5cccc(S(=O)(=O)[O-])c5F)c5ccc2[nH]5)C=C4)C=C3)cc1
REMARK SMILES IDX 16 1 15 2 14 3 12 4 13 5 2 7 1 8 3 9 4 12 5 13 6 14 10 15
REMARK SMILES IDX 7 16 9 17 11 18 8 19 17 20 18 21 19 22 20 24 21 25 22 26
REMARK SMILES IDX 83 27 23 28 82 29 24 30 25 31 26 32 76 33 27 34 81 35 75 36
REMARK SMILES IDX 77 37 28 38 80 39 74 40 73 41 29 43 61 44 41 45 60 46 42 47
REMARK SMILES IDX 45 48 59 49 78 50 43 51 44 52 58 54 79 55 46 56 30 57 31 58
REMARK SMILES IDX 39 59 32 60 34 61 40 62 33 63 35 64 36 65 37 66 38 67 62 68
REMARK SMILES IDX 63 69 71 70 64 71 66 72 72 73 65 74 67 75 68 76 69 77 70 78
REMARK SMILES IDX 47 79 48 80 56 81 49 82 51 83 57 84 50 85 52 86 53 87 54 88
REMARK SMILES IDX 55 89
REMARK H PARENT 14 6 3 10 3 11 18 23 77 42 45 53
REMARK Flexibility Score: inf
ROOT
ATOM      1  C   UNL A   1      42.048  19.194  26.912  1.00  0.00     0.042 C 
ENDROOT
BRANCH   1   2
ATOM      2  C   UNL A   1      43.365  18.691  26.337  1.00  0.00     0.118 C 
BRANCH   2   3
ATOM      3  N   UNL A   1      43.514  18.994  24.924  1.00  0.00    -0.351 N 
ATOM      4  C   UNL A   1      44.504  19.637  24.236  1.00  0.00     0.277 C 
ATOM      5  O   UNL A   1      44.404  19.677  23.006  1.00  0.00    -0.268 OA
ATOM      6  H   UNL A   1      42.767  18.682  24.363  1.00  0.00     0.163 HD
BRANCH   4   7
ATOM      7  C   UNL A   1      45.726  20.246  24.961  1.00  0.00     0.269 C 
ATOM      8  C   UNL A   1      46.690  19.140  25.398  1.00  0.00     0.086 C 
BRANCH   7   9
ATOM      9  N   UNL A   1      45.263  21.202  25.980  1.00  0.00    -0.332 N 
ATOM     10  H   UNL A   1      45.494  20.821  26.898  1.00  0.00     0.347 HD
ATOM     11  H   UNL A   1      44.262  21.317  25.820  1.00  0.00     0.347 HD
BRANCH   9  12
ATOM     12  C   UNL A   1      45.835  22.543  25.896  1.00  0.00     0.301 C 
BRANCH  12  13
ATOM     13  C   UNL A   1      45.700  23.304  27.195  1.00  0.00     0.042 A 
ATOM     14  C   UNL A   1      44.634  23.067  28.081  1.00  0.00     0.012 A 
ATOM     15  C   UNL A   1      46.685  24.216  27.588  1.00  0.00     0.132 A 
ATOM     16  C   UNL A   1      44.542  23.757  29.293  1.00  0.00     0.001 A 
ATOM     17  C   UNL A   1      46.606  24.899  28.800  1.00  0.00     0.040 A 
ATOM     18  F   UNL A   1      47.749  24.434  26.799  1.00  0.00    -0.206 F 
ATOM     19  C   UNL A   1      45.527  24.674  29.653  1.00  0.00     0.003 A 
ENDBRANCH  12  13
ENDBRANCH   9  12
ENDBRANCH   7   9
ENDBRANCH   4   7
ENDBRANCH   2   3
ENDBRANCH   1   2
BRANCH   1  20
ATOM     20  C   UNL A   1      41.618  20.562  26.394  1.00  0.00     0.118 C 
BRANCH  20  21
ATOM     21  N   UNL A   1      40.216  20.599  25.996  1.00  0.00    -0.352 N 
ATOM     22  C   UNL A   1      39.270  21.581  26.166  1.00  0.00     0.251 C 
ATOM     23  H   UNL A   1      39.896  19.791  25.531  1.00  0.00     0.163 HD
ATOM     24  O   UNL A   1      38.091  21.333  25.917  1.00  0.00    -0.269 OA
BRANCH  22  25
ATOM     25  C   UNL A   1      39.654  22.919  26.665  1.00  0.00     0.039 A 
ATOM     26  C   UNL A   1      40.607  23.014  27.683  1.00  0.00     0.014 A 
ATOM     27  C   UNL A   1      39.076  24.078  26.141  1.00  0.00     0.014 A 
ATOM     28  C   UNL A   1      41.044  24.271  28.110  1.00  0.00     0.010 A 
ATOM     29  C   UNL A   1      39.573  25.326  26.505  1.00  0.00     0.010 A 
ATOM     30  C   UNL A   1      40.567  25.438  27.488  1.00  0.00    -0.014 A 
BRANCH  30  31
ATOM     31  C   UNL A   1      41.122  26.777  27.815  1.00  0.00     0.031 A 
ATOM     32  C   UNL A   1      42.554  27.110  27.493  1.00  0.00     0.074 A 
ATOM     33  C   UNL A   1      40.364  27.658  28.497  1.00  0.00     0.049 A 
ATOM     34  N   UNL A   1      43.232  28.189  27.786  1.00  0.00    -0.248 NA
ATOM     35  C   UNL A   1      43.331  26.092  26.766  1.00  0.00     0.031 C 
ATOM     36  C   UNL A   1      38.984  27.427  28.929  1.00  0.00     0.029 A 
ATOM     37  N   UNL A   1      40.653  28.913  28.975  1.00  0.00    -0.354 N 
ATOM     38  C   UNL A   1      44.520  27.968  27.315  1.00  0.00     0.074 A 
ATOM     39  C   UNL A   1      44.538  26.641  26.740  1.00  0.00     0.031 C 
ATOM     40  C   UNL A   1      38.546  28.503  29.601  1.00  0.00     0.029 A 
ATOM     41  C   UNL A   1      39.623  29.484  29.685  1.00  0.00     0.049 A 
ATOM     42  H   UNL A   1      41.516  29.362  28.822  1.00  0.00     0.167 HD
ATOM     43  C   UNL A   1      45.585  28.805  27.335  1.00  0.00     0.034 A 
ATOM     44  C   UNL A   1      39.552  30.658  30.345  1.00  0.00     0.034 A 
ATOM     45  C   UNL A   1      45.553  30.139  27.873  1.00  0.00     0.049 A 
ATOM     46  C   UNL A   1      40.740  31.582  30.327  1.00  0.00     0.074 A 
ATOM     47  C   UNL A   1      46.559  31.088  27.868  1.00  0.00     0.029 A 
ATOM     48  N   UNL A   1      44.466  30.711  28.516  1.00  0.00    -0.354 N 
ATOM     49  N   UNL A   1      41.906  31.409  29.756  1.00  0.00    -0.248 NA
ATOM     50  C   UNL A   1      40.591  32.875  31.010  1.00  0.00     0.031 C 
ATOM     51  C   UNL A   1      46.092  32.225  28.533  1.00  0.00     0.029 A 
ATOM     52  C   UNL A   1      44.780  31.998  28.919  1.00  0.00     0.049 A 
ATOM     53  H   UNL A   1      43.599  30.268  28.663  1.00  0.00     0.167 HD
ATOM     54  C   UNL A   1      42.619  32.581  29.981  1.00  0.00     0.074 A 
ATOM     55  C   UNL A   1      41.745  33.464  30.725  1.00  0.00     0.031 C 
ATOM     56  C   UNL A   1      43.888  32.890  29.614  1.00  0.00     0.034 A 
BRANCH  43  57
ATOM     57  C   UNL A   1      46.871  28.333  26.707  1.00  0.00     0.023 A 
ATOM     58  C   UNL A   1      47.907  27.846  27.530  1.00  0.00     0.012 A 
ATOM     59  C   UNL A   1      47.013  28.273  25.307  1.00  0.00     0.148 A 
ATOM     60  C   UNL A   1      49.074  27.329  26.970  1.00  0.00     0.002 A 
ATOM     61  C   UNL A   1      48.160  27.711  24.756  1.00  0.00     0.091 A 
ATOM     62  F   UNL A   1      46.026  28.758  24.542  1.00  0.00    -0.205 F 
ATOM     63  C   UNL A   1      49.195  27.249  25.586  1.00  0.00     0.022 A 
BRANCH  61  64
ATOM     64  S   UNL A   1      48.375  27.477  22.987  1.00  0.00     0.127 S 
ATOM     65  O   UNL A   1      49.719  28.015  22.782  1.00  0.00    -0.237 OA
ATOM     66  O   UNL A   1      48.273  26.023  22.857  1.00  0.00    -0.237 OA
ATOM     67  O   UNL A   1      47.302  28.225  22.348  1.00  0.00    -0.744 OA
ENDBRANCH  61  64
ENDBRANCH  43  57
BRANCH  44  68
ATOM     68  C   UNL A   1      38.278  31.048  31.016  1.00  0.00     0.023 A 
ATOM     69  C   UNL A   1      38.133  30.829  32.398  1.00  0.00     0.012 A 
ATOM     70  C   UNL A   1      37.246  31.696  30.310  1.00  0.00     0.148 A 
ATOM     71  C   UNL A   1      36.973  31.228  33.064  1.00  0.00     0.002 A 
ATOM     72  C   UNL A   1      36.120  32.148  30.990  1.00  0.00     0.091 A 
ATOM     73  F   UNL A   1      37.398  31.887  28.992  1.00  0.00    -0.205 F 
ATOM     74  C   UNL A   1      35.974  31.899  32.364  1.00  0.00     0.022 A 
BRANCH  72  75
ATOM     75  S   UNL A   1      34.859  33.158  30.203  1.00  0.00     0.127 S 
ATOM     76  O   UNL A   1      34.280  32.223  29.242  1.00  0.00    -0.237 OA
ATOM     77  O   UNL A   1      33.994  33.496  31.334  1.00  0.00    -0.237 OA
ATOM     78  O   UNL A   1      35.562  34.300  29.632  1.00  0.00    -0.744 OA
ENDBRANCH  72  75
ENDBRANCH  44  68
BRANCH  56  79
ATOM     79  C   UNL A   1      44.418  34.254  29.975  1.00  0.00     0.023 A 
ATOM     80  C   UNL A   1      45.188  34.420  31.144  1.00  0.00     0.012 A 
ATOM     81  C   UNL A   1      44.248  35.344  29.099  1.00  0.00     0.148 A 
ATOM     82  C   UNL A   1      45.759  35.656  31.446  1.00  0.00     0.002 A 
ATOM     83  C   UNL A   1      44.864  36.558  29.379  1.00  0.00     0.091 A 
ATOM     84  F   UNL A   1      43.498  35.169  28.001  1.00  0.00    -0.205 F 
ATOM     85  C   UNL A   1      45.610  36.719  30.558  1.00  0.00     0.022 A 
BRANCH  83  86
ATOM     86  S   UNL A   1      44.817  37.949  28.242  1.00  0.00     0.127 S 
ATOM     87  O   UNL A   1      45.652  38.928  28.936  1.00  0.00    -0.237 OA
ATOM     88  O   UNL A   1      45.417  37.382  27.034  1.00  0.00    -0.237 OA
ATOM     89  O   UNL A   1      43.412  38.312  28.108  1.00  0.00    -0.744 OA
ENDBRANCH  83  86
ENDBRANCH  56  79
ENDBRANCH  30  31
ENDBRANCH  22  25
ENDBRANCH  20  21
ENDBRANCH   1  20
TORSDOF 16
ENDMDL
MODEL 3
REMARK VINA RESULT:     -10.4      3.903      6.275
REMARK SMILES C[C@H]([NH2+]Cc1ccccc1F)C(=O)NCCCNC(=O)c1ccc(-c2c3nc(c(-c4cccc(S(=O)(=O)[O-])c4F)c4ccc([nH]4)c(-c4cccc(S(=O)(=O)[O-])c4F)c4nc(c(-c5cccc(S(=O)(=O)[O-])c5F)c5ccc2[nH]5)C=C4)C=C3)cc1
REMARK SMILES IDX 16 1 15 2 14 3 12 4 13 5 2 7 1 8 3 9 4 12 5 13 6 14 10 15
REMARK SMILES IDX 7 16 9 17 11 18 8 19 17 20 18 21 19 22 20 24 21 25 22 26
REMARK SMILES IDX 83 27 23 28 82 29 24 30 25 31 26 32 76 33 27 34 81 35 75 36
REMARK SMILES IDX 77 37 28 38 80 39 74 40 73 41 29 43 61 44 41 45 60 46 42 47
REMARK SMILES IDX 45 48 59 49 78 50 43 51 44 52 58 54 79 55 46 56 30 57 31 58
REMARK SMILES IDX 39 59 32 60 34 61 40 62 33 63 35 64 36 65 37 66 38 67 62 68
REMARK SMILES IDX 63 69 71 70 64 71 66 72 72 73 65 74 67 75 68 76 69 77 70 78
REMARK SMILES IDX 47 79 48 80 56 81 49 82 51 83 57 84 50 85 52 86 53 87 54 88
REMARK SMILES IDX 55 89
REMARK H PARENT 14 6 3 10 3 11 18 23 77 42 45 53
REMARK Flexibility Score: inf
ROOT
ATOM      1  C   UNL A   1      32.264  29.995  25.249  1.00  0.00     0.042 C 
ENDROOT
BRANCH   1   2
ATOM      2  C   UNL A   1      33.531  29.153  25.176  1.00  0.00     0.118 C 
BRANCH   2   3
ATOM      3  N   UNL A   1      33.924  28.848  23.811  1.00  0.00    -0.351 N 
ATOM      4  C   UNL A   1      33.609  27.802  22.991  1.00  0.00     0.277 C 
ATOM      5  O   UNL A   1      34.027  27.847  21.830  1.00  0.00    -0.268 OA
ATOM      6  H   UNL A   1      34.526  29.514  23.406  1.00  0.00     0.163 HD
BRANCH   4   7
ATOM      7  C   UNL A   1      32.723  26.632  23.479  1.00  0.00     0.269 C 
ATOM      8  C   UNL A   1      32.986  25.380  22.639  1.00  0.00     0.086 C 
BRANCH   7   9
ATOM      9  N   UNL A   1      31.333  27.096  23.615  1.00  0.00    -0.332 N 
ATOM     10  H   UNL A   1      31.334  27.922  24.215  1.00  0.00     0.347 HD
ATOM     11  H   UNL A   1      30.812  26.308  23.997  1.00  0.00     0.347 HD
BRANCH   9  12
ATOM     12  C   UNL A   1      30.660  27.452  22.368  1.00  0.00     0.301 C 
BRANCH  12  13
ATOM     13  C   UNL A   1      29.630  28.540  22.566  1.00  0.00     0.042 A 
ATOM     14  C   UNL A   1      29.855  29.857  22.125  1.00  0.00     0.012 A 
ATOM     15  C   UNL A   1      28.383  28.243  23.127  1.00  0.00     0.132 A 
ATOM     16  C   UNL A   1      28.878  30.844  22.288  1.00  0.00     0.001 A 
ATOM     17  C   UNL A   1      27.401  29.220  23.281  1.00  0.00     0.040 A 
ATOM     18  F   UNL A   1      28.104  26.988  23.512  1.00  0.00    -0.206 F 
ATOM     19  C   UNL A   1      27.652  30.526  22.867  1.00  0.00     0.003 A 
ENDBRANCH  12  13
ENDBRANCH   9  12
ENDBRANCH   7   9
ENDBRANCH   4   7
ENDBRANCH   2   3
ENDBRANCH   1   2
BRANCH   1  20
ATOM     20  C   UNL A   1      31.903  30.466  26.654  1.00  0.00     0.118 C 
BRANCH  20  21
ATOM     21  N   UNL A   1      32.008  31.912  26.808  1.00  0.00    -0.352 N 
ATOM     22  C   UNL A   1      32.950  32.669  27.462  1.00  0.00     0.251 C 
ATOM     23  H   UNL A   1      31.290  32.428  26.374  1.00  0.00     0.163 HD
ATOM     24  O   UNL A   1      32.749  33.871  27.627  1.00  0.00    -0.269 OA
BRANCH  22  25
ATOM     25  C   UNL A   1      34.185  32.047  27.988  1.00  0.00     0.039 A 
ATOM     26  C   UNL A   1      35.319  32.844  28.169  1.00  0.00     0.014 A 
ATOM     27  C   UNL A   1      34.233  30.686  28.296  1.00  0.00     0.014 A 
ATOM     28  C   UNL A   1      36.469  32.294  28.742  1.00  0.00     0.010 A 
ATOM     29  C   UNL A   1      35.347  30.161  28.944  1.00  0.00     0.010 A 
ATOM     30  C   UNL A   1      36.475  30.959  29.181  1.00  0.00    -0.014 A 
BRANCH  30  31
ATOM     31  C   UNL A   1      37.627  30.391  29.929  1.00  0.00     0.031 A 
ATOM     32  C   UNL A   1      37.916  30.832  31.338  1.00  0.00     0.074 A 
ATOM     33  C   UNL A   1      38.474  29.552  29.300  1.00  0.00     0.049 A 
ATOM     34  N   UNL A   1      38.925  30.515  32.107  1.00  0.00    -0.248 NA
ATOM     35  C   UNL A   1      36.961  31.767  31.957  1.00  0.00     0.031 C 
ATOM     36  C   UNL A   1      38.342  29.103  27.912  1.00  0.00     0.029 A 
ATOM     37  N   UNL A   1      39.631  28.951  29.732  1.00  0.00    -0.354 N 
ATOM     38  C   UNL A   1      38.749  31.235  33.283  1.00  0.00     0.074 A 
ATOM     39  C   UNL A   1      37.550  32.027  33.116  1.00  0.00     0.031 C 
ATOM     40  C   UNL A   1      39.370  28.296  27.610  1.00  0.00     0.029 A 
ATOM     41  C   UNL A   1      40.258  28.201  28.764  1.00  0.00     0.049 A 
ATOM     42  H   UNL A   1      39.978  29.047  30.648  1.00  0.00     0.167 HD
ATOM     43  C   UNL A   1      39.501  31.217  34.408  1.00  0.00     0.034 A 
ATOM     44  C   UNL A   1      41.423  27.523  28.792  1.00  0.00     0.034 A 
ATOM     45  C   UNL A   1      40.670  30.398  34.584  1.00  0.00     0.049 A 
ATOM     46  C   UNL A   1      42.225  27.496  30.065  1.00  0.00     0.074 A 
ATOM     47  C   UNL A   1      41.453  30.255  35.716  1.00  0.00     0.029 A 
ATOM     48  N   UNL A   1      41.231  29.591  33.606  1.00  0.00    -0.354 N 
ATOM     49  N   UNL A   1      41.967  28.076  31.210  1.00  0.00    -0.248 NA
ATOM     50  C   UNL A   1      43.457  26.694  30.061  1.00  0.00     0.031 C 
ATOM     51  C   UNL A   1      42.502  29.383  35.416  1.00  0.00     0.029 A 
ATOM     52  C   UNL A   1      42.353  28.953  34.107  1.00  0.00     0.049 A 
ATOM     53  H   UNL A   1      40.881  29.486  32.692  1.00  0.00     0.167 HD
ATOM     54  C   UNL A   1      42.984  27.684  32.075  1.00  0.00     0.074 A 
ATOM     55  C   UNL A   1      43.852  26.802  31.323  1.00  0.00     0.031 C 
ATOM     56  C   UNL A   1      43.183  28.036  33.369  1.00  0.00     0.034 A 
BRANCH  43  57
ATOM     57  C   UNL A   1      39.058  32.067  35.571  1.00  0.00     0.023 A 
ATOM     58  C   UNL A   1      38.182  31.524  36.533  1.00  0.00     0.012 A 
ATOM     59  C   UNL A   1      39.587  33.358  35.768  1.00  0.00     0.148 A 
ATOM     60  C   UNL A   1      37.821  32.260  37.661  1.00  0.00     0.002 A 
ATOM     61  C   UNL A   1      39.260  34.066  36.919  1.00  0.00     0.091 A 
ATOM     62  F   UNL A   1      40.403  33.864  34.833  1.00  0.00    -0.205 F 
ATOM     63  C   UNL A   1      38.370  33.524  37.860  1.00  0.00     0.022 A 
BRANCH  61  64
ATOM     64  S   UNL A   1      39.984  35.663  37.316  1.00  0.00     0.127 S 
ATOM     65  O   UNL A   1      41.399  35.319  37.445  1.00  0.00    -0.237 OA
ATOM     66  O   UNL A   1      39.653  36.452  36.129  1.00  0.00    -0.237 OA
ATOM     67  O   UNL A   1      39.337  36.104  38.544  1.00  0.00    -0.744 OA
ENDBRANCH  61  64
ENDBRANCH  43  57
BRANCH  44  68
ATOM     68  C   UNL A   1      41.856  26.757  27.588  1.00  0.00     0.023 A 
ATOM     69  C   UNL A   1      42.576  27.416  26.574  1.00  0.00     0.012 A 
ATOM     70  C   UNL A   1      41.622  25.371  27.476  1.00  0.00     0.148 A 
ATOM     71  C   UNL A   1      43.037  26.715  25.459  1.00  0.00     0.002 A 
ATOM     72  C   UNL A   1      42.139  24.667  26.394  1.00  0.00     0.091 A 
ATOM     73  F   UNL A   1      40.925  24.763  28.446  1.00  0.00    -0.205 F 
ATOM     74  C   UNL A   1      42.831  25.341  25.375  1.00  0.00     0.022 A 
BRANCH  72  75
ATOM     75  S   UNL A   1      42.060  22.876  26.284  1.00  0.00     0.127 S 
ATOM     76  O   UNL A   1      42.818  22.468  27.464  1.00  0.00    -0.237 OA
ATOM     77  O   UNL A   1      40.619  22.631  26.361  1.00  0.00    -0.237 OA
ATOM     78  O   UNL A   1      42.653  22.529  24.999  1.00  0.00    -0.744 OA
ENDBRANCH  72  75
ENDBRANCH  44  68
BRANCH  56  79
ATOM     79  C   UNL A   1      44.370  27.448  34.089  1.00  0.00     0.023 A 
ATOM     80  C   UNL A   1      45.602  28.131  34.084  1.00  0.00     0.012 A 
ATOM     81  C   UNL A   1      44.231  26.277  34.860  1.00  0.00     0.148 A 
ATOM     82  C   UNL A   1      46.685  27.644  34.818  1.00  0.00     0.002 A 
ATOM     83  C   UNL A   1      45.298  25.826  35.630  1.00  0.00     0.091 A 
ATOM     84  F   UNL A   1      43.055  25.632  34.837  1.00  0.00    -0.205 F 
ATOM     85  C   UNL A   1      46.528  26.502  35.601  1.00  0.00     0.022 A 
BRANCH  83  86
ATOM     86  S   UNL A   1      45.157  24.429  36.751  1.00  0.00     0.127 S 
ATOM     87  O   UNL A   1      46.517  24.332  37.277  1.00  0.00    -0.237 OA
ATOM     88  O   UNL A   1      44.162  24.904  37.714  1.00  0.00    -0.237 OA
ATOM     89  O   UNL A   1      44.722  23.302  35.936  1.00  0.00    -0.744 OA
ENDBRANCH  83  86
ENDBRANCH  56  79
ENDBRANCH  30  31
ENDBRANCH  22  25
ENDBRANCH  20  21
ENDBRANCH   1  20
TORSDOF 16
ENDMDL
