MODEL 1
REMARK VINA RESULT:     -11.7      0.000      0.000
REMARK SMILES Cc1c[nH]c(C[N@H+]2C[C@@H]3CN(S(C)(=O)=O)C[C@]3(C(=O)NCCCNC(=O)c3ccc(-c4c5nc(c(-c6cccc(S(=O)(=O)[O-])c6F)c6ccc([nH]6)c(-c6cccc(S(=O)(=O)[O-])c6F)c6nc(c(-c7cccc(S(=O)(=O)[O-])c7F)c7ccc4[nH]7)C=C6)C=C5)cc3)C2)n1
REMARK SMILES IDX 22 1 21 2 20 3 18 4 19 5 17 7 7 8 8 9 90 10 9 12 10 13 16 14
REMARK SMILES IDX 11 15 6 16 5 17 1 18 2 19 3 20 91 21 4 22 12 24 13 25 14 26
REMARK SMILES IDX 15 27 23 28 24 29 25 30 26 32 27 33 28 34 89 35 29 36 88 37
REMARK SMILES IDX 30 38 31 39 32 40 82 41 33 42 87 43 81 44 83 45 34 46 86 47
REMARK SMILES IDX 80 48 79 49 35 51 67 52 47 53 66 54 48 55 51 56 65 57 84 58
REMARK SMILES IDX 49 59 50 60 64 62 85 63 52 64 36 65 37 66 45 67 38 68 40 69
REMARK SMILES IDX 46 70 39 71 41 72 42 73 43 74 44 75 68 76 69 77 77 78 70 79
REMARK SMILES IDX 72 80 78 81 71 82 73 83 74 84 75 85 76 86 53 87 54 88 62 89
REMARK SMILES IDX 55 90 57 91 63 92 56 93 58 94 59 95 60 96 61 97
REMARK H PARENT 20 6 7 11 4 23 24 31 83 50 51 61
REMARK Flexibility Score: inf
ROOT
ATOM      1  C   UNL A   1      33.134  28.304  27.379  1.00  0.00     0.042 C 
ENDROOT
BRANCH   1   2
ATOM      2  C   UNL A   1      31.657  28.304  26.997  1.00  0.00     0.117 C 
BRANCH   2   3
ATOM      3  N   UNL A   1      31.081  26.978  27.165  1.00  0.00    -0.355 N 
ATOM      4  C   UNL A   1      30.682  26.106  26.173  1.00  0.00     0.233 C 
ATOM      5  O   UNL A   1      29.824  25.271  26.459  1.00  0.00    -0.274 OA
ATOM      6  H   UNL A   1      30.962  26.669  28.091  1.00  0.00     0.163 HD
BRANCH   4   7
ATOM      7  C   UNL A   1      31.399  26.232  24.771  1.00  0.00     0.121 C 
ATOM      8  N   UNL A   1      33.372  24.709  24.332  1.00  0.00    -0.327 N 
ATOM      9  C   UNL A   1      32.897  25.196  23.060  1.00  0.00     0.268 C 
ATOM     10  C   UNL A   1      32.271  24.985  25.285  1.00  0.00     0.281 C 
ATOM     11  H   UNL A   1      34.236  25.181  24.600  1.00  0.00     0.348 HD
ATOM     12  C   UNL A   1      31.440  25.511  23.336  1.00  0.00     0.082 C 
ATOM     13  C   UNL A   1      30.932  26.426  22.223  1.00  0.00     0.113 C 
ATOM     14  C   UNL A   1      30.035  26.869  24.305  1.00  0.00     0.125 C 
ATOM     15  N   UNL A   1      30.287  27.475  22.977  1.00  0.00    -0.200 NA
BRANCH   8  16
ATOM     16  C   UNL A   1      33.775  23.285  24.320  1.00  0.00     0.338 C 
BRANCH  16  17
ATOM     17  C   UNL A   1      35.200  23.012  24.718  1.00  0.00     0.161 A 
ATOM     18  C   UNL A   1      38.293  23.821  26.272  1.00  0.00     0.068 C 
ATOM     19  C   UNL A   1      37.166  23.151  25.589  1.00  0.00     0.056 A 
ATOM     20  C   UNL A   1      36.982  21.821  25.289  1.00  0.00     0.107 A 
ATOM     21  N   UNL A   1      36.072  23.879  25.193  1.00  0.00    -0.233 NA
ATOM     22  N   UNL A   1      35.745  21.750  24.708  1.00  0.00    -0.344 N 
ATOM     23  H   UNL A   1      35.320  20.938  24.348  1.00  0.00     0.167 HD
ENDBRANCH  16  17
ENDBRANCH   8  16
BRANCH  15  24
ATOM     24  S   UNL A   1      30.847  29.055  22.817  1.00  0.00     0.211 S 
ATOM     25  C   UNL A   1      32.610  28.889  22.558  1.00  0.00     0.176 C 
ATOM     26  O   UNL A   1      30.308  29.587  21.587  1.00  0.00    -0.213 OA
ATOM     27  O   UNL A   1      30.657  29.727  24.085  1.00  0.00    -0.213 OA
ENDBRANCH  15  24
ENDBRANCH   4   7
ENDBRANCH   2   3
ENDBRANCH   1   2
BRANCH   1  28
ATOM     28  C   UNL A   1      33.963  29.201  26.479  1.00  0.00     0.118 C 
BRANCH  28  29
ATOM     29  N   UNL A   1      33.926  30.579  26.950  1.00  0.00    -0.352 N 
ATOM     30  C   UNL A   1      34.653  31.169  27.954  1.00  0.00     0.251 C 
ATOM     31  H   UNL A   1      33.291  31.169  26.483  1.00  0.00     0.163 HD
ATOM     32  O   UNL A   1      34.237  32.208  28.464  1.00  0.00    -0.269 OA
BRANCH  30  33
ATOM     33  C   UNL A   1      35.931  30.572  28.408  1.00  0.00     0.039 A 
ATOM     34  C   UNL A   1      35.924  29.632  29.442  1.00  0.00     0.014 A 
ATOM     35  C   UNL A   1      37.146  30.983  27.856  1.00  0.00     0.014 A 
ATOM     36  C   UNL A   1      37.131  29.093  29.897  1.00  0.00     0.010 A 
ATOM     37  C   UNL A   1      38.327  30.349  28.215  1.00  0.00     0.010 A 
ATOM     38  C   UNL A   1      38.343  29.433  29.273  1.00  0.00    -0.014 A 
BRANCH  38  39
ATOM     39  C   UNL A   1      39.646  28.895  29.742  1.00  0.00     0.031 A 
ATOM     40  C   UNL A   1      40.367  29.571  30.884  1.00  0.00     0.074 A 
ATOM     41  C   UNL A   1      40.216  27.860  29.095  1.00  0.00     0.049 A 
ATOM     42  N   UNL A   1      41.539  29.299  31.397  1.00  0.00    -0.248 NA
ATOM     43  C   UNL A   1      39.704  30.730  31.514  1.00  0.00     0.031 C 
ATOM     44  C   UNL A   1      39.657  27.178  27.925  1.00  0.00     0.029 A 
ATOM     45  N   UNL A   1      41.407  27.216  29.314  1.00  0.00    -0.354 N 
ATOM     46  C   UNL A   1      41.774  30.278  32.355  1.00  0.00     0.074 A 
ATOM     47  C   UNL A   1      40.640  31.173  32.338  1.00  0.00     0.031 C 
ATOM     48  C   UNL A   1      40.495  26.201  27.541  1.00  0.00     0.029 A 
ATOM     49  C   UNL A   1      41.668  26.213  28.407  1.00  0.00     0.049 A 
ATOM     50  H   UNL A   1      42.018  27.448  30.050  1.00  0.00     0.167 HD
ATOM     51  C   UNL A   1      42.826  30.407  33.196  1.00  0.00     0.034 A 
ATOM     52  C   UNL A   1      42.737  25.404  28.285  1.00  0.00     0.034 A 
ATOM     53  C   UNL A   1      43.917  29.475  33.255  1.00  0.00     0.049 A 
ATOM     54  C   UNL A   1      43.864  25.538  29.274  1.00  0.00     0.074 A 
ATOM     55  C   UNL A   1      44.973  29.445  34.149  1.00  0.00     0.029 A 
ATOM     56  N   UNL A   1      44.099  28.415  32.383  1.00  0.00    -0.354 N 
ATOM     57  N   UNL A   1      43.984  26.364  30.286  1.00  0.00    -0.248 NA
ATOM     58  C   UNL A   1      44.987  24.600  29.131  1.00  0.00     0.031 C 
ATOM     59  C   UNL A   1      45.817  28.392  33.788  1.00  0.00     0.029 A 
ATOM     60  C   UNL A   1      45.259  27.735  32.703  1.00  0.00     0.049 A 
ATOM     61  H   UNL A   1      43.492  28.182  31.643  1.00  0.00     0.167 HD
ATOM     62  C   UNL A   1      45.167  26.013  30.925  1.00  0.00     0.074 A 
ATOM     63  C   UNL A   1      45.716  24.887  30.200  1.00  0.00     0.031 C 
ATOM     64  C   UNL A   1      45.755  26.578  32.008  1.00  0.00     0.034 A 
BRANCH  51  65
ATOM     65  C   UNL A   1      42.844  31.573  34.151  1.00  0.00     0.023 A 
ATOM     66  C   UNL A   1      43.389  32.809  33.747  1.00  0.00     0.012 A 
ATOM     67  C   UNL A   1      42.230  31.468  35.415  1.00  0.00     0.148 A 
ATOM     68  C   UNL A   1      43.345  33.915  34.595  1.00  0.00     0.002 A 
ATOM     69  C   UNL A   1      42.145  32.587  36.233  1.00  0.00     0.091 A 
ATOM     70  F   UNL A   1      41.737  30.279  35.787  1.00  0.00    -0.205 F 
ATOM     71  C   UNL A   1      42.711  33.807  35.830  1.00  0.00     0.022 A 
BRANCH  69  72
ATOM     72  S   UNL A   1      41.271  32.577  37.802  1.00  0.00     0.127 S 
ATOM     73  O   UNL A   1      39.960  32.063  37.405  1.00  0.00    -0.237 OA
ATOM     74  O   UNL A   1      42.075  31.645  38.592  1.00  0.00    -0.237 OA
ATOM     75  O   UNL A   1      41.278  33.951  38.282  1.00  0.00    -0.744 OA
ENDBRANCH  69  72
ENDBRANCH  51  65
BRANCH  52  76
ATOM     76  C   UNL A   1      42.783  24.359  27.222  1.00  0.00     0.023 A 
ATOM     77  C   UNL A   1      43.450  24.631  26.010  1.00  0.00     0.012 A 
ATOM     78  C   UNL A   1      42.154  23.111  27.390  1.00  0.00     0.148 A 
ATOM     79  C   UNL A   1      43.439  23.706  24.966  1.00  0.00     0.002 A 
ATOM     80  C   UNL A   1      42.197  22.170  26.368  1.00  0.00     0.091 A 
ATOM     81  F   UNL A   1      41.518  22.872  28.545  1.00  0.00    -0.205 F 
ATOM     82  C   UNL A   1      42.819  22.473  25.148  1.00  0.00     0.022 A 
BRANCH  80  83
ATOM     83  S   UNL A   1      41.529  20.514  26.558  1.00  0.00     0.127 S 
ATOM     84  O   UNL A   1      42.120  20.099  27.828  1.00  0.00    -0.237 OA
ATOM     85  O   UNL A   1      40.089  20.772  26.605  1.00  0.00    -0.237 OA
ATOM     86  O   UNL A   1      41.970  19.778  25.382  1.00  0.00    -0.744 OA
ENDBRANCH  80  83
ENDBRANCH  52  76
BRANCH  64  87
ATOM     87  C   UNL A   1      47.021  25.948  32.525  1.00  0.00     0.023 A 
ATOM     88  C   UNL A   1      48.276  26.401  32.076  1.00  0.00     0.012 A 
ATOM     89  C   UNL A   1      46.959  24.944  33.513  1.00  0.00     0.148 A 
ATOM     90  C   UNL A   1      49.449  25.834  32.570  1.00  0.00     0.002 A 
ATOM     91  C   UNL A   1      48.132  24.427  34.043  1.00  0.00     0.091 A 
ATOM     92  F   UNL A   1      45.753  24.516  33.916  1.00  0.00    -0.205 F 
ATOM     93  C   UNL A   1      49.379  24.857  33.561  1.00  0.00     0.022 A 
BRANCH  91  94
ATOM     94  S   UNL A   1      48.136  23.247  35.397  1.00  0.00     0.127 S 
ATOM     95  O   UNL A   1      49.568  23.039  35.605  1.00  0.00    -0.237 OA
ATOM     96  O   UNL A   1      47.467  23.995  36.461  1.00  0.00    -0.237 OA
ATOM     97  O   UNL A   1      47.400  22.084  34.921  1.00  0.00    -0.744 OA
ENDBRANCH  91  94
ENDBRANCH  64  87
ENDBRANCH  38  39
ENDBRANCH  30  33
ENDBRANCH  28  29
ENDBRANCH   1  28
TORSDOF 16
ENDMDL
MODEL 2
REMARK VINA RESULT:     -11.3      1.720      2.216
REMARK SMILES Cc1c[nH]c(C[N@H+]2C[C@@H]3CN(S(C)(=O)=O)C[C@]3(C(=O)NCCCNC(=O)c3ccc(-c4c5nc(c(-c6cccc(S(=O)(=O)[O-])c6F)c6ccc([nH]6)c(-c6cccc(S(=O)(=O)[O-])c6F)c6nc(c(-c7cccc(S(=O)(=O)[O-])c7F)c7ccc4[nH]7)C=C6)C=C5)cc3)C2)n1
REMARK SMILES IDX 22 1 21 2 20 3 18 4 19 5 17 7 7 8 8 9 90 10 9 12 10 13 16 14
REMARK SMILES IDX 11 15 6 16 5 17 1 18 2 19 3 20 91 21 4 22 12 24 13 25 14 26
REMARK SMILES IDX 15 27 23 28 24 29 25 30 26 32 27 33 28 34 89 35 29 36 88 37
REMARK SMILES IDX 30 38 31 39 32 40 82 41 33 42 87 43 81 44 83 45 34 46 86 47
REMARK SMILES IDX 80 48 79 49 35 51 67 52 47 53 66 54 48 55 51 56 65 57 84 58
REMARK SMILES IDX 49 59 50 60 64 62 85 63 52 64 36 65 37 66 45 67 38 68 40 69
REMARK SMILES IDX 46 70 39 71 41 72 42 73 43 74 44 75 68 76 69 77 77 78 70 79
REMARK SMILES IDX 72 80 78 81 71 82 73 83 74 84 75 85 76 86 53 87 54 88 62 89
REMARK SMILES IDX 55 90 57 91 63 92 56 93 58 94 59 95 60 96 61 97
REMARK H PARENT 20 6 7 11 4 23 24 31 83 50 51 61
REMARK Flexibility Score: inf
ROOT
ATOM      1  C   UNL A   1      32.635  28.312  27.068  1.00  0.00     0.042 C 
ENDROOT
BRANCH   1   2
ATOM      2  C   UNL A   1      31.617  27.676  26.126  1.00  0.00     0.117 C 
BRANCH   2   3
ATOM      3  N   UNL A   1      30.977  26.530  26.755  1.00  0.00    -0.355 N 
ATOM      4  C   UNL A   1      30.828  25.262  26.233  1.00  0.00     0.233 C 
ATOM      5  O   UNL A   1      29.899  24.576  26.659  1.00  0.00    -0.274 OA
ATOM      6  H   UNL A   1      30.610  26.676  27.656  1.00  0.00     0.163 HD
BRANCH   4   7
ATOM      7  C   UNL A   1      31.891  24.793  25.163  1.00  0.00     0.121 C 
ATOM      8  N   UNL A   1      33.906  23.515  26.008  1.00  0.00    -0.327 N 
ATOM      9  C   UNL A   1      33.786  23.268  24.592  1.00  0.00     0.268 C 
ATOM     10  C   UNL A   1      32.592  24.069  26.413  1.00  0.00     0.281 C 
ATOM     11  H   UNL A   1      34.669  24.165  26.198  1.00  0.00     0.348 HD
ATOM     12  C   UNL A   1      32.309  23.485  24.328  1.00  0.00     0.082 C 
ATOM     13  C   UNL A   1      32.117  23.682  22.825  1.00  0.00     0.113 C 
ATOM     14  C   UNL A   1      30.702  24.948  24.141  1.00  0.00     0.125 C 
ATOM     15  N   UNL A   1      31.299  24.870  22.787  1.00  0.00    -0.200 NA
BRANCH   8  16
ATOM     16  C   UNL A   1      34.293  22.325  26.797  1.00  0.00     0.338 C 
BRANCH  16  17
ATOM     17  C   UNL A   1      34.216  21.012  26.067  1.00  0.00     0.161 A 
ATOM     18  C   UNL A   1      32.498  18.342  24.469  1.00  0.00     0.068 C 
ATOM     19  C   UNL A   1      33.511  19.281  24.995  1.00  0.00     0.056 A 
ATOM     20  C   UNL A   1      34.858  19.366  24.726  1.00  0.00     0.107 A 
ATOM     21  N   UNL A   1      33.139  20.282  25.857  1.00  0.00    -0.233 NA
ATOM     22  N   UNL A   1      35.300  20.448  25.437  1.00  0.00    -0.344 N 
ATOM     23  H   UNL A   1      36.230  20.767  25.486  1.00  0.00     0.167 HD
ENDBRANCH  16  17
ENDBRANCH   8  16
BRANCH  15  24
ATOM     24  S   UNL A   1      31.886  26.238  22.000  1.00  0.00     0.211 S 
ATOM     25  C   UNL A   1      33.377  26.671  22.890  1.00  0.00     0.176 C 
ATOM     26  O   UNL A   1      32.308  25.833  20.679  1.00  0.00    -0.213 OA
ATOM     27  O   UNL A   1      30.935  27.312  22.199  1.00  0.00    -0.213 OA
ENDBRANCH  15  24
ENDBRANCH   4   7
ENDBRANCH   2   3
ENDBRANCH   1   2
BRANCH   1  28
ATOM     28  C   UNL A   1      33.811  28.915  26.324  1.00  0.00     0.118 C 
BRANCH  28  29
ATOM     29  N   UNL A   1      33.908  30.344  26.585  1.00  0.00    -0.352 N 
ATOM     30  C   UNL A   1      34.684  31.006  27.505  1.00  0.00     0.251 C 
ATOM     31  H   UNL A   1      33.337  30.917  26.023  1.00  0.00     0.163 HD
ATOM     32  O   UNL A   1      34.369  32.144  27.846  1.00  0.00    -0.269 OA
BRANCH  30  33
ATOM     33  C   UNL A   1      35.894  30.362  28.068  1.00  0.00     0.039 A 
ATOM     34  C   UNL A   1      35.829  29.750  29.322  1.00  0.00     0.014 A 
ATOM     35  C   UNL A   1      37.112  30.415  27.386  1.00  0.00     0.014 A 
ATOM     36  C   UNL A   1      36.978  29.173  29.872  1.00  0.00     0.010 A 
ATOM     37  C   UNL A   1      38.215  29.726  27.871  1.00  0.00     0.010 A 
ATOM     38  C   UNL A   1      38.178  29.139  29.141  1.00  0.00    -0.014 A 
BRANCH  38  39
ATOM     39  C   UNL A   1      39.423  28.553  29.701  1.00  0.00     0.031 A 
ATOM     40  C   UNL A   1      40.050  29.163  30.932  1.00  0.00     0.074 A 
ATOM     41  C   UNL A   1      40.029  27.534  29.062  1.00  0.00     0.049 A 
ATOM     42  N   UNL A   1      41.165  28.843  31.535  1.00  0.00    -0.248 NA
ATOM     43  C   UNL A   1      39.354  30.309  31.550  1.00  0.00     0.031 C 
ATOM     44  C   UNL A   1      39.566  26.914  27.818  1.00  0.00     0.029 A 
ATOM     45  N   UNL A   1      41.184  26.854  29.359  1.00  0.00    -0.354 N 
ATOM     46  C   UNL A   1      41.330  29.775  32.554  1.00  0.00     0.074 A 
ATOM     47  C   UNL A   1      40.220  30.695  32.474  1.00  0.00     0.031 C 
ATOM     48  C   UNL A   1      40.417  25.936  27.468  1.00  0.00     0.029 A 
ATOM     49  C   UNL A   1      41.507  25.885  28.436  1.00  0.00     0.049 A 
ATOM     50  H   UNL A   1      41.730  27.040  30.156  1.00  0.00     0.167 HD
ATOM     51  C   UNL A   1      42.304  29.844  33.490  1.00  0.00     0.034 A 
ATOM     52  C   UNL A   1      42.568  25.057  28.375  1.00  0.00     0.034 A 
ATOM     53  C   UNL A   1      43.368  28.886  33.606  1.00  0.00     0.049 A 
ATOM     54  C   UNL A   1      43.602  25.123  29.466  1.00  0.00     0.074 A 
ATOM     55  C   UNL A   1      44.337  28.795  34.589  1.00  0.00     0.029 A 
ATOM     56  N   UNL A   1      43.608  27.860  32.707  1.00  0.00    -0.354 N 
ATOM     57  N   UNL A   1      43.645  25.903  30.520  1.00  0.00    -0.248 NA
ATOM     58  C   UNL A   1      44.716  24.167  29.383  1.00  0.00     0.031 C 
ATOM     59  C   UNL A   1      45.191  27.739  34.259  1.00  0.00     0.029 A 
ATOM     60  C   UNL A   1      44.721  27.141  33.100  1.00  0.00     0.049 A 
ATOM     61  H   UNL A   1      43.066  27.672  31.906  1.00  0.00     0.167 HD
ATOM     62  C   UNL A   1      44.759  25.498  31.247  1.00  0.00     0.074 A 
ATOM     63  C   UNL A   1      45.350  24.392  30.524  1.00  0.00     0.031 C 
ATOM     64  C   UNL A   1      45.256  26.003  32.402  1.00  0.00     0.034 A 
BRANCH  51  65
ATOM     65  C   UNL A   1      42.257  30.968  34.493  1.00  0.00     0.023 A 
ATOM     66  C   UNL A   1      41.626  30.777  35.739  1.00  0.00     0.012 A 
ATOM     67  C   UNL A   1      42.924  32.182  34.235  1.00  0.00     0.148 A 
ATOM     68  C   UNL A   1      41.640  31.783  36.704  1.00  0.00     0.002 A 
ATOM     69  C   UNL A   1      42.976  33.161  35.220  1.00  0.00     0.091 A 
ATOM     70  F   UNL A   1      43.499  32.351  33.037  1.00  0.00    -0.205 F 
ATOM     71  C   UNL A   1      42.326  32.968  36.449  1.00  0.00     0.022 A 
BRANCH  69  72
ATOM     72  S   UNL A   1      43.910  34.683  35.026  1.00  0.00     0.127 S 
ATOM     73  O   UNL A   1      43.678  35.337  36.314  1.00  0.00    -0.237 OA
ATOM     74  O   UNL A   1      45.271  34.182  34.833  1.00  0.00    -0.237 OA
ATOM     75  O   UNL A   1      43.341  35.366  33.874  1.00  0.00    -0.744 OA
ENDBRANCH  69  72
ENDBRANCH  51  65
BRANCH  52  76
ATOM     76  C   UNL A   1      42.690  24.057  27.274  1.00  0.00     0.023 A 
ATOM     77  C   UNL A   1      43.382  24.404  26.096  1.00  0.00     0.012 A 
ATOM     78  C   UNL A   1      42.109  22.780  27.375  1.00  0.00     0.148 A 
ATOM     79  C   UNL A   1      43.443  23.520  25.018  1.00  0.00     0.002 A 
ATOM     80  C   UNL A   1      42.223  21.881  26.320  1.00  0.00     0.091 A 
ATOM     81  F   UNL A   1      41.449  22.469  28.499  1.00  0.00    -0.205 F 
ATOM     82  C   UNL A   1      42.870  22.257  25.133  1.00  0.00     0.022 A 
BRANCH  80  83
ATOM     83  S   UNL A   1      41.620  20.194  26.425  1.00  0.00     0.127 S 
ATOM     84  O   UNL A   1      40.179  20.383  26.278  1.00  0.00    -0.237 OA
ATOM     85  O   UNL A   1      42.278  19.566  25.279  1.00  0.00    -0.237 OA
ATOM     86  O   UNL A   1      42.066  19.699  27.720  1.00  0.00    -0.744 OA
ENDBRANCH  80  83
ENDBRANCH  52  76
BRANCH  64  87
ATOM     87  C   UNL A   1      46.458  25.324  33.002  1.00  0.00     0.023 A 
ATOM     88  C   UNL A   1      47.756  25.786  32.712  1.00  0.00     0.012 A 
ATOM     89  C   UNL A   1      46.288  24.261  33.913  1.00  0.00     0.148 A 
ATOM     90  C   UNL A   1      48.868  25.171  33.284  1.00  0.00     0.002 A 
ATOM     91  C   UNL A   1      47.397  23.694  34.524  1.00  0.00     0.091 A 
ATOM     92  F   UNL A   1      45.044  23.826  34.164  1.00  0.00    -0.205 F 
ATOM     93  C   UNL A   1      48.690  24.135  34.198  1.00  0.00     0.022 A 
BRANCH  91  94
ATOM     94  S   UNL A   1      47.254  22.431  35.793  1.00  0.00     0.127 S 
ATOM     95  O   UNL A   1      46.548  23.151  36.850  1.00  0.00    -0.237 OA
ATOM     96  O   UNL A   1      46.460  21.403  35.118  1.00  0.00    -0.237 OA
ATOM     97  O   UNL A   1      48.616  22.027  36.115  1.00  0.00    -0.744 OA
ENDBRANCH  91  94
ENDBRANCH  64  87
ENDBRANCH  38  39
ENDBRANCH  30  33
ENDBRANCH  28  29
ENDBRANCH   1  28
TORSDOF 16
ENDMDL
MODEL 3
REMARK VINA RESULT:     -11.2      5.168      9.750
REMARK SMILES Cc1c[nH]c(C[N@H+]2C[C@@H]3CN(S(C)(=O)=O)C[C@]3(C(=O)NCCCNC(=O)c3ccc(-c4c5nc(c(-c6cccc(S(=O)(=O)[O-])c6F)c6ccc([nH]6)c(-c6cccc(S(=O)(=O)[O-])c6F)c6nc(c(-c7cccc(S(=O)(=O)[O-])c7F)c7ccc4[nH]7)C=C6)C=C5)cc3)C2)n1
REMARK SMILES IDX 22 1 21 2 20 3 18 4 19 5 17 7 7 8 8 9 90 10 9 12 10 13 16 14
REMARK SMILES IDX 11 15 6 16 5 17 1 18 2 19 3 20 91 21 4 22 12 24 13 25 14 26
REMARK SMILES IDX 15 27 23 28 24 29 25 30 26 32 27 33 28 34 89 35 29 36 88 37
REMARK SMILES IDX 30 38 31 39 32 40 82 41 33 42 87 43 81 44 83 45 34 46 86 47
REMARK SMILES IDX 80 48 79 49 35 51 67 52 47 53 66 54 48 55 51 56 65 57 84 58
REMARK SMILES IDX 49 59 50 60 64 62 85 63 52 64 36 65 37 66 45 67 38 68 40 69
REMARK SMILES IDX 46 70 39 71 41 72 42 73 43 74 44 75 68 76 69 77 77 78 70 79
REMARK SMILES IDX 72 80 78 81 71 82 73 83 74 84 75 85 76 86 53 87 54 88 62 89
REMARK SMILES IDX 55 90 57 91 63 92 56 93 58 94 59 95 60 96 61 97
REMARK H PARENT 20 6 7 11 4 23 24 31 83 50 51 61
REMARK Flexibility Score: inf
ROOT
ATOM      1  C   UNL A   1      36.665  21.197  25.648  1.00  0.00     0.042 C 
ENDROOT
BRANCH   1   2
ATOM      2  C   UNL A   1      35.874  22.400  26.154  1.00  0.00     0.117 C 
BRANCH   2   3
ATOM      3  N   UNL A   1      34.698  21.971  26.896  1.00  0.00    -0.355 N 
ATOM      4  C   UNL A   1      33.376  22.130  26.536  1.00  0.00     0.233 C 
ATOM      5  O   UNL A   1      32.538  22.142  27.438  1.00  0.00    -0.274 OA
ATOM      6  H   UNL A   1      34.865  21.514  27.751  1.00  0.00     0.163 HD
BRANCH   4   7
ATOM      7  C   UNL A   1      33.056  22.239  24.993  1.00  0.00     0.121 C 
ATOM      8  N   UNL A   1      32.819  20.077  23.699  1.00  0.00    -0.327 N 
ATOM      9  C   UNL A   1      32.200  21.126  22.927  1.00  0.00     0.268 C 
ATOM     10  C   UNL A   1      32.961  20.637  25.063  1.00  0.00     0.281 C 
ATOM     11  H   UNL A   1      33.720  19.816  23.298  1.00  0.00     0.348 HD
ATOM     12  C   UNL A   1      31.813  22.146  23.980  1.00  0.00     0.082 C 
ATOM     13  C   UNL A   1      31.547  23.477  23.279  1.00  0.00     0.113 C 
ATOM     14  C   UNL A   1      32.524  23.675  25.363  1.00  0.00     0.125 C 
ATOM     15  N   UNL A   1      32.324  24.391  24.081  1.00  0.00    -0.200 NA
BRANCH   8  16
ATOM     16  C   UNL A   1      32.077  18.797  23.681  1.00  0.00     0.338 C 
BRANCH  16  17
ATOM     17  C   UNL A   1      32.792  17.625  24.299  1.00  0.00     0.161 A 
ATOM     18  C   UNL A   1      35.678  15.852  25.375  1.00  0.00     0.068 C 
ATOM     19  C   UNL A   1      34.300  16.318  25.109  1.00  0.00     0.056 A 
ATOM     20  C   UNL A   1      33.105  15.879  25.630  1.00  0.00     0.107 A 
ATOM     21  N   UNL A   1      34.085  17.372  24.258  1.00  0.00    -0.233 NA
ATOM     22  N   UNL A   1      32.153  16.696  25.084  1.00  0.00    -0.344 N 
ATOM     23  H   UNL A   1      31.181  16.630  25.230  1.00  0.00     0.167 HD
ENDBRANCH  16  17
ENDBRANCH   8  16
BRANCH  15  24
ATOM     24  S   UNL A   1      33.568  25.261  23.351  1.00  0.00     0.211 S 
ATOM     25  C   UNL A   1      33.001  26.958  23.356  1.00  0.00     0.176 C 
ATOM     26  O   UNL A   1      34.709  25.215  24.235  1.00  0.00    -0.213 OA
ATOM     27  O   UNL A   1      33.658  24.838  21.969  1.00  0.00    -0.213 OA
ENDBRANCH  15  24
ENDBRANCH   4   7
ENDBRANCH   2   3
ENDBRANCH   1   2
BRANCH   1  28
ATOM     28  C   UNL A   1      38.118  21.535  25.375  1.00  0.00     0.118 C 
BRANCH  28  29
ATOM     29  N   UNL A   1      39.002  20.654  26.126  1.00  0.00    -0.352 N 
ATOM     30  C   UNL A   1      40.223  20.930  26.690  1.00  0.00     0.251 C 
ATOM     31  H   UNL A   1      38.679  19.732  26.245  1.00  0.00     0.163 HD
ATOM     32  O   UNL A   1      40.988  20.002  26.946  1.00  0.00    -0.269 OA
BRANCH  30  33
ATOM     33  C   UNL A   1      40.609  22.326  27.000  1.00  0.00     0.039 A 
ATOM     34  C   UNL A   1      40.081  23.373  26.240  1.00  0.00     0.014 A 
ATOM     35  C   UNL A   1      41.541  22.603  28.003  1.00  0.00     0.014 A 
ATOM     36  C   UNL A   1      40.470  24.689  26.506  1.00  0.00     0.010 A 
ATOM     37  C   UNL A   1      41.822  23.916  28.354  1.00  0.00     0.010 A 
ATOM     38  C   UNL A   1      41.331  24.973  27.580  1.00  0.00    -0.014 A 
BRANCH  38  39
ATOM     39  C   UNL A   1      41.781  26.357  27.881  1.00  0.00     0.031 A 
ATOM     40  C   UNL A   1      43.182  26.785  27.510  1.00  0.00     0.074 A 
ATOM     41  C   UNL A   1      40.970  27.194  28.555  1.00  0.00     0.049 A 
ATOM     42  N   UNL A   1      43.786  27.921  27.743  1.00  0.00    -0.248 NA
ATOM     43  C   UNL A   1      44.031  25.798  26.815  1.00  0.00     0.031 C 
ATOM     44  C   UNL A   1      39.627  26.868  29.042  1.00  0.00     0.029 A 
ATOM     45  N   UNL A   1      41.166  28.487  28.971  1.00  0.00    -0.354 N 
ATOM     46  C   UNL A   1      45.089  27.762  27.283  1.00  0.00     0.074 A 
ATOM     47  C   UNL A   1      45.203  26.412  26.783  1.00  0.00     0.031 C 
ATOM     48  C   UNL A   1      39.115  27.936  29.674  1.00  0.00     0.029 A 
ATOM     49  C   UNL A   1      40.104  29.007  29.676  1.00  0.00     0.049 A 
ATOM     50  H   UNL A   1      41.988  28.995  28.784  1.00  0.00     0.167 HD
ATOM     51  C   UNL A   1      46.094  28.667  27.254  1.00  0.00     0.034 A 
ATOM     52  C   UNL A   1      39.952  30.210  30.263  1.00  0.00     0.034 A 
ATOM     53  C   UNL A   1      45.953  30.029  27.690  1.00  0.00     0.049 A 
ATOM     54  C   UNL A   1      41.070  31.213  30.160  1.00  0.00     0.074 A 
ATOM     55  C   UNL A   1      46.871  31.060  27.593  1.00  0.00     0.029 A 
ATOM     56  N   UNL A   1      44.830  30.546  28.312  1.00  0.00    -0.354 N 
ATOM     57  N   UNL A   1      42.233  31.098  29.566  1.00  0.00    -0.248 NA
ATOM     58  C   UNL A   1      40.839  32.528  30.775  1.00  0.00     0.031 C 
ATOM     59  C   UNL A   1      46.317  32.190  28.198  1.00  0.00     0.029 A 
ATOM     60  C   UNL A   1      45.036  31.877  28.623  1.00  0.00     0.049 A 
ATOM     61  H   UNL A   1      44.007  30.041  28.504  1.00  0.00     0.167 HD
ATOM     62  C   UNL A   1      42.849  32.337  29.692  1.00  0.00     0.074 A 
ATOM     63  C   UNL A   1      41.922  33.194  30.401  1.00  0.00     0.031 C 
ATOM     64  C   UNL A   1      44.076  32.730  29.271  1.00  0.00     0.034 A 
BRANCH  51  65
ATOM     65  C   UNL A   1      47.429  28.239  26.702  1.00  0.00     0.023 A 
ATOM     66  C   UNL A   1      48.501  27.966  27.575  1.00  0.00     0.012 A 
ATOM     67  C   UNL A   1      47.589  28.015  25.320  1.00  0.00     0.148 A 
ATOM     68  C   UNL A   1      49.718  27.499  27.081  1.00  0.00     0.002 A 
ATOM     69  C   UNL A   1      48.789  27.502  24.840  1.00  0.00     0.091 A 
ATOM     70  F   UNL A   1      46.565  28.301  24.505  1.00  0.00    -0.205 F 
ATOM     71  C   UNL A   1      49.856  27.254  25.717  1.00  0.00     0.022 A 
BRANCH  69  72
ATOM     72  S   UNL A   1      49.036  27.067  23.116  1.00  0.00     0.127 S 
ATOM     73  O   UNL A   1      48.279  25.819  23.016  1.00  0.00    -0.237 OA
ATOM     74  O   UNL A   1      48.429  28.204  22.425  1.00  0.00    -0.237 OA
ATOM     75  O   UNL A   1      50.474  26.934  22.932  1.00  0.00    -0.744 OA
ENDBRANCH  69  72
ENDBRANCH  51  65
BRANCH  52  76
ATOM     76  C   UNL A   1      38.681  30.562  30.960  1.00  0.00     0.023 A 
ATOM     77  C   UNL A   1      38.483  30.149  32.293  1.00  0.00     0.012 A 
ATOM     78  C   UNL A   1      37.660  31.278  30.307  1.00  0.00     0.148 A 
ATOM     79  C   UNL A   1      37.272  30.391  32.943  1.00  0.00     0.002 A 
ATOM     80  C   UNL A   1      36.478  31.567  30.979  1.00  0.00     0.091 A 
ATOM     81  F   UNL A   1      37.861  31.656  29.037  1.00  0.00    -0.205 F 
ATOM     82  C   UNL A   1      36.273  31.106  32.288  1.00  0.00     0.022 A 
BRANCH  80  83
ATOM     83  S   UNL A   1      35.186  32.584  30.258  1.00  0.00     0.127 S 
ATOM     84  O   UNL A   1      34.734  31.747  29.148  1.00  0.00    -0.237 OA
ATOM     85  O   UNL A   1      34.239  32.701  31.366  1.00  0.00    -0.237 OA
ATOM     86  O   UNL A   1      35.834  33.834  29.886  1.00  0.00    -0.744 OA
ENDBRANCH  80  83
ENDBRANCH  52  76
BRANCH  64  87
ATOM     87  C   UNL A   1      44.466  34.167  29.497  1.00  0.00     0.023 A 
ATOM     88  C   UNL A   1      45.126  34.547  30.681  1.00  0.00     0.012 A 
ATOM     89  C   UNL A   1      44.232  35.129  28.493  1.00  0.00     0.148 A 
ATOM     90  C   UNL A   1      45.507  35.873  30.881  1.00  0.00     0.002 A 
ATOM     91  C   UNL A   1      44.668  36.434  28.676  1.00  0.00     0.091 A 
ATOM     92  F   UNL A   1      43.588  34.749  27.380  1.00  0.00    -0.205 F 
ATOM     93  C   UNL A   1      45.290  36.813  29.876  1.00  0.00     0.022 A 
BRANCH  91  94
ATOM     94  S   UNL A   1      44.528  37.682  27.391  1.00  0.00     0.127 S 
ATOM     95  O   UNL A   1      45.605  37.294  26.482  1.00  0.00    -0.237 OA
ATOM     96  O   UNL A   1      43.179  37.446  26.876  1.00  0.00    -0.237 OA
ATOM     97  O   UNL A   1      44.704  38.966  28.056  1.00  0.00    -0.744 OA
ENDBRANCH  91  94
ENDBRANCH  64  87
ENDBRANCH  38  39
ENDBRANCH  30  33
ENDBRANCH  28  29
ENDBRANCH   1  28
TORSDOF 16
ENDMDL
