MODEL 1
REMARK VINA RESULT:     -11.6      0.000      0.000
REMARK SMILES CC(=O)Nc1nc(C[N@@H+]2CCO[C@@H](CC(=O)NCCCNC(=O)c3ccc(-c4c5nc(c(-c6cccc(S(=O)(=O)[O-])c6F)c6ccc([nH]6)c(-c6cccc(S(=O)(=O)[O-])c6F)c6nc(c(-c7cccc(S(=O)(=O)[O-])c7F)c7ccc4[nH]7)C=C6)C=C5)cc3)C2)cs1
REMARK SMILES IDX 18 1 17 2 15 3 16 4 14 6 13 7 9 8 10 9 87 10 11 12 12 13
REMARK SMILES IDX 8 14 7 15 5 16 6 17 89 18 88 19 4 20 1 21 2 22 3 23 19 25
REMARK SMILES IDX 20 26 21 27 22 28 23 30 24 31 25 32 86 33 26 34 85 35 27 36
REMARK SMILES IDX 28 37 29 38 79 39 30 40 84 41 78 42 80 43 31 44 83 45 77 46
REMARK SMILES IDX 76 47 32 49 64 50 44 51 63 52 45 53 48 54 62 55 81 56 46 57
REMARK SMILES IDX 47 58 61 60 82 61 49 62 33 63 34 64 42 65 35 66 37 67 43 68
REMARK SMILES IDX 36 69 38 70 39 71 40 72 41 73 65 74 66 75 74 76 67 77 69 78
REMARK SMILES IDX 75 79 68 80 70 81 71 82 72 83 73 84 50 85 51 86 59 87 52 88
REMARK SMILES IDX 54 89 60 90 53 91 55 92 56 93 57 94 58 95
REMARK H PARENT 17 5 9 11 4 24 21 29 80 48 48 59
REMARK Flexibility Score: inf
ROOT
ATOM      1  C   UNL A   1      37.389  20.518  24.628  1.00  0.00     0.117 C 
ENDROOT
BRANCH   1   2
ATOM      2  N   UNL A   1      37.366  21.720  25.454  1.00  0.00    -0.356 N 
ATOM      3  C   UNL A   1      36.938  22.990  25.197  1.00  0.00     0.222 C 
ATOM      4  O   UNL A   1      36.990  23.813  26.115  1.00  0.00    -0.275 OA
ATOM      5  H   UNL A   1      37.725  21.592  26.363  1.00  0.00     0.163 HD
BRANCH   3   6
ATOM      6  C   UNL A   1      36.423  23.394  23.832  1.00  0.00     0.138 C 
BRANCH   6   7
ATOM      7  C   UNL A   1      35.088  22.723  23.478  1.00  0.00     0.182 C 
ATOM      8  N   UNL A   1      32.790  22.408  24.582  1.00  0.00    -0.326 N 
ATOM      9  C   UNL A   1      32.216  23.070  23.426  1.00  0.00     0.291 C 
ATOM     10  C   UNL A   1      34.223  22.557  24.740  1.00  0.00     0.295 C 
ATOM     11  H   UNL A   1      32.415  23.015  25.311  1.00  0.00     0.348 HD
ATOM     12  C   UNL A   1      33.131  23.028  22.195  1.00  0.00     0.222 C 
ATOM     13  O   UNL A   1      34.432  23.555  22.500  1.00  0.00    -0.366 OA
BRANCH   8  14
ATOM     14  C   UNL A   1      32.159  21.217  25.132  1.00  0.00     0.320 C 
BRANCH  14  15
ATOM     15  C   UNL A   1      32.579  19.969  24.417  1.00  0.00     0.108 A 
ATOM     16  C   UNL A   1      33.734  18.105  24.203  1.00  0.00     0.189 A 
ATOM     17  N   UNL A   1      33.523  19.122  24.998  1.00  0.00    -0.219 NA
ATOM     18  S   UNL A   1      32.910  18.112  22.711  1.00  0.00    -0.105 S 
ATOM     19  C   UNL A   1      32.081  19.524  23.204  1.00  0.00     0.098 A 
BRANCH  16  20
ATOM     20  N   UNL A   1      34.548  17.026  24.370  1.00  0.00    -0.302 N 
ATOM     21  C   UNL A   1      32.872  15.649  25.585  1.00  0.00     0.114 C 
ATOM     22  C   UNL A   1      34.270  15.907  25.090  1.00  0.00     0.223 C 
ATOM     23  O   UNL A   1      35.175  15.090  25.288  1.00  0.00    -0.275 OA
ATOM     24  H   UNL A   1      35.425  17.059  23.926  1.00  0.00     0.172 HD
ENDBRANCH  16  20
ENDBRANCH  14  15
ENDBRANCH   8  14
ENDBRANCH   6   7
ENDBRANCH   3   6
ENDBRANCH   1   2
BRANCH   1  25
ATOM     25  C   UNL A   1      38.370  19.456  25.132  1.00  0.00     0.042 C 
BRANCH  25  26
ATOM     26  C   UNL A   1      39.458  19.980  26.060  1.00  0.00     0.118 C 
BRANCH  26  27
ATOM     27  N   UNL A   1      40.604  19.089  26.095  1.00  0.00    -0.352 N 
ATOM     28  C   UNL A   1      41.950  19.371  26.073  1.00  0.00     0.251 C 
ATOM     29  H   UNL A   1      40.382  18.131  26.140  1.00  0.00     0.163 HD
ATOM     30  O   UNL A   1      42.735  18.454  25.837  1.00  0.00    -0.269 OA
BRANCH  28  31
ATOM     31  C   UNL A   1      42.476  20.741  26.316  1.00  0.00     0.039 A 
ATOM     32  C   UNL A   1      42.652  21.163  27.639  1.00  0.00     0.014 A 
ATOM     33  C   UNL A   1      42.715  21.645  25.277  1.00  0.00     0.014 A 
ATOM     34  C   UNL A   1      43.099  22.462  27.915  1.00  0.00     0.010 A 
ATOM     35  C   UNL A   1      43.238  22.912  25.550  1.00  0.00     0.010 A 
ATOM     36  C   UNL A   1      43.417  23.346  26.872  1.00  0.00    -0.014 A 
BRANCH  36  37
ATOM     37  C   UNL A   1      43.919  24.721  27.147  1.00  0.00     0.031 A 
ATOM     38  C   UNL A   1      42.998  25.780  27.699  1.00  0.00     0.074 A 
ATOM     39  C   UNL A   1      45.191  25.045  26.834  1.00  0.00     0.049 A 
ATOM     40  N   UNL A   1      43.252  27.035  27.971  1.00  0.00    -0.248 NA
ATOM     41  C   UNL A   1      41.603  25.386  27.956  1.00  0.00     0.031 C 
ATOM     42  C   UNL A   1      46.170  24.141  26.232  1.00  0.00     0.029 A 
ATOM     43  N   UNL A   1      45.871  26.233  26.960  1.00  0.00    -0.354 N 
ATOM     44  C   UNL A   1      42.045  27.590  28.384  1.00  0.00     0.074 A 
ATOM     45  C   UNL A   1      41.053  26.540  28.303  1.00  0.00     0.031 C 
ATOM     46  C   UNL A   1      47.327  24.798  26.053  1.00  0.00     0.029 A 
ATOM     47  C   UNL A   1      47.166  26.180  26.498  1.00  0.00     0.049 A 
ATOM     48  H   UNL A   1      45.469  27.046  27.345  1.00  0.00     0.167 HD
ATOM     49  C   UNL A   1      41.788  28.848  28.817  1.00  0.00     0.034 A 
ATOM     50  C   UNL A   1      48.118  27.132  26.437  1.00  0.00     0.034 A 
ATOM     51  C   UNL A   1      42.785  29.875  28.957  1.00  0.00     0.049 A 
ATOM     52  C   UNL A   1      47.817  28.511  26.961  1.00  0.00     0.074 A 
ATOM     53  C   UNL A   1      42.646  31.140  29.501  1.00  0.00     0.029 A 
ATOM     54  N   UNL A   1      44.103  29.762  28.541  1.00  0.00    -0.354 N 
ATOM     55  N   UNL A   1      46.718  28.962  27.515  1.00  0.00    -0.248 NA
ATOM     56  C   UNL A   1      48.900  29.503  26.884  1.00  0.00     0.031 C 
ATOM     57  C   UNL A   1      43.874  31.802  29.389  1.00  0.00     0.029 A 
ATOM     58  C   UNL A   1      44.783  30.941  28.796  1.00  0.00     0.049 A 
ATOM     59  H   UNL A   1      44.497  28.962  28.126  1.00  0.00     0.167 HD
ATOM     60  C   UNL A   1      46.986  30.276  27.882  1.00  0.00     0.074 A 
ATOM     61  C   UNL A   1      48.359  30.543  27.505  1.00  0.00     0.031 C 
ATOM     62  C   UNL A   1      46.163  31.183  28.464  1.00  0.00     0.034 A 
BRANCH  49  63
ATOM     63  C   UNL A   1      40.374  29.175  29.224  1.00  0.00     0.023 A 
ATOM     64  C   UNL A   1      39.450  29.607  28.251  1.00  0.00     0.012 A 
ATOM     65  C   UNL A   1      39.943  28.999  30.554  1.00  0.00     0.148 A 
ATOM     66  C   UNL A   1      38.132  29.898  28.601  1.00  0.00     0.002 A 
ATOM     67  C   UNL A   1      38.616  29.248  30.886  1.00  0.00     0.091 A 
ATOM     68  F   UNL A   1      40.838  28.607  31.472  1.00  0.00    -0.205 F 
ATOM     69  C   UNL A   1      37.712  29.709  29.914  1.00  0.00     0.022 A 
BRANCH  67  70
ATOM     70  S   UNL A   1      37.963  28.957  32.534  1.00  0.00     0.127 S 
ATOM     71  O   UNL A   1      38.807  29.831  33.346  1.00  0.00    -0.237 OA
ATOM     72  O   UNL A   1      36.575  29.402  32.402  1.00  0.00    -0.237 OA
ATOM     73  O   UNL A   1      38.118  27.529  32.776  1.00  0.00    -0.744 OA
ENDBRANCH  67  70
ENDBRANCH  49  63
BRANCH  50  74
ATOM     74  C   UNL A   1      49.478  26.788  25.932  1.00  0.00     0.023 A 
ATOM     75  C   UNL A   1      50.338  26.026  26.745  1.00  0.00     0.012 A 
ATOM     76  C   UNL A   1      49.907  27.169  24.645  1.00  0.00     0.148 A 
ATOM     77  C   UNL A   1      51.611  25.669  26.299  1.00  0.00     0.002 A 
ATOM     78  C   UNL A   1      51.154  26.763  24.184  1.00  0.00     0.091 A 
ATOM     79  F   UNL A   1      49.079  27.906  23.891  1.00  0.00    -0.205 F 
ATOM     80  C   UNL A   1      52.015  26.028  25.016  1.00  0.00     0.022 A 
BRANCH  78  81
ATOM     81  S   UNL A   1      51.701  27.061  22.499  1.00  0.00     0.127 S 
ATOM     82  O   UNL A   1      50.539  26.631  21.725  1.00  0.00    -0.237 OA
ATOM     83  O   UNL A   1      51.937  28.505  22.506  1.00  0.00    -0.237 OA
ATOM     84  O   UNL A   1      52.906  26.261  22.327  1.00  0.00    -0.744 OA
ENDBRANCH  78  81
ENDBRANCH  50  74
BRANCH  62  85
ATOM     85  C   UNL A   1      46.724  32.551  28.758  1.00  0.00     0.023 A 
ATOM     86  C   UNL A   1      47.348  32.797  29.998  1.00  0.00     0.012 A 
ATOM     87  C   UNL A   1      46.704  33.566  27.781  1.00  0.00     0.148 A 
ATOM     88  C   UNL A   1      47.918  34.040  30.270  1.00  0.00     0.002 A 
ATOM     89  C   UNL A   1      47.316  34.787  28.043  1.00  0.00     0.091 A 
ATOM     90  F   UNL A   1      46.089  33.320  26.615  1.00  0.00    -0.205 F 
ATOM     91  C   UNL A   1      47.914  35.029  29.290  1.00  0.00     0.022 A 
BRANCH  89  92
ATOM     92  S   UNL A   1      47.441  36.085  26.806  1.00  0.00     0.127 S 
ATOM     93  O   UNL A   1      48.071  35.376  25.693  1.00  0.00    -0.237 OA
ATOM     94  O   UNL A   1      46.039  36.442  26.587  1.00  0.00    -0.237 OA
ATOM     95  O   UNL A   1      48.244  37.138  27.412  1.00  0.00    -0.744 OA
ENDBRANCH  89  92
ENDBRANCH  62  85
ENDBRANCH  36  37
ENDBRANCH  28  31
ENDBRANCH  26  27
ENDBRANCH  25  26
ENDBRANCH   1  25
TORSDOF 17
ENDMDL
MODEL 2
REMARK VINA RESULT:     -11.5      6.004     11.853
REMARK SMILES CC(=O)Nc1nc(C[N@@H+]2CCO[C@@H](CC(=O)NCCCNC(=O)c3ccc(-c4c5nc(c(-c6cccc(S(=O)(=O)[O-])c6F)c6ccc([nH]6)c(-c6cccc(S(=O)(=O)[O-])c6F)c6nc(c(-c7cccc(S(=O)(=O)[O-])c7F)c7ccc4[nH]7)C=C6)C=C5)cc3)C2)cs1
REMARK SMILES IDX 18 1 17 2 15 3 16 4 14 6 13 7 9 8 10 9 87 10 11 12 12 13
REMARK SMILES IDX 8 14 7 15 5 16 6 17 89 18 88 19 4 20 1 21 2 22 3 23 19 25
REMARK SMILES IDX 20 26 21 27 22 28 23 30 24 31 25 32 86 33 26 34 85 35 27 36
REMARK SMILES IDX 28 37 29 38 79 39 30 40 84 41 78 42 80 43 31 44 83 45 77 46
REMARK SMILES IDX 76 47 32 49 64 50 44 51 63 52 45 53 48 54 62 55 81 56 46 57
REMARK SMILES IDX 47 58 61 60 82 61 49 62 33 63 34 64 42 65 35 66 37 67 43 68
REMARK SMILES IDX 36 69 38 70 39 71 40 72 41 73 65 74 66 75 74 76 67 77 69 78
REMARK SMILES IDX 75 79 68 80 70 81 71 82 72 83 73 84 50 85 51 86 59 87 52 88
REMARK SMILES IDX 54 89 60 90 53 91 55 92 56 93 57 94 58 95
REMARK H PARENT 17 5 9 11 4 24 21 29 80 48 48 59
REMARK Flexibility Score: inf
ROOT
ATOM      1  C   UNL A   1      31.304  30.651  25.968  1.00  0.00     0.117 C 
ENDROOT
BRANCH   1   2
ATOM      2  N   UNL A   1      30.894  30.447  24.583  1.00  0.00    -0.356 N 
ATOM      3  C   UNL A   1      30.680  29.311  23.857  1.00  0.00     0.222 C 
ATOM      4  O   UNL A   1      30.281  29.434  22.697  1.00  0.00    -0.275 OA
ATOM      5  H   UNL A   1      30.745  31.281  24.079  1.00  0.00     0.163 HD
BRANCH   3   6
ATOM      6  C   UNL A   1      30.929  27.937  24.441  1.00  0.00     0.138 C 
BRANCH   6   7
ATOM      7  C   UNL A   1      32.240  27.308  23.946  1.00  0.00     0.182 C 
ATOM      8  N   UNL A   1      33.503  25.094  24.269  1.00  0.00    -0.326 N 
ATOM      9  C   UNL A   1      33.435  24.920  22.830  1.00  0.00     0.291 C 
ATOM     10  C   UNL A   1      32.614  26.097  24.820  1.00  0.00     0.295 C 
ATOM     11  H   UNL A   1      33.063  24.218  24.552  1.00  0.00     0.348 HD
ATOM     12  C   UNL A   1      33.204  26.238  22.077  1.00  0.00     0.222 C 
ATOM     13  O   UNL A   1      32.041  26.919  22.573  1.00  0.00    -0.366 OA
BRANCH   8  14
ATOM     14  C   UNL A   1      34.737  24.804  24.983  1.00  0.00     0.320 C 
BRANCH  14  15
ATOM     15  C   UNL A   1      35.018  23.333  25.061  1.00  0.00     0.108 A 
ATOM     16  C   UNL A   1      34.479  21.235  25.460  1.00  0.00     0.189 A 
ATOM     17  N   UNL A   1      34.012  22.456  25.468  1.00  0.00    -0.219 NA
ATOM     18  S   UNL A   1      36.124  21.043  25.057  1.00  0.00    -0.105 S 
ATOM     19  C   UNL A   1      36.210  22.717  24.721  1.00  0.00     0.098 A 
BRANCH  16  20
ATOM     20  N   UNL A   1      33.851  20.063  25.757  1.00  0.00    -0.302 N 
ATOM     21  C   UNL A   1      32.459  20.010  23.698  1.00  0.00     0.114 C 
ATOM     22  C   UNL A   1      32.832  19.492  25.061  1.00  0.00     0.223 C 
ATOM     23  O   UNL A   1      32.255  18.517  25.551  1.00  0.00    -0.275 OA
ATOM     24  H   UNL A   1      34.166  19.582  26.555  1.00  0.00     0.172 HD
ENDBRANCH  16  20
ENDBRANCH  14  15
ENDBRANCH   8  14
ENDBRANCH   6   7
ENDBRANCH   3   6
ENDBRANCH   1   2
BRANCH   1  25
ATOM     25  C   UNL A   1      31.369  32.128  26.368  1.00  0.00     0.042 C 
BRANCH  25  26
ATOM     26  C   UNL A   1      32.560  32.503  27.240  1.00  0.00     0.118 C 
BRANCH  26  27
ATOM     27  N   UNL A   1      32.528  33.906  27.612  1.00  0.00    -0.352 N 
ATOM     28  C   UNL A   1      33.180  34.573  28.623  1.00  0.00     0.251 C 
ATOM     29  H   UNL A   1      31.947  34.470  27.052  1.00  0.00     0.163 HD
ATOM     30  O   UNL A   1      32.796  35.703  28.919  1.00  0.00    -0.269 OA
BRANCH  28  31
ATOM     31  C   UNL A   1      34.319  33.968  29.364  1.00  0.00     0.039 A 
ATOM     32  C   UNL A   1      35.622  34.310  28.980  1.00  0.00     0.014 A 
ATOM     33  C   UNL A   1      34.136  33.011  30.365  1.00  0.00     0.014 A 
ATOM     34  C   UNL A   1      36.725  33.727  29.618  1.00  0.00     0.010 A 
ATOM     35  C   UNL A   1      35.234  32.492  31.057  1.00  0.00     0.010 A 
ATOM     36  C   UNL A   1      36.543  32.825  30.678  1.00  0.00    -0.014 A 
BRANCH  36  37
ATOM     37  C   UNL A   1      37.704  32.217  31.386  1.00  0.00     0.031 A 
ATOM     38  C   UNL A   1      38.479  31.085  30.760  1.00  0.00     0.074 A 
ATOM     39  C   UNL A   1      38.024  32.633  32.629  1.00  0.00     0.049 A 
ATOM     40  N   UNL A   1      39.495  30.415  31.242  1.00  0.00    -0.248 NA
ATOM     41  C   UNL A   1      38.040  30.627  29.432  1.00  0.00     0.031 C 
ATOM     42  C   UNL A   1      37.319  33.671  33.381  1.00  0.00     0.029 A 
ATOM     43  N   UNL A   1      39.014  32.217  33.488  1.00  0.00    -0.354 N 
ATOM     44  C   UNL A   1      39.787  29.432  30.302  1.00  0.00     0.074 A 
ATOM     45  C   UNL A   1      38.823  29.577  29.233  1.00  0.00     0.031 C 
ATOM     46  C   UNL A   1      37.904  33.822  34.580  1.00  0.00     0.029 A 
ATOM     47  C   UNL A   1      39.006  32.871  34.698  1.00  0.00     0.049 A 
ATOM     48  H   UNL A   1      39.667  31.517  33.258  1.00  0.00     0.167 HD
ATOM     49  C   UNL A   1      40.780  28.510  30.311  1.00  0.00     0.034 A 
ATOM     50  C   UNL A   1      39.794  32.726  35.782  1.00  0.00     0.034 A 
ATOM     51  C   UNL A   1      41.777  28.405  31.342  1.00  0.00     0.049 A 
ATOM     52  C   UNL A   1      40.915  31.721  35.750  1.00  0.00     0.074 A 
ATOM     53  C   UNL A   1      42.892  27.586  31.380  1.00  0.00     0.029 A 
ATOM     54  N   UNL A   1      41.775  29.132  32.522  1.00  0.00    -0.354 N 
ATOM     55  N   UNL A   1      41.282  30.925  34.775  1.00  0.00    -0.248 NA
ATOM     56  C   UNL A   1      41.751  31.618  36.954  1.00  0.00     0.031 C 
ATOM     57  C   UNL A   1      43.550  27.798  32.596  1.00  0.00     0.029 A 
ATOM     58  C   UNL A   1      42.857  28.765  33.306  1.00  0.00     0.049 A 
ATOM     59  H   UNL A   1      41.104  29.808  32.768  1.00  0.00     0.167 HD
ATOM     60  C   UNL A   1      42.409  30.253  35.234  1.00  0.00     0.074 A 
ATOM     61  C   UNL A   1      42.677  30.749  36.569  1.00  0.00     0.031 C 
ATOM     62  C   UNL A   1      43.146  29.299  34.612  1.00  0.00     0.034 A 
BRANCH  49  63
ATOM     63  C   UNL A   1      40.873  27.567  29.138  1.00  0.00     0.023 A 
ATOM     64  C   UNL A   1      40.056  26.418  29.101  1.00  0.00     0.012 A 
ATOM     65  C   UNL A   1      41.722  27.846  28.049  1.00  0.00     0.148 A 
ATOM     66  C   UNL A   1      40.112  25.542  28.018  1.00  0.00     0.002 A 
ATOM     67  C   UNL A   1      41.739  26.990  26.953  1.00  0.00     0.091 A 
ATOM     68  F   UNL A   1      42.507  28.931  28.108  1.00  0.00    -0.205 F 
ATOM     69  C   UNL A   1      40.944  25.831  26.941  1.00  0.00     0.022 A 
BRANCH  67  70
ATOM     70  S   UNL A   1      42.718  27.323  25.484  1.00  0.00     0.127 S 
ATOM     71  O   UNL A   1      44.050  27.514  26.053  1.00  0.00    -0.237 OA
ATOM     72  O   UNL A   1      42.555  26.089  24.715  1.00  0.00    -0.237 OA
ATOM     73  O   UNL A   1      42.121  28.501  24.868  1.00  0.00    -0.744 OA
ENDBRANCH  67  70
ENDBRANCH  49  63
BRANCH  50  74
ATOM     74  C   UNL A   1      39.601  33.615  36.963  1.00  0.00     0.023 A 
ATOM     75  C   UNL A   1      40.031  34.954  36.889  1.00  0.00     0.012 A 
ATOM     76  C   UNL A   1      38.962  33.163  38.134  1.00  0.00     0.148 A 
ATOM     77  C   UNL A   1      39.851  35.821  37.967  1.00  0.00     0.002 A 
ATOM     78  C   UNL A   1      38.735  34.045  39.182  1.00  0.00     0.091 A 
ATOM     79  F   UNL A   1      38.572  31.881  38.190  1.00  0.00    -0.205 F 
ATOM     80  C   UNL A   1      39.194  35.371  39.108  1.00  0.00     0.022 A 
BRANCH  78  81
ATOM     81  S   UNL A   1      37.776  33.591  40.633  1.00  0.00     0.127 S 
ATOM     82  O   UNL A   1      37.679  34.865  41.340  1.00  0.00    -0.237 OA
ATOM     83  O   UNL A   1      36.526  33.120  40.036  1.00  0.00    -0.237 OA
ATOM     84  O   UNL A   1      38.545  32.552  41.305  1.00  0.00    -0.744 OA
ENDBRANCH  78  81
ENDBRANCH  50  74
BRANCH  62  85
ATOM     85  C   UNL A   1      44.334  28.738  35.350  1.00  0.00     0.023 A 
ATOM     86  C   UNL A   1      45.612  29.295  35.140  1.00  0.00     0.012 A 
ATOM     87  C   UNL A   1      44.174  27.717  36.307  1.00  0.00     0.148 A 
ATOM     88  C   UNL A   1      46.716  28.824  35.851  1.00  0.00     0.002 A 
ATOM     89  C   UNL A   1      45.271  27.285  37.046  1.00  0.00     0.091 A 
ATOM     90  F   UNL A   1      42.954  27.187  36.479  1.00  0.00    -0.205 F 
ATOM     91  C   UNL A   1      46.544  27.830  36.811  1.00  0.00     0.022 A 
BRANCH  89  92
ATOM     92  S   UNL A   1      45.125  26.077  38.368  1.00  0.00     0.127 S 
ATOM     93  O   UNL A   1      44.142  26.712  39.245  1.00  0.00    -0.237 OA
ATOM     94  O   UNL A   1      44.636  24.895  37.657  1.00  0.00    -0.237 OA
ATOM     95  O   UNL A   1      46.462  25.934  38.927  1.00  0.00    -0.744 OA
ENDBRANCH  89  92
ENDBRANCH  62  85
ENDBRANCH  36  37
ENDBRANCH  28  31
ENDBRANCH  26  27
ENDBRANCH  25  26
ENDBRANCH   1  25
TORSDOF 17
ENDMDL
MODEL 3
REMARK VINA RESULT:     -11.5      6.432     11.423
REMARK SMILES CC(=O)Nc1nc(C[N@@H+]2CCO[C@@H](CC(=O)NCCCNC(=O)c3ccc(-c4c5nc(c(-c6cccc(S(=O)(=O)[O-])c6F)c6ccc([nH]6)c(-c6cccc(S(=O)(=O)[O-])c6F)c6nc(c(-c7cccc(S(=O)(=O)[O-])c7F)c7ccc4[nH]7)C=C6)C=C5)cc3)C2)cs1
REMARK SMILES IDX 18 1 17 2 15 3 16 4 14 6 13 7 9 8 10 9 87 10 11 12 12 13
REMARK SMILES IDX 8 14 7 15 5 16 6 17 89 18 88 19 4 20 1 21 2 22 3 23 19 25
REMARK SMILES IDX 20 26 21 27 22 28 23 30 24 31 25 32 86 33 26 34 85 35 27 36
REMARK SMILES IDX 28 37 29 38 79 39 30 40 84 41 78 42 80 43 31 44 83 45 77 46
REMARK SMILES IDX 76 47 32 49 64 50 44 51 63 52 45 53 48 54 62 55 81 56 46 57
REMARK SMILES IDX 47 58 61 60 82 61 49 62 33 63 34 64 42 65 35 66 37 67 43 68
REMARK SMILES IDX 36 69 38 70 39 71 40 72 41 73 65 74 66 75 74 76 67 77 69 78
REMARK SMILES IDX 75 79 68 80 70 81 71 82 72 83 73 84 50 85 51 86 59 87 52 88
REMARK SMILES IDX 54 89 60 90 53 91 55 92 56 93 57 94 58 95
REMARK H PARENT 17 5 9 11 4 24 21 29 80 48 48 59
REMARK Flexibility Score: inf
ROOT
ATOM      1  C   UNL A   1      31.038  30.481  25.206  1.00  0.00     0.117 C 
ENDROOT
BRANCH   1   2
ATOM      2  N   UNL A   1      32.357  29.860  25.139  1.00  0.00    -0.356 N 
ATOM      3  C   UNL A   1      32.841  28.839  24.374  1.00  0.00     0.222 C 
ATOM      4  O   UNL A   1      34.034  28.547  24.490  1.00  0.00    -0.275 OA
ATOM      5  H   UNL A   1      33.017  30.247  25.759  1.00  0.00     0.163 HD
BRANCH   3   6
ATOM      6  C   UNL A   1      31.954  28.074  23.415  1.00  0.00     0.138 C 
BRANCH   6   7
ATOM      7  C   UNL A   1      31.290  26.852  24.066  1.00  0.00     0.182 C 
ATOM      8  N   UNL A   1      31.973  24.459  24.707  1.00  0.00    -0.326 N 
ATOM      9  C   UNL A   1      31.601  24.788  26.070  1.00  0.00     0.291 C 
ATOM     10  C   UNL A   1      32.134  25.589  23.814  1.00  0.00     0.295 C 
ATOM     11  H   UNL A   1      32.934  24.162  24.876  1.00  0.00     0.348 HD
ATOM     12  C   UNL A   1      30.636  25.979  26.158  1.00  0.00     0.222 C 
ATOM     13  O   UNL A   1      31.167  27.125  25.475  1.00  0.00    -0.366 OA
BRANCH   8  14
ATOM     14  C   UNL A   1      31.589  23.179  24.132  1.00  0.00     0.320 C 
BRANCH  14  15
ATOM     15  C   UNL A   1      32.505  22.069  24.551  1.00  0.00     0.108 A 
ATOM     16  C   UNL A   1      32.946  20.068  25.361  1.00  0.00     0.189 A 
ATOM     17  N   UNL A   1      31.970  20.886  25.065  1.00  0.00    -0.219 NA
ATOM     18  S   UNL A   1      34.533  20.648  25.133  1.00  0.00    -0.105 S 
ATOM     19  C   UNL A   1      33.885  22.073  24.445  1.00  0.00     0.098 A 
BRANCH  16  20
ATOM     20  N   UNL A   1      32.897  18.801  25.859  1.00  0.00    -0.302 N 
ATOM     21  C   UNL A   1      32.936  17.671  23.646  1.00  0.00     0.114 C 
ATOM     22  C   UNL A   1      32.773  17.653  25.142  1.00  0.00     0.223 C 
ATOM     23  O   UNL A   1      32.571  16.596  25.747  1.00  0.00    -0.275 OA
ATOM     24  H   UNL A   1      32.956  18.708  26.837  1.00  0.00     0.172 HD
ENDBRANCH  16  20
ENDBRANCH  14  15
ENDBRANCH   8  14
ENDBRANCH   6   7
ENDBRANCH   3   6
ENDBRANCH   1   2
BRANCH   1  25
ATOM     25  C   UNL A   1      30.992  31.705  26.125  1.00  0.00     0.042 C 
BRANCH  25  26
ATOM     26  C   UNL A   1      32.309  32.036  26.815  1.00  0.00     0.118 C 
BRANCH  26  27
ATOM     27  N   UNL A   1      32.398  33.447  27.145  1.00  0.00    -0.352 N 
ATOM     28  C   UNL A   1      33.189  34.097  28.064  1.00  0.00     0.251 C 
ATOM     29  H   UNL A   1      31.795  34.032  26.631  1.00  0.00     0.163 HD
ATOM     30  O   UNL A   1      32.904  35.256  28.364  1.00  0.00    -0.269 OA
BRANCH  28  31
ATOM     31  C   UNL A   1      34.361  33.442  28.703  1.00  0.00     0.039 A 
ATOM     32  C   UNL A   1      34.144  32.638  29.828  1.00  0.00     0.014 A 
ATOM     33  C   UNL A   1      35.672  33.671  28.275  1.00  0.00     0.014 A 
ATOM     34  C   UNL A   1      35.225  32.040  30.492  1.00  0.00     0.010 A 
ATOM     35  C   UNL A   1      36.741  33.010  28.886  1.00  0.00     0.010 A 
ATOM     36  C   UNL A   1      36.535  32.203  30.015  1.00  0.00    -0.014 A 
BRANCH  36  37
ATOM     37  C   UNL A   1      37.692  31.553  30.691  1.00  0.00     0.031 A 
ATOM     38  C   UNL A   1      38.512  30.508  29.977  1.00  0.00     0.074 A 
ATOM     39  C   UNL A   1      37.969  31.849  31.978  1.00  0.00     0.049 A 
ATOM     40  N   UNL A   1      39.532  29.817  30.418  1.00  0.00    -0.248 NA
ATOM     41  C   UNL A   1      38.119  30.177  28.598  1.00  0.00     0.031 C 
ATOM     42  C   UNL A   1      37.218  32.789  32.809  1.00  0.00     0.029 A 
ATOM     43  N   UNL A   1      38.946  31.371  32.818  1.00  0.00    -0.354 N 
ATOM     44  C   UNL A   1      39.873  28.941  29.393  1.00  0.00     0.074 A 
ATOM     45  C   UNL A   1      38.935  29.170  28.316  1.00  0.00     0.031 C 
ATOM     46  C   UNL A   1      37.767  32.831  34.034  1.00  0.00     0.029 A 
ATOM     47  C   UNL A   1      38.890  31.899  34.088  1.00  0.00     0.049 A 
ATOM     48  H   UNL A   1      39.623  30.713  32.538  1.00  0.00     0.167 HD
ATOM     49  C   UNL A   1      40.889  28.045  29.337  1.00  0.00     0.034 A 
ATOM     50  C   UNL A   1      39.653  31.663  35.173  1.00  0.00     0.034 A 
ATOM     51  C   UNL A   1      41.861  27.859  30.381  1.00  0.00     0.049 A 
ATOM     52  C   UNL A   1      40.799  30.692  35.073  1.00  0.00     0.074 A 
ATOM     53  C   UNL A   1      42.995  27.066  30.368  1.00  0.00     0.029 A 
ATOM     54  N   UNL A   1      41.810  28.462  31.628  1.00  0.00    -0.354 N 
ATOM     55  N   UNL A   1      41.212  30.007  34.034  1.00  0.00    -0.248 NA
ATOM     56  C   UNL A   1      41.606  30.487  36.285  1.00  0.00     0.031 C 
ATOM     57  C   UNL A   1      43.616  27.169  31.618  1.00  0.00     0.029 A 
ATOM     58  C   UNL A   1      42.880  28.043  32.401  1.00  0.00     0.049 A 
ATOM     59  H   UNL A   1      41.116  29.095  31.921  1.00  0.00     0.167 HD
ATOM     60  C   UNL A   1      42.343  29.318  34.456  1.00  0.00     0.074 A 
ATOM     61  C   UNL A   1      42.564  29.683  35.840  1.00  0.00     0.031 C 
ATOM     62  C   UNL A   1      43.120  28.449  33.762  1.00  0.00     0.034 A 
BRANCH  49  63
ATOM     63  C   UNL A   1      41.037  27.228  28.079  1.00  0.00     0.023 A 
ATOM     64  C   UNL A   1      41.629  27.805  26.937  1.00  0.00     0.012 A 
ATOM     65  C   UNL A   1      40.644  25.875  28.043  1.00  0.00     0.148 A 
ATOM     66  C   UNL A   1      41.792  27.063  25.768  1.00  0.00     0.002 A 
ATOM     67  C   UNL A   1      40.851  25.129  26.888  1.00  0.00     0.091 A 
ATOM     68  F   UNL A   1      40.064  25.347  29.130  1.00  0.00    -0.205 F 
ATOM     69  C   UNL A   1      41.413  25.724  25.746  1.00  0.00     0.022 A 
BRANCH  67  70
ATOM     70  S   UNL A   1      40.469  23.376  26.791  1.00  0.00     0.127 S 
ATOM     71  O   UNL A   1      41.351  22.941  25.710  1.00  0.00    -0.237 OA
ATOM     72  O   UNL A   1      40.852  22.899  28.120  1.00  0.00    -0.237 OA
ATOM     73  O   UNL A   1      39.041  23.296  26.509  1.00  0.00    -0.744 OA
ENDBRANCH  67  70
ENDBRANCH  49  63
BRANCH  50  74
ATOM     74  C   UNL A   1      39.407  32.424  36.432  1.00  0.00     0.023 A 
ATOM     75  C   UNL A   1      40.082  33.642  36.638  1.00  0.00     0.012 A 
ATOM     76  C   UNL A   1      38.484  31.977  37.398  1.00  0.00     0.148 A 
ATOM     77  C   UNL A   1      39.863  34.390  37.795  1.00  0.00     0.002 A 
ATOM     78  C   UNL A   1      38.229  32.755  38.521  1.00  0.00     0.091 A 
ATOM     79  F   UNL A   1      37.862  30.808  37.190  1.00  0.00    -0.205 F 
ATOM     80  C   UNL A   1      38.929  33.954  38.730  1.00  0.00     0.022 A 
BRANCH  78  81
ATOM     81  S   UNL A   1      36.945  32.339  39.708  1.00  0.00     0.127 S 
ATOM     82  O   UNL A   1      35.750  32.333  38.869  1.00  0.00    -0.237 OA
ATOM     83  O   UNL A   1      37.377  31.022  40.175  1.00  0.00    -0.237 OA
ATOM     84  O   UNL A   1      36.997  33.379  40.727  1.00  0.00    -0.744 OA
ENDBRANCH  78  81
ENDBRANCH  50  74
BRANCH  62  85
ATOM     85  C   UNL A   1      44.303  27.843  34.474  1.00  0.00     0.023 A 
ATOM     86  C   UNL A   1      45.544  28.511  34.456  1.00  0.00     0.012 A 
ATOM     87  C   UNL A   1      44.166  26.659  35.225  1.00  0.00     0.148 A 
ATOM     88  C   UNL A   1      46.638  27.993  35.150  1.00  0.00     0.002 A 
ATOM     89  C   UNL A   1      45.247  26.175  35.953  1.00  0.00     0.091 A 
ATOM     90  F   UNL A   1      42.982  26.029  35.214  1.00  0.00    -0.205 F 
ATOM     91  C   UNL A   1      46.486  26.834  35.908  1.00  0.00     0.022 A 
BRANCH  89  92
ATOM     92  S   UNL A   1      45.117  24.743  37.031  1.00  0.00     0.127 S 
ATOM     93  O   UNL A   1      46.479  24.640  37.554  1.00  0.00    -0.237 OA
ATOM     94  O   UNL A   1      44.119  25.179  38.008  1.00  0.00    -0.237 OA
ATOM     95  O   UNL A   1      44.688  23.641  36.181  1.00  0.00    -0.744 OA
ENDBRANCH  89  92
ENDBRANCH  62  85
ENDBRANCH  36  37
ENDBRANCH  28  31
ENDBRANCH  26  27
ENDBRANCH  25  26
ENDBRANCH   1  25
TORSDOF 17
ENDMDL
