MODEL 1
REMARK VINA RESULT:     -11.1      0.000      0.000
REMARK SMILES O=C(NCCCNC(=O)c1sc2ccccc2c1CSC[C@H](O)CO)c1ccc(-c2c3nc(c(-c4cccc(S(=O)(=O)[O-])c4F)c4ccc([nH]4)c(-c4cccc(S(=O)(=O)[O-])c4F)c4nc(c(-c5cccc(S(=O)(=O)[O-])c5F)c5ccc2[nH]5)C=C4)C=C3)cc1
REMARK SMILES IDX 7 1 8 2 9 3 6 5 5 6 4 7 3 8 1 9 2 10 26 12 27 13 88 14 28 15
REMARK SMILES IDX 87 16 29 17 30 18 31 19 81 20 32 21 86 22 80 23 82 24 33 25
REMARK SMILES IDX 85 26 79 27 78 28 34 30 66 31 46 32 65 33 47 34 50 35 64 36
REMARK SMILES IDX 83 37 48 38 49 39 63 41 84 42 51 43 35 44 36 45 44 46 37 47
REMARK SMILES IDX 39 48 45 49 38 50 40 51 41 52 42 53 43 54 67 55 68 56 76 57
REMARK SMILES IDX 69 58 71 59 77 60 70 61 72 62 73 63 74 64 75 65 52 66 53 67
REMARK SMILES IDX 61 68 54 69 56 70 62 71 55 72 57 73 58 74 59 75 60 76 10 77
REMARK SMILES IDX 11 78 18 79 12 80 17 81 13 82 16 83 14 84 15 85 19 86 20 87
REMARK SMILES IDX 21 88 22 89 24 90 25 91 23 93
REMARK H PARENT 7 4 3 11 82 29 50 40 25 92 23 94
REMARK Flexibility Score: inf
ROOT
ATOM      1  N   UNL A   1      32.870  27.415  21.820  1.00  0.00    -0.351 N 
ATOM      2  C   UNL A   1      32.114  26.293  21.586  1.00  0.00     0.261 C 
ATOM      3  O   UNL A   1      31.522  26.224  20.509  1.00  0.00    -0.268 OA
ATOM      4  H   UNL A   1      32.861  28.079  21.092  1.00  0.00     0.163 HD
ENDROOT
BRANCH   1   5
ATOM      5  C   UNL A   1      33.683  27.782  22.967  1.00  0.00     0.118 C 
BRANCH   5   6
ATOM      6  C   UNL A   1      33.220  29.066  23.650  1.00  0.00     0.042 C 
BRANCH   6   7
ATOM      7  C   UNL A   1      33.245  29.046  25.179  1.00  0.00     0.118 C 
BRANCH   7   8
ATOM      8  N   UNL A   1      32.675  30.242  25.776  1.00  0.00    -0.352 N 
ATOM      9  O   UNL A   1      32.327  31.907  27.221  1.00  0.00    -0.269 OA
ATOM     10  C   UNL A   1      33.088  31.027  26.823  1.00  0.00     0.251 C 
ATOM     11  H   UNL A   1      31.840  30.545  25.351  1.00  0.00     0.163 HD
BRANCH  10  12
ATOM     12  C   UNL A   1      34.400  30.837  27.487  1.00  0.00     0.039 A 
ATOM     13  C   UNL A   1      35.314  31.881  27.644  1.00  0.00     0.014 A 
ATOM     14  C   UNL A   1      34.680  29.586  28.056  1.00  0.00     0.014 A 
ATOM     15  C   UNL A   1      36.540  31.648  28.272  1.00  0.00     0.010 A 
ATOM     16  C   UNL A   1      35.888  29.366  28.730  1.00  0.00     0.010 A 
ATOM     17  C   UNL A   1      36.840  30.390  28.819  1.00  0.00    -0.014 A 
BRANCH  17  18
ATOM     18  C   UNL A   1      38.135  30.187  29.513  1.00  0.00     0.031 A 
ATOM     19  C   UNL A   1      38.363  30.731  30.895  1.00  0.00     0.074 A 
ATOM     20  C   UNL A   1      39.093  29.454  28.916  1.00  0.00     0.049 A 
ATOM     21  N   UNL A   1      39.350  30.490  31.719  1.00  0.00    -0.248 NA
ATOM     22  C   UNL A   1      37.350  31.658  31.424  1.00  0.00     0.031 C 
ATOM     23  C   UNL A   1      39.009  28.902  27.563  1.00  0.00     0.029 A 
ATOM     24  N   UNL A   1      40.306  29.017  29.383  1.00  0.00    -0.354 N 
ATOM     25  C   UNL A   1      39.087  31.239  32.858  1.00  0.00     0.074 A 
ATOM     26  C   UNL A   1      37.849  31.951  32.618  1.00  0.00     0.031 C 
ATOM     27  C   UNL A   1      40.095  28.145  27.333  1.00  0.00     0.029 A 
ATOM     28  C   UNL A   1      40.949  28.164  28.517  1.00  0.00     0.049 A 
ATOM     29  H   UNL A   1      40.682  29.288  30.252  1.00  0.00     0.167 HD
ATOM     30  C   UNL A   1      39.792  31.303  34.012  1.00  0.00     0.034 A 
ATOM     31  C   UNL A   1      42.073  27.440  28.677  1.00  0.00     0.034 A 
ATOM     32  C   UNL A   1      40.994  30.560  34.278  1.00  0.00     0.049 A 
ATOM     33  C   UNL A   1      42.822  27.507  29.977  1.00  0.00     0.074 A 
ATOM     34  C   UNL A   1      41.755  30.533  35.434  1.00  0.00     0.029 A 
ATOM     35  N   UNL A   1      41.611  29.711  33.374  1.00  0.00    -0.354 N 
ATOM     36  N   UNL A   1      42.493  28.125  31.085  1.00  0.00    -0.248 NA
ATOM     37  C   UNL A   1      44.086  26.760  30.052  1.00  0.00     0.031 C 
ATOM     38  C   UNL A   1      42.818  29.642  35.238  1.00  0.00     0.029 A 
ATOM     39  C   UNL A   1      42.737  29.145  33.948  1.00  0.00     0.049 A 
ATOM     40  H   UNL A   1      41.296  29.535  32.457  1.00  0.00     0.167 HD
ATOM     41  C   UNL A   1      43.495  27.821  31.996  1.00  0.00     0.074 A 
ATOM     42  C   UNL A   1      44.439  26.959  31.315  1.00  0.00     0.031 C 
ATOM     43  C   UNL A   1      43.630  28.237  33.279  1.00  0.00     0.034 A 
BRANCH  30  44
ATOM     44  C   UNL A   1      39.218  32.141  35.117  1.00  0.00     0.023 A 
ATOM     45  C   UNL A   1      39.374  33.539  35.047  1.00  0.00     0.012 A 
ATOM     46  C   UNL A   1      38.527  31.578  36.202  1.00  0.00     0.148 A 
ATOM     47  C   UNL A   1      38.850  34.364  36.042  1.00  0.00     0.002 A 
ATOM     48  C   UNL A   1      38.015  32.406  37.196  1.00  0.00     0.091 A 
ATOM     49  F   UNL A   1      38.394  30.244  36.269  1.00  0.00    -0.205 F 
ATOM     50  C   UNL A   1      38.171  33.799  37.120  1.00  0.00     0.022 A 
BRANCH  48  51
ATOM     51  S   UNL A   1      37.179  31.680  38.608  1.00  0.00     0.127 S 
ATOM     52  O   UNL A   1      35.934  32.441  38.671  1.00  0.00    -0.237 OA
ATOM     53  O   UNL A   1      37.002  30.280  38.215  1.00  0.00    -0.237 OA
ATOM     54  O   UNL A   1      38.127  31.881  39.698  1.00  0.00    -0.744 OA
ENDBRANCH  48  51
ENDBRANCH  30  44
BRANCH  31  55
ATOM     55  C   UNL A   1      42.477  26.477  27.620  1.00  0.00     0.023 A 
ATOM     56  C   UNL A   1      43.456  26.871  26.688  1.00  0.00     0.012 A 
ATOM     57  C   UNL A   1      41.954  25.176  27.560  1.00  0.00     0.148 A 
ATOM     58  C   UNL A   1      43.901  25.982  25.708  1.00  0.00     0.002 A 
ATOM     59  C   UNL A   1      42.421  24.288  26.596  1.00  0.00     0.091 A 
ATOM     60  F   UNL A   1      41.027  24.808  28.456  1.00  0.00    -0.205 F 
ATOM     61  C   UNL A   1      43.390  24.687  25.665  1.00  0.00     0.022 A 
BRANCH  59  62
ATOM     62  S   UNL A   1      41.817  22.599  26.590  1.00  0.00     0.127 S 
ATOM     63  O   UNL A   1      42.366  22.063  25.349  1.00  0.00    -0.237 OA
ATOM     64  O   UNL A   1      42.399  22.028  27.806  1.00  0.00    -0.237 OA
ATOM     65  O   UNL A   1      40.370  22.776  26.646  1.00  0.00    -0.744 OA
ENDBRANCH  59  62
ENDBRANCH  31  55
BRANCH  43  66
ATOM     66  C   UNL A   1      44.841  27.767  34.027  1.00  0.00     0.023 A 
ATOM     67  C   UNL A   1      46.004  28.559  34.001  1.00  0.00     0.012 A 
ATOM     68  C   UNL A   1      44.824  26.587  34.788  1.00  0.00     0.148 A 
ATOM     69  C   UNL A   1      47.139  28.176  34.716  1.00  0.00     0.002 A 
ATOM     70  C   UNL A   1      45.958  26.214  35.505  1.00  0.00     0.091 A 
ATOM     71  F   UNL A   1      43.710  25.840  34.809  1.00  0.00    -0.205 F 
ATOM     72  C   UNL A   1      47.117  27.004  35.471  1.00  0.00     0.022 A 
BRANCH  70  73
ATOM     73  S   UNL A   1      45.929  24.710  36.485  1.00  0.00     0.127 S 
ATOM     74  O   UNL A   1      45.258  23.759  35.605  1.00  0.00    -0.237 OA
ATOM     75  O   UNL A   1      47.347  24.423  36.708  1.00  0.00    -0.237 OA
ATOM     76  O   UNL A   1      45.204  25.111  37.687  1.00  0.00    -0.744 OA
ENDBRANCH  70  73
ENDBRANCH  43  66
ENDBRANCH  17  18
ENDBRANCH  10  12
ENDBRANCH   7   8
ENDBRANCH   6   7
ENDBRANCH   5   6
ENDBRANCH   1   5
BRANCH   2  77
ATOM     77  C   UNL A   1      32.058  25.244  22.584  1.00  0.00     0.097 A 
ATOM     78  S   UNL A   1      33.002  23.840  22.354  1.00  0.00    -0.130 S 
ATOM     79  C   UNL A   1      31.442  25.262  23.830  1.00  0.00    -0.007 A 
ATOM     80  C   UNL A   1      32.429  23.117  23.799  1.00  0.00     0.035 A 
ATOM     81  C   UNL A   1      31.590  23.981  24.506  1.00  0.00    -0.003 A 
ATOM     82  C   UNL A   1      32.740  21.826  24.272  1.00  0.00     0.019 A 
ATOM     83  C   UNL A   1      31.049  23.505  25.730  1.00  0.00     0.010 A 
ATOM     84  C   UNL A   1      32.190  21.393  25.479  1.00  0.00     0.001 A 
ATOM     85  C   UNL A   1      31.351  22.223  26.203  1.00  0.00     0.001 A 
BRANCH  79  86
ATOM     86  C   UNL A   1      30.664  26.420  24.393  1.00  0.00     0.107 C 
BRANCH  86  87
ATOM     87  S   UNL A   1      29.121  26.848  23.512  1.00  0.00    -0.154 SA
BRANCH  87  88
ATOM     88  C   UNL A   1      29.511  28.480  22.774  1.00  0.00     0.104 C 
BRANCH  88  89
ATOM     89  C   UNL A   1      28.409  29.504  23.040  1.00  0.00     0.149 C 
BRANCH  89  90
ATOM     90  C   UNL A   1      29.009  30.872  23.382  1.00  0.00     0.188 C 
BRANCH  90  91
ATOM     91  O   UNL A   1      30.154  30.691  24.217  1.00  0.00    -0.394 OA
ATOM     92  H   UNL A   1      30.765  31.434  24.093  1.00  0.00     0.210 HD
ENDBRANCH  90  91
ENDBRANCH  89  90
BRANCH  89  93
ATOM     93  O   UNL A   1      27.583  29.674  21.873  1.00  0.00    -0.390 OA
ATOM     94  H   UNL A   1      28.023  29.275  21.106  1.00  0.00     0.211 HD
ENDBRANCH  89  93
ENDBRANCH  88  89
ENDBRANCH  87  88
ENDBRANCH  86  87
ENDBRANCH  79  86
ENDBRANCH   2  77
TORSDOF 20
ENDMDL
MODEL 2
REMARK VINA RESULT:     -10.9      5.710      8.386
REMARK SMILES O=C(NCCCNC(=O)c1sc2ccccc2c1CSC[C@H](O)CO)c1ccc(-c2c3nc(c(-c4cccc(S(=O)(=O)[O-])c4F)c4ccc([nH]4)c(-c4cccc(S(=O)(=O)[O-])c4F)c4nc(c(-c5cccc(S(=O)(=O)[O-])c5F)c5ccc2[nH]5)C=C4)C=C3)cc1
REMARK SMILES IDX 7 1 8 2 9 3 6 5 5 6 4 7 3 8 1 9 2 10 26 12 27 13 88 14 28 15
REMARK SMILES IDX 87 16 29 17 30 18 31 19 81 20 32 21 86 22 80 23 82 24 33 25
REMARK SMILES IDX 85 26 79 27 78 28 34 30 66 31 46 32 65 33 47 34 50 35 64 36
REMARK SMILES IDX 83 37 48 38 49 39 63 41 84 42 51 43 35 44 36 45 44 46 37 47
REMARK SMILES IDX 39 48 45 49 38 50 40 51 41 52 42 53 43 54 67 55 68 56 76 57
REMARK SMILES IDX 69 58 71 59 77 60 70 61 72 62 73 63 74 64 75 65 52 66 53 67
REMARK SMILES IDX 61 68 54 69 56 70 62 71 55 72 57 73 58 74 59 75 60 76 10 77
REMARK SMILES IDX 11 78 18 79 12 80 17 81 13 82 16 83 14 84 15 85 19 86 20 87
REMARK SMILES IDX 21 88 22 89 24 90 25 91 23 93
REMARK H PARENT 7 4 3 11 82 29 50 40 25 92 23 94
REMARK Flexibility Score: inf
ROOT
ATOM      1  N   UNL A   1      34.883  22.153  27.068  1.00  0.00    -0.351 N 
ATOM      2  C   UNL A   1      33.639  22.734  27.052  1.00  0.00     0.261 C 
ATOM      3  O   UNL A   1      32.902  22.519  28.014  1.00  0.00    -0.268 OA
ATOM      4  H   UNL A   1      35.071  21.599  27.861  1.00  0.00     0.163 HD
ENDROOT
BRANCH   1   5
ATOM      5  C   UNL A   1      35.969  22.224  26.105  1.00  0.00     0.118 C 
BRANCH   5   6
ATOM      6  C   UNL A   1      36.179  20.923  25.334  1.00  0.00     0.042 C 
BRANCH   6   7
ATOM      7  C   UNL A   1      37.531  20.782  24.634  1.00  0.00     0.118 C 
BRANCH   7   8
ATOM      8  N   UNL A   1      38.465  19.938  25.361  1.00  0.00    -0.352 N 
ATOM      9  O   UNL A   1      40.326  19.275  26.400  1.00  0.00    -0.269 OA
ATOM     10  C   UNL A   1      39.656  20.217  25.983  1.00  0.00     0.251 C 
ATOM     11  H   UNL A   1      38.194  18.993  25.416  1.00  0.00     0.163 HD
BRANCH  10  12
ATOM     12  C   UNL A   1      40.155  21.603  26.154  1.00  0.00     0.039 A 
ATOM     13  C   UNL A   1      39.307  22.670  26.457  1.00  0.00     0.014 A 
ATOM     14  C   UNL A   1      41.540  21.820  26.101  1.00  0.00     0.014 A 
ATOM     15  C   UNL A   1      39.828  23.958  26.602  1.00  0.00     0.010 A 
ATOM     16  C   UNL A   1      42.067  23.102  26.296  1.00  0.00     0.010 A 
ATOM     17  C   UNL A   1      41.211  24.187  26.521  1.00  0.00    -0.014 A 
BRANCH  17  18
ATOM     18  C   UNL A   1      41.734  25.561  26.719  1.00  0.00     0.031 A 
ATOM     19  C   UNL A   1      40.990  26.556  27.564  1.00  0.00     0.074 A 
ATOM     20  C   UNL A   1      42.922  25.896  26.180  1.00  0.00     0.049 A 
ATOM     21  N   UNL A   1      41.387  27.725  27.996  1.00  0.00    -0.248 NA
ATOM     22  C   UNL A   1      39.629  26.190  27.984  1.00  0.00     0.031 C 
ATOM     23  C   UNL A   1      43.725  25.034  25.312  1.00  0.00     0.029 A 
ATOM     24  N   UNL A   1      43.676  27.033  26.316  1.00  0.00    -0.354 N 
ATOM     25  C   UNL A   1      40.328  28.240  28.730  1.00  0.00     0.074 A 
ATOM     26  C   UNL A   1      39.263  27.260  28.679  1.00  0.00     0.031 C 
ATOM     27  C   UNL A   1      44.889  25.647  25.044  1.00  0.00     0.029 A 
ATOM     28  C   UNL A   1      44.911  26.943  25.717  1.00  0.00     0.049 A 
ATOM     29  H   UNL A   1      43.365  27.836  26.793  1.00  0.00     0.167 HD
ATOM     30  C   UNL A   1      40.257  29.407  29.413  1.00  0.00     0.034 A 
ATOM     31  C   UNL A   1      45.960  27.787  25.747  1.00  0.00     0.034 A 
ATOM     32  C   UNL A   1      41.327  30.363  29.511  1.00  0.00     0.049 A 
ATOM     33  C   UNL A   1      45.867  29.061  26.534  1.00  0.00     0.074 A 
ATOM     34  C   UNL A   1      41.359  31.555  30.214  1.00  0.00     0.029 A 
ATOM     35  N   UNL A   1      42.558  30.234  28.888  1.00  0.00    -0.354 N 
ATOM     36  N   UNL A   1      44.903  29.474  27.320  1.00  0.00    -0.248 NA
ATOM     37  C   UNL A   1      47.016  29.975  26.453  1.00  0.00     0.031 C 
ATOM     38  C   UNL A   1      42.622  32.134  30.038  1.00  0.00     0.029 A 
ATOM     39  C   UNL A   1      43.361  31.318  29.198  1.00  0.00     0.049 A 
ATOM     40  H   UNL A   1      42.823  29.482  28.310  1.00  0.00     0.167 HD
ATOM     41  C   UNL A   1      45.339  30.683  27.847  1.00  0.00     0.074 A 
ATOM     42  C   UNL A   1      46.655  30.934  27.297  1.00  0.00     0.031 C 
ATOM     43  C   UNL A   1      44.694  31.520  28.695  1.00  0.00     0.034 A 
BRANCH  30  44
ATOM     44  C   UNL A   1      39.001  29.667  30.193  1.00  0.00     0.023 A 
ATOM     45  C   UNL A   1      38.799  28.957  31.393  1.00  0.00     0.012 A 
ATOM     46  C   UNL A   1      38.038  30.597  29.772  1.00  0.00     0.148 A 
ATOM     47  C   UNL A   1      37.655  29.169  32.161  1.00  0.00     0.002 A 
ATOM     48  C   UNL A   1      36.894  30.797  30.539  1.00  0.00     0.091 A 
ATOM     49  F   UNL A   1      38.230  31.259  28.621  1.00  0.00    -0.205 F 
ATOM     50  C   UNL A   1      36.699  30.089  31.734  1.00  0.00     0.022 A 
BRANCH  48  51
ATOM     51  S   UNL A   1      35.639  31.947  29.970  1.00  0.00     0.127 S 
ATOM     52  O   UNL A   1      36.416  33.145  29.665  1.00  0.00    -0.237 OA
ATOM     53  O   UNL A   1      35.080  31.283  28.790  1.00  0.00    -0.237 OA
ATOM     54  O   UNL A   1      34.723  32.029  31.102  1.00  0.00    -0.744 OA
ENDBRANCH  48  51
ENDBRANCH  30  44
BRANCH  31  55
ATOM     55  C   UNL A   1      47.243  27.377  25.121  1.00  0.00     0.023 A 
ATOM     56  C   UNL A   1      48.137  26.587  25.869  1.00  0.00     0.012 A 
ATOM     57  C   UNL A   1      47.563  27.705  23.794  1.00  0.00     0.148 A 
ATOM     58  C   UNL A   1      49.331  26.137  25.305  1.00  0.00     0.002 A 
ATOM     59  C   UNL A   1      48.744  27.232  23.230  1.00  0.00     0.091 A 
ATOM     60  F   UNL A   1      46.703  28.453  23.087  1.00  0.00    -0.205 F 
ATOM     61  C   UNL A   1      49.634  26.453  23.983  1.00  0.00     0.022 A 
BRANCH  59  62
ATOM     62  S   UNL A   1      49.095  27.578  21.506  1.00  0.00     0.127 S 
ATOM     63  O   UNL A   1      49.360  29.012  21.510  1.00  0.00    -0.237 OA
ATOM     64  O   UNL A   1      50.267  26.746  21.226  1.00  0.00    -0.237 OA
ATOM     65  O   UNL A   1      47.875  27.137  20.836  1.00  0.00    -0.744 OA
ENDBRANCH  59  62
ENDBRANCH  31  55
BRANCH  43  66
ATOM     66  C   UNL A   1      45.403  32.784  29.080  1.00  0.00     0.023 A 
ATOM     67  C   UNL A   1      46.305  32.754  30.160  1.00  0.00     0.012 A 
ATOM     68  C   UNL A   1      45.223  33.978  28.361  1.00  0.00     0.148 A 
ATOM     69  C   UNL A   1      47.012  33.900  30.524  1.00  0.00     0.002 A 
ATOM     70  C   UNL A   1      45.938  35.114  28.725  1.00  0.00     0.091 A 
ATOM     71  F   UNL A   1      44.363  33.996  27.331  1.00  0.00    -0.205 F 
ATOM     72  C   UNL A   1      46.832  35.082  29.806  1.00  0.00     0.022 A 
BRANCH  70  73
ATOM     73  S   UNL A   1      45.715  36.635  27.796  1.00  0.00     0.127 S 
ATOM     74  O   UNL A   1      46.119  36.256  26.447  1.00  0.00    -0.237 OA
ATOM     75  O   UNL A   1      44.284  36.912  27.938  1.00  0.00    -0.237 OA
ATOM     76  O   UNL A   1      46.579  37.581  28.494  1.00  0.00    -0.744 OA
ENDBRANCH  70  73
ENDBRANCH  43  66
ENDBRANCH  17  18
ENDBRANCH  10  12
ENDBRANCH   7   8
ENDBRANCH   6   7
ENDBRANCH   5   6
ENDBRANCH   1   5
BRANCH   2  77
ATOM     77  C   UNL A   1      33.254  23.577  25.937  1.00  0.00     0.097 A 
ATOM     78  S   UNL A   1      33.969  25.119  25.789  1.00  0.00    -0.130 S 
ATOM     79  C   UNL A   1      32.467  23.256  24.837  1.00  0.00    -0.007 A 
ATOM     80  C   UNL A   1      33.069  25.494  24.380  1.00  0.00     0.035 A 
ATOM     81  C   UNL A   1      32.291  24.409  23.966  1.00  0.00    -0.003 A 
ATOM     82  C   UNL A   1      33.080  26.715  23.677  1.00  0.00     0.019 A 
ATOM     83  C   UNL A   1      31.497  24.586  22.802  1.00  0.00     0.010 A 
ATOM     84  C   UNL A   1      32.287  26.851  22.537  1.00  0.00     0.001 A 
ATOM     85  C   UNL A   1      31.501  25.797  22.102  1.00  0.00     0.001 A 
BRANCH  79  86
ATOM     86  C   UNL A   1      31.821  21.920  24.595  1.00  0.00     0.107 C 
BRANCH  86  87
ATOM     87  S   UNL A   1      32.569  20.899  23.276  1.00  0.00    -0.154 SA
BRANCH  87  88
ATOM     88  C   UNL A   1      32.456  19.202  23.957  1.00  0.00     0.104 C 
BRANCH  88  89
ATOM     89  C   UNL A   1      32.864  18.146  22.930  1.00  0.00     0.149 C 
BRANCH  89  90
ATOM     90  C   UNL A   1      33.418  16.898  23.624  1.00  0.00     0.188 C 
BRANCH  90  91
ATOM     91  O   UNL A   1      34.266  16.190  22.718  1.00  0.00    -0.394 OA
ATOM     92  H   UNL A   1      34.148  15.236  22.845  1.00  0.00     0.210 HD
ENDBRANCH  90  91
ENDBRANCH  89  90
BRANCH  89  93
ATOM     93  O   UNL A   1      31.728  17.738  22.147  1.00  0.00    -0.390 OA
ATOM     94  H   UNL A   1      30.997  18.358  22.291  1.00  0.00     0.211 HD
ENDBRANCH  89  93
ENDBRANCH  88  89
ENDBRANCH  87  88
ENDBRANCH  86  87
ENDBRANCH  79  86
ENDBRANCH   2  77
TORSDOF 20
ENDMDL
MODEL 3
REMARK VINA RESULT:     -10.5      5.674     10.307
REMARK SMILES O=C(NCCCNC(=O)c1sc2ccccc2c1CSC[C@H](O)CO)c1ccc(-c2c3nc(c(-c4cccc(S(=O)(=O)[O-])c4F)c4ccc([nH]4)c(-c4cccc(S(=O)(=O)[O-])c4F)c4nc(c(-c5cccc(S(=O)(=O)[O-])c5F)c5ccc2[nH]5)C=C4)C=C3)cc1
REMARK SMILES IDX 7 1 8 2 9 3 6 5 5 6 4 7 3 8 1 9 2 10 26 12 27 13 88 14 28 15
REMARK SMILES IDX 87 16 29 17 30 18 31 19 81 20 32 21 86 22 80 23 82 24 33 25
REMARK SMILES IDX 85 26 79 27 78 28 34 30 66 31 46 32 65 33 47 34 50 35 64 36
REMARK SMILES IDX 83 37 48 38 49 39 63 41 84 42 51 43 35 44 36 45 44 46 37 47
REMARK SMILES IDX 39 48 45 49 38 50 40 51 41 52 42 53 43 54 67 55 68 56 76 57
REMARK SMILES IDX 69 58 71 59 77 60 70 61 72 62 73 63 74 64 75 65 52 66 53 67
REMARK SMILES IDX 61 68 54 69 56 70 62 71 55 72 57 73 58 74 59 75 60 76 10 77
REMARK SMILES IDX 11 78 18 79 12 80 17 81 13 82 16 83 14 84 15 85 19 86 20 87
REMARK SMILES IDX 21 88 22 89 24 90 25 91 23 93
REMARK H PARENT 7 4 3 11 82 29 50 40 25 92 23 94
REMARK Flexibility Score: inf
ROOT
ATOM      1  N   UNL A   1      33.900  23.516  26.576  1.00  0.00    -0.351 N 
ATOM      2  C   UNL A   1      32.699  23.015  26.136  1.00  0.00     0.261 C 
ATOM      3  O   UNL A   1      31.687  23.670  26.383  1.00  0.00    -0.268 OA
ATOM      4  H   UNL A   1      33.837  24.367  27.068  1.00  0.00     0.163 HD
ENDROOT
BRANCH   1   5
ATOM      5  C   UNL A   1      35.248  22.994  26.434  1.00  0.00     0.118 C 
BRANCH   5   6
ATOM      6  C   UNL A   1      35.803  23.131  25.019  1.00  0.00     0.042 C 
BRANCH   6   7
ATOM      7  C   UNL A   1      37.328  23.140  24.907  1.00  0.00     0.118 C 
BRANCH   7   8
ATOM      8  N   UNL A   1      37.957  22.003  25.557  1.00  0.00    -0.352 N 
ATOM      9  O   UNL A   1      39.485  20.772  26.622  1.00  0.00    -0.269 OA
ATOM     10  C   UNL A   1      39.097  21.897  26.314  1.00  0.00     0.251 C 
ATOM     11  H   UNL A   1      37.477  21.152  25.433  1.00  0.00     0.163 HD
BRANCH  10  12
ATOM     12  C   UNL A   1      39.870  23.084  26.753  1.00  0.00     0.039 A 
ATOM     13  C   UNL A   1      40.878  23.003  27.715  1.00  0.00     0.014 A 
ATOM     14  C   UNL A   1      39.636  24.305  26.103  1.00  0.00     0.014 A 
ATOM     15  C   UNL A   1      41.574  24.153  28.098  1.00  0.00     0.010 A 
ATOM     16  C   UNL A   1      40.368  25.447  26.451  1.00  0.00     0.010 A 
ATOM     17  C   UNL A   1      41.324  25.385  27.472  1.00  0.00    -0.014 A 
BRANCH  17  18
ATOM     18  C   UNL A   1      42.107  26.579  27.876  1.00  0.00     0.031 A 
ATOM     19  C   UNL A   1      43.489  26.813  27.336  1.00  0.00     0.074 A 
ATOM     20  C   UNL A   1      41.543  27.490  28.690  1.00  0.00     0.049 A 
ATOM     21  N   UNL A   1      44.236  27.884  27.429  1.00  0.00    -0.248 NA
ATOM     22  C   UNL A   1      44.112  25.709  26.589  1.00  0.00     0.031 C 
ATOM     23  C   UNL A   1      40.223  27.362  29.310  1.00  0.00     0.029 A 
ATOM     24  N   UNL A   1      41.991  28.719  29.104  1.00  0.00    -0.354 N 
ATOM     25  C   UNL A   1      45.417  27.583  26.764  1.00  0.00     0.074 A 
ATOM     26  C   UNL A   1      45.294  26.225  26.278  1.00  0.00     0.031 C 
ATOM     27  C   UNL A   1      39.941  28.496  29.972  1.00  0.00     0.029 A 
ATOM     28  C   UNL A   1      41.059  29.424  29.828  1.00  0.00     0.049 A 
ATOM     29  H   UNL A   1      42.892  29.062  28.904  1.00  0.00     0.167 HD
ATOM     30  C   UNL A   1      46.493  28.375  26.548  1.00  0.00     0.034 A 
ATOM     31  C   UNL A   1      41.082  30.692  30.282  1.00  0.00     0.034 A 
ATOM     32  C   UNL A   1      46.603  29.742  26.984  1.00  0.00     0.049 A 
ATOM     33  C   UNL A   1      42.275  31.559  30.005  1.00  0.00     0.074 A 
ATOM     34  C   UNL A   1      47.641  30.634  26.775  1.00  0.00     0.029 A 
ATOM     35  N   UNL A   1      45.638  30.416  27.715  1.00  0.00    -0.354 N 
ATOM     36  N   UNL A   1      43.329  31.298  29.271  1.00  0.00    -0.248 NA
ATOM     37  C   UNL A   1      42.270  32.902  30.603  1.00  0.00     0.031 C 
ATOM     38  C   UNL A   1      47.290  31.859  27.358  1.00  0.00     0.029 A 
ATOM     39  C   UNL A   1      46.050  31.715  27.958  1.00  0.00     0.049 A 
ATOM     40  H   UNL A   1      44.785  30.027  28.018  1.00  0.00     0.167 HD
ATOM     41  C   UNL A   1      44.102  32.452  29.299  1.00  0.00     0.074 A 
ATOM     42  C   UNL A   1      43.392  33.416  30.115  1.00  0.00     0.031 C 
ATOM     43  C   UNL A   1      45.303  32.683  28.716  1.00  0.00     0.034 A 
BRANCH  30  44
ATOM     44  C   UNL A   1      47.605  27.806  25.716  1.00  0.00     0.023 A 
ATOM     45  C   UNL A   1      48.684  27.184  26.375  1.00  0.00     0.012 A 
ATOM     46  C   UNL A   1      47.595  27.863  24.313  1.00  0.00     0.148 A 
ATOM     47  C   UNL A   1      49.737  26.629  25.648  1.00  0.00     0.002 A 
ATOM     48  C   UNL A   1      48.653  27.315  23.595  1.00  0.00     0.091 A 
ATOM     49  F   UNL A   1      46.571  28.469  23.693  1.00  0.00    -0.205 F 
ATOM     50  C   UNL A   1      49.724  26.695  24.256  1.00  0.00     0.022 A 
BRANCH  48  51
ATOM     51  S   UNL A   1      48.663  27.438  21.805  1.00  0.00     0.127 S 
ATOM     52  O   UNL A   1      48.685  26.038  21.387  1.00  0.00    -0.237 OA
ATOM     53  O   UNL A   1      47.408  28.130  21.505  1.00  0.00    -0.237 OA
ATOM     54  O   UNL A   1      49.862  28.223  21.530  1.00  0.00    -0.744 OA
ENDBRANCH  48  51
ENDBRANCH  30  44
BRANCH  31  55
ATOM     55  C   UNL A   1      39.867  31.258  30.923  1.00  0.00     0.023 A 
ATOM     56  C   UNL A   1      38.828  31.732  30.099  1.00  0.00     0.012 A 
ATOM     57  C   UNL A   1      39.705  31.283  32.317  1.00  0.00     0.148 A 
ATOM     58  C   UNL A   1      37.649  32.227  30.657  1.00  0.00     0.002 A 
ATOM     59  C   UNL A   1      38.516  31.755  32.865  1.00  0.00     0.091 A 
ATOM     60  F   UNL A   1      40.697  30.825  33.093  1.00  0.00    -0.205 F 
ATOM     61  C   UNL A   1      37.488  32.233  32.041  1.00  0.00     0.022 A 
BRANCH  59  62
ATOM     62  S   UNL A   1      38.281  31.691  34.643  1.00  0.00     0.127 S 
ATOM     63  O   UNL A   1      36.987  32.340  34.822  1.00  0.00    -0.237 OA
ATOM     64  O   UNL A   1      38.285  30.256  34.932  1.00  0.00    -0.237 OA
ATOM     65  O   UNL A   1      39.449  32.407  35.146  1.00  0.00    -0.744 OA
ENDBRANCH  59  62
ENDBRANCH  31  55
BRANCH  43  66
ATOM     66  C   UNL A   1      45.925  34.029  28.939  1.00  0.00     0.023 A 
ATOM     67  C   UNL A   1      46.744  34.218  30.067  1.00  0.00     0.012 A 
ATOM     68  C   UNL A   1      45.747  35.083  28.028  1.00  0.00     0.148 A 
ATOM     69  C   UNL A   1      47.372  35.444  30.289  1.00  0.00     0.002 A 
ATOM     70  C   UNL A   1      46.382  36.300  28.252  1.00  0.00     0.091 A 
ATOM     71  F   UNL A   1      44.965  34.892  26.954  1.00  0.00    -0.205 F 
ATOM     72  C   UNL A   1      47.194  36.486  29.381  1.00  0.00     0.022 A 
BRANCH  70  73
ATOM     73  S   UNL A   1      46.162  37.641  27.079  1.00  0.00     0.127 S 
ATOM     74  O   UNL A   1      44.713  37.807  27.040  1.00  0.00    -0.237 OA
ATOM     75  O   UNL A   1      46.876  38.758  27.701  1.00  0.00    -0.237 OA
ATOM     76  O   UNL A   1      46.792  37.130  25.867  1.00  0.00    -0.744 OA
ENDBRANCH  70  73
ENDBRANCH  43  66
ENDBRANCH  17  18
ENDBRANCH  10  12
ENDBRANCH   7   8
ENDBRANCH   6   7
ENDBRANCH   5   6
ENDBRANCH   1   5
BRANCH   2  77
ATOM     77  C   UNL A   1      32.669  21.769  25.394  1.00  0.00     0.097 A 
ATOM     78  S   UNL A   1      32.928  20.307  26.236  1.00  0.00    -0.130 S 
ATOM     79  C   UNL A   1      32.301  21.555  24.072  1.00  0.00    -0.007 A 
ATOM     80  C   UNL A   1      32.790  19.365  24.810  1.00  0.00     0.035 A 
ATOM     81  C   UNL A   1      32.453  20.154  23.707  1.00  0.00    -0.003 A 
ATOM     82  C   UNL A   1      32.967  17.971  24.705  1.00  0.00     0.019 A 
ATOM     83  C   UNL A   1      32.302  19.493  22.459  1.00  0.00     0.010 A 
ATOM     84  C   UNL A   1      32.809  17.358  23.462  1.00  0.00     0.001 A 
ATOM     85  C   UNL A   1      32.480  18.110  22.347  1.00  0.00     0.001 A 
BRANCH  79  86
ATOM     86  C   UNL A   1      31.864  22.626  23.110  1.00  0.00     0.107 C 
BRANCH  86  87
ATOM     87  S   UNL A   1      33.169  23.305  22.026  1.00  0.00    -0.154 SA
BRANCH  87  88
ATOM     88  C   UNL A   1      33.460  24.972  22.730  1.00  0.00     0.104 C 
BRANCH  88  89
ATOM     89  C   UNL A   1      32.785  26.066  21.902  1.00  0.00     0.149 C 
BRANCH  89  90
ATOM     90  C   UNL A   1      33.191  27.455  22.406  1.00  0.00     0.188 C 
BRANCH  90  91
ATOM     91  O   UNL A   1      33.959  28.118  21.400  1.00  0.00    -0.394 OA
ATOM     92  H   UNL A   1      34.163  27.494  20.686  1.00  0.00     0.210 HD
ENDBRANCH  90  91
ENDBRANCH  89  90
BRANCH  89  93
ATOM     93  O   UNL A   1      33.183  25.973  20.522  1.00  0.00    -0.390 OA
ATOM     94  H   UNL A   1      32.483  25.534  20.014  1.00  0.00     0.211 HD
ENDBRANCH  89  93
ENDBRANCH  88  89
ENDBRANCH  87  88
ENDBRANCH  86  87
ENDBRANCH  79  86
ENDBRANCH   2  77
TORSDOF 20
ENDMDL
