MODEL 1
REMARK VINA RESULT:     -12.9      0.000      0.000
REMARK SMILES CCc1ncc(C[N@H+]2CCC[C@@H](c3cccc(C(=O)NCCCNC(=O)c4ccc(-c5c6nc(c(-c7cccc(S(=O)(=O)[O-])c7F)c7ccc([nH]7)c(-c7cccc(S(=O)(=O)[O-])c7F)c7nc(c(-c8cccc(S(=O)(=O)[O-])c8F)c8ccc5[nH]8)C=C7)C=C6)cc4)c3)C2)cn1
REMARK SMILES IDX 21 1 20 2 18 3 19 4 17 6 13 7 14 8 90 9 15 10 16 11 12 12
REMARK SMILES IDX 8 13 9 14 91 15 10 17 11 18 7 19 6 20 3 21 4 22 93 23 5 24
REMARK SMILES IDX 92 25 2 26 1 27 22 28 23 29 24 30 25 31 26 33 27 34 28 35
REMARK SMILES IDX 89 36 29 37 88 38 30 39 31 40 32 41 82 42 33 43 87 44 81 45
REMARK SMILES IDX 83 46 34 47 86 48 80 49 79 50 35 52 67 53 47 54 66 55 48 56
REMARK SMILES IDX 51 57 65 58 84 59 49 60 50 61 64 63 85 64 52 65 36 66 37 67
REMARK SMILES IDX 45 68 38 69 40 70 46 71 39 72 41 73 42 74 43 75 44 76 68 77
REMARK SMILES IDX 69 78 77 79 70 80 72 81 78 82 71 83 73 84 74 85 75 86 76 87
REMARK SMILES IDX 53 88 54 89 62 90 55 91 57 92 63 93 56 94 58 95 59 96 60 97
REMARK SMILES IDX 61 98
REMARK H PARENT 20 5 8 16 24 32 83 51 51 62
REMARK Flexibility Score: inf
ROOT
ATOM      1  C   UNL A   1      31.729  30.553  26.589  1.00  0.00     0.118 C 
ENDROOT
BRANCH   1   2
ATOM      2  N   UNL A   1      32.520  30.102  25.448  1.00  0.00    -0.352 N 
ATOM      3  C   UNL A   1      32.307  29.214  24.416  1.00  0.00     0.251 C 
ATOM      4  O   UNL A   1      33.197  29.098  23.571  1.00  0.00    -0.269 OA
ATOM      5  H   UNL A   1      33.405  30.530  25.405  1.00  0.00     0.163 HD
BRANCH   3   6
ATOM      6  C   UNL A   1      31.105  28.342  24.312  1.00  0.00     0.040 A 
ATOM      7  C   UNL A   1      30.064  26.164  24.569  1.00  0.00    -0.039 A 
ATOM      8  C   UNL A   1      29.009  26.568  23.748  1.00  0.00     0.004 A 
ATOM      9  C   UNL A   1      30.996  27.124  24.966  1.00  0.00     0.018 A 
ATOM     10  C   UNL A   1      28.977  27.870  23.246  1.00  0.00     0.001 A 
ATOM     11  C   UNL A   1      30.049  28.734  23.481  1.00  0.00     0.014 A 
BRANCH   7  12
ATOM     12  C   UNL A   1      30.290  24.741  25.045  1.00  0.00     0.074 C 
ATOM     13  N   UNL A   1      31.994  22.909  25.087  1.00  0.00    -0.331 N 
ATOM     14  C   UNL A   1      31.785  22.738  26.532  1.00  0.00     0.262 C 
ATOM     15  C   UNL A   1      31.693  24.282  24.656  1.00  0.00     0.270 C 
ATOM     16  H   UNL A   1      31.326  22.290  24.627  1.00  0.00     0.348 HD
ATOM     17  C   UNL A   1      30.358  23.106  26.944  1.00  0.00     0.062 C 
ATOM     18  C   UNL A   1      30.026  24.540  26.543  1.00  0.00     0.020 C 
BRANCH  13  19
ATOM     19  C   UNL A   1      33.325  22.461  24.631  1.00  0.00     0.302 C 
BRANCH  19  20
ATOM     20  C   UNL A   1      33.422  21.007  24.269  1.00  0.00     0.043 A 
ATOM     21  C   UNL A   1      33.381  18.309  23.972  1.00  0.00     0.127 A 
ATOM     22  N   UNL A   1      32.390  19.021  23.402  1.00  0.00    -0.241 NA
ATOM     23  N   UNL A   1      34.435  18.850  24.610  1.00  0.00    -0.241 NA
ATOM     24  C   UNL A   1      32.438  20.357  23.559  1.00  0.00     0.124 A 
ATOM     25  C   UNL A   1      34.434  20.190  24.731  1.00  0.00     0.124 A 
BRANCH  21  26
ATOM     26  C   UNL A   1      33.259  16.810  24.034  1.00  0.00     0.074 C 
ATOM     27  C   UNL A   1      33.466  16.223  25.421  1.00  0.00     0.012 C 
ENDBRANCH  21  26
ENDBRANCH  19  20
ENDBRANCH  13  19
ENDBRANCH   7  12
ENDBRANCH   3   6
ENDBRANCH   1   2
BRANCH   1  28
ATOM     28  C   UNL A   1      31.612  32.060  26.724  1.00  0.00     0.042 C 
BRANCH  28  29
ATOM     29  C   UNL A   1      32.870  32.728  27.241  1.00  0.00     0.118 C 
BRANCH  29  30
ATOM     30  N   UNL A   1      32.637  34.105  27.670  1.00  0.00    -0.352 N 
ATOM     31  C   UNL A   1      33.158  34.824  28.720  1.00  0.00     0.251 C 
ATOM     32  H   UNL A   1      31.999  34.605  27.112  1.00  0.00     0.163 HD
ATOM     33  O   UNL A   1      32.647  35.897  29.024  1.00  0.00    -0.269 OA
BRANCH  31  34
ATOM     34  C   UNL A   1      34.315  34.311  29.485  1.00  0.00     0.039 A 
ATOM     35  C   UNL A   1      34.091  33.567  30.647  1.00  0.00     0.014 A 
ATOM     36  C   UNL A   1      35.620  34.582  29.077  1.00  0.00     0.014 A 
ATOM     37  C   UNL A   1      35.177  33.038  31.351  1.00  0.00     0.010 A 
ATOM     38  C   UNL A   1      36.688  33.957  29.704  1.00  0.00     0.010 A 
ATOM     39  C   UNL A   1      36.484  33.195  30.861  1.00  0.00    -0.014 A 
BRANCH  39  40
ATOM     40  C   UNL A   1      37.653  32.582  31.539  1.00  0.00     0.031 A 
ATOM     41  C   UNL A   1      38.395  31.444  30.888  1.00  0.00     0.074 A 
ATOM     42  C   UNL A   1      37.980  32.975  32.787  1.00  0.00     0.049 A 
ATOM     43  N   UNL A   1      39.382  30.728  31.357  1.00  0.00    -0.248 NA
ATOM     44  C   UNL A   1      37.941  31.030  29.548  1.00  0.00     0.031 C 
ATOM     45  C   UNL A   1      37.276  33.999  33.563  1.00  0.00     0.029 A 
ATOM     46  N   UNL A   1      38.964  32.535  33.636  1.00  0.00    -0.354 N 
ATOM     47  C   UNL A   1      39.634  29.753  30.399  1.00  0.00     0.074 A 
ATOM     48  C   UNL A   1      38.670  29.945  29.338  1.00  0.00     0.031 C 
ATOM     49  C   UNL A   1      37.853  34.112  34.769  1.00  0.00     0.029 A 
ATOM     50  C   UNL A   1      38.941  33.144  34.869  1.00  0.00     0.049 A 
ATOM     51  H   UNL A   1      39.625  31.848  33.386  1.00  0.00     0.167 HD
ATOM     52  C   UNL A   1      40.596  28.801  30.388  1.00  0.00     0.034 A 
ATOM     53  C   UNL A   1      39.698  32.935  35.964  1.00  0.00     0.034 A 
ATOM     54  C   UNL A   1      41.581  28.648  31.423  1.00  0.00     0.049 A 
ATOM     55  C   UNL A   1      40.800  31.913  35.904  1.00  0.00     0.074 A 
ATOM     56  C   UNL A   1      42.668  27.793  31.455  1.00  0.00     0.029 A 
ATOM     57  N   UNL A   1      41.590  29.353  32.616  1.00  0.00    -0.354 N 
ATOM     58  N   UNL A   1      41.134  31.119  34.916  1.00  0.00    -0.248 NA
ATOM     59  C   UNL A   1      41.652  31.785  37.094  1.00  0.00     0.031 C 
ATOM     60  C   UNL A   1      43.312  27.954  32.686  1.00  0.00     0.029 A 
ATOM     61  C   UNL A   1      42.652  28.941  33.402  1.00  0.00     0.049 A 
ATOM     62  H   UNL A   1      40.937  30.046  32.868  1.00  0.00     0.167 HD
ATOM     63  C   UNL A   1      42.254  30.420  35.350  1.00  0.00     0.074 A 
ATOM     64  C   UNL A   1      42.553  30.903  36.684  1.00  0.00     0.031 C 
ATOM     65  C   UNL A   1      42.963  29.459  34.710  1.00  0.00     0.034 A 
BRANCH  52  66
ATOM     66  C   UNL A   1      40.654  27.874  29.201  1.00  0.00     0.023 A 
ATOM     67  C   UNL A   1      39.791  26.759  29.136  1.00  0.00     0.012 A 
ATOM     68  C   UNL A   1      41.528  28.131  28.127  1.00  0.00     0.148 A 
ATOM     69  C   UNL A   1      39.828  25.893  28.044  1.00  0.00     0.002 A 
ATOM     70  C   UNL A   1      41.522  27.293  27.018  1.00  0.00     0.091 A 
ATOM     71  F   UNL A   1      42.356  29.181  28.215  1.00  0.00    -0.205 F 
ATOM     72  C   UNL A   1      40.686  26.166  26.981  1.00  0.00     0.022 A 
BRANCH  70  73
ATOM     73  S   UNL A   1      42.526  27.608  25.563  1.00  0.00     0.127 S 
ATOM     74  O   UNL A   1      43.870  27.663  26.137  1.00  0.00    -0.237 OA
ATOM     75  O   UNL A   1      42.261  26.424  24.745  1.00  0.00    -0.237 OA
ATOM     76  O   UNL A   1      42.036  28.857  24.998  1.00  0.00    -0.744 OA
ENDBRANCH  70  73
ENDBRANCH  52  66
BRANCH  53  77
ATOM     77  C   UNL A   1      39.469  33.752  37.188  1.00  0.00     0.023 A 
ATOM     78  C   UNL A   1      39.919  35.086  37.231  1.00  0.00     0.012 A 
ATOM     79  C   UNL A   1      38.767  33.229  38.292  1.00  0.00     0.148 A 
ATOM     80  C   UNL A   1      39.703  35.873  38.362  1.00  0.00     0.002 A 
ATOM     81  C   UNL A   1      38.505  34.036  39.392  1.00  0.00     0.091 A 
ATOM     82  F   UNL A   1      38.353  31.955  38.233  1.00  0.00    -0.205 F 
ATOM     83  C   UNL A   1      38.989  35.353  39.438  1.00  0.00     0.022 A 
BRANCH  81  84
ATOM     84  S   UNL A   1      37.475  33.496  40.761  1.00  0.00     0.127 S 
ATOM     85  O   UNL A   1      37.321  34.731  41.526  1.00  0.00    -0.237 OA
ATOM     86  O   UNL A   1      36.268  33.044  40.068  1.00  0.00    -0.237 OA
ATOM     87  O   UNL A   1      38.221  32.433  41.422  1.00  0.00    -0.744 OA
ENDBRANCH  81  84
ENDBRANCH  53  77
BRANCH  65  88
ATOM     88  C   UNL A   1      44.161  28.883  35.418  1.00  0.00     0.023 A 
ATOM     89  C   UNL A   1      45.434  29.454  35.231  1.00  0.00     0.012 A 
ATOM     90  C   UNL A   1      44.007  27.820  36.331  1.00  0.00     0.148 A 
ATOM     91  C   UNL A   1      46.543  28.955  35.914  1.00  0.00     0.002 A 
ATOM     92  C   UNL A   1      45.105  27.363  37.048  1.00  0.00     0.091 A 
ATOM     93  F   UNL A   1      42.789  27.278  36.482  1.00  0.00    -0.205 F 
ATOM     94  C   UNL A   1      46.376  27.919  36.831  1.00  0.00     0.022 A 
BRANCH  92  95
ATOM     95  S   UNL A   1      44.967  26.105  38.323  1.00  0.00     0.127 S 
ATOM     96  O   UNL A   1      46.347  26.009  38.797  1.00  0.00    -0.237 OA
ATOM     97  O   UNL A   1      44.038  26.724  39.269  1.00  0.00    -0.237 OA
ATOM     98  O   UNL A   1      44.451  24.914  37.660  1.00  0.00    -0.744 OA
ENDBRANCH  92  95
ENDBRANCH  65  88
ENDBRANCH  39  40
ENDBRANCH  31  34
ENDBRANCH  29  30
ENDBRANCH  28  29
ENDBRANCH   1  28
TORSDOF 17
ENDMDL
MODEL 2
REMARK VINA RESULT:     -12.4      1.371      2.219
REMARK SMILES CCc1ncc(C[N@H+]2CCC[C@@H](c3cccc(C(=O)NCCCNC(=O)c4ccc(-c5c6nc(c(-c7cccc(S(=O)(=O)[O-])c7F)c7ccc([nH]7)c(-c7cccc(S(=O)(=O)[O-])c7F)c7nc(c(-c8cccc(S(=O)(=O)[O-])c8F)c8ccc5[nH]8)C=C7)C=C6)cc4)c3)C2)cn1
REMARK SMILES IDX 21 1 20 2 18 3 19 4 17 6 13 7 14 8 90 9 15 10 16 11 12 12
REMARK SMILES IDX 8 13 9 14 91 15 10 17 11 18 7 19 6 20 3 21 4 22 93 23 5 24
REMARK SMILES IDX 92 25 2 26 1 27 22 28 23 29 24 30 25 31 26 33 27 34 28 35
REMARK SMILES IDX 89 36 29 37 88 38 30 39 31 40 32 41 82 42 33 43 87 44 81 45
REMARK SMILES IDX 83 46 34 47 86 48 80 49 79 50 35 52 67 53 47 54 66 55 48 56
REMARK SMILES IDX 51 57 65 58 84 59 49 60 50 61 64 63 85 64 52 65 36 66 37 67
REMARK SMILES IDX 45 68 38 69 40 70 46 71 39 72 41 73 42 74 43 75 44 76 68 77
REMARK SMILES IDX 69 78 77 79 70 80 72 81 78 82 71 83 73 84 74 85 75 86 76 87
REMARK SMILES IDX 53 88 54 89 62 90 55 91 57 92 63 93 56 94 58 95 59 96 60 97
REMARK SMILES IDX 61 98
REMARK H PARENT 20 5 8 16 24 32 83 51 51 62
REMARK Flexibility Score: inf
ROOT
ATOM      1  C   UNL A   1      31.747  30.174  26.097  1.00  0.00     0.118 C 
ENDROOT
BRANCH   1   2
ATOM      2  N   UNL A   1      32.468  29.943  24.849  1.00  0.00    -0.352 N 
ATOM      3  C   UNL A   1      32.442  28.957  23.888  1.00  0.00     0.251 C 
ATOM      4  O   UNL A   1      33.176  29.096  22.907  1.00  0.00    -0.269 OA
ATOM      5  H   UNL A   1      33.119  30.653  24.648  1.00  0.00     0.163 HD
BRANCH   3   6
ATOM      6  C   UNL A   1      31.639  27.708  24.007  1.00  0.00     0.040 A 
ATOM      7  C   UNL A   1      31.481  25.292  23.840  1.00  0.00    -0.039 A 
ATOM      8  C   UNL A   1      30.088  25.382  23.809  1.00  0.00     0.004 A 
ATOM      9  C   UNL A   1      32.212  26.450  24.112  1.00  0.00     0.018 A 
ATOM     10  C   UNL A   1      29.468  26.627  23.922  1.00  0.00     0.001 A 
ATOM     11  C   UNL A   1      30.243  27.790  23.964  1.00  0.00     0.014 A 
BRANCH   7  12
ATOM     12  C   UNL A   1      32.269  24.023  23.571  1.00  0.00     0.074 C 
ATOM     13  N   UNL A   1      33.798  22.369  24.659  1.00  0.00    -0.331 N 
ATOM     14  C   UNL A   1      32.970  21.263  24.159  1.00  0.00     0.262 C 
ATOM     15  C   UNL A   1      33.011  23.597  24.836  1.00  0.00     0.270 C 
ATOM     16  H   UNL A   1      34.495  22.552  23.937  1.00  0.00     0.348 HD
ATOM     17  C   UNL A   1      32.279  21.625  22.842  1.00  0.00     0.062 C 
ATOM     18  C   UNL A   1      31.422  22.877  23.001  1.00  0.00     0.020 C 
BRANCH  13  19
ATOM     19  C   UNL A   1      34.568  22.022  25.871  1.00  0.00     0.302 C 
BRANCH  19  20
ATOM     20  C   UNL A   1      36.060  22.028  25.705  1.00  0.00     0.043 A 
ATOM     21  C   UNL A   1      38.769  21.895  25.803  1.00  0.00     0.127 A 
ATOM     22  N   UNL A   1      38.103  20.823  25.334  1.00  0.00    -0.241 NA
ATOM     23  N   UNL A   1      38.190  23.059  26.151  1.00  0.00    -0.241 NA
ATOM     24  C   UNL A   1      36.761  20.918  25.289  1.00  0.00     0.124 A 
ATOM     25  C   UNL A   1      36.847  23.098  26.081  1.00  0.00     0.124 A 
BRANCH  21  26
ATOM     26  C   UNL A   1      40.240  21.766  26.098  1.00  0.00     0.074 C 
ATOM     27  C   UNL A   1      40.596  21.890  27.570  1.00  0.00     0.012 C 
ENDBRANCH  21  26
ENDBRANCH  19  20
ENDBRANCH  13  19
ENDBRANCH   7  12
ENDBRANCH   3   6
ENDBRANCH   1   2
BRANCH   1  28
ATOM     28  C   UNL A   1      31.595  31.634  26.481  1.00  0.00     0.042 C 
BRANCH  28  29
ATOM     29  C   UNL A   1      32.759  32.183  27.282  1.00  0.00     0.118 C 
BRANCH  29  30
ATOM     30  N   UNL A   1      32.632  33.613  27.548  1.00  0.00    -0.352 N 
ATOM     31  C   UNL A   1      33.236  34.414  28.488  1.00  0.00     0.251 C 
ATOM     32  H   UNL A   1      32.007  34.086  26.952  1.00  0.00     0.163 HD
ATOM     33  O   UNL A   1      32.808  35.548  28.675  1.00  0.00    -0.269 OA
BRANCH  31  34
ATOM     34  C   UNL A   1      34.385  33.917  29.276  1.00  0.00     0.039 A 
ATOM     35  C   UNL A   1      34.170  32.956  30.268  1.00  0.00     0.014 A 
ATOM     36  C   UNL A   1      35.670  34.412  29.058  1.00  0.00     0.014 A 
ATOM     37  C   UNL A   1      35.256  32.446  30.986  1.00  0.00     0.010 A 
ATOM     38  C   UNL A   1      36.758  33.820  29.683  1.00  0.00     0.010 A 
ATOM     39  C   UNL A   1      36.565  32.845  30.670  1.00  0.00    -0.014 A 
BRANCH  39  40
ATOM     40  C   UNL A   1      37.747  32.267  31.357  1.00  0.00     0.031 A 
ATOM     41  C   UNL A   1      38.508  31.130  30.726  1.00  0.00     0.074 A 
ATOM     42  C   UNL A   1      38.069  32.691  32.595  1.00  0.00     0.049 A 
ATOM     43  N   UNL A   1      39.509  30.442  31.207  1.00  0.00    -0.248 NA
ATOM     44  C   UNL A   1      38.058  30.681  29.396  1.00  0.00     0.031 C 
ATOM     45  C   UNL A   1      37.349  33.717  33.353  1.00  0.00     0.029 A 
ATOM     46  N   UNL A   1      39.064  32.286  33.450  1.00  0.00    -0.354 N 
ATOM     47  C   UNL A   1      39.776  29.452  30.268  1.00  0.00     0.074 A 
ATOM     48  C   UNL A   1      38.807  29.605  29.206  1.00  0.00     0.031 C 
ATOM     49  C   UNL A   1      37.926  33.865  34.555  1.00  0.00     0.029 A 
ATOM     50  C   UNL A   1      39.032  32.919  34.671  1.00  0.00     0.049 A 
ATOM     51  H   UNL A   1      39.736  31.607  33.212  1.00  0.00     0.167 HD
ATOM     52  C   UNL A   1      40.756  28.518  30.273  1.00  0.00     0.034 A 
ATOM     53  C   UNL A   1      39.796  32.746  35.768  1.00  0.00     0.034 A 
ATOM     54  C   UNL A   1      41.746  28.404  31.309  1.00  0.00     0.049 A 
ATOM     55  C   UNL A   1      40.916  31.744  35.725  1.00  0.00     0.074 A 
ATOM     56  C   UNL A   1      42.849  27.570  31.355  1.00  0.00     0.029 A 
ATOM     57  N   UNL A   1      41.745  29.133  32.487  1.00  0.00    -0.354 N 
ATOM     58  N   UNL A   1      41.262  30.936  34.752  1.00  0.00    -0.248 NA
ATOM     59  C   UNL A   1      41.774  31.655  36.915  1.00  0.00     0.031 C 
ATOM     60  C   UNL A   1      43.493  27.767  32.580  1.00  0.00     0.029 A 
ATOM     61  C   UNL A   1      42.816  28.756  33.278  1.00  0.00     0.049 A 
ATOM     62  H   UNL A   1      41.080  29.819  32.727  1.00  0.00     0.167 HD
ATOM     63  C   UNL A   1      42.396  30.266  35.198  1.00  0.00     0.074 A 
ATOM     64  C   UNL A   1      42.690  30.781  36.520  1.00  0.00     0.031 C 
ATOM     65  C   UNL A   1      43.121  29.306  34.574  1.00  0.00     0.034 A 
BRANCH  52  66
ATOM     66  C   UNL A   1      40.828  27.568  29.105  1.00  0.00     0.023 A 
ATOM     67  C   UNL A   1      39.987  26.436  29.065  1.00  0.00     0.012 A 
ATOM     68  C   UNL A   1      41.694  27.821  28.023  1.00  0.00     0.148 A 
ATOM     69  C   UNL A   1      40.037  25.550  27.990  1.00  0.00     0.002 A 
ATOM     70  C   UNL A   1      41.701  26.961  26.931  1.00  0.00     0.091 A 
ATOM     71  F   UNL A   1      42.502  28.888  28.087  1.00  0.00    -0.205 F 
ATOM     72  C   UNL A   1      40.886  25.818  26.919  1.00  0.00     0.022 A 
BRANCH  70  73
ATOM     73  S   UNL A   1      42.694  27.265  25.466  1.00  0.00     0.127 S 
ATOM     74  O   UNL A   1      42.447  26.053  24.686  1.00  0.00    -0.237 OA
ATOM     75  O   UNL A   1      42.077  28.475  24.923  1.00  0.00    -0.237 OA
ATOM     76  O   UNL A   1      44.061  27.440  25.935  1.00  0.00    -0.744 OA
ENDBRANCH  70  73
ENDBRANCH  52  66
BRANCH  53  77
ATOM     77  C   UNL A   1      39.554  33.583  36.976  1.00  0.00     0.023 A 
ATOM     78  C   UNL A   1      39.993  34.921  36.996  1.00  0.00     0.012 A 
ATOM     79  C   UNL A   1      38.853  33.074  38.087  1.00  0.00     0.148 A 
ATOM     80  C   UNL A   1      39.766  35.727  38.112  1.00  0.00     0.002 A 
ATOM     81  C   UNL A   1      38.579  33.899  39.171  1.00  0.00     0.091 A 
ATOM     82  F   UNL A   1      38.450  31.796  38.049  1.00  0.00    -0.205 F 
ATOM     83  C   UNL A   1      39.052  35.220  39.194  1.00  0.00     0.022 A 
BRANCH  81  84
ATOM     84  S   UNL A   1      37.548  33.375  40.545  1.00  0.00     0.127 S 
ATOM     85  O   UNL A   1      37.483  34.590  41.352  1.00  0.00    -0.237 OA
ATOM     86  O   UNL A   1      36.302  33.017  39.866  1.00  0.00    -0.237 OA
ATOM     87  O   UNL A   1      38.244  32.249  41.154  1.00  0.00    -0.744 OA
ENDBRANCH  81  84
ENDBRANCH  53  77
BRANCH  65  88
ATOM     88  C   UNL A   1      44.331  28.766  35.291  1.00  0.00     0.023 A 
ATOM     89  C   UNL A   1      45.599  29.333  35.060  1.00  0.00     0.012 A 
ATOM     90  C   UNL A   1      44.194  27.745  36.252  1.00  0.00     0.148 A 
ATOM     91  C   UNL A   1      46.719  28.868  35.749  1.00  0.00     0.002 A 
ATOM     92  C   UNL A   1      45.304  27.324  36.974  1.00  0.00     0.091 A 
ATOM     93  F   UNL A   1      42.981  27.206  36.444  1.00  0.00    -0.205 F 
ATOM     94  C   UNL A   1      46.569  27.874  36.714  1.00  0.00     0.022 A 
BRANCH  92  95
ATOM     95  S   UNL A   1      45.188  26.123  38.305  1.00  0.00     0.127 S 
ATOM     96  O   UNL A   1      43.995  26.582  39.016  1.00  0.00    -0.237 OA
ATOM     97  O   UNL A   1      45.018  24.867  37.574  1.00  0.00    -0.237 OA
ATOM     98  O   UNL A   1      46.436  26.225  39.050  1.00  0.00    -0.744 OA
ENDBRANCH  92  95
ENDBRANCH  65  88
ENDBRANCH  39  40
ENDBRANCH  31  34
ENDBRANCH  29  30
ENDBRANCH  28  29
ENDBRANCH   1  28
TORSDOF 17
ENDMDL
MODEL 3
REMARK VINA RESULT:     -12.1      3.098      8.502
REMARK SMILES CCc1ncc(C[N@H+]2CCC[C@@H](c3cccc(C(=O)NCCCNC(=O)c4ccc(-c5c6nc(c(-c7cccc(S(=O)(=O)[O-])c7F)c7ccc([nH]7)c(-c7cccc(S(=O)(=O)[O-])c7F)c7nc(c(-c8cccc(S(=O)(=O)[O-])c8F)c8ccc5[nH]8)C=C7)C=C6)cc4)c3)C2)cn1
REMARK SMILES IDX 21 1 20 2 18 3 19 4 17 6 13 7 14 8 90 9 15 10 16 11 12 12
REMARK SMILES IDX 8 13 9 14 91 15 10 17 11 18 7 19 6 20 3 21 4 22 93 23 5 24
REMARK SMILES IDX 92 25 2 26 1 27 22 28 23 29 24 30 25 31 26 33 27 34 28 35
REMARK SMILES IDX 89 36 29 37 88 38 30 39 31 40 32 41 82 42 33 43 87 44 81 45
REMARK SMILES IDX 83 46 34 47 86 48 80 49 79 50 35 52 67 53 47 54 66 55 48 56
REMARK SMILES IDX 51 57 65 58 84 59 49 60 50 61 64 63 85 64 52 65 36 66 37 67
REMARK SMILES IDX 45 68 38 69 40 70 46 71 39 72 41 73 42 74 43 75 44 76 68 77
REMARK SMILES IDX 69 78 77 79 70 80 72 81 78 82 71 83 73 84 74 85 75 86 76 87
REMARK SMILES IDX 53 88 54 89 62 90 55 91 57 92 63 93 56 94 58 95 59 96 60 97
REMARK SMILES IDX 61 98
REMARK H PARENT 20 5 8 16 24 32 83 51 51 62
REMARK Flexibility Score: inf
ROOT
ATOM      1  C   UNL A   1      31.759  28.086  26.602  1.00  0.00     0.118 C 
ENDROOT
BRANCH   1   2
ATOM      2  N   UNL A   1      31.558  27.421  25.319  1.00  0.00    -0.352 N 
ATOM      3  C   UNL A   1      31.811  26.154  24.839  1.00  0.00     0.251 C 
ATOM      4  O   UNL A   1      31.468  25.904  23.681  1.00  0.00    -0.269 OA
ATOM      5  H   UNL A   1      31.149  28.009  24.644  1.00  0.00     0.163 HD
BRANCH   3   6
ATOM      6  C   UNL A   1      32.536  25.107  25.611  1.00  0.00     0.040 A 
ATOM      7  C   UNL A   1      34.431  23.610  25.846  1.00  0.00    -0.039 A 
ATOM      8  C   UNL A   1      33.727  22.861  26.791  1.00  0.00     0.004 A 
ATOM      9  C   UNL A   1      33.876  24.814  25.410  1.00  0.00     0.018 A 
ATOM     10  C   UNL A   1      32.446  23.259  27.179  1.00  0.00     0.001 A 
ATOM     11  C   UNL A   1      31.832  24.345  26.550  1.00  0.00     0.014 A 
BRANCH   7  12
ATOM     12  C   UNL A   1      35.756  23.196  25.232  1.00  0.00     0.074 C 
ATOM     13  N   UNL A   1      38.199  22.994  25.733  1.00  0.00    -0.331 N 
ATOM     14  C   UNL A   1      38.198  21.618  25.218  1.00  0.00     0.262 C 
ATOM     15  C   UNL A   1      36.878  23.378  26.251  1.00  0.00     0.270 C 
ATOM     16  H   UNL A   1      38.403  23.596  24.936  1.00  0.00     0.348 HD
ATOM     17  C   UNL A   1      37.141  21.423  24.128  1.00  0.00     0.062 C 
ATOM     18  C   UNL A   1      35.751  21.778  24.646  1.00  0.00     0.020 C 
BRANCH  13  19
ATOM     19  C   UNL A   1      39.277  23.253  26.709  1.00  0.00     0.302 C 
BRANCH  19  20
ATOM     20  C   UNL A   1      40.454  22.325  26.623  1.00  0.00     0.043 A 
ATOM     21  C   UNL A   1      42.377  20.470  26.144  1.00  0.00     0.127 A 
ATOM     22  N   UNL A   1      42.492  21.667  25.539  1.00  0.00    -0.241 NA
ATOM     23  N   UNL A   1      41.417  20.157  27.035  1.00  0.00    -0.241 NA
ATOM     24  C   UNL A   1      41.529  22.571  25.799  1.00  0.00     0.124 A 
ATOM     25  C   UNL A   1      40.485  21.101  27.260  1.00  0.00     0.124 A 
BRANCH  21  26
ATOM     26  C   UNL A   1      43.282  19.346  25.715  1.00  0.00     0.074 C 
ATOM     27  C   UNL A   1      43.261  18.139  26.638  1.00  0.00     0.012 C 
ENDBRANCH  21  26
ENDBRANCH  19  20
ENDBRANCH  13  19
ENDBRANCH   7  12
ENDBRANCH   3   6
ENDBRANCH   1   2
BRANCH   1  28
ATOM     28  C   UNL A   1      33.208  28.198  27.039  1.00  0.00     0.042 C 
BRANCH  28  29
ATOM     29  C   UNL A   1      34.028  29.159  26.203  1.00  0.00     0.118 C 
BRANCH  29  30
ATOM     30  N   UNL A   1      33.774  30.557  26.544  1.00  0.00    -0.352 N 
ATOM     31  C   UNL A   1      34.309  31.360  27.523  1.00  0.00     0.251 C 
ATOM     32  H   UNL A   1      33.105  31.001  25.974  1.00  0.00     0.163 HD
ATOM     33  O   UNL A   1      33.781  32.439  27.770  1.00  0.00    -0.269 OA
BRANCH  31  34
ATOM     34  C   UNL A   1      35.503  30.929  28.282  1.00  0.00     0.039 A 
ATOM     35  C   UNL A   1      36.659  31.715  28.244  1.00  0.00     0.014 A 
ATOM     36  C   UNL A   1      35.498  29.740  29.011  1.00  0.00     0.014 A 
ATOM     37  C   UNL A   1      37.777  31.341  28.995  1.00  0.00     0.010 A 
ATOM     38  C   UNL A   1      36.560  29.435  29.850  1.00  0.00     0.010 A 
ATOM     39  C   UNL A   1      37.721  30.218  29.837  1.00  0.00    -0.014 A 
BRANCH  39  40
ATOM     40  C   UNL A   1      38.861  29.835  30.708  1.00  0.00     0.031 A 
ATOM     41  C   UNL A   1      39.024  30.470  32.064  1.00  0.00     0.074 A 
ATOM     42  C   UNL A   1      39.808  29.000  30.234  1.00  0.00     0.049 A 
ATOM     43  N   UNL A   1      39.993  30.328  32.929  1.00  0.00    -0.248 NA
ATOM     44  C   UNL A   1      37.979  31.420  32.487  1.00  0.00     0.031 C 
ATOM     45  C   UNL A   1      39.814  28.397  28.899  1.00  0.00     0.029 A 
ATOM     46  N   UNL A   1      40.967  28.542  30.810  1.00  0.00    -0.354 N 
ATOM     47  C   UNL A   1      39.703  31.203  33.970  1.00  0.00     0.074 A 
ATOM     48  C   UNL A   1      38.488  31.899  33.613  1.00  0.00     0.031 C 
ATOM     49  C   UNL A   1      40.918  27.647  28.760  1.00  0.00     0.029 A 
ATOM     50  C   UNL A   1      41.717  27.745  29.977  1.00  0.00     0.049 A 
ATOM     51  H   UNL A   1      41.236  28.764  31.731  1.00  0.00     0.167 HD
ATOM     52  C   UNL A   1      40.372  31.391  35.132  1.00  0.00     0.034 A 
ATOM     53  C   UNL A   1      42.921  27.170  30.165  1.00  0.00     0.034 A 
ATOM     54  C   UNL A   1      41.553  30.660  35.503  1.00  0.00     0.049 A 
ATOM     55  C   UNL A   1      43.614  27.346  31.488  1.00  0.00     0.074 A 
ATOM     56  C   UNL A   1      42.241  30.689  36.703  1.00  0.00     0.029 A 
ATOM     57  N   UNL A   1      42.230  29.780  34.673  1.00  0.00    -0.354 N 
ATOM     58  N   UNL A   1      43.232  28.041  32.532  1.00  0.00    -0.248 NA
ATOM     59  C   UNL A   1      44.883  26.628  31.674  1.00  0.00     0.031 C 
ATOM     60  C   UNL A   1      43.358  29.856  36.584  1.00  0.00     0.029 A 
ATOM     61  C   UNL A   1      43.340  29.274  35.327  1.00  0.00     0.049 A 
ATOM     62  H   UNL A   1      41.961  29.549  33.755  1.00  0.00     0.167 HD
ATOM     63  C   UNL A   1      44.195  27.821  33.510  1.00  0.00     0.074 A 
ATOM     64  C   UNL A   1      45.166  26.908  32.939  1.00  0.00     0.031 C 
ATOM     65  C   UNL A   1      44.275  28.334  34.762  1.00  0.00     0.034 A 
BRANCH  52  66
ATOM     66  C   UNL A   1      39.821  32.402  36.105  1.00  0.00     0.023 A 
ATOM     67  C   UNL A   1      38.911  31.996  37.103  1.00  0.00     0.012 A 
ATOM     68  C   UNL A   1      40.239  33.747  36.062  1.00  0.00     0.148 A 
ATOM     69  C   UNL A   1      38.394  32.916  38.013  1.00  0.00     0.002 A 
ATOM     70  C   UNL A   1      39.760  34.648  37.004  1.00  0.00     0.091 A 
ATOM     71  F   UNL A   1      41.087  34.121  35.094  1.00  0.00    -0.205 F 
ATOM     72  C   UNL A   1      38.827  34.239  37.971  1.00  0.00     0.022 A 
BRANCH  70  73
ATOM     73  S   UNL A   1      40.322  36.351  37.088  1.00  0.00     0.127 S 
ATOM     74  O   UNL A   1      39.517  36.873  38.191  1.00  0.00    -0.237 OA
ATOM     75  O   UNL A   1      41.744  36.191  37.393  1.00  0.00    -0.237 OA
ATOM     76  O   UNL A   1      40.043  36.932  35.782  1.00  0.00    -0.744 OA
ENDBRANCH  70  73
ENDBRANCH  52  66
BRANCH  53  77
ATOM     77  C   UNL A   1      43.517  26.332  29.087  1.00  0.00     0.023 A 
ATOM     78  C   UNL A   1      43.274  24.945  29.069  1.00  0.00     0.012 A 
ATOM     79  C   UNL A   1      44.284  26.909  28.056  1.00  0.00     0.148 A 
ATOM     80  C   UNL A   1      43.811  24.143  28.061  1.00  0.00     0.002 A 
ATOM     81  C   UNL A   1      44.767  26.114  27.023  1.00  0.00     0.091 A 
ATOM     82  F   UNL A   1      44.508  28.230  28.096  1.00  0.00    -0.205 F 
ATOM     83  C   UNL A   1      44.548  24.727  27.035  1.00  0.00     0.022 A 
BRANCH  81  84
ATOM     84  S   UNL A   1      45.605  26.798  25.590  1.00  0.00     0.127 S 
ATOM     85  O   UNL A   1      45.794  25.612  24.759  1.00  0.00    -0.237 OA
ATOM     86  O   UNL A   1      44.614  27.751  25.089  1.00  0.00    -0.237 OA
ATOM     87  O   UNL A   1      46.824  27.412  26.101  1.00  0.00    -0.744 OA
ENDBRANCH  81  84
ENDBRANCH  53  77
BRANCH  65  88
ATOM     88  C   UNL A   1      45.430  27.898  35.625  1.00  0.00     0.023 A 
ATOM     89  C   UNL A   1      46.623  28.646  35.639  1.00  0.00     0.012 A 
ATOM     90  C   UNL A   1      45.300  26.786  36.482  1.00  0.00     0.148 A 
ATOM     91  C   UNL A   1      47.683  28.274  36.466  1.00  0.00     0.002 A 
ATOM     92  C   UNL A   1      46.339  26.454  37.342  1.00  0.00     0.091 A 
ATOM     93  F   UNL A   1      44.162  26.077  36.440  1.00  0.00    -0.205 F 
ATOM     94  C   UNL A   1      47.535  27.188  37.325  1.00  0.00     0.022 A 
BRANCH  92  95
ATOM     95  S   UNL A   1      46.200  25.135  38.554  1.00  0.00     0.127 S 
ATOM     96  O   UNL A   1      45.043  25.570  39.335  1.00  0.00    -0.237 OA
ATOM     97  O   UNL A   1      45.962  23.964  37.710  1.00  0.00    -0.237 OA
ATOM     98  O   UNL A   1      47.466  25.114  39.274  1.00  0.00    -0.744 OA
ENDBRANCH  92  95
ENDBRANCH  65  88
ENDBRANCH  39  40
ENDBRANCH  31  34
ENDBRANCH  29  30
ENDBRANCH  28  29
ENDBRANCH   1  28
TORSDOF 17
ENDMDL
