MODEL 1
REMARK VINA RESULT:     -11.5      0.000      0.000
REMARK SMILES C[C@@H](C(=O)NCCCNC(=O)c1ccc(-c2c3nc(c(-c4cccc(S(=O)(=O)[O-])c4F)c4ccc([nH]4)c(-c4cccc(S(=O)(=O)[O-])c4F)c4nc(c(-c5cccc(S(=O)(=O)[O-])c5F)c5ccc2[nH]5)C=C4)C=C3)cc1)[C@H](C)[N@@H+]1C[C@H]2C[NH2+]C[C@@H]2[C@@H]1C
REMARK SMILES IDX 7 1 6 2 5 3 3 4 4 5 2 7 1 8 75 9 76 10 77 11 78 12 84 13
REMARK SMILES IDX 79 15 83 16 85 17 80 18 82 19 81 20 8 23 9 24 10 25 11 27
REMARK SMILES IDX 12 28 13 29 74 30 14 31 73 32 15 33 16 34 17 35 67 36 18 37
REMARK SMILES IDX 72 38 66 39 68 40 19 41 71 42 65 43 64 44 20 46 52 47 32 48
REMARK SMILES IDX 51 49 33 50 36 51 50 52 69 53 34 54 35 55 49 57 70 58 37 59
REMARK SMILES IDX 21 60 22 61 30 62 23 63 25 64 31 65 24 66 26 67 27 68 28 69
REMARK SMILES IDX 29 70 53 71 54 72 62 73 55 74 57 75 63 76 56 77 58 78 59 79
REMARK SMILES IDX 60 80 61 81 38 82 39 83 47 84 40 85 42 86 48 87 41 88 43 89
REMARK SMILES IDX 44 90 45 91 46 92
REMARK H PARENT 5 6 77 14 81 21 81 22 9 26 68 45 36 56
REMARK Flexibility Score: inf
ROOT
ATOM      1  C   UNL A   1      31.518  31.649  26.637  1.00  0.00     0.042 C 
ENDROOT
BRANCH   1   2
ATOM      2  C   UNL A   1      31.726  30.184  26.262  1.00  0.00     0.117 C 
BRANCH   2   3
ATOM      3  N   UNL A   1      32.265  30.052  24.920  1.00  0.00    -0.356 N 
ATOM      4  C   UNL A   1      32.649  28.938  24.233  1.00  0.00     0.228 C 
ATOM      5  O   UNL A   1      33.313  29.109  23.211  1.00  0.00    -0.275 OA
ATOM      6  H   UNL A   1      32.370  30.900  24.429  1.00  0.00     0.163 HD
BRANCH   4   7
ATOM      7  C   UNL A   1      32.286  27.551  24.771  1.00  0.00     0.133 C 
ATOM      8  C   UNL A   1      33.623  26.804  24.931  1.00  0.00     0.024 C 
BRANCH   7   9
ATOM      9  C   UNL A   1      31.280  26.770  23.851  1.00  0.00     0.193 C 
ATOM     10  C   UNL A   1      30.148  27.689  23.334  1.00  0.00     0.076 C 
BRANCH   9  11
ATOM     11  N   UNL A   1      30.600  25.595  24.464  1.00  0.00    -0.329 N 
ATOM     12  C   UNL A   1      30.707  25.366  25.925  1.00  0.00     0.272 C 
ATOM     13  C   UNL A   1      30.826  24.265  23.772  1.00  0.00     0.190 C 
ATOM     14  H   UNL A   1      29.652  25.934  24.300  1.00  0.00     0.348 HD
ATOM     15  C   UNL A   1      31.617  24.172  25.983  1.00  0.00     0.114 C 
ATOM     16  C   UNL A   1      30.958  23.303  24.944  1.00  0.00     0.116 C 
ATOM     17  C   UNL A   1      31.984  24.133  22.779  1.00  0.00     0.076 C 
ATOM     18  C   UNL A   1      31.712  23.219  27.141  1.00  0.00     0.270 C 
ATOM     19  C   UNL A   1      31.815  22.068  25.027  1.00  0.00     0.271 C 
ATOM     20  N   UNL A   1      32.062  21.926  26.487  1.00  0.00    -0.345 N 
ATOM     21  H   UNL A   1      31.480  21.179  26.866  1.00  0.00     0.346 HD
ATOM     22  H   UNL A   1      33.040  21.694  26.661  1.00  0.00     0.346 HD
ENDBRANCH   9  11
ENDBRANCH   7   9
ENDBRANCH   4   7
ENDBRANCH   2   3
ENDBRANCH   1   2
BRANCH   1  23
ATOM     23  C   UNL A   1      32.785  32.363  27.102  1.00  0.00     0.118 C 
BRANCH  23  24
ATOM     24  N   UNL A   1      32.543  33.750  27.475  1.00  0.00    -0.352 N 
ATOM     25  C   UNL A   1      33.114  34.501  28.471  1.00  0.00     0.251 C 
ATOM     26  H   UNL A   1      31.870  34.218  26.932  1.00  0.00     0.163 HD
ATOM     27  O   UNL A   1      32.637  35.604  28.742  1.00  0.00    -0.269 OA
BRANCH  25  28
ATOM     28  C   UNL A   1      34.278  33.994  29.230  1.00  0.00     0.039 A 
ATOM     29  C   UNL A   1      34.060  33.083  30.267  1.00  0.00     0.014 A 
ATOM     30  C   UNL A   1      35.576  34.426  28.944  1.00  0.00     0.014 A 
ATOM     31  C   UNL A   1      35.145  32.562  30.976  1.00  0.00     0.010 A 
ATOM     32  C   UNL A   1      36.663  33.847  29.599  1.00  0.00     0.010 A 
ATOM     33  C   UNL A   1      36.460  32.914  30.627  1.00  0.00    -0.014 A 
BRANCH  33  34
ATOM     34  C   UNL A   1      37.629  32.303  31.313  1.00  0.00     0.031 A 
ATOM     35  C   UNL A   1      38.378  31.160  30.682  1.00  0.00     0.074 A 
ATOM     36  C   UNL A   1      37.968  32.727  32.548  1.00  0.00     0.049 A 
ATOM     37  N   UNL A   1      39.385  30.474  31.156  1.00  0.00    -0.248 NA
ATOM     38  C   UNL A   1      37.921  30.713  29.355  1.00  0.00     0.031 C 
ATOM     39  C   UNL A   1      37.274  33.772  33.303  1.00  0.00     0.029 A 
ATOM     40  N   UNL A   1      38.964  32.311  33.397  1.00  0.00    -0.354 N 
ATOM     41  C   UNL A   1      39.659  29.494  30.210  1.00  0.00     0.074 A 
ATOM     42  C   UNL A   1      38.693  29.655  29.145  1.00  0.00     0.031 C 
ATOM     43  C   UNL A   1      37.863  33.915  34.501  1.00  0.00     0.029 A 
ATOM     44  C   UNL A   1      38.954  32.952  34.615  1.00  0.00     0.049 A 
ATOM     45  H   UNL A   1      39.623  31.620  33.157  1.00  0.00     0.167 HD
ATOM     46  C   UNL A   1      40.640  28.560  30.213  1.00  0.00     0.034 A 
ATOM     47  C   UNL A   1      39.724  32.777  35.707  1.00  0.00     0.034 A 
ATOM     48  C   UNL A   1      41.623  28.425  31.254  1.00  0.00     0.049 A 
ATOM     49  C   UNL A   1      40.832  31.760  35.668  1.00  0.00     0.074 A 
ATOM     50  C   UNL A   1      42.711  27.571  31.302  1.00  0.00     0.029 A 
ATOM     51  N   UNL A   1      41.634  29.151  32.434  1.00  0.00    -0.354 N 
ATOM     52  N   UNL A   1      41.174  30.950  34.695  1.00  0.00    -0.248 NA
ATOM     53  C   UNL A   1      41.686  31.659  36.860  1.00  0.00     0.031 C 
ATOM     54  C   UNL A   1      43.360  27.757  32.527  1.00  0.00     0.029 A 
ATOM     55  C   UNL A   1      42.700  28.756  33.224  1.00  0.00     0.049 A 
ATOM     56  H   UNL A   1      40.979  29.846  32.676  1.00  0.00     0.167 HD
ATOM     57  C   UNL A   1      42.299  30.269  35.143  1.00  0.00     0.074 A 
ATOM     58  C   UNL A   1      42.595  30.778  36.467  1.00  0.00     0.031 C 
ATOM     59  C   UNL A   1      43.015  29.301  34.519  1.00  0.00     0.034 A 
BRANCH  46  60
ATOM     60  C   UNL A   1      40.731  27.629  29.030  1.00  0.00     0.023 A 
ATOM     61  C   UNL A   1      39.830  26.550  28.920  1.00  0.00     0.012 A 
ATOM     62  C   UNL A   1      41.654  27.866  27.993  1.00  0.00     0.148 A 
ATOM     63  C   UNL A   1      39.867  25.703  27.814  1.00  0.00     0.002 A 
ATOM     64  C   UNL A   1      41.653  27.046  26.870  1.00  0.00     0.091 A 
ATOM     65  F   UNL A   1      42.514  28.886  28.123  1.00  0.00    -0.205 F 
ATOM     66  C   UNL A   1      40.769  25.957  26.784  1.00  0.00     0.022 A 
BRANCH  64  67
ATOM     67  S   UNL A   1      42.717  27.338  25.453  1.00  0.00     0.127 S 
ATOM     68  O   UNL A   1      42.093  28.517  24.853  1.00  0.00    -0.237 OA
ATOM     69  O   UNL A   1      44.011  27.589  26.087  1.00  0.00    -0.237 OA
ATOM     70  O   UNL A   1      42.658  26.126  24.648  1.00  0.00    -0.744 OA
ENDBRANCH  64  67
ENDBRANCH  46  60
BRANCH  47  71
ATOM     71  C   UNL A   1      39.502  33.621  36.914  1.00  0.00     0.023 A 
ATOM     72  C   UNL A   1      39.933  34.962  36.915  1.00  0.00     0.012 A 
ATOM     73  C   UNL A   1      38.839  33.112  38.048  1.00  0.00     0.148 A 
ATOM     74  C   UNL A   1      39.736  35.771  38.034  1.00  0.00     0.002 A 
ATOM     75  C   UNL A   1      38.594  33.940  39.136  1.00  0.00     0.091 A 
ATOM     76  F   UNL A   1      38.444  31.831  38.030  1.00  0.00    -0.205 F 
ATOM     77  C   UNL A   1      39.059  35.264  39.139  1.00  0.00     0.022 A 
BRANCH  75  78
ATOM     78  S   UNL A   1      37.609  33.415  40.544  1.00  0.00     0.127 S 
ATOM     79  O   UNL A   1      38.421  32.330  41.088  1.00  0.00    -0.237 OA
ATOM     80  O   UNL A   1      37.577  34.631  41.358  1.00  0.00    -0.237 OA
ATOM     81  O   UNL A   1      36.316  33.026  39.998  1.00  0.00    -0.744 OA
ENDBRANCH  75  78
ENDBRANCH  47  71
BRANCH  59  82
ATOM     82  C   UNL A   1      44.219  28.747  35.236  1.00  0.00     0.023 A 
ATOM     83  C   UNL A   1      45.493  29.308  35.014  1.00  0.00     0.012 A 
ATOM     84  C   UNL A   1      44.074  27.717  36.187  1.00  0.00     0.148 A 
ATOM     85  C   UNL A   1      46.608  28.828  35.702  1.00  0.00     0.002 A 
ATOM     86  C   UNL A   1      45.179  27.281  36.906  1.00  0.00     0.091 A 
ATOM     87  F   UNL A   1      42.857  27.184  36.371  1.00  0.00    -0.205 F 
ATOM     88  C   UNL A   1      46.449  27.826  36.655  1.00  0.00     0.022 A 
BRANCH  86  89
ATOM     89  S   UNL A   1      45.055  26.064  38.222  1.00  0.00     0.127 S 
ATOM     90  O   UNL A   1      44.073  26.684  39.110  1.00  0.00    -0.237 OA
ATOM     91  O   UNL A   1      44.569  24.883  37.506  1.00  0.00    -0.237 OA
ATOM     92  O   UNL A   1      46.396  25.928  38.772  1.00  0.00    -0.744 OA
ENDBRANCH  86  89
ENDBRANCH  59  82
ENDBRANCH  33  34
ENDBRANCH  25  28
ENDBRANCH  23  24
ENDBRANCH   1  23
TORSDOF 15
ENDMDL
MODEL 2
REMARK VINA RESULT:     -11.5      6.435     11.652
REMARK SMILES C[C@@H](C(=O)NCCCNC(=O)c1ccc(-c2c3nc(c(-c4cccc(S(=O)(=O)[O-])c4F)c4ccc([nH]4)c(-c4cccc(S(=O)(=O)[O-])c4F)c4nc(c(-c5cccc(S(=O)(=O)[O-])c5F)c5ccc2[nH]5)C=C4)C=C3)cc1)[C@H](C)[N@@H+]1C[C@H]2C[NH2+]C[C@@H]2[C@@H]1C
REMARK SMILES IDX 7 1 6 2 5 3 3 4 4 5 2 7 1 8 75 9 76 10 77 11 78 12 84 13
REMARK SMILES IDX 79 15 83 16 85 17 80 18 82 19 81 20 8 23 9 24 10 25 11 27
REMARK SMILES IDX 12 28 13 29 74 30 14 31 73 32 15 33 16 34 17 35 67 36 18 37
REMARK SMILES IDX 72 38 66 39 68 40 19 41 71 42 65 43 64 44 20 46 52 47 32 48
REMARK SMILES IDX 51 49 33 50 36 51 50 52 69 53 34 54 35 55 49 57 70 58 37 59
REMARK SMILES IDX 21 60 22 61 30 62 23 63 25 64 31 65 24 66 26 67 27 68 28 69
REMARK SMILES IDX 29 70 53 71 54 72 62 73 55 74 57 75 63 76 56 77 58 78 59 79
REMARK SMILES IDX 60 80 61 81 38 82 39 83 47 84 40 85 42 86 48 87 41 88 43 89
REMARK SMILES IDX 44 90 45 91 46 92
REMARK H PARENT 5 6 77 14 81 21 81 22 9 26 68 45 36 56
REMARK Flexibility Score: inf
ROOT
ATOM      1  C   UNL A   1      37.592  19.803  24.882  1.00  0.00     0.042 C 
ENDROOT
BRANCH   1   2
ATOM      2  C   UNL A   1      36.440  20.796  24.745  1.00  0.00     0.117 C 
BRANCH   2   3
ATOM      3  N   UNL A   1      35.581  20.774  25.916  1.00  0.00    -0.356 N 
ATOM      4  C   UNL A   1      34.581  21.624  26.286  1.00  0.00     0.228 C 
ATOM      5  O   UNL A   1      34.174  21.543  27.445  1.00  0.00    -0.275 OA
ATOM      6  H   UNL A   1      35.746  20.030  26.539  1.00  0.00     0.163 HD
BRANCH   4   7
ATOM      7  C   UNL A   1      34.046  22.651  25.284  1.00  0.00     0.133 C 
ATOM      8  C   UNL A   1      34.258  24.026  25.944  1.00  0.00     0.024 C 
BRANCH   7   9
ATOM      9  C   UNL A   1      32.543  22.411  24.888  1.00  0.00     0.193 C 
ATOM     10  C   UNL A   1      32.225  20.904  24.747  1.00  0.00     0.076 C 
BRANCH   9  11
ATOM     11  N   UNL A   1      32.086  23.043  23.619  1.00  0.00    -0.329 N 
ATOM     12  C   UNL A   1      33.085  23.599  22.676  1.00  0.00     0.272 C 
ATOM     13  C   UNL A   1      30.965  24.055  23.751  1.00  0.00     0.190 C 
ATOM     14  H   UNL A   1      31.748  22.179  23.196  1.00  0.00     0.348 HD
ATOM     15  C   UNL A   1      32.875  25.077  22.840  1.00  0.00     0.114 C 
ATOM     16  C   UNL A   1      31.372  25.129  22.753  1.00  0.00     0.116 C 
ATOM     17  C   UNL A   1      30.649  24.636  25.133  1.00  0.00     0.076 C 
ATOM     18  C   UNL A   1      33.261  26.119  21.829  1.00  0.00     0.270 C 
ATOM     19  C   UNL A   1      31.137  26.613  22.852  1.00  0.00     0.271 C 
ATOM     20  N   UNL A   1      32.240  27.185  22.035  1.00  0.00    -0.345 N 
ATOM     21  H   UNL A   1      31.878  27.495  21.133  1.00  0.00     0.346 HD
ATOM     22  H   UNL A   1      32.655  27.987  22.510  1.00  0.00     0.346 HD
ENDBRANCH   9  11
ENDBRANCH   7   9
ENDBRANCH   4   7
ENDBRANCH   2   3
ENDBRANCH   1   2
BRANCH   1  23
ATOM     23  C   UNL A   1      38.745  20.296  25.754  1.00  0.00     0.118 C 
BRANCH  23  24
ATOM     24  N   UNL A   1      39.807  19.310  25.891  1.00  0.00    -0.352 N 
ATOM     25  C   UNL A   1      41.151  19.492  26.098  1.00  0.00     0.251 C 
ATOM     26  H   UNL A   1      39.517  18.371  25.827  1.00  0.00     0.163 HD
ATOM     27  O   UNL A   1      41.912  18.528  26.002  1.00  0.00    -0.269 OA
BRANCH  25  28
ATOM     28  C   UNL A   1      41.693  20.832  26.415  1.00  0.00     0.039 A 
ATOM     29  C   UNL A   1      41.936  21.724  25.367  1.00  0.00     0.014 A 
ATOM     30  C   UNL A   1      41.986  21.204  27.730  1.00  0.00     0.014 A 
ATOM     31  C   UNL A   1      42.415  23.007  25.643  1.00  0.00     0.010 A 
ATOM     32  C   UNL A   1      42.389  22.509  28.010  1.00  0.00     0.010 A 
ATOM     33  C   UNL A   1      42.615  23.424  26.970  1.00  0.00    -0.014 A 
BRANCH  33  34
ATOM     34  C   UNL A   1      43.042  24.813  27.286  1.00  0.00     0.031 A 
ATOM     35  C   UNL A   1      42.086  25.780  27.931  1.00  0.00     0.074 A 
ATOM     36  C   UNL A   1      44.270  25.229  26.916  1.00  0.00     0.049 A 
ATOM     37  N   UNL A   1      42.268  27.041  28.231  1.00  0.00    -0.248 NA
ATOM     38  C   UNL A   1      40.743  25.274  28.261  1.00  0.00     0.031 C 
ATOM     39  C   UNL A   1      45.262  24.414  26.211  1.00  0.00     0.029 A 
ATOM     40  N   UNL A   1      44.883  26.450  27.054  1.00  0.00    -0.354 N 
ATOM     41  C   UNL A   1      41.058  27.488  28.747  1.00  0.00     0.074 A 
ATOM     42  C   UNL A   1      40.139  26.372  28.694  1.00  0.00     0.031 C 
ATOM     43  C   UNL A   1      46.357  25.155  25.979  1.00  0.00     0.029 A 
ATOM     44  C   UNL A   1      46.135  26.506  26.486  1.00  0.00     0.049 A 
ATOM     45  H   UNL A   1      44.466  27.213  27.515  1.00  0.00     0.167 HD
ATOM     46  C   UNL A   1      40.746  28.709  29.245  1.00  0.00     0.034 A 
ATOM     47  C   UNL A   1      47.003  27.530  26.370  1.00  0.00     0.034 A 
ATOM     48  C   UNL A   1      41.672  29.806  29.331  1.00  0.00     0.049 A 
ATOM     49  C   UNL A   1      46.647  28.865  26.967  1.00  0.00     0.074 A 
ATOM     50  C   UNL A   1      41.476  31.051  29.904  1.00  0.00     0.029 A 
ATOM     51  N   UNL A   1      42.961  29.798  28.824  1.00  0.00    -0.354 N 
ATOM     52  N   UNL A   1      45.552  29.221  27.596  1.00  0.00    -0.248 NA
ATOM     53  C   UNL A   1      47.658  29.927  26.875  1.00  0.00     0.031 C 
ATOM     54  C   UNL A   1      42.636  31.808  29.712  1.00  0.00     0.029 A 
ATOM     55  C   UNL A   1      43.569  31.020  29.057  1.00  0.00     0.049 A 
ATOM     56  H   UNL A   1      43.383  29.036  28.365  1.00  0.00     0.167 HD
ATOM     57  C   UNL A   1      45.756  30.534  28.002  1.00  0.00     0.074 A 
ATOM     58  C   UNL A   1      47.088  30.903  27.568  1.00  0.00     0.031 C 
ATOM     59  C   UNL A   1      44.912  31.363  28.664  1.00  0.00     0.034 A 
BRANCH  46  60
ATOM     60  C   UNL A   1      39.351  28.918  29.777  1.00  0.00     0.023 A 
ATOM     61  C   UNL A   1      39.037  28.515  31.091  1.00  0.00     0.012 A 
ATOM     62  C   UNL A   1      38.374  29.579  29.006  1.00  0.00     0.148 A 
ATOM     63  C   UNL A   1      37.766  28.737  31.619  1.00  0.00     0.002 A 
ATOM     64  C   UNL A   1      37.124  29.840  29.556  1.00  0.00     0.091 A 
ATOM     65  F   UNL A   1      38.685  29.938  27.753  1.00  0.00    -0.205 F 
ATOM     66  C   UNL A   1      36.815  29.409  30.857  1.00  0.00     0.022 A 
BRANCH  64  67
ATOM     67  S   UNL A   1      35.857  30.771  28.690  1.00  0.00     0.127 S 
ATOM     68  O   UNL A   1      35.117  31.368  29.801  1.00  0.00    -0.237 OA
ATOM     69  O   UNL A   1      36.651  31.718  27.908  1.00  0.00    -0.237 OA
ATOM     70  O   UNL A   1      35.113  29.802  27.898  1.00  0.00    -0.744 OA
ENDBRANCH  64  67
ENDBRANCH  46  60
BRANCH  47  71
ATOM     71  C   UNL A   1      48.318  27.317  25.702  1.00  0.00     0.023 A 
ATOM     72  C   UNL A   1      49.425  26.895  26.462  1.00  0.00     0.012 A 
ATOM     73  C   UNL A   1      48.467  27.500  24.313  1.00  0.00     0.148 A 
ATOM     74  C   UNL A   1      50.665  26.690  25.857  1.00  0.00     0.002 A 
ATOM     75  C   UNL A   1      49.689  27.237  23.708  1.00  0.00     0.091 A 
ATOM     76  F   UNL A   1      47.402  27.911  23.609  1.00  0.00    -0.205 F 
ATOM     77  C   UNL A   1      50.795  26.850  24.481  1.00  0.00     0.022 A 
BRANCH  75  78
ATOM     78  S   UNL A   1      49.912  27.283  21.926  1.00  0.00     0.127 S 
ATOM     79  O   UNL A   1      48.880  26.356  21.472  1.00  0.00    -0.237 OA
ATOM     80  O   UNL A   1      49.652  28.692  21.627  1.00  0.00    -0.237 OA
ATOM     81  O   UNL A   1      51.288  26.865  21.689  1.00  0.00    -0.744 OA
ENDBRANCH  75  78
ENDBRANCH  47  71
BRANCH  59  82
ATOM     82  C   UNL A   1      45.407  32.745  29.002  1.00  0.00     0.023 A 
ATOM     83  C   UNL A   1      46.079  32.976  30.219  1.00  0.00     0.012 A 
ATOM     84  C   UNL A   1      45.271  33.800  28.078  1.00  0.00     0.148 A 
ATOM     85  C   UNL A   1      46.576  34.243  30.525  1.00  0.00     0.002 A 
ATOM     86  C   UNL A   1      45.815  35.045  28.366  1.00  0.00     0.091 A 
ATOM     87  F   UNL A   1      44.613  33.565  26.932  1.00  0.00    -0.205 F 
ATOM     88  C   UNL A   1      46.455  35.272  29.595  1.00  0.00     0.022 A 
BRANCH  86  89
ATOM     89  S   UNL A   1      45.794  36.403  27.189  1.00  0.00     0.127 S 
ATOM     90  O   UNL A   1      46.457  35.804  26.032  1.00  0.00    -0.237 OA
ATOM     91  O   UNL A   1      44.360  36.640  27.016  1.00  0.00    -0.237 OA
ATOM     92  O   UNL A   1      46.515  37.497  27.825  1.00  0.00    -0.744 OA
ENDBRANCH  86  89
ENDBRANCH  59  82
ENDBRANCH  33  34
ENDBRANCH  25  28
ENDBRANCH  23  24
ENDBRANCH   1  23
TORSDOF 15
ENDMDL
MODEL 3
REMARK VINA RESULT:     -11.5      1.314      2.034
REMARK SMILES C[C@@H](C(=O)NCCCNC(=O)c1ccc(-c2c3nc(c(-c4cccc(S(=O)(=O)[O-])c4F)c4ccc([nH]4)c(-c4cccc(S(=O)(=O)[O-])c4F)c4nc(c(-c5cccc(S(=O)(=O)[O-])c5F)c5ccc2[nH]5)C=C4)C=C3)cc1)[C@H](C)[N@@H+]1C[C@H]2C[NH2+]C[C@@H]2[C@@H]1C
REMARK SMILES IDX 7 1 6 2 5 3 3 4 4 5 2 7 1 8 75 9 76 10 77 11 78 12 84 13
REMARK SMILES IDX 79 15 83 16 85 17 80 18 82 19 81 20 8 23 9 24 10 25 11 27
REMARK SMILES IDX 12 28 13 29 74 30 14 31 73 32 15 33 16 34 17 35 67 36 18 37
REMARK SMILES IDX 72 38 66 39 68 40 19 41 71 42 65 43 64 44 20 46 52 47 32 48
REMARK SMILES IDX 51 49 33 50 36 51 50 52 69 53 34 54 35 55 49 57 70 58 37 59
REMARK SMILES IDX 21 60 22 61 30 62 23 63 25 64 31 65 24 66 26 67 27 68 28 69
REMARK SMILES IDX 29 70 53 71 54 72 62 73 55 74 57 75 63 76 56 77 58 78 59 79
REMARK SMILES IDX 60 80 61 81 38 82 39 83 47 84 40 85 42 86 48 87 41 88 43 89
REMARK SMILES IDX 44 90 45 91 46 92
REMARK H PARENT 5 6 77 14 81 21 81 22 9 26 68 45 36 56
REMARK Flexibility Score: inf
ROOT
ATOM      1  C   UNL A   1      31.417  32.175  26.604  1.00  0.00     0.042 C 
ENDROOT
BRANCH   1   2
ATOM      2  C   UNL A   1      31.583  30.731  26.136  1.00  0.00     0.117 C 
BRANCH   2   3
ATOM      3  N   UNL A   1      31.557  29.805  27.255  1.00  0.00    -0.356 N 
ATOM      4  C   UNL A   1      31.603  28.442  27.268  1.00  0.00     0.228 C 
ATOM      5  O   UNL A   1      31.306  27.879  28.322  1.00  0.00    -0.275 OA
ATOM      6  H   UNL A   1      31.497  30.227  28.142  1.00  0.00     0.163 HD
BRANCH   4   7
ATOM      7  C   UNL A   1      31.968  27.682  25.990  1.00  0.00     0.133 C 
ATOM      8  C   UNL A   1      30.967  26.516  25.898  1.00  0.00     0.024 C 
BRANCH   7   9
ATOM      9  C   UNL A   1      33.459  27.183  25.967  1.00  0.00     0.193 C 
ATOM     10  C   UNL A   1      34.422  28.236  26.563  1.00  0.00     0.076 C 
BRANCH   9  11
ATOM     11  N   UNL A   1      34.018  26.833  24.631  1.00  0.00    -0.329 N 
ATOM     12  C   UNL A   1      33.349  27.329  23.404  1.00  0.00     0.272 C 
ATOM     13  C   UNL A   1      34.348  25.370  24.415  1.00  0.00     0.190 C 
ATOM     14  H   UNL A   1      34.868  27.387  24.733  1.00  0.00     0.348 HD
ATOM     15  C   UNL A   1      32.732  26.072  22.861  1.00  0.00     0.114 C 
ATOM     16  C   UNL A   1      33.911  25.143  22.975  1.00  0.00     0.116 C 
ATOM     17  C   UNL A   1      33.760  24.327  25.371  1.00  0.00     0.076 C 
ATOM     18  C   UNL A   1      32.332  25.860  21.428  1.00  0.00     0.270 C 
ATOM     19  C   UNL A   1      33.338  23.886  22.376  1.00  0.00     0.271 C 
ATOM     20  N   UNL A   1      32.530  24.395  21.235  1.00  0.00    -0.345 N 
ATOM     21  H   UNL A   1      33.023  24.225  20.358  1.00  0.00     0.346 HD
ATOM     22  H   UNL A   1      31.629  23.918  21.197  1.00  0.00     0.346 HD
ENDBRANCH   9  11
ENDBRANCH   7   9
ENDBRANCH   4   7
ENDBRANCH   2   3
ENDBRANCH   1   2
BRANCH   1  23
ATOM     23  C   UNL A   1      32.729  32.884  26.928  1.00  0.00     0.118 C 
BRANCH  23  24
ATOM     24  N   UNL A   1      32.527  34.161  27.596  1.00  0.00    -0.352 N 
ATOM     25  C   UNL A   1      33.127  34.666  28.723  1.00  0.00     0.251 C 
ATOM     26  H   UNL A   1      31.862  34.753  27.176  1.00  0.00     0.163 HD
ATOM     27  O   UNL A   1      32.681  35.695  29.233  1.00  0.00    -0.269 OA
BRANCH  25  28
ATOM     28  C   UNL A   1      34.284  33.978  29.337  1.00  0.00     0.039 A 
ATOM     29  C   UNL A   1      35.572  34.428  29.034  1.00  0.00     0.014 A 
ATOM     30  C   UNL A   1      34.110  32.882  30.187  1.00  0.00     0.014 A 
ATOM     31  C   UNL A   1      36.680  33.817  29.628  1.00  0.00     0.010 A 
ATOM     32  C   UNL A   1      35.210  32.325  30.838  1.00  0.00     0.010 A 
ATOM     33  C   UNL A   1      36.508  32.781  30.562  1.00  0.00    -0.014 A 
BRANCH  33  34
ATOM     34  C   UNL A   1      37.670  32.179  31.267  1.00  0.00     0.031 A 
ATOM     35  C   UNL A   1      38.432  31.037  30.651  1.00  0.00     0.074 A 
ATOM     36  C   UNL A   1      37.990  32.610  32.504  1.00  0.00     0.049 A 
ATOM     37  N   UNL A   1      39.436  30.357  31.142  1.00  0.00    -0.248 NA
ATOM     38  C   UNL A   1      37.996  30.581  29.320  1.00  0.00     0.031 C 
ATOM     39  C   UNL A   1      37.281  33.656  33.245  1.00  0.00     0.029 A 
ATOM     40  N   UNL A   1      38.977  32.203  33.369  1.00  0.00    -0.354 N 
ATOM     41  C   UNL A   1      39.727  29.374  30.205  1.00  0.00     0.074 A 
ATOM     42  C   UNL A   1      38.775  29.526  29.126  1.00  0.00     0.031 C 
ATOM     43  C   UNL A   1      37.853  33.807  34.450  1.00  0.00     0.029 A 
ATOM     44  C   UNL A   1      38.947  32.850  34.583  1.00  0.00     0.049 A 
ATOM     45  H   UNL A   1      39.642  31.514  33.141  1.00  0.00     0.167 HD
ATOM     46  C   UNL A   1      40.712  28.445  30.225  1.00  0.00     0.034 A 
ATOM     47  C   UNL A   1      39.702  32.683  35.686  1.00  0.00     0.034 A 
ATOM     48  C   UNL A   1      41.682  28.319  31.280  1.00  0.00     0.049 A 
ATOM     49  C   UNL A   1      40.816  31.671  35.667  1.00  0.00     0.074 A 
ATOM     50  C   UNL A   1      42.773  27.471  31.346  1.00  0.00     0.029 A 
ATOM     51  N   UNL A   1      41.673  29.051  32.457  1.00  0.00    -0.354 N 
ATOM     52  N   UNL A   1      41.175  30.858  34.702  1.00  0.00    -0.248 NA
ATOM     53  C   UNL A   1      41.654  31.580  36.871  1.00  0.00     0.031 C 
ATOM     54  C   UNL A   1      43.404  27.666  32.579  1.00  0.00     0.029 A 
ATOM     55  C   UNL A   1      42.731  28.665  33.263  1.00  0.00     0.049 A 
ATOM     56  H   UNL A   1      41.012  29.744  32.687  1.00  0.00     0.167 HD
ATOM     57  C   UNL A   1      42.297  30.185  35.169  1.00  0.00     0.074 A 
ATOM     58  C   UNL A   1      42.573  30.701  36.494  1.00  0.00     0.031 C 
ATOM     59  C   UNL A   1      43.026  29.217  34.560  1.00  0.00     0.034 A 
BRANCH  46  60
ATOM     60  C   UNL A   1      40.823  27.509  29.048  1.00  0.00     0.023 A 
ATOM     61  C   UNL A   1      39.967  26.392  28.962  1.00  0.00     0.012 A 
ATOM     62  C   UNL A   1      41.719  27.777  27.994  1.00  0.00     0.148 A 
ATOM     63  C   UNL A   1      40.023  25.537  27.861  1.00  0.00     0.002 A 
ATOM     64  C   UNL A   1      41.735  26.948  26.878  1.00  0.00     0.091 A 
ATOM     65  F   UNL A   1      42.536  28.833  28.102  1.00  0.00    -0.205 F 
ATOM     66  C   UNL A   1      40.897  25.822  26.815  1.00  0.00     0.022 A 
BRANCH  64  67
ATOM     67  S   UNL A   1      42.761  27.272  25.441  1.00  0.00     0.127 S 
ATOM     68  O   UNL A   1      44.092  27.358  26.042  1.00  0.00    -0.237 OA
ATOM     69  O   UNL A   1      42.536  26.079  24.626  1.00  0.00    -0.237 OA
ATOM     70  O   UNL A   1      42.262  28.510  24.858  1.00  0.00    -0.744 OA
ENDBRANCH  64  67
ENDBRANCH  46  60
BRANCH  47  71
ATOM     71  C   UNL A   1      39.461  33.533  36.886  1.00  0.00     0.023 A 
ATOM     72  C   UNL A   1      39.869  34.880  36.880  1.00  0.00     0.012 A 
ATOM     73  C   UNL A   1      38.801  33.020  38.020  1.00  0.00     0.148 A 
ATOM     74  C   UNL A   1      39.654  35.694  37.992  1.00  0.00     0.002 A 
ATOM     75  C   UNL A   1      38.536  33.852  39.101  1.00  0.00     0.091 A 
ATOM     76  F   UNL A   1      38.428  31.732  38.009  1.00  0.00    -0.205 F 
ATOM     77  C   UNL A   1      38.979  35.183  39.097  1.00  0.00     0.022 A 
BRANCH  75  78
ATOM     78  S   UNL A   1      37.554  33.320  40.508  1.00  0.00     0.127 S 
ATOM     79  O   UNL A   1      37.280  34.589  41.178  1.00  0.00    -0.237 OA
ATOM     80  O   UNL A   1      36.398  32.706  39.852  1.00  0.00    -0.237 OA
ATOM     81  O   UNL A   1      38.392  32.383  41.244  1.00  0.00    -0.744 OA
ENDBRANCH  75  78
ENDBRANCH  47  71
BRANCH  59  82
ATOM     82  C   UNL A   1      44.222  28.672  35.295  1.00  0.00     0.023 A 
ATOM     83  C   UNL A   1      45.490  29.259  35.114  1.00  0.00     0.012 A 
ATOM     84  C   UNL A   1      44.073  27.623  36.224  1.00  0.00     0.148 A 
ATOM     85  C   UNL A   1      46.597  28.788  35.820  1.00  0.00     0.002 A 
ATOM     86  C   UNL A   1      45.169  27.193  36.962  1.00  0.00     0.091 A 
ATOM     87  F   UNL A   1      42.862  27.065  36.370  1.00  0.00    -0.205 F 
ATOM     88  C   UNL A   1      46.434  27.765  36.751  1.00  0.00     0.022 A 
BRANCH  86  89
ATOM     89  S   UNL A   1      45.036  25.950  38.252  1.00  0.00     0.127 S 
ATOM     90  O   UNL A   1      44.680  24.759  37.483  1.00  0.00    -0.237 OA
ATOM     91  O   UNL A   1      46.389  25.935  38.809  1.00  0.00    -0.237 OA
ATOM     92  O   UNL A   1      44.011  26.431  39.169  1.00  0.00    -0.744 OA
ENDBRANCH  86  89
ENDBRANCH  59  82
ENDBRANCH  33  34
ENDBRANCH  25  28
ENDBRANCH  23  24
ENDBRANCH   1  23
TORSDOF 15
ENDMDL
