MODEL 1
REMARK VINA RESULT:     -12.4      0.000      0.000
REMARK SMILES [NH3+][C@@]1(C(=O)NCCCNC(=O)c2ccc(-c3c4nc(c(-c5cccc(S(=O)(=O)[O-])c5F)c5ccc([nH]5)c(-c5cccc(S(=O)(=O)[O-])c5F)c5nc(c(-c6cccc(S(=O)(=O)[O-])c6F)c6ccc3[nH]6)C=C5)C=C4)cc2)CCC[C@@H](Oc2ccccc2[N+](=O)[O-])C1
REMARK SMILES IDX 7 1 6 2 5 3 3 4 4 5 2 7 75 8 89 9 76 10 78 11 77 12 1 13
REMARK SMILES IDX 79 17 80 18 81 19 85 20 82 21 84 22 83 23 86 24 87 25 88 26
REMARK SMILES IDX 8 27 9 28 10 29 11 31 12 32 13 33 74 34 14 35 73 36 15 37
REMARK SMILES IDX 16 38 17 39 67 40 18 41 72 42 66 43 68 44 19 45 71 46 65 47
REMARK SMILES IDX 64 48 20 50 52 51 32 52 51 53 33 54 36 55 50 56 69 57 34 58
REMARK SMILES IDX 35 59 49 61 70 62 37 63 21 64 22 65 30 66 23 67 25 68 31 69
REMARK SMILES IDX 24 70 26 71 27 72 28 73 29 74 53 75 54 76 62 77 55 78 57 79
REMARK SMILES IDX 63 80 56 81 58 82 59 83 60 84 61 85 38 86 39 87 47 88 40 89
REMARK SMILES IDX 42 90 48 91 41 92 43 93 44 94 45 95 46 96
REMARK H PARENT 5 6 1 14 1 15 1 16 9 30 68 49 36 60
REMARK Flexibility Score: inf
ROOT
ATOM      1  C   UNL A   1      31.491  31.778  26.618  1.00  0.00     0.042 C 
ENDROOT
BRANCH   1   2
ATOM      2  C   UNL A   1      31.817  30.476  25.884  1.00  0.00     0.118 C 
BRANCH   2   3
ATOM      3  N   UNL A   1      31.041  30.285  24.672  1.00  0.00    -0.351 N 
ATOM      4  C   UNL A   1      30.773  29.171  23.926  1.00  0.00     0.281 C 
ATOM      5  O   UNL A   1      29.976  29.327  22.990  1.00  0.00    -0.268 OA
ATOM      6  H   UNL A   1      30.633  31.110  24.322  1.00  0.00     0.163 HD
BRANCH   4   7
ATOM      7  C   UNL A   1      31.320  27.739  24.280  1.00  0.00     0.177 C 
ATOM      8  C   UNL A   1      32.851  27.724  24.071  1.00  0.00     0.079 C 
ATOM      9  C   UNL A   1      30.673  26.730  23.303  1.00  0.00     0.124 C 
ATOM     10  C   UNL A   1      33.469  26.338  24.256  1.00  0.00     0.011 C 
ATOM     11  C   UNL A   1      31.323  25.334  23.197  1.00  0.00     0.180 C 
ATOM     12  C   UNL A   1      32.855  25.297  23.325  1.00  0.00     0.046 C 
BRANCH   7  13
ATOM     13  N   UNL A   1      31.083  27.449  25.699  1.00  0.00    -0.345 N 
ATOM     14  H   UNL A   1      31.971  27.239  26.156  1.00  0.00     0.345 HD
ATOM     15  H   UNL A   1      30.460  26.646  25.783  1.00  0.00     0.345 HD
ATOM     16  H   UNL A   1      30.655  28.260  26.146  1.00  0.00     0.345 HD
ENDBRANCH   7  13
BRANCH  11  17
ATOM     17  O   UNL A   1      30.646  24.242  23.861  1.00  0.00    -0.483 OA
BRANCH  17  18
ATOM     18  C   UNL A   1      31.407  23.211  24.316  1.00  0.00     0.197 A 
ATOM     19  C   UNL A   1      31.892  22.280  23.395  1.00  0.00     0.054 A 
ATOM     20  C   UNL A   1      31.669  23.013  25.676  1.00  0.00     0.310 A 
ATOM     21  C   UNL A   1      32.763  21.269  23.809  1.00  0.00     0.004 A 
ATOM     22  C   UNL A   1      32.564  22.017  26.098  1.00  0.00     0.090 A 
ATOM     23  C   UNL A   1      33.128  21.162  25.152  1.00  0.00     0.007 A 
BRANCH  20  24
ATOM     24  N   UNL A   1      31.066  23.868  26.691  1.00  0.00     0.066 N 
ATOM     25  O   UNL A   1      31.641  24.940  26.934  1.00  0.00    -0.258 OA
ATOM     26  O   UNL A   1      30.037  23.476  27.256  1.00  0.00    -0.258 OA
ENDBRANCH  20  24
ENDBRANCH  17  18
ENDBRANCH  11  17
ENDBRANCH   4   7
ENDBRANCH   2   3
ENDBRANCH   1   2
BRANCH   1  27
ATOM     27  C   UNL A   1      32.710  32.472  27.213  1.00  0.00     0.118 C 
BRANCH  27  28
ATOM     28  N   UNL A   1      32.447  33.860  27.577  1.00  0.00    -0.352 N 
ATOM     29  C   UNL A   1      33.058  34.659  28.514  1.00  0.00     0.251 C 
ATOM     30  H   UNL A   1      31.719  34.292  27.074  1.00  0.00     0.163 HD
ATOM     31  O   UNL A   1      32.595  35.776  28.743  1.00  0.00    -0.269 OA
BRANCH  29  32
ATOM     32  C   UNL A   1      34.238  34.181  29.269  1.00  0.00     0.039 A 
ATOM     33  C   UNL A   1      34.046  33.633  30.542  1.00  0.00     0.014 A 
ATOM     34  C   UNL A   1      35.527  34.273  28.742  1.00  0.00     0.014 A 
ATOM     35  C   UNL A   1      35.134  33.122  31.254  1.00  0.00     0.010 A 
ATOM     36  C   UNL A   1      36.594  33.679  29.409  1.00  0.00     0.010 A 
ATOM     37  C   UNL A   1      36.414  33.107  30.677  1.00  0.00    -0.014 A 
BRANCH  37  38
ATOM     38  C   UNL A   1      37.582  32.514  31.377  1.00  0.00     0.031 A 
ATOM     39  C   UNL A   1      38.325  31.362  30.752  1.00  0.00     0.074 A 
ATOM     40  C   UNL A   1      37.910  32.941  32.614  1.00  0.00     0.049 A 
ATOM     41  N   UNL A   1      39.291  30.635  31.250  1.00  0.00    -0.248 NA
ATOM     42  C   UNL A   1      37.901  30.947  29.403  1.00  0.00     0.031 C 
ATOM     43  C   UNL A   1      37.215  33.993  33.359  1.00  0.00     0.029 A 
ATOM     44  N   UNL A   1      38.889  32.517  33.478  1.00  0.00    -0.354 N 
ATOM     45  C   UNL A   1      39.558  29.656  30.299  1.00  0.00     0.074 A 
ATOM     46  C   UNL A   1      38.624  29.855  29.213  1.00  0.00     0.031 C 
ATOM     47  C   UNL A   1      37.788  34.133  34.565  1.00  0.00     0.029 A 
ATOM     48  C   UNL A   1      38.866  33.158  34.696  1.00  0.00     0.049 A 
ATOM     49  H   UNL A   1      39.546  31.822  33.248  1.00  0.00     0.167 HD
ATOM     50  C   UNL A   1      40.515  28.698  30.311  1.00  0.00     0.034 A 
ATOM     51  C   UNL A   1      39.618  32.971  35.798  1.00  0.00     0.034 A 
ATOM     52  C   UNL A   1      41.474  28.539  31.371  1.00  0.00     0.049 A 
ATOM     53  C   UNL A   1      40.708  31.933  35.766  1.00  0.00     0.074 A 
ATOM     54  C   UNL A   1      42.537  27.657  31.444  1.00  0.00     0.029 A 
ATOM     55  N   UNL A   1      41.486  29.280  32.541  1.00  0.00    -0.354 N 
ATOM     56  N   UNL A   1      41.037  31.112  34.797  1.00  0.00    -0.248 NA
ATOM     57  C   UNL A   1      41.555  31.819  36.962  1.00  0.00     0.031 C 
ATOM     58  C   UNL A   1      43.179  27.850  32.670  1.00  0.00     0.029 A 
ATOM     59  C   UNL A   1      42.536  28.875  33.346  1.00  0.00     0.049 A 
ATOM     60  H   UNL A   1      40.842  29.990  32.768  1.00  0.00     0.167 HD
ATOM     61  C   UNL A   1      42.152  30.417  35.250  1.00  0.00     0.074 A 
ATOM     62  C   UNL A   1      42.453  30.925  36.571  1.00  0.00     0.031 C 
ATOM     63  C   UNL A   1      42.856  29.436  34.633  1.00  0.00     0.034 A 
BRANCH  50  64
ATOM     64  C   UNL A   1      40.611  27.785  29.116  1.00  0.00     0.023 A 
ATOM     65  C   UNL A   1      39.740  26.680  29.012  1.00  0.00     0.012 A 
ATOM     66  C   UNL A   1      41.519  28.047  28.071  1.00  0.00     0.148 A 
ATOM     67  C   UNL A   1      39.797  25.831  27.909  1.00  0.00     0.002 A 
ATOM     68  C   UNL A   1      41.535  27.225  26.951  1.00  0.00     0.091 A 
ATOM     69  F   UNL A   1      42.352  29.090  28.195  1.00  0.00    -0.205 F 
ATOM     70  C   UNL A   1      40.686  26.108  26.875  1.00  0.00     0.022 A 
BRANCH  68  71
ATOM     71  S   UNL A   1      42.583  27.542  25.526  1.00  0.00     0.127 S 
ATOM     72  O   UNL A   1      43.917  27.490  26.123  1.00  0.00    -0.237 OA
ATOM     73  O   UNL A   1      42.262  26.413  24.654  1.00  0.00    -0.237 OA
ATOM     74  O   UNL A   1      42.181  28.843  25.012  1.00  0.00    -0.744 OA
ENDBRANCH  68  71
ENDBRANCH  50  64
BRANCH  51  75
ATOM     75  C   UNL A   1      39.404  33.821  37.004  1.00  0.00     0.023 A 
ATOM     76  C   UNL A   1      39.853  35.157  37.001  1.00  0.00     0.012 A 
ATOM     77  C   UNL A   1      38.747  33.323  38.147  1.00  0.00     0.148 A 
ATOM     78  C   UNL A   1      39.688  35.968  38.124  1.00  0.00     0.002 A 
ATOM     79  C   UNL A   1      38.534  34.154  39.240  1.00  0.00     0.091 A 
ATOM     80  F   UNL A   1      38.335  32.047  38.137  1.00  0.00    -0.205 F 
ATOM     81  C   UNL A   1      39.022  35.469  39.240  1.00  0.00     0.022 A 
BRANCH  79  82
ATOM     82  S   UNL A   1      37.566  33.640  40.664  1.00  0.00     0.127 S 
ATOM     83  O   UNL A   1      36.349  33.136  40.034  1.00  0.00    -0.237 OA
ATOM     84  O   UNL A   1      38.422  32.613  41.259  1.00  0.00    -0.237 OA
ATOM     85  O   UNL A   1      37.408  34.833  41.484  1.00  0.00    -0.744 OA
ENDBRANCH  79  82
ENDBRANCH  51  75
BRANCH  63  86
ATOM     86  C   UNL A   1      44.058  28.879  35.350  1.00  0.00     0.023 A 
ATOM     87  C   UNL A   1      45.325  29.464  35.164  1.00  0.00     0.012 A 
ATOM     88  C   UNL A   1      43.909  27.825  36.273  1.00  0.00     0.148 A 
ATOM     89  C   UNL A   1      46.434  28.987  35.862  1.00  0.00     0.002 A 
ATOM     90  C   UNL A   1      45.008  27.390  37.004  1.00  0.00     0.091 A 
ATOM     91  F   UNL A   1      42.697  27.271  36.421  1.00  0.00    -0.205 F 
ATOM     92  C   UNL A   1      46.272  27.961  36.790  1.00  0.00     0.022 A 
BRANCH  90  93
ATOM     93  S   UNL A   1      44.875  26.145  38.292  1.00  0.00     0.127 S 
ATOM     94  O   UNL A   1      43.989  26.803  39.251  1.00  0.00    -0.237 OA
ATOM     95  O   UNL A   1      44.272  25.021  37.574  1.00  0.00    -0.237 OA
ATOM     96  O   UNL A   1      46.234  25.905  38.761  1.00  0.00    -0.744 OA
ENDBRANCH  90  93
ENDBRANCH  63  86
ENDBRANCH  37  38
ENDBRANCH  29  32
ENDBRANCH  27  28
ENDBRANCH   1  27
TORSDOF 17
ENDMDL
MODEL 2
REMARK VINA RESULT:     -12.3      2.619      3.521
REMARK SMILES [NH3+][C@@]1(C(=O)NCCCNC(=O)c2ccc(-c3c4nc(c(-c5cccc(S(=O)(=O)[O-])c5F)c5ccc([nH]5)c(-c5cccc(S(=O)(=O)[O-])c5F)c5nc(c(-c6cccc(S(=O)(=O)[O-])c6F)c6ccc3[nH]6)C=C5)C=C4)cc2)CCC[C@@H](Oc2ccccc2[N+](=O)[O-])C1
REMARK SMILES IDX 7 1 6 2 5 3 3 4 4 5 2 7 75 8 89 9 76 10 78 11 77 12 1 13
REMARK SMILES IDX 79 17 80 18 81 19 85 20 82 21 84 22 83 23 86 24 87 25 88 26
REMARK SMILES IDX 8 27 9 28 10 29 11 31 12 32 13 33 74 34 14 35 73 36 15 37
REMARK SMILES IDX 16 38 17 39 67 40 18 41 72 42 66 43 68 44 19 45 71 46 65 47
REMARK SMILES IDX 64 48 20 50 52 51 32 52 51 53 33 54 36 55 50 56 69 57 34 58
REMARK SMILES IDX 35 59 49 61 70 62 37 63 21 64 22 65 30 66 23 67 25 68 31 69
REMARK SMILES IDX 24 70 26 71 27 72 28 73 29 74 53 75 54 76 62 77 55 78 57 79
REMARK SMILES IDX 63 80 56 81 58 82 59 83 60 84 61 85 38 86 39 87 47 88 40 89
REMARK SMILES IDX 42 90 48 91 41 92 43 93 44 94 45 95 46 96
REMARK H PARENT 5 6 1 14 1 15 1 16 9 30 68 49 36 60
REMARK Flexibility Score: inf
ROOT
ATOM      1  C   UNL A   1      33.633  29.000  24.055  1.00  0.00     0.042 C 
ENDROOT
BRANCH   1   2
ATOM      2  C   UNL A   1      32.628  28.757  22.927  1.00  0.00     0.118 C 
BRANCH   2   3
ATOM      3  N   UNL A   1      33.040  27.721  21.996  1.00  0.00    -0.351 N 
ATOM      4  C   UNL A   1      32.833  26.370  21.983  1.00  0.00     0.281 C 
ATOM      5  O   UNL A   1      33.234  25.773  20.975  1.00  0.00    -0.268 OA
ATOM      6  H   UNL A   1      33.568  28.054  21.234  1.00  0.00     0.163 HD
BRANCH   4   7
ATOM      7  C   UNL A   1      32.026  25.607  23.099  1.00  0.00     0.177 C 
ATOM      8  C   UNL A   1      30.866  26.508  23.580  1.00  0.00     0.079 C 
ATOM      9  C   UNL A   1      32.985  25.350  24.284  1.00  0.00     0.124 C 
ATOM     10  C   UNL A   1      30.098  25.917  24.763  1.00  0.00     0.011 C 
ATOM     11  C   UNL A   1      32.347  24.961  25.635  1.00  0.00     0.180 C 
ATOM     12  C   UNL A   1      31.001  25.629  25.958  1.00  0.00     0.046 C 
BRANCH   7  13
ATOM     13  N   UNL A   1      31.417  24.396  22.536  1.00  0.00    -0.345 N 
ATOM     14  H   UNL A   1      32.151  23.741  22.265  1.00  0.00     0.345 HD
ATOM     15  H   UNL A   1      30.862  24.643  21.717  1.00  0.00     0.345 HD
ATOM     16  H   UNL A   1      30.815  23.960  23.235  1.00  0.00     0.345 HD
ENDBRANCH   7  13
BRANCH  11  17
ATOM     17  O   UNL A   1      32.427  23.569  26.021  1.00  0.00    -0.483 OA
BRANCH  17  18
ATOM     18  C   UNL A   1      33.593  22.912  25.776  1.00  0.00     0.197 A 
ATOM     19  C   UNL A   1      34.785  23.466  26.245  1.00  0.00     0.054 A 
ATOM     20  C   UNL A   1      33.648  21.736  25.018  1.00  0.00     0.310 A 
ATOM     21  C   UNL A   1      35.988  22.769  26.105  1.00  0.00     0.004 A 
ATOM     22  C   UNL A   1      34.846  21.017  24.896  1.00  0.00     0.090 A 
ATOM     23  C   UNL A   1      36.011  21.529  25.466  1.00  0.00     0.007 A 
BRANCH  20  24
ATOM     24  N   UNL A   1      32.454  21.195  24.381  1.00  0.00     0.066 N 
ATOM     25  O   UNL A   1      32.184  21.620  23.247  1.00  0.00    -0.258 OA
ATOM     26  O   UNL A   1      31.779  20.365  25.002  1.00  0.00    -0.258 OA
ENDBRANCH  20  24
ENDBRANCH  17  18
ENDBRANCH  11  17
ENDBRANCH   4   7
ENDBRANCH   2   3
ENDBRANCH   1   2
BRANCH   1  27
ATOM     27  C   UNL A   1      33.016  28.974  25.446  1.00  0.00     0.118 C 
BRANCH  27  28
ATOM     28  N   UNL A   1      32.561  30.289  25.887  1.00  0.00    -0.352 N 
ATOM     29  C   UNL A   1      33.103  31.147  26.813  1.00  0.00     0.251 C 
ATOM     30  H   UNL A   1      31.739  30.612  25.452  1.00  0.00     0.163 HD
ATOM     31  O   UNL A   1      32.486  32.166  27.120  1.00  0.00    -0.269 OA
BRANCH  29  32
ATOM     32  C   UNL A   1      34.397  30.844  27.467  1.00  0.00     0.039 A 
ATOM     33  C   UNL A   1      35.309  31.885  27.670  1.00  0.00     0.014 A 
ATOM     34  C   UNL A   1      34.722  29.549  27.873  1.00  0.00     0.014 A 
ATOM     35  C   UNL A   1      36.513  31.639  28.335  1.00  0.00     0.010 A 
ATOM     36  C   UNL A   1      35.874  29.325  28.619  1.00  0.00     0.010 A 
ATOM     37  C   UNL A   1      36.790  30.363  28.849  1.00  0.00    -0.014 A 
BRANCH  37  38
ATOM     38  C   UNL A   1      38.029  30.079  29.617  1.00  0.00     0.031 A 
ATOM     39  C   UNL A   1      39.047  29.113  29.068  1.00  0.00     0.074 A 
ATOM     40  C   UNL A   1      38.192  30.608  30.846  1.00  0.00     0.049 A 
ATOM     41  N   UNL A   1      40.130  28.645  29.632  1.00  0.00    -0.248 NA
ATOM     42  C   UNL A   1      38.794  28.569  27.722  1.00  0.00     0.031 C 
ATOM     43  C   UNL A   1      37.238  31.493  31.520  1.00  0.00     0.029 A 
ATOM     44  N   UNL A   1      39.201  30.451  31.764  1.00  0.00    -0.354 N 
ATOM     45  C   UNL A   1      40.660  27.727  28.733  1.00  0.00     0.074 A 
ATOM     46  C   UNL A   1      39.758  27.669  27.605  1.00  0.00     0.031 C 
ATOM     47  C   UNL A   1      37.707  31.800  32.741  1.00  0.00     0.029 A 
ATOM     48  C   UNL A   1      38.973  31.106  32.953  1.00  0.00     0.049 A 
ATOM     49  H   UNL A   1      40.011  29.920  31.588  1.00  0.00     0.167 HD
ATOM     50  C   UNL A   1      41.811  27.018  28.821  1.00  0.00     0.034 A 
ATOM     51  C   UNL A   1      39.696  31.133  34.090  1.00  0.00     0.034 A 
ATOM     52  C   UNL A   1      42.730  27.119  29.922  1.00  0.00     0.049 A 
ATOM     53  C   UNL A   1      40.996  30.377  34.142  1.00  0.00     0.074 A 
ATOM     54  C   UNL A   1      43.963  26.511  30.072  1.00  0.00     0.029 A 
ATOM     55  N   UNL A   1      42.516  27.878  31.061  1.00  0.00    -0.354 N 
ATOM     56  N   UNL A   1      41.551  29.625  33.221  1.00  0.00    -0.248 NA
ATOM     57  C   UNL A   1      41.789  30.500  35.374  1.00  0.00     0.031 C 
ATOM     58  C   UNL A   1      44.485  26.886  31.313  1.00  0.00     0.029 A 
ATOM     59  C   UNL A   1      43.592  27.754  31.921  1.00  0.00     0.049 A 
ATOM     60  H   UNL A   1      41.715  28.426  31.233  1.00  0.00     0.167 HD
ATOM     61  C   UNL A   1      42.774  29.222  33.744  1.00  0.00     0.074 A 
ATOM     62  C   UNL A   1      42.887  29.827  35.054  1.00  0.00     0.031 C 
ATOM     63  C   UNL A   1      43.713  28.414  33.196  1.00  0.00     0.034 A 
BRANCH  50  64
ATOM     64  C   UNL A   1      42.171  26.116  27.669  1.00  0.00     0.023 A 
ATOM     65  C   UNL A   1      42.962  26.616  26.613  1.00  0.00     0.012 A 
ATOM     66  C   UNL A   1      41.778  24.763  27.654  1.00  0.00     0.148 A 
ATOM     67  C   UNL A   1      43.324  25.798  25.545  1.00  0.00     0.002 A 
ATOM     68  C   UNL A   1      42.185  23.940  26.610  1.00  0.00     0.091 A 
ATOM     69  F   UNL A   1      41.012  24.309  28.655  1.00  0.00    -0.205 F 
ATOM     70  C   UNL A   1      42.945  24.459  25.548  1.00  0.00     0.022 A 
BRANCH  68  71
ATOM     71  S   UNL A   1      41.822  22.181  26.560  1.00  0.00     0.127 S 
ATOM     72  O   UNL A   1      40.367  22.185  26.408  1.00  0.00    -0.237 OA
ATOM     73  O   UNL A   1      42.557  21.752  25.371  1.00  0.00    -0.237 OA
ATOM     74  O   UNL A   1      42.315  21.632  27.814  1.00  0.00    -0.744 OA
ENDBRANCH  68  71
ENDBRANCH  50  64
BRANCH  51  75
ATOM     75  C   UNL A   1      39.236  31.947  35.251  1.00  0.00     0.023 A 
ATOM     76  C   UNL A   1      38.317  31.394  36.167  1.00  0.00     0.012 A 
ATOM     77  C   UNL A   1      39.710  33.256  35.466  1.00  0.00     0.148 A 
ATOM     78  C   UNL A   1      37.851  32.141  37.249  1.00  0.00     0.002 A 
ATOM     79  C   UNL A   1      39.287  33.973  36.578  1.00  0.00     0.091 A 
ATOM     80  F   UNL A   1      40.576  33.770  34.580  1.00  0.00    -0.205 F 
ATOM     81  C   UNL A   1      38.342  33.427  37.459  1.00  0.00     0.022 A 
BRANCH  79  82
ATOM     82  S   UNL A   1      39.970  35.580  37.003  1.00  0.00     0.127 S 
ATOM     83  O   UNL A   1      39.276  35.881  38.252  1.00  0.00    -0.237 OA
ATOM     84  O   UNL A   1      41.394  35.277  37.146  1.00  0.00    -0.237 OA
ATOM     85  O   UNL A   1      39.655  36.451  35.878  1.00  0.00    -0.744 OA
ENDBRANCH  79  82
ENDBRANCH  51  75
BRANCH  63  86
ATOM     86  C   UNL A   1      44.976  28.173  33.981  1.00  0.00     0.023 A 
ATOM     87  C   UNL A   1      46.105  28.986  33.766  1.00  0.00     0.012 A 
ATOM     88  C   UNL A   1      45.009  27.191  34.990  1.00  0.00     0.148 A 
ATOM     89  C   UNL A   1      47.262  28.804  34.523  1.00  0.00     0.002 A 
ATOM     90  C   UNL A   1      46.146  27.050  35.776  1.00  0.00     0.091 A 
ATOM     91  F   UNL A   1      43.929  26.416  35.165  1.00  0.00    -0.205 F 
ATOM     92  C   UNL A   1      47.277  27.846  35.535  1.00  0.00     0.022 A 
BRANCH  90  93
ATOM     93  S   UNL A   1      46.221  25.915  37.166  1.00  0.00     0.127 S 
ATOM     94  O   UNL A   1      47.416  26.382  37.867  1.00  0.00    -0.237 OA
ATOM     95  O   UNL A   1      44.961  26.191  37.858  1.00  0.00    -0.237 OA
ATOM     96  O   UNL A   1      46.316  24.580  36.591  1.00  0.00    -0.744 OA
ENDBRANCH  90  93
ENDBRANCH  63  86
ENDBRANCH  37  38
ENDBRANCH  29  32
ENDBRANCH  27  28
ENDBRANCH   1  27
TORSDOF 17
ENDMDL
MODEL 3
REMARK VINA RESULT:     -12.2      2.610      8.081
REMARK SMILES [NH3+][C@@]1(C(=O)NCCCNC(=O)c2ccc(-c3c4nc(c(-c5cccc(S(=O)(=O)[O-])c5F)c5ccc([nH]5)c(-c5cccc(S(=O)(=O)[O-])c5F)c5nc(c(-c6cccc(S(=O)(=O)[O-])c6F)c6ccc3[nH]6)C=C5)C=C4)cc2)CCC[C@@H](Oc2ccccc2[N+](=O)[O-])C1
REMARK SMILES IDX 7 1 6 2 5 3 3 4 4 5 2 7 75 8 89 9 76 10 78 11 77 12 1 13
REMARK SMILES IDX 79 17 80 18 81 19 85 20 82 21 84 22 83 23 86 24 87 25 88 26
REMARK SMILES IDX 8 27 9 28 10 29 11 31 12 32 13 33 74 34 14 35 73 36 15 37
REMARK SMILES IDX 16 38 17 39 67 40 18 41 72 42 66 43 68 44 19 45 71 46 65 47
REMARK SMILES IDX 64 48 20 50 52 51 32 52 51 53 33 54 36 55 50 56 69 57 34 58
REMARK SMILES IDX 35 59 49 61 70 62 37 63 21 64 22 65 30 66 23 67 25 68 31 69
REMARK SMILES IDX 24 70 26 71 27 72 28 73 29 74 53 75 54 76 62 77 55 78 57 79
REMARK SMILES IDX 63 80 56 81 58 82 59 83 60 84 61 85 38 86 39 87 47 88 40 89
REMARK SMILES IDX 42 90 48 91 41 92 43 93 44 94 45 95 46 96
REMARK H PARENT 5 6 1 14 1 15 1 16 9 30 68 49 36 60
REMARK Flexibility Score: inf
ROOT
ATOM      1  C   UNL A   1      33.317  29.315  24.476  1.00  0.00     0.042 C 
ENDROOT
BRANCH   1   2
ATOM      2  C   UNL A   1      32.411  28.946  23.301  1.00  0.00     0.118 C 
BRANCH   2   3
ATOM      3  N   UNL A   1      33.025  28.019  22.365  1.00  0.00    -0.351 N 
ATOM      4  C   UNL A   1      32.936  26.661  22.235  1.00  0.00     0.281 C 
ATOM      5  O   UNL A   1      33.511  26.176  21.251  1.00  0.00    -0.268 OA
ATOM      6  H   UNL A   1      33.614  28.449  21.703  1.00  0.00     0.163 HD
BRANCH   4   7
ATOM      7  C   UNL A   1      32.063  25.755  23.180  1.00  0.00     0.177 C 
ATOM      8  C   UNL A   1      30.750  26.499  23.510  1.00  0.00     0.079 C 
ATOM      9  C   UNL A   1      32.856  25.536  24.490  1.00  0.00     0.124 C 
ATOM     10  C   UNL A   1      29.885  25.764  24.534  1.00  0.00     0.011 C 
ATOM     11  C   UNL A   1      32.071  25.006  25.708  1.00  0.00     0.180 C 
ATOM     12  C   UNL A   1      30.624  25.508  25.844  1.00  0.00     0.046 C 
BRANCH   7  13
ATOM     13  N   UNL A   1      31.688  24.520  22.483  1.00  0.00    -0.345 N 
ATOM     14  H   UNL A   1      32.461  23.856  22.527  1.00  0.00     0.345 HD
ATOM     15  H   UNL A   1      31.476  24.730  21.508  1.00  0.00     0.345 HD
ATOM     16  H   UNL A   1      30.866  24.112  22.929  1.00  0.00     0.345 HD
ENDBRANCH   7  13
BRANCH  11  17
ATOM     17  O   UNL A   1      32.250  23.611  26.048  1.00  0.00    -0.483 OA
BRANCH  17  18
ATOM     18  C   UNL A   1      33.461  23.049  25.788  1.00  0.00     0.197 A 
ATOM     19  C   UNL A   1      34.608  23.672  26.281  1.00  0.00     0.054 A 
ATOM     20  C   UNL A   1      33.603  21.906  24.993  1.00  0.00     0.310 A 
ATOM     21  C   UNL A   1      35.859  23.070  26.125  1.00  0.00     0.004 A 
ATOM     22  C   UNL A   1      34.851  21.279  24.855  1.00  0.00     0.090 A 
ATOM     23  C   UNL A   1      35.974  21.856  25.446  1.00  0.00     0.007 A 
BRANCH  20  24
ATOM     24  N   UNL A   1      32.454  21.300  24.332  1.00  0.00     0.066 N 
ATOM     25  O   UNL A   1      31.778  20.505  25.003  1.00  0.00    -0.258 OA
ATOM     26  O   UNL A   1      32.229  21.597  23.152  1.00  0.00    -0.258 OA
ENDBRANCH  20  24
ENDBRANCH  17  18
ENDBRANCH  11  17
ENDBRANCH   4   7
ENDBRANCH   2   3
ENDBRANCH   1   2
BRANCH   1  27
ATOM     27  C   UNL A   1      32.578  29.469  25.799  1.00  0.00     0.118 C 
BRANCH  27  28
ATOM     28  N   UNL A   1      32.388  30.865  26.179  1.00  0.00    -0.352 N 
ATOM     29  C   UNL A   1      33.106  31.651  27.049  1.00  0.00     0.251 C 
ATOM     30  H   UNL A   1      31.627  31.314  25.745  1.00  0.00     0.163 HD
ATOM     31  O   UNL A   1      32.696  32.780  27.315  1.00  0.00    -0.269 OA
BRANCH  29  32
ATOM     32  C   UNL A   1      34.339  31.144  27.691  1.00  0.00     0.039 A 
ATOM     33  C   UNL A   1      35.388  32.037  27.935  1.00  0.00     0.014 A 
ATOM     34  C   UNL A   1      34.476  29.801  28.048  1.00  0.00     0.014 A 
ATOM     35  C   UNL A   1      36.541  31.599  28.590  1.00  0.00     0.010 A 
ATOM     36  C   UNL A   1      35.582  29.389  28.785  1.00  0.00     0.010 A 
ATOM     37  C   UNL A   1      36.633  30.278  29.055  1.00  0.00    -0.014 A 
BRANCH  37  38
ATOM     38  C   UNL A   1      37.815  29.794  29.812  1.00  0.00     0.031 A 
ATOM     39  C   UNL A   1      38.089  30.326  31.195  1.00  0.00     0.074 A 
ATOM     40  C   UNL A   1      38.693  28.958  29.222  1.00  0.00     0.049 A 
ATOM     41  N   UNL A   1      39.122  30.120  31.970  1.00  0.00    -0.248 NA
ATOM     42  C   UNL A   1      37.088  31.243  31.768  1.00  0.00     0.031 C 
ATOM     43  C   UNL A   1      38.581  28.437  27.858  1.00  0.00     0.029 A 
ATOM     44  N   UNL A   1      39.874  28.427  29.681  1.00  0.00    -0.354 N 
ATOM     45  C   UNL A   1      38.917  30.910  33.095  1.00  0.00     0.074 A 
ATOM     46  C   UNL A   1      37.682  31.633  32.885  1.00  0.00     0.031 C 
ATOM     47  C   UNL A   1      39.645  27.664  27.591  1.00  0.00     0.029 A 
ATOM     48  C   UNL A   1      40.535  27.662  28.748  1.00  0.00     0.049 A 
ATOM     49  H   UNL A   1      40.214  28.580  30.592  1.00  0.00     0.167 HD
ATOM     50  C   UNL A   1      39.668  31.003  34.218  1.00  0.00     0.034 A 
ATOM     51  C   UNL A   1      41.729  27.042  28.811  1.00  0.00     0.034 A 
ATOM     52  C   UNL A   1      40.867  30.242  34.442  1.00  0.00     0.049 A 
ATOM     53  C   UNL A   1      42.521  27.119  30.090  1.00  0.00     0.074 A 
ATOM     54  C   UNL A   1      41.658  30.196  35.576  1.00  0.00     0.029 A 
ATOM     55  N   UNL A   1      41.448  29.393  33.514  1.00  0.00    -0.354 N 
ATOM     56  N   UNL A   1      42.235  27.760  31.199  1.00  0.00    -0.248 NA
ATOM     57  C   UNL A   1      43.779  26.361  30.141  1.00  0.00     0.031 C 
ATOM     58  C   UNL A   1      42.730  29.335  35.325  1.00  0.00     0.029 A 
ATOM     59  C   UNL A   1      42.588  28.819  34.046  1.00  0.00     0.049 A 
ATOM     60  H   UNL A   1      41.100  29.223  32.608  1.00  0.00     0.167 HD
ATOM     61  C   UNL A   1      43.254  27.447  32.091  1.00  0.00     0.074 A 
ATOM     62  C   UNL A   1      44.153  26.547  31.400  1.00  0.00     0.031 C 
ATOM     63  C   UNL A   1      43.437  27.877  33.363  1.00  0.00     0.034 A 
BRANCH  50  64
ATOM     64  C   UNL A   1      39.184  31.916  35.315  1.00  0.00     0.023 A 
ATOM     65  C   UNL A   1      38.230  31.446  36.242  1.00  0.00     0.012 A 
ATOM     66  C   UNL A   1      39.711  33.214  35.467  1.00  0.00     0.148 A 
ATOM     67  C   UNL A   1      37.779  32.264  37.276  1.00  0.00     0.002 A 
ATOM     68  C   UNL A   1      39.293  34.005  36.530  1.00  0.00     0.091 A 
ATOM     69  F   UNL A   1      40.604  33.650  34.568  1.00  0.00    -0.205 F 
ATOM     70  C   UNL A   1      38.317  33.538  37.426  1.00  0.00     0.022 A 
BRANCH  68  71
ATOM     71  S   UNL A   1      39.985  35.629  36.864  1.00  0.00     0.127 S 
ATOM     72  O   UNL A   1      39.302  35.991  38.106  1.00  0.00    -0.237 OA
ATOM     73  O   UNL A   1      41.408  35.331  37.015  1.00  0.00    -0.237 OA
ATOM     74  O   UNL A   1      39.654  36.454  35.710  1.00  0.00    -0.744 OA
ENDBRANCH  68  71
ENDBRANCH  50  64
BRANCH  51  75
ATOM     75  C   UNL A   1      42.224  26.246  27.651  1.00  0.00     0.023 A 
ATOM     76  C   UNL A   1      43.066  26.857  26.700  1.00  0.00     0.012 A 
ATOM     77  C   UNL A   1      41.882  24.889  27.491  1.00  0.00     0.148 A 
ATOM     78  C   UNL A   1      43.524  26.143  25.591  1.00  0.00     0.002 A 
ATOM     79  C   UNL A   1      42.389  24.169  26.417  1.00  0.00     0.091 A 
ATOM     80  F   UNL A   1      41.072  24.327  28.400  1.00  0.00    -0.205 F 
ATOM     81  C   UNL A   1      43.193  24.798  25.454  1.00  0.00     0.022 A 
BRANCH  79  82
ATOM     82  S   UNL A   1      42.127  22.400  26.235  1.00  0.00     0.127 S 
ATOM     83  O   UNL A   1      40.673  22.322  26.125  1.00  0.00    -0.237 OA
ATOM     84  O   UNL A   1      42.855  22.111  25.000  1.00  0.00    -0.237 OA
ATOM     85  O   UNL A   1      42.706  21.793  27.426  1.00  0.00    -0.744 OA
ENDBRANCH  79  82
ENDBRANCH  51  75
BRANCH  63  86
ATOM     86  C   UNL A   1      44.624  27.342  34.121  1.00  0.00     0.023 A 
ATOM     87  C   UNL A   1      45.847  28.040  34.101  1.00  0.00     0.012 A 
ATOM     88  C   UNL A   1      44.496  26.187  34.918  1.00  0.00     0.148 A 
ATOM     89  C   UNL A   1      46.936  27.579  34.840  1.00  0.00     0.002 A 
ATOM     90  C   UNL A   1      45.570  25.763  35.693  1.00  0.00     0.091 A 
ATOM     91  F   UNL A   1      43.329  25.528  34.907  1.00  0.00    -0.205 F 
ATOM     92  C   UNL A   1      46.793  26.451  35.644  1.00  0.00     0.022 A 
BRANCH  90  93
ATOM     93  S   UNL A   1      45.447  24.383  36.834  1.00  0.00     0.127 S 
ATOM     94  O   UNL A   1      44.391  24.837  37.737  1.00  0.00    -0.237 OA
ATOM     95  O   UNL A   1      45.062  23.283  35.949  1.00  0.00    -0.237 OA
ATOM     96  O   UNL A   1      46.766  24.241  37.438  1.00  0.00    -0.744 OA
ENDBRANCH  90  93
ENDBRANCH  63  86
ENDBRANCH  37  38
ENDBRANCH  29  32
ENDBRANCH  27  28
ENDBRANCH   1  27
TORSDOF 17
ENDMDL
