MODEL 1
REMARK VINA RESULT:     -11.5      0.000      0.000
REMARK SMILES Cc1cc(Br)cc([N+](=O)[O-])c1OCCC(=O)NCCCNC(=O)c1ccc(-c2c3nc(c(-c4cccc(S(=O)(=O)[O-])c4F)c4ccc([nH]4)c(-c4cccc(S(=O)(=O)[O-])c4F)c4nc(c(-c5cccc(S(=O)(=O)[O-])c5F)c5ccc2[nH]5)C=C4)C=C3)cc1
REMARK SMILES IDX 18 1 17 2 15 3 16 4 14 6 13 7 12 8 11 9 1 10 2 11 3 12 4 13
REMARK SMILES IDX 7 14 5 15 6 16 8 17 9 18 10 19 19 20 20 21 21 22 22 23 23 25
REMARK SMILES IDX 24 26 25 27 86 28 26 29 85 30 27 31 28 32 29 33 79 34 30 35
REMARK SMILES IDX 84 36 78 37 80 38 31 39 83 40 77 41 76 42 32 44 64 45 44 46
REMARK SMILES IDX 63 47 45 48 48 49 62 50 81 51 46 52 47 53 61 55 82 56 49 57
REMARK SMILES IDX 33 58 34 59 42 60 35 61 37 62 43 63 36 64 38 65 39 66 40 67
REMARK SMILES IDX 41 68 65 69 66 70 74 71 67 72 69 73 75 74 68 75 70 76 71 77
REMARK SMILES IDX 72 78 73 79 50 80 51 81 59 82 52 83 54 84 60 85 53 86 55 87
REMARK SMILES IDX 56 88 57 89 58 90
REMARK H PARENT 17 5 21 24 80 43 48 54
REMARK Flexibility Score: inf
ROOT
ATOM      1  C   UNL A   1      32.805  28.635  23.473  1.00  0.00     0.117 C 
ENDROOT
BRANCH   1   2
ATOM      2  N   UNL A   1      31.429  28.869  23.054  1.00  0.00    -0.356 N 
ATOM      3  C   UNL A   1      30.296  28.133  23.256  1.00  0.00     0.223 C 
ATOM      4  O   UNL A   1      29.211  28.667  23.012  1.00  0.00    -0.275 OA
ATOM      5  H   UNL A   1      31.293  29.695  22.537  1.00  0.00     0.163 HD
BRANCH   3   6
ATOM      6  C   UNL A   1      30.350  26.719  23.787  1.00  0.00     0.141 C 
BRANCH   6   7
ATOM      7  C   UNL A   1      31.057  25.712  22.884  1.00  0.00     0.240 C 
BRANCH   7   8
ATOM      8  O   UNL A   1      31.668  24.654  23.594  1.00  0.00    -0.486 OA
BRANCH   8   9
ATOM      9  C   UNL A   1      32.960  24.586  24.018  1.00  0.00     0.200 A 
ATOM     10  C   UNL A   1      33.002  26.092  26.184  1.00  0.00     0.049 C 
ATOM     11  C   UNL A   1      33.545  25.109  25.185  1.00  0.00    -0.001 A 
ATOM     12  C   UNL A   1      34.849  24.679  25.535  1.00  0.00     0.023 A 
ATOM     13  C   UNL A   1      35.601  23.828  24.735  1.00  0.00     0.025 A 
ATOM     14  C   UNL A   1      33.779  23.761  23.189  1.00  0.00     0.312 A 
ATOM     15  Br  UNL A   1      37.307  23.298  25.337  1.00  0.00    -0.051 Br
ATOM     16  C   UNL A   1      35.086  23.383  23.534  1.00  0.00     0.105 A 
BRANCH  14  17
ATOM     17  N   UNL A   1      33.227  23.148  21.974  1.00  0.00     0.066 N 
ATOM     18  O   UNL A   1      32.615  22.076  22.123  1.00  0.00    -0.258 OA
ATOM     19  O   UNL A   1      33.378  23.734  20.896  1.00  0.00    -0.258 OA
ENDBRANCH  14  17
ENDBRANCH   8   9
ENDBRANCH   7   8
ENDBRANCH   6   7
ENDBRANCH   3   6
ENDBRANCH   1   2
BRANCH   1  20
ATOM     20  C   UNL A   1      33.255  29.449  24.689  1.00  0.00     0.042 C 
BRANCH  20  21
ATOM     21  C   UNL A   1      32.224  29.634  25.817  1.00  0.00     0.118 C 
BRANCH  21  22
ATOM     22  N   UNL A   1      32.138  31.019  26.255  1.00  0.00    -0.352 N 
ATOM     23  C   UNL A   1      32.904  31.803  27.087  1.00  0.00     0.251 C 
ATOM     24  H   UNL A   1      31.366  31.497  25.874  1.00  0.00     0.163 HD
ATOM     25  O   UNL A   1      32.418  32.893  27.405  1.00  0.00    -0.269 OA
BRANCH  23  26
ATOM     26  C   UNL A   1      34.262  31.463  27.615  1.00  0.00     0.039 A 
ATOM     27  C   UNL A   1      34.478  30.138  28.028  1.00  0.00     0.014 A 
ATOM     28  C   UNL A   1      35.255  32.397  27.907  1.00  0.00     0.014 A 
ATOM     29  C   UNL A   1      35.651  29.758  28.711  1.00  0.00     0.010 A 
ATOM     30  C   UNL A   1      36.458  31.996  28.547  1.00  0.00     0.010 A 
ATOM     31  C   UNL A   1      36.679  30.676  28.977  1.00  0.00    -0.014 A 
BRANCH  31  32
ATOM     32  C   UNL A   1      37.941  30.241  29.692  1.00  0.00     0.031 A 
ATOM     33  C   UNL A   1      38.276  30.688  31.108  1.00  0.00     0.074 A 
ATOM     34  C   UNL A   1      38.839  29.435  29.075  1.00  0.00     0.049 A 
ATOM     35  N   UNL A   1      39.296  30.350  31.867  1.00  0.00    -0.248 NA
ATOM     36  C   UNL A   1      37.369  31.653  31.746  1.00  0.00     0.031 C 
ATOM     37  C   UNL A   1      38.745  28.970  27.691  1.00  0.00     0.029 A 
ATOM     38  N   UNL A   1      40.015  28.872  29.527  1.00  0.00    -0.354 N 
ATOM     39  C   UNL A   1      39.171  31.080  33.049  1.00  0.00     0.074 A 
ATOM     40  C   UNL A   1      37.994  31.909  32.888  1.00  0.00     0.031 C 
ATOM     41  C   UNL A   1      39.795  28.180  27.415  1.00  0.00     0.029 A 
ATOM     42  C   UNL A   1      40.662  28.097  28.587  1.00  0.00     0.049 A 
ATOM     43  H   UNL A   1      40.361  29.010  30.438  1.00  0.00     0.167 HD
ATOM     44  C   UNL A   1      39.930  31.055  34.176  1.00  0.00     0.034 A 
ATOM     45  C   UNL A   1      41.817  27.397  28.643  1.00  0.00     0.034 A 
ATOM     46  C   UNL A   1      41.080  30.207  34.384  1.00  0.00     0.049 A 
ATOM     47  C   UNL A   1      42.617  27.341  29.918  1.00  0.00     0.074 A 
ATOM     48  C   UNL A   1      41.836  30.052  35.536  1.00  0.00     0.029 A 
ATOM     49  N   UNL A   1      41.651  29.385  33.428  1.00  0.00    -0.354 N 
ATOM     50  N   UNL A   1      42.372  27.908  31.073  1.00  0.00    -0.248 NA
ATOM     51  C   UNL A   1      43.834  26.511  29.910  1.00  0.00     0.031 C 
ATOM     52  C   UNL A   1      42.884  29.164  35.265  1.00  0.00     0.029 A 
ATOM     53  C   UNL A   1      42.754  28.730  33.959  1.00  0.00     0.049 A 
ATOM     54  H   UNL A   1      41.322  29.279  32.506  1.00  0.00     0.167 HD
ATOM     55  C   UNL A   1      43.374  27.469  31.935  1.00  0.00     0.074 A 
ATOM     56  C   UNL A   1      44.219  26.573  31.177  1.00  0.00     0.031 C 
ATOM     57  C   UNL A   1      43.576  27.793  33.236  1.00  0.00     0.034 A 
BRANCH  44  58
ATOM     58  C   UNL A   1      39.514  31.941  35.332  1.00  0.00     0.023 A 
ATOM     59  C   UNL A   1      39.845  33.312  35.311  1.00  0.00     0.012 A 
ATOM     60  C   UNL A   1      38.722  31.444  36.388  1.00  0.00     0.148 A 
ATOM     61  C   UNL A   1      39.438  34.161  36.339  1.00  0.00     0.002 A 
ATOM     62  C   UNL A   1      38.278  32.307  37.385  1.00  0.00     0.091 A 
ATOM     63  F   UNL A   1      38.413  30.139  36.397  1.00  0.00    -0.205 F 
ATOM     64  C   UNL A   1      38.646  33.662  37.369  1.00  0.00     0.022 A 
BRANCH  62  65
ATOM     65  S   UNL A   1      37.179  31.787  38.710  1.00  0.00     0.127 S 
ATOM     66  O   UNL A   1      36.055  32.705  38.537  1.00  0.00    -0.237 OA
ATOM     67  O   UNL A   1      36.894  30.399  38.350  1.00  0.00    -0.237 OA
ATOM     68  O   UNL A   1      37.935  31.952  39.946  1.00  0.00    -0.744 OA
ENDBRANCH  62  65
ENDBRANCH  44  58
BRANCH  45  69
ATOM     69  C   UNL A   1      42.274  26.621  27.450  1.00  0.00     0.023 A 
ATOM     70  C   UNL A   1      42.940  27.282  26.399  1.00  0.00     0.012 A 
ATOM     71  C   UNL A   1      42.045  25.234  27.350  1.00  0.00     0.148 A 
ATOM     72  C   UNL A   1      43.337  26.588  25.257  1.00  0.00     0.002 A 
ATOM     73  C   UNL A   1      42.497  24.538  26.236  1.00  0.00     0.091 A 
ATOM     74  F   UNL A   1      41.394  24.625  28.351  1.00  0.00    -0.205 F 
ATOM     75  C   UNL A   1      43.126  25.214  25.179  1.00  0.00     0.022 A 
BRANCH  73  76
ATOM     76  S   UNL A   1      42.381  22.750  26.101  1.00  0.00     0.127 S 
ATOM     77  O   UNL A   1      40.938  22.538  26.155  1.00  0.00    -0.237 OA
ATOM     78  O   UNL A   1      42.994  22.508  24.796  1.00  0.00    -0.237 OA
ATOM     79  O   UNL A   1      43.138  22.221  27.231  1.00  0.00    -0.744 OA
ENDBRANCH  73  76
ENDBRANCH  45  69
BRANCH  57  80
ATOM     80  C   UNL A   1      44.724  27.134  33.965  1.00  0.00     0.023 A 
ATOM     81  C   UNL A   1      46.018  27.691  33.906  1.00  0.00     0.012 A 
ATOM     82  C   UNL A   1      44.509  25.985  34.752  1.00  0.00     0.148 A 
ATOM     83  C   UNL A   1      47.084  27.091  34.579  1.00  0.00     0.002 A 
ATOM     84  C   UNL A   1      45.565  25.421  35.462  1.00  0.00     0.091 A 
ATOM     85  F   UNL A   1      43.278  25.454  34.787  1.00  0.00    -0.205 F 
ATOM     86  C   UNL A   1      46.857  25.963  35.364  1.00  0.00     0.022 A 
BRANCH  84  87
ATOM     87  S   UNL A   1      45.346  24.026  36.573  1.00  0.00     0.127 S 
ATOM     88  O   UNL A   1      44.766  23.022  35.683  1.00  0.00    -0.237 OA
ATOM     89  O   UNL A   1      46.720  23.745  36.994  1.00  0.00    -0.237 OA
ATOM     90  O   UNL A   1      44.473  24.495  37.640  1.00  0.00    -0.744 OA
ENDBRANCH  84  87
ENDBRANCH  57  80
ENDBRANCH  31  32
ENDBRANCH  23  26
ENDBRANCH  21  22
ENDBRANCH  20  21
ENDBRANCH   1  20
TORSDOF 17
ENDMDL
MODEL 2
REMARK VINA RESULT:     -11.4      1.545      2.169
REMARK SMILES Cc1cc(Br)cc([N+](=O)[O-])c1OCCC(=O)NCCCNC(=O)c1ccc(-c2c3nc(c(-c4cccc(S(=O)(=O)[O-])c4F)c4ccc([nH]4)c(-c4cccc(S(=O)(=O)[O-])c4F)c4nc(c(-c5cccc(S(=O)(=O)[O-])c5F)c5ccc2[nH]5)C=C4)C=C3)cc1
REMARK SMILES IDX 18 1 17 2 15 3 16 4 14 6 13 7 12 8 11 9 1 10 2 11 3 12 4 13
REMARK SMILES IDX 7 14 5 15 6 16 8 17 9 18 10 19 19 20 20 21 21 22 22 23 23 25
REMARK SMILES IDX 24 26 25 27 86 28 26 29 85 30 27 31 28 32 29 33 79 34 30 35
REMARK SMILES IDX 84 36 78 37 80 38 31 39 83 40 77 41 76 42 32 44 64 45 44 46
REMARK SMILES IDX 63 47 45 48 48 49 62 50 81 51 46 52 47 53 61 55 82 56 49 57
REMARK SMILES IDX 33 58 34 59 42 60 35 61 37 62 43 63 36 64 38 65 39 66 40 67
REMARK SMILES IDX 41 68 65 69 66 70 74 71 67 72 69 73 75 74 68 75 70 76 71 77
REMARK SMILES IDX 72 78 73 79 50 80 51 81 59 82 52 83 54 84 60 85 53 86 55 87
REMARK SMILES IDX 56 88 57 89 58 90
REMARK H PARENT 17 5 21 24 80 43 48 54
REMARK Flexibility Score: inf
ROOT
ATOM      1  C   UNL A   1      33.903  28.670  24.729  1.00  0.00     0.117 C 
ENDROOT
BRANCH   1   2
ATOM      2  N   UNL A   1      33.993  28.043  23.416  1.00  0.00    -0.356 N 
ATOM      3  C   UNL A   1      33.621  26.798  22.994  1.00  0.00     0.223 C 
ATOM      4  O   UNL A   1      33.575  26.592  21.778  1.00  0.00    -0.275 OA
ATOM      5  H   UNL A   1      34.389  28.611  22.717  1.00  0.00     0.163 HD
BRANCH   3   6
ATOM      6  C   UNL A   1      33.248  25.705  23.968  1.00  0.00     0.141 C 
BRANCH   6   7
ATOM      7  C   UNL A   1      34.395  25.184  24.830  1.00  0.00     0.240 C 
BRANCH   7   8
ATOM      8  O   UNL A   1      34.034  24.083  25.638  1.00  0.00    -0.486 OA
BRANCH   8   9
ATOM      9  C   UNL A   1      33.856  22.793  25.240  1.00  0.00     0.200 A 
ATOM     10  C   UNL A   1      36.192  22.111  24.223  1.00  0.00     0.049 C 
ATOM     11  C   UNL A   1      34.793  21.882  24.721  1.00  0.00    -0.001 A 
ATOM     12  C   UNL A   1      34.426  20.516  24.631  1.00  0.00     0.023 A 
ATOM     13  C   UNL A   1      33.157  20.055  24.958  1.00  0.00     0.025 A 
ATOM     14  C   UNL A   1      32.544  22.298  25.512  1.00  0.00     0.312 A 
ATOM     15  Br  UNL A   1      32.810  18.205  24.835  1.00  0.00    -0.051 Br
ATOM     16  C   UNL A   1      32.189  20.947  25.374  1.00  0.00     0.105 A 
BRANCH  14  17
ATOM     17  N   UNL A   1      31.522  23.180  26.091  1.00  0.00     0.066 N 
ATOM     18  O   UNL A   1      30.755  23.740  25.290  1.00  0.00    -0.258 OA
ATOM     19  O   UNL A   1      31.470  23.293  27.322  1.00  0.00    -0.258 OA
ENDBRANCH  14  17
ENDBRANCH   8   9
ENDBRANCH   7   8
ENDBRANCH   6   7
ENDBRANCH   3   6
ENDBRANCH   1   2
BRANCH   1  20
ATOM     20  C   UNL A   1      32.584  29.394  25.007  1.00  0.00     0.042 C 
BRANCH  20  21
ATOM     21  C   UNL A   1      32.285  29.747  26.475  1.00  0.00     0.118 C 
BRANCH  21  22
ATOM     22  N   UNL A   1      32.385  31.177  26.723  1.00  0.00    -0.352 N 
ATOM     23  C   UNL A   1      33.297  31.966  27.388  1.00  0.00     0.251 C 
ATOM     24  H   UNL A   1      31.643  31.691  26.330  1.00  0.00     0.163 HD
ATOM     25  O   UNL A   1      32.960  33.138  27.584  1.00  0.00    -0.269 OA
BRANCH  23  26
ATOM     26  C   UNL A   1      34.647  31.538  27.869  1.00  0.00     0.039 A 
ATOM     27  C   UNL A   1      34.761  30.241  28.396  1.00  0.00     0.014 A 
ATOM     28  C   UNL A   1      35.744  32.388  28.012  1.00  0.00     0.014 A 
ATOM     29  C   UNL A   1      35.934  29.806  29.047  1.00  0.00     0.010 A 
ATOM     30  C   UNL A   1      36.941  31.926  28.619  1.00  0.00     0.010 A 
ATOM     31  C   UNL A   1      37.061  30.634  29.163  1.00  0.00    -0.014 A 
BRANCH  31  32
ATOM     32  C   UNL A   1      38.319  30.140  29.845  1.00  0.00     0.031 A 
ATOM     33  C   UNL A   1      38.735  30.603  31.234  1.00  0.00     0.074 A 
ATOM     34  C   UNL A   1      39.141  29.262  29.220  1.00  0.00     0.049 A 
ATOM     35  N   UNL A   1      39.759  30.220  31.966  1.00  0.00    -0.248 NA
ATOM     36  C   UNL A   1      37.915  31.640  31.875  1.00  0.00     0.031 C 
ATOM     37  C   UNL A   1      38.966  28.766  27.855  1.00  0.00     0.029 A 
ATOM     38  N   UNL A   1      40.296  28.637  29.646  1.00  0.00    -0.354 N 
ATOM     39  C   UNL A   1      39.725  30.989  33.129  1.00  0.00     0.074 A 
ATOM     40  C   UNL A   1      38.597  31.886  32.987  1.00  0.00     0.031 C 
ATOM     41  C   UNL A   1      39.953  27.903  27.564  1.00  0.00     0.029 A 
ATOM     42  C   UNL A   1      40.857  27.797  28.707  1.00  0.00     0.049 A 
ATOM     43  H   UNL A   1      40.684  28.777  30.539  1.00  0.00     0.167 HD
ATOM     44  C   UNL A   1      40.524  30.946  34.228  1.00  0.00     0.034 A 
ATOM     45  C   UNL A   1      41.967  27.027  28.741  1.00  0.00     0.034 A 
ATOM     46  C   UNL A   1      41.625  30.032  34.420  1.00  0.00     0.049 A 
ATOM     47  C   UNL A   1      42.809  26.955  29.988  1.00  0.00     0.074 A 
ATOM     48  C   UNL A   1      42.413  29.860  35.548  1.00  0.00     0.029 A 
ATOM     49  N   UNL A   1      42.106  29.150  33.468  1.00  0.00    -0.354 N 
ATOM     50  N   UNL A   1      42.644  27.567  31.134  1.00  0.00    -0.248 NA
ATOM     51  C   UNL A   1      43.970  26.049  29.961  1.00  0.00     0.031 C 
ATOM     52  C   UNL A   1      43.392  28.900  35.266  1.00  0.00     0.029 A 
ATOM     53  C   UNL A   1      43.185  28.441  33.979  1.00  0.00     0.049 A 
ATOM     54  H   UNL A   1      41.737  29.040  32.562  1.00  0.00     0.167 HD
ATOM     55  C   UNL A   1      43.649  27.089  31.972  1.00  0.00     0.074 A 
ATOM     56  C   UNL A   1      44.406  26.120  31.210  1.00  0.00     0.031 C 
ATOM     57  C   UNL A   1      43.919  27.434  33.254  1.00  0.00     0.034 A 
BRANCH  44  58
ATOM     58  C   UNL A   1      40.208  31.887  35.372  1.00  0.00     0.023 A 
ATOM     59  C   UNL A   1      40.950  33.079  35.517  1.00  0.00     0.012 A 
ATOM     60  C   UNL A   1      39.126  31.644  36.244  1.00  0.00     0.148 A 
ATOM     61  C   UNL A   1      40.654  33.986  36.533  1.00  0.00     0.002 A 
ATOM     62  C   UNL A   1      38.805  32.578  37.225  1.00  0.00     0.091 A 
ATOM     63  F   UNL A   1      38.427  30.509  36.096  1.00  0.00    -0.205 F 
ATOM     64  C   UNL A   1      39.576  33.742  37.380  1.00  0.00     0.022 A 
BRANCH  62  65
ATOM     65  S   UNL A   1      37.382  32.406  38.310  1.00  0.00     0.127 S 
ATOM     66  O   UNL A   1      37.265  30.953  38.414  1.00  0.00    -0.237 OA
ATOM     67  O   UNL A   1      37.840  33.070  39.530  1.00  0.00    -0.237 OA
ATOM     68  O   UNL A   1      36.276  33.074  37.633  1.00  0.00    -0.744 OA
ENDBRANCH  62  65
ENDBRANCH  44  58
BRANCH  45  69
ATOM     69  C   UNL A   1      42.329  26.191  27.556  1.00  0.00     0.023 A 
ATOM     70  C   UNL A   1      43.078  26.756  26.505  1.00  0.00     0.012 A 
ATOM     71  C   UNL A   1      41.929  24.843  27.463  1.00  0.00     0.148 A 
ATOM     72  C   UNL A   1      43.390  26.009  25.369  1.00  0.00     0.002 A 
ATOM     73  C   UNL A   1      42.295  24.087  26.357  1.00  0.00     0.091 A 
ATOM     74  F   UNL A   1      41.202  24.328  28.465  1.00  0.00    -0.205 F 
ATOM     75  C   UNL A   1      43.010  24.672  25.299  1.00  0.00     0.022 A 
BRANCH  73  76
ATOM     76  S   UNL A   1      41.957  22.328  26.233  1.00  0.00     0.127 S 
ATOM     77  O   UNL A   1      42.653  21.974  25.000  1.00  0.00    -0.237 OA
ATOM     78  O   UNL A   1      42.570  21.818  27.458  1.00  0.00    -0.237 OA
ATOM     79  O   UNL A   1      40.503  22.210  26.191  1.00  0.00    -0.744 OA
ENDBRANCH  73  76
ENDBRANCH  45  69
BRANCH  57  80
ATOM     80  C   UNL A   1      45.050  26.723  33.960  1.00  0.00     0.023 A 
ATOM     81  C   UNL A   1      46.374  27.194  33.838  1.00  0.00     0.012 A 
ATOM     82  C   UNL A   1      44.794  25.612  34.789  1.00  0.00     0.148 A 
ATOM     83  C   UNL A   1      47.425  26.545  34.489  1.00  0.00     0.002 A 
ATOM     84  C   UNL A   1      45.838  25.002  35.478  1.00  0.00     0.091 A 
ATOM     85  F   UNL A   1      43.534  25.162  34.885  1.00  0.00    -0.205 F 
ATOM     86  C   UNL A   1      47.157  25.456  35.315  1.00  0.00     0.022 A 
BRANCH  84  87
ATOM     87  S   UNL A   1      45.574  23.654  36.637  1.00  0.00     0.127 S 
ATOM     88  O   UNL A   1      46.938  23.366  37.077  1.00  0.00    -0.237 OA
ATOM     89  O   UNL A   1      44.726  24.280  37.653  1.00  0.00    -0.237 OA
ATOM     90  O   UNL A   1      44.924  22.594  35.879  1.00  0.00    -0.744 OA
ENDBRANCH  84  87
ENDBRANCH  57  80
ENDBRANCH  31  32
ENDBRANCH  23  26
ENDBRANCH  21  22
ENDBRANCH  20  21
ENDBRANCH   1  20
TORSDOF 17
ENDMDL
MODEL 3
REMARK VINA RESULT:     -11.4      2.225      2.779
REMARK SMILES Cc1cc(Br)cc([N+](=O)[O-])c1OCCC(=O)NCCCNC(=O)c1ccc(-c2c3nc(c(-c4cccc(S(=O)(=O)[O-])c4F)c4ccc([nH]4)c(-c4cccc(S(=O)(=O)[O-])c4F)c4nc(c(-c5cccc(S(=O)(=O)[O-])c5F)c5ccc2[nH]5)C=C4)C=C3)cc1
REMARK SMILES IDX 18 1 17 2 15 3 16 4 14 6 13 7 12 8 11 9 1 10 2 11 3 12 4 13
REMARK SMILES IDX 7 14 5 15 6 16 8 17 9 18 10 19 19 20 20 21 21 22 22 23 23 25
REMARK SMILES IDX 24 26 25 27 86 28 26 29 85 30 27 31 28 32 29 33 79 34 30 35
REMARK SMILES IDX 84 36 78 37 80 38 31 39 83 40 77 41 76 42 32 44 64 45 44 46
REMARK SMILES IDX 63 47 45 48 48 49 62 50 81 51 46 52 47 53 61 55 82 56 49 57
REMARK SMILES IDX 33 58 34 59 42 60 35 61 37 62 43 63 36 64 38 65 39 66 40 67
REMARK SMILES IDX 41 68 65 69 66 70 74 71 67 72 69 73 75 74 68 75 70 76 71 77
REMARK SMILES IDX 72 78 73 79 50 80 51 81 59 82 52 83 54 84 60 85 53 86 55 87
REMARK SMILES IDX 56 88 57 89 58 90
REMARK H PARENT 17 5 21 24 80 43 48 54
REMARK Flexibility Score: inf
ROOT
ATOM      1  C   UNL A   1      32.428  26.914  26.273  1.00  0.00     0.117 C 
ENDROOT
BRANCH   1   2
ATOM      2  N   UNL A   1      31.622  25.842  26.844  1.00  0.00    -0.356 N 
ATOM      3  C   UNL A   1      31.322  24.599  26.366  1.00  0.00     0.223 C 
ATOM      4  O   UNL A   1      30.822  23.785  27.148  1.00  0.00    -0.275 OA
ATOM      5  H   UNL A   1      31.229  26.049  27.722  1.00  0.00     0.163 HD
BRANCH   3   6
ATOM      6  C   UNL A   1      31.608  24.206  24.935  1.00  0.00     0.141 C 
BRANCH   6   7
ATOM      7  C   UNL A   1      33.048  24.422  24.477  1.00  0.00     0.240 C 
BRANCH   7   8
ATOM      8  O   UNL A   1      33.742  23.219  24.221  1.00  0.00    -0.486 OA
BRANCH   8   9
ATOM      9  C   UNL A   1      33.280  21.949  24.394  1.00  0.00     0.200 A 
ATOM     10  C   UNL A   1      31.813  21.506  22.247  1.00  0.00     0.049 C 
ATOM     11  C   UNL A   1      32.532  21.145  23.516  1.00  0.00    -0.001 A 
ATOM     12  C   UNL A   1      32.400  19.766  23.815  1.00  0.00     0.023 A 
ATOM     13  C   UNL A   1      32.910  19.195  24.973  1.00  0.00     0.025 A 
ATOM     14  C   UNL A   1      33.740  21.345  25.603  1.00  0.00     0.312 A 
ATOM     15  Br  UNL A   1      32.702  17.338  25.230  1.00  0.00    -0.051 Br
ATOM     16  C   UNL A   1      33.560  19.985  25.899  1.00  0.00     0.105 A 
BRANCH  14  17
ATOM     17  N   UNL A   1      34.560  22.111  26.551  1.00  0.00     0.066 N 
ATOM     18  O   UNL A   1      35.791  22.056  26.389  1.00  0.00    -0.258 OA
ATOM     19  O   UNL A   1      33.988  22.775  27.424  1.00  0.00    -0.258 OA
ENDBRANCH  14  17
ENDBRANCH   8   9
ENDBRANCH   7   8
ENDBRANCH   6   7
ENDBRANCH   3   6
ENDBRANCH   1   2
BRANCH   1  20
ATOM     20  C   UNL A   1      31.737  28.278  26.217  1.00  0.00     0.042 C 
BRANCH  20  21
ATOM     21  C   UNL A   1      32.424  29.367  25.372  1.00  0.00     0.118 C 
BRANCH  21  22
ATOM     22  N   UNL A   1      32.208  30.698  25.920  1.00  0.00    -0.352 N 
ATOM     23  C   UNL A   1      32.867  31.459  26.859  1.00  0.00     0.251 C 
ATOM     24  H   UNL A   1      31.422  31.151  25.537  1.00  0.00     0.163 HD
ATOM     25  O   UNL A   1      32.283  32.477  27.240  1.00  0.00    -0.269 OA
BRANCH  23  26
ATOM     26  C   UNL A   1      34.218  31.172  27.434  1.00  0.00     0.039 A 
ATOM     27  C   UNL A   1      34.471  29.858  27.862  1.00  0.00     0.014 A 
ATOM     28  C   UNL A   1      35.165  32.144  27.754  1.00  0.00     0.014 A 
ATOM     29  C   UNL A   1      35.633  29.526  28.587  1.00  0.00     0.010 A 
ATOM     30  C   UNL A   1      36.360  31.792  28.437  1.00  0.00     0.010 A 
ATOM     31  C   UNL A   1      36.616  30.483  28.882  1.00  0.00    -0.014 A 
BRANCH  31  32
ATOM     32  C   UNL A   1      37.868  30.100  29.641  1.00  0.00     0.031 A 
ATOM     33  C   UNL A   1      38.152  30.590  31.055  1.00  0.00     0.074 A 
ATOM     34  C   UNL A   1      38.804  29.304  29.069  1.00  0.00     0.049 A 
ATOM     35  N   UNL A   1      39.159  30.297  31.849  1.00  0.00    -0.248 NA
ATOM     36  C   UNL A   1      37.203  31.544  31.643  1.00  0.00     0.031 C 
ATOM     37  C   UNL A   1      38.760  28.803  27.695  1.00  0.00     0.029 A 
ATOM     38  N   UNL A   1      39.981  28.783  29.566  1.00  0.00    -0.354 N 
ATOM     39  C   UNL A   1      38.982  31.052  33.008  1.00  0.00     0.074 A 
ATOM     40  C   UNL A   1      37.789  31.844  32.796  1.00  0.00     0.031 C 
ATOM     41  C   UNL A   1      39.838  28.035  27.467  1.00  0.00     0.029 A 
ATOM     42  C   UNL A   1      40.674  28.004  28.664  1.00  0.00     0.049 A 
ATOM     43  H   UNL A   1      40.298  28.952  30.483  1.00  0.00     0.167 HD
ATOM     44  C   UNL A   1      39.711  31.074  34.156  1.00  0.00     0.034 A 
ATOM     45  C   UNL A   1      41.845  27.336  28.768  1.00  0.00     0.034 A 
ATOM     46  C   UNL A   1      40.876  30.263  34.416  1.00  0.00     0.049 A 
ATOM     47  C   UNL A   1      42.610  27.333  30.066  1.00  0.00     0.074 A 
ATOM     48  C   UNL A   1      41.603  30.155  35.592  1.00  0.00     0.029 A 
ATOM     49  N   UNL A   1      41.494  29.433  33.496  1.00  0.00    -0.354 N 
ATOM     50  N   UNL A   1      42.319  27.920  31.200  1.00  0.00    -0.248 NA
ATOM     51  C   UNL A   1      43.848  26.536  30.111  1.00  0.00     0.031 C 
ATOM     52  C   UNL A   1      42.681  29.290  35.372  1.00  0.00     0.029 A 
ATOM     53  C   UNL A   1      42.598  28.821  34.073  1.00  0.00     0.049 A 
ATOM     54  H   UNL A   1      41.194  29.297  32.569  1.00  0.00     0.167 HD
ATOM     55  C   UNL A   1      43.308  27.529  32.099  1.00  0.00     0.074 A 
ATOM     56  C   UNL A   1      44.196  26.638  31.386  1.00  0.00     0.031 C 
ATOM     57  C   UNL A   1      43.464  27.889  33.396  1.00  0.00     0.034 A 
BRANCH  44  58
ATOM     58  C   UNL A   1      39.240  31.976  35.278  1.00  0.00     0.023 A 
ATOM     59  C   UNL A   1      38.346  31.472  36.246  1.00  0.00     0.012 A 
ATOM     60  C   UNL A   1      39.747  33.284  35.429  1.00  0.00     0.148 A 
ATOM     61  C   UNL A   1      37.929  32.263  37.315  1.00  0.00     0.002 A 
ATOM     62  C   UNL A   1      39.365  34.051  36.526  1.00  0.00     0.091 A 
ATOM     63  F   UNL A   1      40.596  33.752  34.503  1.00  0.00    -0.205 F 
ATOM     64  C   UNL A   1      38.446  33.548  37.461  1.00  0.00     0.022 A 
BRANCH  62  65
ATOM     65  S   UNL A   1      40.038  35.685  36.858  1.00  0.00     0.127 S 
ATOM     66  O   UNL A   1      39.348  36.041  38.096  1.00  0.00    -0.237 OA
ATOM     67  O   UNL A   1      41.465  35.406  37.013  1.00  0.00    -0.237 OA
ATOM     68  O   UNL A   1      39.701  36.502  35.698  1.00  0.00    -0.744 OA
ENDBRANCH  62  65
ENDBRANCH  44  58
BRANCH  45  69
ATOM     69  C   UNL A   1      42.355  26.544  27.608  1.00  0.00     0.023 A 
ATOM     70  C   UNL A   1      43.153  27.172  26.631  1.00  0.00     0.012 A 
ATOM     71  C   UNL A   1      42.047  25.177  27.465  1.00  0.00     0.148 A 
ATOM     72  C   UNL A   1      43.604  26.464  25.516  1.00  0.00     0.002 A 
ATOM     73  C   UNL A   1      42.551  24.463  26.385  1.00  0.00     0.091 A 
ATOM     74  F   UNL A   1      41.272  24.601  28.396  1.00  0.00    -0.205 F 
ATOM     75  C   UNL A   1      43.313  25.108  25.398  1.00  0.00     0.022 A 
BRANCH  73  76
ATOM     76  S   UNL A   1      42.332  22.689  26.212  1.00  0.00     0.127 S 
ATOM     77  O   UNL A   1      42.893  22.194  27.464  1.00  0.00    -0.237 OA
ATOM     78  O   UNL A   1      40.879  22.576  26.097  1.00  0.00    -0.237 OA
ATOM     79  O   UNL A   1      43.063  22.319  25.004  1.00  0.00    -0.744 OA
ENDBRANCH  73  76
ENDBRANCH  45  69
BRANCH  57  80
ATOM     80  C   UNL A   1      44.609  27.279  34.172  1.00  0.00     0.023 A 
ATOM     81  C   UNL A   1      45.869  27.912  34.198  1.00  0.00     0.012 A 
ATOM     82  C   UNL A   1      44.421  26.099  34.919  1.00  0.00     0.148 A 
ATOM     83  C   UNL A   1      46.931  27.357  34.915  1.00  0.00     0.002 A 
ATOM     84  C   UNL A   1      45.468  25.579  35.674  1.00  0.00     0.091 A 
ATOM     85  F   UNL A   1      43.223  25.497  34.873  1.00  0.00    -0.205 F 
ATOM     86  C   UNL A   1      46.729  26.197  35.659  1.00  0.00     0.022 A 
BRANCH  84  87
ATOM     87  S   UNL A   1      45.273  24.144  36.738  1.00  0.00     0.127 S 
ATOM     88  O   UNL A   1      46.653  23.882  37.144  1.00  0.00    -0.237 OA
ATOM     89  O   UNL A   1      44.413  24.662  37.803  1.00  0.00    -0.237 OA
ATOM     90  O   UNL A   1      44.658  23.114  35.913  1.00  0.00    -0.744 OA
ENDBRANCH  84  87
ENDBRANCH  57  80
ENDBRANCH  31  32
ENDBRANCH  23  26
ENDBRANCH  21  22
ENDBRANCH  20  21
ENDBRANCH   1  20
TORSDOF 17
ENDMDL
