MODEL 1
REMARK VINA RESULT:     -12.0      0.000      0.000
REMARK SMILES CC(C)(C)OC(=O)N1CC[C@@H]([NH2+]Cc2cccc(Br)c2)[C@@H](C(=O)NCCCNC(=O)c2ccc(-c3c4nc(c(-c5cccc(S(=O)(=O)[O-])c5F)c5ccc([nH]5)c(-c5cccc(S(=O)(=O)[O-])c5F)c5nc(c(-c6cccc(S(=O)(=O)[O-])c6F)c6ccc3[nH]6)C=C5)C=C4)cc2)C1
REMARK SMILES IDX 26 1 25 2 24 3 22 4 23 5 21 7 8 8 9 9 94 10 10 11 11 12 6 13
REMARK SMILES IDX 7 14 5 15 2 16 1 17 3 18 4 19 12 20 13 23 14 24 15 25 20 26
REMARK SMILES IDX 16 27 18 28 17 29 19 30 27 31 28 32 29 33 30 35 31 36 32 37
REMARK SMILES IDX 93 38 33 39 92 40 34 41 35 42 36 43 86 44 37 45 91 46 85 47
REMARK SMILES IDX 87 48 38 49 90 50 84 51 83 52 39 54 71 55 51 56 70 57 52 58
REMARK SMILES IDX 55 59 69 60 88 61 53 62 54 63 68 65 89 66 56 67 40 68 41 69
REMARK SMILES IDX 49 70 42 71 44 72 50 73 43 74 45 75 46 76 47 77 48 78 72 79
REMARK SMILES IDX 73 80 81 81 74 82 76 83 82 84 75 85 77 86 78 87 79 88 80 89
REMARK SMILES IDX 57 90 58 91 66 92 59 93 61 94 67 95 60 96 62 97 63 98 64 99
REMARK SMILES IDX 65 100
REMARK H PARENT 24 6 12 21 12 22 28 34 87 53 55 64
REMARK Flexibility Score: inf
ROOT
ATOM      1  C   UNL A   1      36.701  22.155  24.281  1.00  0.00     0.042 C 
ENDROOT
BRANCH   1   2
ATOM      2  C   UNL A   1      35.855  23.355  23.887  1.00  0.00     0.117 C 
BRANCH   2   3
ATOM      3  N   UNL A   1      34.867  23.045  22.867  1.00  0.00    -0.356 N 
ATOM      4  C   UNL A   1      33.535  23.335  22.827  1.00  0.00     0.230 C 
ATOM      5  O   UNL A   1      32.899  22.964  21.838  1.00  0.00    -0.274 OA
ATOM      6  H   UNL A   1      35.211  22.550  22.089  1.00  0.00     0.163 HD
BRANCH   4   7
ATOM      7  C   UNL A   1      32.887  24.063  23.996  1.00  0.00     0.156 C 
ATOM      8  N   UNL A   1      30.917  25.228  24.861  1.00  0.00    -0.307 N 
ATOM      9  C   UNL A   1      31.030  24.612  26.177  1.00  0.00     0.129 C 
ATOM     10  C   UNL A   1      31.413  24.433  23.733  1.00  0.00     0.142 C 
ATOM     11  C   UNL A   1      32.458  24.161  26.454  1.00  0.00     0.087 C 
ATOM     12  C   UNL A   1      32.982  23.254  25.325  1.00  0.00     0.198 C 
BRANCH   8  13
ATOM     13  C   UNL A   1      30.413  26.507  24.756  1.00  0.00     0.410 C 
ATOM     14  O   UNL A   1      29.491  26.796  24.001  1.00  0.00    -0.224 OA
BRANCH  13  15
ATOM     15  O   UNL A   1      31.087  27.400  25.523  1.00  0.00    -0.444 OA
BRANCH  15  16
ATOM     16  C   UNL A   1      32.157  28.198  24.947  1.00  0.00     0.106 C 
ATOM     17  C   UNL A   1      33.452  27.633  25.553  1.00  0.00     0.056 C 
ATOM     18  C   UNL A   1      31.994  29.658  25.376  1.00  0.00     0.056 C 
ATOM     19  C   UNL A   1      32.263  28.060  23.419  1.00  0.00     0.056 C 
ENDBRANCH  15  16
ENDBRANCH  13  15
ENDBRANCH   8  13
BRANCH  12  20
ATOM     20  N   UNL A   1      32.220  21.999  25.188  1.00  0.00    -0.339 N 
ATOM     21  H   UNL A   1      32.182  21.764  24.197  1.00  0.00     0.346 HD
ATOM     22  H   UNL A   1      31.310  22.187  25.612  1.00  0.00     0.346 HD
BRANCH  20  23
ATOM     23  C   UNL A   1      32.747  20.844  25.898  1.00  0.00     0.297 C 
BRANCH  23  24
ATOM     24  C   UNL A   1      32.726  19.644  24.976  1.00  0.00     0.007 A 
ATOM     25  C   UNL A   1      32.517  19.818  23.599  1.00  0.00     0.009 A 
ATOM     26  C   UNL A   1      32.841  18.342  25.486  1.00  0.00     0.025 A 
ATOM     27  C   UNL A   1      32.430  18.717  22.747  1.00  0.00     0.002 A 
ATOM     28  C   UNL A   1      32.763  17.245  24.626  1.00  0.00     0.018 A 
ATOM     29  C   UNL A   1      32.557  17.426  23.260  1.00  0.00     0.016 A 
ATOM     30  Br  UNL A   1      32.928  15.493  25.322  1.00  0.00    -0.051 Br
ENDBRANCH  23  24
ENDBRANCH  20  23
ENDBRANCH  12  20
ENDBRANCH   4   7
ENDBRANCH   2   3
ENDBRANCH   1   2
BRANCH   1  31
ATOM     31  C   UNL A   1      37.128  22.124  25.742  1.00  0.00     0.118 C 
BRANCH  31  32
ATOM     32  N   UNL A   1      38.219  21.195  26.003  1.00  0.00    -0.352 N 
ATOM     33  C   UNL A   1      39.511  21.428  26.408  1.00  0.00     0.251 C 
ATOM     34  H   UNL A   1      37.993  20.246  25.867  1.00  0.00     0.163 HD
ATOM     35  O   UNL A   1      40.314  20.498  26.416  1.00  0.00    -0.269 OA
BRANCH  33  36
ATOM     36  C   UNL A   1      39.945  22.785  26.813  1.00  0.00     0.039 A 
ATOM     37  C   UNL A   1      40.849  22.916  27.872  1.00  0.00     0.014 A 
ATOM     38  C   UNL A   1      39.456  23.924  26.172  1.00  0.00     0.014 A 
ATOM     39  C   UNL A   1      41.309  24.184  28.240  1.00  0.00     0.010 A 
ATOM     40  C   UNL A   1      39.990  25.173  26.472  1.00  0.00     0.010 A 
ATOM     41  C   UNL A   1      40.909  25.322  27.520  1.00  0.00    -0.014 A 
BRANCH  41  42
ATOM     42  C   UNL A   1      41.431  26.674  27.848  1.00  0.00     0.031 A 
ATOM     43  C   UNL A   1      42.860  27.033  27.537  1.00  0.00     0.074 A 
ATOM     44  C   UNL A   1      40.654  27.544  28.525  1.00  0.00     0.049 A 
ATOM     45  N   UNL A   1      43.511  28.136  27.807  1.00  0.00    -0.248 NA
ATOM     46  C   UNL A   1      43.679  26.004  26.875  1.00  0.00     0.031 C 
ATOM     47  C   UNL A   1      39.291  27.277  28.986  1.00  0.00     0.029 A 
ATOM     48  N   UNL A   1      40.915  28.815  28.973  1.00  0.00    -0.354 N 
ATOM     49  C   UNL A   1      44.821  27.913  27.396  1.00  0.00     0.074 A 
ATOM     50  C   UNL A   1      44.881  26.558  26.895  1.00  0.00     0.031 C 
ATOM     51  C   UNL A   1      38.837  28.348  29.656  1.00  0.00     0.029 A 
ATOM     52  C   UNL A   1      39.881  29.368  29.691  1.00  0.00     0.049 A 
ATOM     53  H   UNL A   1      41.761  29.285  28.797  1.00  0.00     0.167 HD
ATOM     54  C   UNL A   1      45.871  28.768  27.403  1.00  0.00     0.034 A 
ATOM     55  C   UNL A   1      39.783  30.560  30.313  1.00  0.00     0.034 A 
ATOM     56  C   UNL A   1      45.791  30.135  27.838  1.00  0.00     0.049 A 
ATOM     57  C   UNL A   1      40.927  31.531  30.217  1.00  0.00     0.074 A 
ATOM     58  C   UNL A   1      46.757  31.122  27.761  1.00  0.00     0.029 A 
ATOM     59  N   UNL A   1      44.681  30.709  28.440  1.00  0.00    -0.354 N 
ATOM     60  N   UNL A   1      42.095  31.373  29.646  1.00  0.00    -0.248 NA
ATOM     61  C   UNL A   1      40.723  32.861  30.809  1.00  0.00     0.031 C 
ATOM     62  C   UNL A   1      46.237  32.288  28.334  1.00  0.00     0.029 A 
ATOM     63  C   UNL A   1      44.939  32.033  28.749  1.00  0.00     0.049 A 
ATOM     64  H   UNL A   1      43.833  30.242  28.620  1.00  0.00     0.167 HD
ATOM     65  C   UNL A   1      42.757  32.588  29.785  1.00  0.00     0.074 A 
ATOM     66  C   UNL A   1      41.847  33.480  30.473  1.00  0.00     0.031 C 
ATOM     67  C   UNL A   1      44.010  32.926  29.392  1.00  0.00     0.034 A 
BRANCH  54  68
ATOM     68  C   UNL A   1      47.185  28.260  26.866  1.00  0.00     0.023 A 
ATOM     69  C   UNL A   1      48.234  27.959  27.759  1.00  0.00     0.012 A 
ATOM     70  C   UNL A   1      47.374  28.052  25.486  1.00  0.00     0.148 A 
ATOM     71  C   UNL A   1      49.465  27.506  27.285  1.00  0.00     0.002 A 
ATOM     72  C   UNL A   1      48.588  27.554  25.025  1.00  0.00     0.091 A 
ATOM     73  F   UNL A   1      46.377  28.364  24.646  1.00  0.00    -0.205 F 
ATOM     74  C   UNL A   1      49.639  27.295  25.921  1.00  0.00     0.022 A 
BRANCH  72  75
ATOM     75  S   UNL A   1      48.875  27.173  23.293  1.00  0.00     0.127 S 
ATOM     76  O   UNL A   1      48.140  25.918  23.142  1.00  0.00    -0.237 OA
ATOM     77  O   UNL A   1      48.269  28.319  22.616  1.00  0.00    -0.237 OA
ATOM     78  O   UNL A   1      50.321  27.081  23.143  1.00  0.00    -0.744 OA
ENDBRANCH  72  75
ENDBRANCH  54  68
BRANCH  55  79
ATOM     79  C   UNL A   1      38.516  30.916  31.012  1.00  0.00     0.023 A 
ATOM     80  C   UNL A   1      38.402  30.690  32.397  1.00  0.00     0.012 A 
ATOM     81  C   UNL A   1      37.457  31.542  30.326  1.00  0.00     0.148 A 
ATOM     82  C   UNL A   1      37.246  31.062  33.084  1.00  0.00     0.002 A 
ATOM     83  C   UNL A   1      36.332  31.961  31.027  1.00  0.00     0.091 A 
ATOM     84  F   UNL A   1      37.586  31.741  29.007  1.00  0.00    -0.205 F 
ATOM     85  C   UNL A   1      36.219  31.708  32.403  1.00  0.00     0.022 A 
BRANCH  83  86
ATOM     86  S   UNL A   1      35.024  32.926  30.263  1.00  0.00     0.127 S 
ATOM     87  O   UNL A   1      34.503  31.990  29.270  1.00  0.00    -0.237 OA
ATOM     88  O   UNL A   1      34.135  33.179  31.398  1.00  0.00    -0.237 OA
ATOM     89  O   UNL A   1      35.672  34.117  29.731  1.00  0.00    -0.744 OA
ENDBRANCH  83  86
ENDBRANCH  55  79
BRANCH  67  90
ATOM     90  C   UNL A   1      44.475  34.331  29.674  1.00  0.00     0.023 A 
ATOM     91  C   UNL A   1      45.103  34.626  30.902  1.00  0.00     0.012 A 
ATOM     92  C   UNL A   1      44.361  35.338  28.696  1.00  0.00     0.148 A 
ATOM     93  C   UNL A   1      45.583  35.908  31.162  1.00  0.00     0.002 A 
ATOM     94  C   UNL A   1      44.884  36.602  28.945  1.00  0.00     0.091 A 
ATOM     95  F   UNL A   1      43.743  35.045  27.544  1.00  0.00    -0.205 F 
ATOM     96  C   UNL A   1      45.485  36.893  30.180  1.00  0.00     0.022 A 
BRANCH  94  97
ATOM     97  S   UNL A   1      44.888  37.898  27.700  1.00  0.00     0.127 S 
ATOM     98  O   UNL A   1      45.500  39.008  28.428  1.00  0.00    -0.237 OA
ATOM     99  O   UNL A   1      45.727  37.323  26.650  1.00  0.00    -0.237 OA
ATOM    100  O   UNL A   1      43.494  38.089  27.320  1.00  0.00    -0.744 OA
ENDBRANCH  94  97
ENDBRANCH  67  90
ENDBRANCH  41  42
ENDBRANCH  33  36
ENDBRANCH  31  32
ENDBRANCH   1  31
TORSDOF 19
ENDMDL
MODEL 2
REMARK VINA RESULT:     -11.9      2.836      8.826
REMARK SMILES CC(C)(C)OC(=O)N1CC[C@@H]([NH2+]Cc2cccc(Br)c2)[C@@H](C(=O)NCCCNC(=O)c2ccc(-c3c4nc(c(-c5cccc(S(=O)(=O)[O-])c5F)c5ccc([nH]5)c(-c5cccc(S(=O)(=O)[O-])c5F)c5nc(c(-c6cccc(S(=O)(=O)[O-])c6F)c6ccc3[nH]6)C=C5)C=C4)cc2)C1
REMARK SMILES IDX 26 1 25 2 24 3 22 4 23 5 21 7 8 8 9 9 94 10 10 11 11 12 6 13
REMARK SMILES IDX 7 14 5 15 2 16 1 17 3 18 4 19 12 20 13 23 14 24 15 25 20 26
REMARK SMILES IDX 16 27 18 28 17 29 19 30 27 31 28 32 29 33 30 35 31 36 32 37
REMARK SMILES IDX 93 38 33 39 92 40 34 41 35 42 36 43 86 44 37 45 91 46 85 47
REMARK SMILES IDX 87 48 38 49 90 50 84 51 83 52 39 54 71 55 51 56 70 57 52 58
REMARK SMILES IDX 55 59 69 60 88 61 53 62 54 63 68 65 89 66 56 67 40 68 41 69
REMARK SMILES IDX 49 70 42 71 44 72 50 73 43 74 45 75 46 76 47 77 48 78 72 79
REMARK SMILES IDX 73 80 81 81 74 82 76 83 82 84 75 85 77 86 78 87 79 88 80 89
REMARK SMILES IDX 57 90 58 91 66 92 59 93 61 94 67 95 60 96 62 97 63 98 64 99
REMARK SMILES IDX 65 100
REMARK H PARENT 24 6 12 21 12 22 28 34 87 53 55 64
REMARK Flexibility Score: inf
ROOT
ATOM      1  C   UNL A   1      38.228  20.256  25.144  1.00  0.00     0.042 C 
ENDROOT
BRANCH   1   2
ATOM      2  C   UNL A   1      37.486  21.538  24.804  1.00  0.00     0.117 C 
BRANCH   2   3
ATOM      3  N   UNL A   1      36.684  22.041  25.906  1.00  0.00    -0.356 N 
ATOM      4  C   UNL A   1      35.331  22.173  26.010  1.00  0.00     0.230 C 
ATOM      5  O   UNL A   1      34.879  22.628  27.063  1.00  0.00    -0.274 OA
ATOM      6  H   UNL A   1      37.194  22.331  26.696  1.00  0.00     0.163 HD
BRANCH   4   7
ATOM      7  C   UNL A   1      34.443  21.794  24.833  1.00  0.00     0.156 C 
ATOM      8  N   UNL A   1      32.620  20.396  23.993  1.00  0.00    -0.307 N 
ATOM      9  C   UNL A   1      32.033  21.482  23.221  1.00  0.00     0.129 C 
ATOM     10  C   UNL A   1      33.340  20.785  25.209  1.00  0.00     0.142 C 
ATOM     11  C   UNL A   1      33.071  22.545  22.886  1.00  0.00     0.087 C 
ATOM     12  C   UNL A   1      33.791  23.037  24.156  1.00  0.00     0.198 C 
BRANCH   8  13
ATOM     13  C   UNL A   1      32.514  19.103  23.526  1.00  0.00     0.410 C 
ATOM     14  O   UNL A   1      32.133  18.836  22.392  1.00  0.00    -0.224 OA
BRANCH  13  15
ATOM     15  O   UNL A   1      32.813  18.178  24.473  1.00  0.00    -0.444 OA
BRANCH  15  16
ATOM     16  C   UNL A   1      33.975  17.319  24.315  1.00  0.00     0.106 C 
ATOM     17  C   UNL A   1      33.851  16.266  25.428  1.00  0.00     0.056 C 
ATOM     18  C   UNL A   1      35.250  18.136  24.532  1.00  0.00     0.056 C 
ATOM     19  C   UNL A   1      33.999  16.570  22.971  1.00  0.00     0.056 C 
ENDBRANCH  15  16
ENDBRANCH  13  15
ENDBRANCH   8  13
BRANCH  12  20
ATOM     20  N   UNL A   1      32.887  23.697  25.116  1.00  0.00    -0.339 N 
ATOM     21  H   UNL A   1      33.463  24.188  25.799  1.00  0.00     0.346 HD
ATOM     22  H   UNL A   1      32.315  22.948  25.508  1.00  0.00     0.346 HD
BRANCH  20  23
ATOM     23  C   UNL A   1      31.944  24.654  24.559  1.00  0.00     0.297 C 
BRANCH  23  24
ATOM     24  C   UNL A   1      32.612  26.010  24.464  1.00  0.00     0.007 A 
ATOM     25  C   UNL A   1      32.912  26.559  23.207  1.00  0.00     0.009 A 
ATOM     26  C   UNL A   1      33.006  26.701  25.619  1.00  0.00     0.025 A 
ATOM     27  C   UNL A   1      33.586  27.776  23.105  1.00  0.00     0.002 A 
ATOM     28  C   UNL A   1      33.671  27.923  25.509  1.00  0.00     0.018 A 
ATOM     29  C   UNL A   1      33.964  28.463  24.258  1.00  0.00     0.016 A 
ATOM     30  Br  UNL A   1      34.192  28.852  27.073  1.00  0.00    -0.051 Br
ENDBRANCH  23  24
ENDBRANCH  20  23
ENDBRANCH  12  20
ENDBRANCH   4   7
ENDBRANCH   2   3
ENDBRANCH   1   2
BRANCH   1  31
ATOM     31  C   UNL A   1      39.332  20.409  26.180  1.00  0.00     0.118 C 
BRANCH  31  32
ATOM     32  N   UNL A   1      40.410  19.443  26.020  1.00  0.00    -0.352 N 
ATOM     33  C   UNL A   1      41.772  19.624  25.982  1.00  0.00     0.251 C 
ATOM     34  H   UNL A   1      40.115  18.508  25.922  1.00  0.00     0.163 HD
ATOM     35  O   UNL A   1      42.495  18.678  25.679  1.00  0.00    -0.269 OA
BRANCH  33  36
ATOM     36  C   UNL A   1      42.369  20.946  26.281  1.00  0.00     0.039 A 
ATOM     37  C   UNL A   1      42.619  21.829  25.226  1.00  0.00     0.014 A 
ATOM     38  C   UNL A   1      42.702  21.312  27.587  1.00  0.00     0.014 A 
ATOM     39  C   UNL A   1      43.139  23.099  25.491  1.00  0.00     0.010 A 
ATOM     40  C   UNL A   1      43.123  22.609  27.858  1.00  0.00     0.010 A 
ATOM     41  C   UNL A   1      43.364  23.513  26.814  1.00  0.00    -0.014 A 
BRANCH  41  42
ATOM     42  C   UNL A   1      43.855  24.880  27.128  1.00  0.00     0.031 A 
ATOM     43  C   UNL A   1      42.928  25.902  27.732  1.00  0.00     0.074 A 
ATOM     44  C   UNL A   1      45.105  25.238  26.772  1.00  0.00     0.049 A 
ATOM     45  N   UNL A   1      43.157  27.158  28.014  1.00  0.00    -0.248 NA
ATOM     46  C   UNL A   1      41.550  25.467  28.016  1.00  0.00     0.031 C 
ATOM     47  C   UNL A   1      46.066  24.379  26.078  1.00  0.00     0.029 A 
ATOM     48  N   UNL A   1      45.768  26.432  26.912  1.00  0.00    -0.354 N 
ATOM     49  C   UNL A   1      41.944  27.674  28.457  1.00  0.00     0.074 A 
ATOM     50  C   UNL A   1      40.974  26.606  28.371  1.00  0.00     0.031 C 
ATOM     51  C   UNL A   1      47.191  25.074  25.848  1.00  0.00     0.029 A 
ATOM     52  C   UNL A   1      47.027  26.431  26.358  1.00  0.00     0.049 A 
ATOM     53  H   UNL A   1      45.379  27.214  27.366  1.00  0.00     0.167 HD
ATOM     54  C   UNL A   1      41.668  28.914  28.927  1.00  0.00     0.034 A 
ATOM     55  C   UNL A   1      47.946  27.413  26.265  1.00  0.00     0.034 A 
ATOM     56  C   UNL A   1      42.649  29.954  29.076  1.00  0.00     0.049 A 
ATOM     57  C   UNL A   1      47.652  28.751  26.885  1.00  0.00     0.074 A 
ATOM     58  C   UNL A   1      42.505  31.198  29.664  1.00  0.00     0.029 A 
ATOM     59  N   UNL A   1      43.959  29.874  28.626  1.00  0.00    -0.354 N 
ATOM     60  N   UNL A   1      46.560  29.159  27.483  1.00  0.00    -0.248 NA
ATOM     61  C   UNL A   1      48.732  29.747  26.863  1.00  0.00     0.031 C 
ATOM     62  C   UNL A   1      43.723  31.877  29.553  1.00  0.00     0.029 A 
ATOM     63  C   UNL A   1      44.632  31.048  28.914  1.00  0.00     0.049 A 
ATOM     64  H   UNL A   1      44.352  29.095  28.170  1.00  0.00     0.167 HD
ATOM     65  C   UNL A   1      46.827  30.448  27.931  1.00  0.00     0.074 A 
ATOM     66  C   UNL A   1      48.195  30.743  27.556  1.00  0.00     0.031 C 
ATOM     67  C   UNL A   1      46.008  31.314  28.578  1.00  0.00     0.034 A 
BRANCH  54  68
ATOM     68  C   UNL A   1      40.254  29.191  29.369  1.00  0.00     0.023 A 
ATOM     69  C   UNL A   1      39.305  29.645  28.430  1.00  0.00     0.012 A 
ATOM     70  C   UNL A   1      39.855  28.978  30.703  1.00  0.00     0.148 A 
ATOM     71  C   UNL A   1      37.996  29.927  28.819  1.00  0.00     0.002 A 
ATOM     72  C   UNL A   1      38.535  29.216  31.073  1.00  0.00     0.091 A 
ATOM     73  F   UNL A   1      40.773  28.569  31.591  1.00  0.00    -0.205 F 
ATOM     74  C   UNL A   1      37.609  29.703  30.137  1.00  0.00     0.022 A 
BRANCH  72  75
ATOM     75  S   UNL A   1      37.926  28.877  32.729  1.00  0.00     0.127 S 
ATOM     76  O   UNL A   1      38.053  27.422  32.799  1.00  0.00    -0.237 OA
ATOM     77  O   UNL A   1      38.875  29.612  33.567  1.00  0.00    -0.237 OA
ATOM     78  O   UNL A   1      36.566  29.396  32.763  1.00  0.00    -0.744 OA
ENDBRANCH  72  75
ENDBRANCH  54  68
BRANCH  55  79
ATOM     79  C   UNL A   1      49.257  27.126  25.620  1.00  0.00     0.023 A 
ATOM     80  C   UNL A   1      50.277  26.507  26.367  1.00  0.00     0.012 A 
ATOM     81  C   UNL A   1      49.471  27.398  24.254  1.00  0.00     0.148 A 
ATOM     82  C   UNL A   1      51.496  26.182  25.772  1.00  0.00     0.002 A 
ATOM     83  C   UNL A   1      50.668  27.021  23.655  1.00  0.00     0.091 A 
ATOM     84  F   UNL A   1      48.490  27.995  23.565  1.00  0.00    -0.205 F 
ATOM     85  C   UNL A   1      51.686  26.427  24.415  1.00  0.00     0.022 A 
BRANCH  83  86
ATOM     86  S   UNL A   1      50.947  27.166  21.885  1.00  0.00     0.127 S 
ATOM     87  O   UNL A   1      50.948  28.614  21.700  1.00  0.00    -0.237 OA
ATOM     88  O   UNL A   1      52.252  26.522  21.734  1.00  0.00    -0.237 OA
ATOM     89  O   UNL A   1      49.848  26.448  21.253  1.00  0.00    -0.744 OA
ENDBRANCH  83  86
ENDBRANCH  55  79
BRANCH  67  90
ATOM     90  C   UNL A   1      46.568  32.662  28.948  1.00  0.00     0.023 A 
ATOM     91  C   UNL A   1      47.307  32.808  30.140  1.00  0.00     0.012 A 
ATOM     92  C   UNL A   1      46.427  33.764  28.082  1.00  0.00     0.148 A 
ATOM     93  C   UNL A   1      47.873  34.037  30.476  1.00  0.00     0.002 A 
ATOM     94  C   UNL A   1      47.033  34.974  28.402  1.00  0.00     0.091 A 
ATOM     95  F   UNL A   1      45.702  33.612  26.965  1.00  0.00    -0.205 F 
ATOM     96  C   UNL A   1      47.747  35.116  29.603  1.00  0.00     0.022 A 
BRANCH  94  97
ATOM     97  S   UNL A   1      47.003  36.384  27.289  1.00  0.00     0.127 S 
ATOM     98  O   UNL A   1      47.810  37.358  28.021  1.00  0.00    -0.237 OA
ATOM     99  O   UNL A   1      47.640  35.847  26.086  1.00  0.00    -0.237 OA
ATOM    100  O   UNL A   1      45.598  36.729  27.122  1.00  0.00    -0.744 OA
ENDBRANCH  94  97
ENDBRANCH  67  90
ENDBRANCH  41  42
ENDBRANCH  33  36
ENDBRANCH  31  32
ENDBRANCH   1  31
TORSDOF 19
ENDMDL
MODEL 3
REMARK VINA RESULT:     -11.8      2.582      3.276
REMARK SMILES CC(C)(C)OC(=O)N1CC[C@@H]([NH2+]Cc2cccc(Br)c2)[C@@H](C(=O)NCCCNC(=O)c2ccc(-c3c4nc(c(-c5cccc(S(=O)(=O)[O-])c5F)c5ccc([nH]5)c(-c5cccc(S(=O)(=O)[O-])c5F)c5nc(c(-c6cccc(S(=O)(=O)[O-])c6F)c6ccc3[nH]6)C=C5)C=C4)cc2)C1
REMARK SMILES IDX 26 1 25 2 24 3 22 4 23 5 21 7 8 8 9 9 94 10 10 11 11 12 6 13
REMARK SMILES IDX 7 14 5 15 2 16 1 17 3 18 4 19 12 20 13 23 14 24 15 25 20 26
REMARK SMILES IDX 16 27 18 28 17 29 19 30 27 31 28 32 29 33 30 35 31 36 32 37
REMARK SMILES IDX 93 38 33 39 92 40 34 41 35 42 36 43 86 44 37 45 91 46 85 47
REMARK SMILES IDX 87 48 38 49 90 50 84 51 83 52 39 54 71 55 51 56 70 57 52 58
REMARK SMILES IDX 55 59 69 60 88 61 53 62 54 63 68 65 89 66 56 67 40 68 41 69
REMARK SMILES IDX 49 70 42 71 44 72 50 73 43 74 45 75 46 76 47 77 48 78 72 79
REMARK SMILES IDX 73 80 81 81 74 82 76 83 82 84 75 85 77 86 78 87 79 88 80 89
REMARK SMILES IDX 57 90 58 91 66 92 59 93 61 94 67 95 60 96 62 97 63 98 64 99
REMARK SMILES IDX 65 100
REMARK H PARENT 24 6 12 21 12 22 28 34 87 53 55 64
REMARK Flexibility Score: inf
ROOT
ATOM      1  C   UNL A   1      35.801  23.455  24.567  1.00  0.00     0.042 C 
ENDROOT
BRANCH   1   2
ATOM      2  C   UNL A   1      34.692  24.469  24.335  1.00  0.00     0.117 C 
BRANCH   2   3
ATOM      3  N   UNL A   1      34.072  24.344  23.027  1.00  0.00    -0.356 N 
ATOM      4  C   UNL A   1      33.058  25.065  22.470  1.00  0.00     0.230 C 
ATOM      5  O   UNL A   1      32.704  24.768  21.327  1.00  0.00    -0.274 OA
ATOM      6  H   UNL A   1      34.439  23.630  22.456  1.00  0.00     0.163 HD
BRANCH   4   7
ATOM      7  C   UNL A   1      32.388  26.169  23.276  1.00  0.00     0.156 C 
ATOM      8  N   UNL A   1      30.628  27.865  23.383  1.00  0.00    -0.307 N 
ATOM      9  C   UNL A   1      30.328  27.584  24.780  1.00  0.00     0.129 C 
ATOM     10  C   UNL A   1      31.129  26.737  22.592  1.00  0.00     0.142 C 
ATOM     11  C   UNL A   1      31.521  26.951  25.484  1.00  0.00     0.087 C 
ATOM     12  C   UNL A   1      32.022  25.711  24.721  1.00  0.00     0.198 C 
BRANCH   8  13
ATOM     13  C   UNL A   1      30.478  29.150  22.907  1.00  0.00     0.410 C 
ATOM     14  O   UNL A   1      31.185  29.616  22.021  1.00  0.00    -0.224 OA
BRANCH  13  15
ATOM     15  O   UNL A   1      29.517  29.844  23.567  1.00  0.00    -0.444 OA
BRANCH  15  16
ATOM     16  C   UNL A   1      28.275  30.193  22.896  1.00  0.00     0.106 C 
ATOM     17  C   UNL A   1      27.376  28.955  23.045  1.00  0.00     0.056 C 
ATOM     18  C   UNL A   1      28.548  30.444  21.412  1.00  0.00     0.056 C 
ATOM     19  C   UNL A   1      27.542  31.377  23.551  1.00  0.00     0.056 C 
ENDBRANCH  15  16
ENDBRANCH  13  15
ENDBRANCH   8  13
BRANCH  12  20
ATOM     20  N   UNL A   1      31.021  24.630  24.651  1.00  0.00    -0.339 N 
ATOM     21  H   UNL A   1      31.370  23.924  24.003  1.00  0.00     0.346 HD
ATOM     22  H   UNL A   1      30.154  25.081  24.356  1.00  0.00     0.346 HD
BRANCH  20  23
ATOM     23  C   UNL A   1      30.704  23.964  25.905  1.00  0.00     0.297 C 
BRANCH  23  24
ATOM     24  C   UNL A   1      31.741  22.894  26.173  1.00  0.00     0.007 A 
ATOM     25  C   UNL A   1      32.600  23.009  27.278  1.00  0.00     0.009 A 
ATOM     26  C   UNL A   1      31.910  21.817  25.291  1.00  0.00     0.025 A 
ATOM     27  C   UNL A   1      33.603  22.065  27.501  1.00  0.00     0.002 A 
ATOM     28  C   UNL A   1      32.909  20.871  25.526  1.00  0.00     0.018 A 
ATOM     29  C   UNL A   1      33.757  20.990  26.626  1.00  0.00     0.016 A 
ATOM     30  Br  UNL A   1      33.123  19.416  24.335  1.00  0.00    -0.051 Br
ENDBRANCH  23  24
ENDBRANCH  20  23
ENDBRANCH  12  20
ENDBRANCH   4   7
ENDBRANCH   2   3
ENDBRANCH   1   2
BRANCH   1  31
ATOM     31  C   UNL A   1      36.563  23.626  25.873  1.00  0.00     0.118 C 
BRANCH  31  32
ATOM     32  N   UNL A   1      37.598  22.621  26.072  1.00  0.00    -0.352 N 
ATOM     33  C   UNL A   1      38.909  22.755  26.461  1.00  0.00     0.251 C 
ATOM     34  H   UNL A   1      37.311  21.694  25.899  1.00  0.00     0.163 HD
ATOM     35  O   UNL A   1      39.653  21.778  26.413  1.00  0.00    -0.269 OA
BRANCH  33  36
ATOM     36  C   UNL A   1      39.434  24.063  26.916  1.00  0.00     0.039 A 
ATOM     37  C   UNL A   1      40.040  24.909  25.982  1.00  0.00     0.014 A 
ATOM     38  C   UNL A   1      39.353  24.451  28.255  1.00  0.00     0.014 A 
ATOM     39  C   UNL A   1      40.500  26.168  26.380  1.00  0.00     0.010 A 
ATOM     40  C   UNL A   1      39.719  25.740  28.627  1.00  0.00     0.010 A 
ATOM     41  C   UNL A   1      40.313  26.608  27.701  1.00  0.00    -0.014 A 
BRANCH  41  42
ATOM     42  C   UNL A   1      40.735  27.965  28.135  1.00  0.00     0.031 A 
ATOM     43  C   UNL A   1      42.195  28.329  28.183  1.00  0.00     0.074 A 
ATOM     44  C   UNL A   1      39.813  28.837  28.591  1.00  0.00     0.049 A 
ATOM     45  N   UNL A   1      42.756  29.437  28.594  1.00  0.00    -0.248 NA
ATOM     46  C   UNL A   1      43.155  27.298  27.752  1.00  0.00     0.031 C 
ATOM     47  C   UNL A   1      38.379  28.567  28.704  1.00  0.00     0.029 A 
ATOM     48  N   UNL A   1      39.951  30.113  29.077  1.00  0.00    -0.354 N 
ATOM     49  C   UNL A   1      44.128  29.218  28.521  1.00  0.00     0.074 A 
ATOM     50  C   UNL A   1      44.314  27.859  28.062  1.00  0.00     0.031 C 
ATOM     51  C   UNL A   1      37.770  29.641  29.232  1.00  0.00     0.029 A 
ATOM     52  C   UNL A   1      38.770  30.667  29.513  1.00  0.00     0.049 A 
ATOM     53  H   UNL A   1      40.814  30.586  29.112  1.00  0.00     0.167 HD
ATOM     54  C   UNL A   1      45.141  30.078  28.778  1.00  0.00     0.034 A 
ATOM     55  C   UNL A   1      38.519  31.863  30.080  1.00  0.00     0.034 A 
ATOM     56  C   UNL A   1      44.953  31.448  29.168  1.00  0.00     0.049 A 
ATOM     57  C   UNL A   1      39.648  32.839  30.261  1.00  0.00     0.074 A 
ATOM     58  C   UNL A   1      45.906  32.439  29.322  1.00  0.00     0.029 A 
ATOM     59  N   UNL A   1      43.727  32.021  29.472  1.00  0.00    -0.354 N 
ATOM     60  N   UNL A   1      40.922  32.682  29.997  1.00  0.00    -0.248 NA
ATOM     61  C   UNL A   1      39.301  34.173  30.772  1.00  0.00     0.031 C 
ATOM     62  C   UNL A   1      45.257  33.607  29.738  1.00  0.00     0.029 A 
ATOM     63  C   UNL A   1      43.898  33.349  29.823  1.00  0.00     0.049 A 
ATOM     64  H   UNL A   1      42.862  31.552  29.441  1.00  0.00     0.167 HD
ATOM     65  C   UNL A   1      41.526  33.902  30.283  1.00  0.00     0.074 A 
ATOM     66  C   UNL A   1      40.472  34.795  30.718  1.00  0.00     0.031 C 
ATOM     67  C   UNL A   1      42.836  34.243  30.209  1.00  0.00     0.034 A 
BRANCH  54  68
ATOM     68  C   UNL A   1      46.548  29.572  28.587  1.00  0.00     0.023 A 
ATOM     69  C   UNL A   1      47.181  29.726  27.335  1.00  0.00     0.012 A 
ATOM     70  C   UNL A   1      47.255  28.970  29.646  1.00  0.00     0.148 A 
ATOM     71  C   UNL A   1      48.475  29.249  27.128  1.00  0.00     0.002 A 
ATOM     72  C   UNL A   1      48.562  28.540  29.445  1.00  0.00     0.091 A 
ATOM     73  F   UNL A   1      46.634  28.808  30.823  1.00  0.00    -0.205 F 
ATOM     74  C   UNL A   1      49.168  28.665  28.184  1.00  0.00     0.022 A 
BRANCH  72  75
ATOM     75  S   UNL A   1      49.562  27.851  30.770  1.00  0.00     0.127 S 
ATOM     76  O   UNL A   1      49.001  26.507  30.893  1.00  0.00    -0.237 OA
ATOM     77  O   UNL A   1      50.909  27.899  30.201  1.00  0.00    -0.237 OA
ATOM     78  O   UNL A   1      49.360  28.729  31.914  1.00  0.00    -0.744 OA
ENDBRANCH  72  75
ENDBRANCH  54  68
BRANCH  55  79
ATOM     79  C   UNL A   1      37.118  32.219  30.443  1.00  0.00     0.023 A 
ATOM     80  C   UNL A   1      36.671  32.019  31.763  1.00  0.00     0.012 A 
ATOM     81  C   UNL A   1      36.254  32.819  29.506  1.00  0.00     0.148 A 
ATOM     82  C   UNL A   1      35.381  32.391  32.140  1.00  0.00     0.002 A 
ATOM     83  C   UNL A   1      34.990  33.239  29.903  1.00  0.00     0.091 A 
ATOM     84  F   UNL A   1      36.698  32.993  28.254  1.00  0.00    -0.205 F 
ATOM     85  C   UNL A   1      34.546  33.012  31.215  1.00  0.00     0.022 A 
BRANCH  83  86
ATOM     86  S   UNL A   1      33.900  34.173  28.822  1.00  0.00     0.127 S 
ATOM     87  O   UNL A   1      32.871  34.626  29.753  1.00  0.00    -0.237 OA
ATOM     88  O   UNL A   1      34.794  35.223  28.331  1.00  0.00    -0.237 OA
ATOM     89  O   UNL A   1      33.459  33.234  27.799  1.00  0.00    -0.744 OA
ENDBRANCH  83  86
ENDBRANCH  55  79
BRANCH  67  90
ATOM     90  C   UNL A   1      43.213  35.652  30.584  1.00  0.00     0.023 A 
ATOM     91  C   UNL A   1      43.576  35.948  31.913  1.00  0.00     0.012 A 
ATOM     92  C   UNL A   1      43.283  36.664  29.606  1.00  0.00     0.148 A 
ATOM     93  C   UNL A   1      43.974  37.236  32.269  1.00  0.00     0.002 A 
ATOM     94  C   UNL A   1      43.726  37.934  29.960  1.00  0.00     0.091 A 
ATOM     95  F   UNL A   1      42.914  36.370  28.352  1.00  0.00    -0.205 F 
ATOM     96  C   UNL A   1      44.061  38.225  31.292  1.00  0.00     0.022 A 
BRANCH  94  97
ATOM     97  S   UNL A   1      43.960  39.238  28.746  1.00  0.00     0.127 S 
ATOM     98  O   UNL A   1      44.909  38.619  27.823  1.00  0.00    -0.237 OA
ATOM     99  O   UNL A   1      42.611  39.412  28.207  1.00  0.00    -0.237 OA
ATOM    100  O   UNL A   1      44.463  40.387  29.488  1.00  0.00    -0.744 OA
ENDBRANCH  94  97
ENDBRANCH  67  90
ENDBRANCH  41  42
ENDBRANCH  33  36
ENDBRANCH  31  32
ENDBRANCH   1  31
TORSDOF 19
ENDMDL
