MODEL 1
REMARK VINA RESULT:     -11.6      0.000      0.000
REMARK SMILES C[C@@H](CC(=O)NCCCNC(=O)c1ccc(-c2c3nc(c(-c4cccc(S(=O)(=O)[O-])c4F)c4ccc([nH]4)c(-c4cccc(S(=O)(=O)[O-])c4F)c4nc(c(-c5cccc(S(=O)(=O)[O-])c5F)c5ccc2[nH]5)C=C4)C=C3)cc1)NC(=O)/C=C/c1cccnc1
REMARK SMILES IDX 7 1 6 2 4 3 5 4 3 6 2 7 1 8 76 9 77 10 78 12 79 13 80 14
REMARK SMILES IDX 81 15 82 16 86 17 83 18 85 19 84 20 8 21 9 22 10 23 11 24
REMARK SMILES IDX 12 26 13 27 14 28 75 29 15 30 74 31 16 32 17 33 18 34 68 35
REMARK SMILES IDX 19 36 73 37 67 38 69 39 20 40 72 41 66 42 65 43 21 45 53 46
REMARK SMILES IDX 33 47 52 48 34 49 37 50 51 51 70 52 35 53 36 54 50 56 71 57
REMARK SMILES IDX 38 58 22 59 23 60 31 61 24 62 26 63 32 64 25 65 27 66 28 67
REMARK SMILES IDX 29 68 30 69 54 70 55 71 63 72 56 73 58 74 64 75 57 76 59 77
REMARK SMILES IDX 60 78 61 79 62 80 39 81 40 82 48 83 41 84 43 85 49 86 42 87
REMARK SMILES IDX 44 88 45 89 46 90 47 91
REMARK H PARENT 6 5 76 11 10 25 69 44 37 55
REMARK Flexibility Score: inf
ROOT
ATOM      1  C   UNL A   1      31.719  30.736  26.196  1.00  0.00     0.117 C 
ENDROOT
BRANCH   1   2
ATOM      2  N   UNL A   1      33.090  30.306  26.430  1.00  0.00    -0.356 N 
ATOM      3  C   UNL A   1      33.607  29.076  26.689  1.00  0.00     0.222 C 
ATOM      4  O   UNL A   1      34.799  29.001  26.990  1.00  0.00    -0.275 OA
ATOM      5  H   UNL A   1      33.755  31.031  26.396  1.00  0.00     0.163 HD
BRANCH   3   6
ATOM      6  C   UNL A   1      32.765  27.830  26.546  1.00  0.00     0.124 C 
BRANCH   6   7
ATOM      7  C   UNL A   1      33.070  26.907  25.359  1.00  0.00     0.088 C 
ATOM      8  C   UNL A   1      33.651  25.559  25.765  1.00  0.00     0.031 C 
BRANCH   7   9
ATOM      9  N   UNL A   1      33.942  27.497  24.348  1.00  0.00    -0.350 N 
ATOM     10  C   UNL A   1      33.639  28.241  23.243  1.00  0.00     0.244 C 
ATOM     11  H   UNL A   1      34.902  27.332  24.484  1.00  0.00     0.164 HD
ATOM     12  O   UNL A   1      34.527  28.521  22.441  1.00  0.00    -0.270 OA
BRANCH  10  13
ATOM     13  C   UNL A   1      32.293  28.850  23.064  1.00  0.00     0.072 C 
ATOM     14  C   UNL A   1      31.233  28.267  22.492  1.00  0.00     0.015 C 
BRANCH  14  15
ATOM     15  C   UNL A   1      29.881  28.804  22.454  1.00  0.00    -0.007 A 
ATOM     16  C   UNL A   1      28.816  28.148  23.058  1.00  0.00     0.011 A 
ATOM     17  C   UNL A   1      29.661  30.082  21.943  1.00  0.00     0.119 A 
ATOM     18  C   UNL A   1      27.588  28.797  23.151  1.00  0.00     0.021 A 
ATOM     19  N   UNL A   1      28.478  30.734  22.009  1.00  0.00    -0.264 NA
ATOM     20  C   UNL A   1      27.473  30.077  22.625  1.00  0.00     0.111 A 
ENDBRANCH  14  15
ENDBRANCH  10  13
ENDBRANCH   7   9
ENDBRANCH   6   7
ENDBRANCH   3   6
ENDBRANCH   1   2
BRANCH   1  21
ATOM     21  C   UNL A   1      31.497  32.166  26.676  1.00  0.00     0.042 C 
BRANCH  21  22
ATOM     22  C   UNL A   1      32.730  32.801  27.289  1.00  0.00     0.118 C 
BRANCH  22  23
ATOM     23  N   UNL A   1      32.506  34.192  27.633  1.00  0.00    -0.352 N 
ATOM     24  C   UNL A   1      33.058  34.921  28.661  1.00  0.00     0.251 C 
ATOM     25  H   UNL A   1      31.877  34.679  27.053  1.00  0.00     0.163 HD
ATOM     26  O   UNL A   1      32.579  36.009  28.959  1.00  0.00    -0.269 OA
BRANCH  24  27
ATOM     27  C   UNL A   1      34.212  34.375  29.414  1.00  0.00     0.039 A 
ATOM     28  C   UNL A   1      33.983  33.704  30.618  1.00  0.00     0.014 A 
ATOM     29  C   UNL A   1      35.516  34.523  28.934  1.00  0.00     0.014 A 
ATOM     30  C   UNL A   1      35.058  33.143  31.313  1.00  0.00     0.010 A 
ATOM     31  C   UNL A   1      36.567  33.873  29.569  1.00  0.00     0.010 A 
ATOM     32  C   UNL A   1      36.356  33.200  30.781  1.00  0.00    -0.014 A 
BRANCH  32  33
ATOM     33  C   UNL A   1      37.524  32.613  31.490  1.00  0.00     0.031 A 
ATOM     34  C   UNL A   1      38.260  31.452  30.869  1.00  0.00     0.074 A 
ATOM     35  C   UNL A   1      37.874  33.060  32.713  1.00  0.00     0.049 A 
ATOM     36  N   UNL A   1      39.220  30.718  31.367  1.00  0.00    -0.248 NA
ATOM     37  C   UNL A   1      37.837  31.042  29.516  1.00  0.00     0.031 C 
ATOM     38  C   UNL A   1      37.209  34.139  33.446  1.00  0.00     0.029 A 
ATOM     39  N   UNL A   1      38.860  32.639  33.571  1.00  0.00    -0.354 N 
ATOM     40  C   UNL A   1      39.491  29.746  30.412  1.00  0.00     0.074 A 
ATOM     41  C   UNL A   1      38.560  29.949  29.324  1.00  0.00     0.031 C 
ATOM     42  C   UNL A   1      37.806  34.297  34.638  1.00  0.00     0.029 A 
ATOM     43  C   UNL A   1      38.867  33.305  34.775  1.00  0.00     0.049 A 
ATOM     44  H   UNL A   1      39.502  31.927  33.346  1.00  0.00     0.167 HD
ATOM     45  C   UNL A   1      40.452  28.792  30.415  1.00  0.00     0.034 A 
ATOM     46  C   UNL A   1      39.632  33.123  35.870  1.00  0.00     0.034 A 
ATOM     47  C   UNL A   1      41.402  28.619  31.478  1.00  0.00     0.049 A 
ATOM     48  C   UNL A   1      40.694  32.053  35.848  1.00  0.00     0.074 A 
ATOM     49  C   UNL A   1      42.447  27.717  31.559  1.00  0.00     0.029 A 
ATOM     50  N   UNL A   1      41.425  29.367  32.645  1.00  0.00    -0.354 N 
ATOM     51  N   UNL A   1      41.011  31.223  34.884  1.00  0.00    -0.248 NA
ATOM     52  C   UNL A   1      41.527  31.918  37.052  1.00  0.00     0.031 C 
ATOM     53  C   UNL A   1      43.091  27.906  32.785  1.00  0.00     0.029 A 
ATOM     54  C   UNL A   1      42.469  28.949  33.450  1.00  0.00     0.049 A 
ATOM     55  H   UNL A   1      40.793  30.088  32.867  1.00  0.00     0.167 HD
ATOM     56  C   UNL A   1      42.110  30.507  35.344  1.00  0.00     0.074 A 
ATOM     57  C   UNL A   1      42.412  31.008  36.668  1.00  0.00     0.031 C 
ATOM     58  C   UNL A   1      42.800  29.514  34.733  1.00  0.00     0.034 A 
BRANCH  45  59
ATOM     59  C   UNL A   1      40.564  27.903  29.203  1.00  0.00     0.023 A 
ATOM     60  C   UNL A   1      39.715  26.782  29.087  1.00  0.00     0.012 A 
ATOM     61  C   UNL A   1      41.456  28.204  28.157  1.00  0.00     0.148 A 
ATOM     62  C   UNL A   1      39.777  25.955  27.967  1.00  0.00     0.002 A 
ATOM     63  C   UNL A   1      41.477  27.403  27.020  1.00  0.00     0.091 A 
ATOM     64  F   UNL A   1      42.266  29.263  28.292  1.00  0.00    -0.205 F 
ATOM     65  C   UNL A   1      40.649  26.272  26.930  1.00  0.00     0.022 A 
BRANCH  63  66
ATOM     66  S   UNL A   1      42.505  27.766  25.593  1.00  0.00     0.127 S 
ATOM     67  O   UNL A   1      43.831  27.865  26.202  1.00  0.00    -0.237 OA
ATOM     68  O   UNL A   1      42.303  26.580  24.762  1.00  0.00    -0.237 OA
ATOM     69  O   UNL A   1      41.988  29.005  25.028  1.00  0.00    -0.744 OA
ENDBRANCH  63  66
ENDBRANCH  45  59
BRANCH  46  70
ATOM     70  C   UNL A   1      39.465  33.998  37.067  1.00  0.00     0.023 A 
ATOM     71  C   UNL A   1      39.947  35.322  37.030  1.00  0.00     0.012 A 
ATOM     72  C   UNL A   1      38.852  33.528  38.244  1.00  0.00     0.148 A 
ATOM     73  C   UNL A   1      39.870  36.143  38.156  1.00  0.00     0.002 A 
ATOM     74  C   UNL A   1      38.725  34.369  39.344  1.00  0.00     0.091 A 
ATOM     75  F   UNL A   1      38.407  32.263  38.268  1.00  0.00    -0.205 F 
ATOM     76  C   UNL A   1      39.254  35.669  39.310  1.00  0.00     0.022 A 
BRANCH  74  77
ATOM     77  S   UNL A   1      37.830  33.887  40.826  1.00  0.00     0.127 S 
ATOM     78  O   UNL A   1      36.639  33.255  40.264  1.00  0.00    -0.237 OA
ATOM     79  O   UNL A   1      38.773  32.970  41.465  1.00  0.00    -0.237 OA
ATOM     80  O   UNL A   1      37.605  35.123  41.565  1.00  0.00    -0.744 OA
ENDBRANCH  74  77
ENDBRANCH  46  70
BRANCH  58  81
ATOM     81  C   UNL A   1      44.002  28.949  35.444  1.00  0.00     0.023 A 
ATOM     82  C   UNL A   1      45.265  29.552  35.289  1.00  0.00     0.012 A 
ATOM     83  C   UNL A   1      43.852  27.872  36.339  1.00  0.00     0.148 A 
ATOM     84  C   UNL A   1      46.367  29.072  35.995  1.00  0.00     0.002 A 
ATOM     85  C   UNL A   1      44.942  27.434  37.080  1.00  0.00     0.091 A 
ATOM     86  F   UNL A   1      42.643  27.303  36.458  1.00  0.00    -0.205 F 
ATOM     87  C   UNL A   1      46.204  28.024  36.900  1.00  0.00     0.022 A 
BRANCH  85  88
ATOM     88  S   UNL A   1      44.805  26.161  38.340  1.00  0.00     0.127 S 
ATOM     89  O   UNL A   1      46.207  25.933  38.685  1.00  0.00    -0.237 OA
ATOM     90  O   UNL A   1      44.024  26.838  39.376  1.00  0.00    -0.237 OA
ATOM     91  O   UNL A   1      44.130  25.037  37.707  1.00  0.00    -0.744 OA
ENDBRANCH  85  88
ENDBRANCH  58  81
ENDBRANCH  32  33
ENDBRANCH  24  27
ENDBRANCH  22  23
ENDBRANCH  21  22
ENDBRANCH   1  21
TORSDOF 17
ENDMDL
MODEL 2
REMARK VINA RESULT:     -11.4      2.666      3.799
REMARK SMILES C[C@@H](CC(=O)NCCCNC(=O)c1ccc(-c2c3nc(c(-c4cccc(S(=O)(=O)[O-])c4F)c4ccc([nH]4)c(-c4cccc(S(=O)(=O)[O-])c4F)c4nc(c(-c5cccc(S(=O)(=O)[O-])c5F)c5ccc2[nH]5)C=C4)C=C3)cc1)NC(=O)/C=C/c1cccnc1
REMARK SMILES IDX 7 1 6 2 4 3 5 4 3 6 2 7 1 8 76 9 77 10 78 12 79 13 80 14
REMARK SMILES IDX 81 15 82 16 86 17 83 18 85 19 84 20 8 21 9 22 10 23 11 24
REMARK SMILES IDX 12 26 13 27 14 28 75 29 15 30 74 31 16 32 17 33 18 34 68 35
REMARK SMILES IDX 19 36 73 37 67 38 69 39 20 40 72 41 66 42 65 43 21 45 53 46
REMARK SMILES IDX 33 47 52 48 34 49 37 50 51 51 70 52 35 53 36 54 50 56 71 57
REMARK SMILES IDX 38 58 22 59 23 60 31 61 24 62 26 63 32 64 25 65 27 66 28 67
REMARK SMILES IDX 29 68 30 69 54 70 55 71 63 72 56 73 58 74 64 75 57 76 59 77
REMARK SMILES IDX 60 78 61 79 62 80 39 81 40 82 48 83 41 84 43 85 49 86 42 87
REMARK SMILES IDX 44 88 45 89 46 90 47 91
REMARK H PARENT 6 5 76 11 10 25 69 44 37 55
REMARK Flexibility Score: inf
ROOT
ATOM      1  C   UNL A   1      33.705  27.837  22.955  1.00  0.00     0.117 C 
ENDROOT
BRANCH   1   2
ATOM      2  N   UNL A   1      32.915  27.263  21.877  1.00  0.00    -0.356 N 
ATOM      3  C   UNL A   1      32.122  26.158  21.843  1.00  0.00     0.222 C 
ATOM      4  O   UNL A   1      31.666  25.806  20.753  1.00  0.00    -0.275 OA
ATOM      5  H   UNL A   1      32.963  27.757  21.028  1.00  0.00     0.163 HD
BRANCH   3   6
ATOM      6  C   UNL A   1      31.754  25.422  23.109  1.00  0.00     0.124 C 
BRANCH   6   7
ATOM      7  C   UNL A   1      30.967  26.200  24.172  1.00  0.00     0.088 C 
ATOM      8  C   UNL A   1      31.502  26.018  25.585  1.00  0.00     0.031 C 
BRANCH   7   9
ATOM      9  N   UNL A   1      29.534  25.921  24.183  1.00  0.00    -0.350 N 
ATOM     10  C   UNL A   1      28.473  26.724  23.877  1.00  0.00     0.244 C 
ATOM     11  H   UNL A   1      29.295  25.007  24.454  1.00  0.00     0.164 HD
ATOM     12  O   UNL A   1      27.330  26.325  24.091  1.00  0.00    -0.270 OA
BRANCH  10  13
ATOM     13  C   UNL A   1      28.659  28.009  23.149  1.00  0.00     0.072 C 
ATOM     14  C   UNL A   1      27.734  28.961  22.982  1.00  0.00     0.015 C 
BRANCH  14  15
ATOM     15  C   UNL A   1      27.959  30.278  22.403  1.00  0.00    -0.007 A 
ATOM     16  C   UNL A   1      28.024  30.472  21.029  1.00  0.00     0.011 A 
ATOM     17  C   UNL A   1      27.953  31.403  23.227  1.00  0.00     0.119 A 
ATOM     18  C   UNL A   1      28.054  31.773  20.533  1.00  0.00     0.021 A 
ATOM     19  N   UNL A   1      27.991  32.677  22.774  1.00  0.00    -0.264 NA
ATOM     20  C   UNL A   1      28.027  32.828  21.434  1.00  0.00     0.111 A 
ENDBRANCH  14  15
ENDBRANCH  10  13
ENDBRANCH   7   9
ENDBRANCH   6   7
ENDBRANCH   3   6
ENDBRANCH   1   2
BRANCH   1  21
ATOM     21  C   UNL A   1      32.981  29.008  23.610  1.00  0.00     0.042 C 
BRANCH  21  22
ATOM     22  C   UNL A   1      33.398  29.254  25.047  1.00  0.00     0.118 C 
BRANCH  22  23
ATOM     23  N   UNL A   1      32.736  30.415  25.610  1.00  0.00    -0.352 N 
ATOM     24  C   UNL A   1      33.029  31.092  26.771  1.00  0.00     0.251 C 
ATOM     25  H   UNL A   1      31.976  30.766  25.091  1.00  0.00     0.163 HD
ATOM     26  O   UNL A   1      32.224  31.896  27.225  1.00  0.00    -0.269 OA
BRANCH  24  27
ATOM     27  C   UNL A   1      34.306  30.824  27.476  1.00  0.00     0.039 A 
ATOM     28  C   UNL A   1      35.199  31.878  27.690  1.00  0.00     0.014 A 
ATOM     29  C   UNL A   1      34.621  29.539  27.924  1.00  0.00     0.014 A 
ATOM     30  C   UNL A   1      36.383  31.648  28.395  1.00  0.00     0.010 A 
ATOM     31  C   UNL A   1      35.745  29.337  28.716  1.00  0.00     0.010 A 
ATOM     32  C   UNL A   1      36.654  30.382  28.938  1.00  0.00    -0.014 A 
BRANCH  32  33
ATOM     33  C   UNL A   1      37.902  30.100  29.696  1.00  0.00     0.031 A 
ATOM     34  C   UNL A   1      38.921  29.149  29.117  1.00  0.00     0.074 A 
ATOM     35  C   UNL A   1      38.087  30.626  30.923  1.00  0.00     0.049 A 
ATOM     36  N   UNL A   1      40.010  28.673  29.660  1.00  0.00    -0.248 NA
ATOM     37  C   UNL A   1      38.661  28.641  27.757  1.00  0.00     0.031 C 
ATOM     38  C   UNL A   1      37.153  31.515  31.616  1.00  0.00     0.029 A 
ATOM     39  N   UNL A   1      39.113  30.461  31.821  1.00  0.00    -0.354 N 
ATOM     40  C   UNL A   1      40.544  27.790  28.729  1.00  0.00     0.074 A 
ATOM     41  C   UNL A   1      39.634  27.755  27.606  1.00  0.00     0.031 C 
ATOM     42  C   UNL A   1      37.649  31.820  32.826  1.00  0.00     0.029 A 
ATOM     43  C   UNL A   1      38.913  31.116  33.015  1.00  0.00     0.049 A 
ATOM     44  H   UNL A   1      39.916  29.925  31.629  1.00  0.00     0.167 HD
ATOM     45  C   UNL A   1      41.707  27.098  28.780  1.00  0.00     0.034 A 
ATOM     46  C   UNL A   1      39.657  31.132  34.139  1.00  0.00     0.034 A 
ATOM     47  C   UNL A   1      42.630  27.167  29.878  1.00  0.00     0.049 A 
ATOM     48  C   UNL A   1      40.947  30.352  34.169  1.00  0.00     0.074 A 
ATOM     49  C   UNL A   1      43.859  26.546  30.009  1.00  0.00     0.029 A 
ATOM     50  N   UNL A   1      42.427  27.905  31.034  1.00  0.00    -0.354 N 
ATOM     51  N   UNL A   1      41.492  29.618  33.230  1.00  0.00    -0.248 NA
ATOM     52  C   UNL A   1      41.742  30.430  35.404  1.00  0.00     0.031 C 
ATOM     53  C   UNL A   1      44.391  26.892  31.254  1.00  0.00     0.029 A 
ATOM     54  C   UNL A   1      43.510  27.758  31.882  1.00  0.00     0.049 A 
ATOM     55  H   UNL A   1      41.631  28.452  31.224  1.00  0.00     0.167 HD
ATOM     56  C   UNL A   1      42.714  29.192  33.739  1.00  0.00     0.074 A 
ATOM     57  C   UNL A   1      42.835  29.760  35.065  1.00  0.00     0.031 C 
ATOM     58  C   UNL A   1      43.646  28.393  33.167  1.00  0.00     0.034 A 
BRANCH  45  59
ATOM     59  C   UNL A   1      42.077  26.255  27.586  1.00  0.00     0.023 A 
ATOM     60  C   UNL A   1      42.782  26.844  26.516  1.00  0.00     0.012 A 
ATOM     61  C   UNL A   1      41.785  24.878  27.546  1.00  0.00     0.148 A 
ATOM     62  C   UNL A   1      43.160  26.086  25.409  1.00  0.00     0.002 A 
ATOM     63  C   UNL A   1      42.209  24.118  26.462  1.00  0.00     0.091 A 
ATOM     64  F   UNL A   1      41.101  24.340  28.565  1.00  0.00    -0.205 F 
ATOM     65  C   UNL A   1      42.883  24.723  25.388  1.00  0.00     0.022 A 
BRANCH  63  66
ATOM     66  S   UNL A   1      41.976  22.340  26.370  1.00  0.00     0.127 S 
ATOM     67  O   UNL A   1      42.674  22.014  25.126  1.00  0.00    -0.237 OA
ATOM     68  O   UNL A   1      42.649  21.881  27.584  1.00  0.00    -0.237 OA
ATOM     69  O   UNL A   1      40.536  22.122  26.349  1.00  0.00    -0.744 OA
ENDBRANCH  63  66
ENDBRANCH  45  59
BRANCH  46  70
ATOM     70  C   UNL A   1      39.238  31.947  35.316  1.00  0.00     0.023 A 
ATOM     71  C   UNL A   1      38.326  31.407  36.244  1.00  0.00     0.012 A 
ATOM     72  C   UNL A   1      39.719  33.256  35.515  1.00  0.00     0.148 A 
ATOM     73  C   UNL A   1      37.860  32.170  37.316  1.00  0.00     0.002 A 
ATOM     74  C   UNL A   1      39.298  33.990  36.618  1.00  0.00     0.091 A 
ATOM     75  F   UNL A   1      40.581  33.760  34.619  1.00  0.00    -0.205 F 
ATOM     76  C   UNL A   1      38.350  33.458  37.506  1.00  0.00     0.022 A 
BRANCH  74  77
ATOM     77  S   UNL A   1      39.976  35.606  37.014  1.00  0.00     0.127 S 
ATOM     78  O   UNL A   1      39.284  35.923  38.260  1.00  0.00    -0.237 OA
ATOM     79  O   UNL A   1      41.401  35.310  37.158  1.00  0.00    -0.237 OA
ATOM     80  O   UNL A   1      39.654  36.454  35.874  1.00  0.00    -0.744 OA
ENDBRANCH  74  77
ENDBRANCH  46  70
BRANCH  58  81
ATOM     81  C   UNL A   1      44.922  28.141  33.927  1.00  0.00     0.023 A 
ATOM     82  C   UNL A   1      46.005  29.033  33.811  1.00  0.00     0.012 A 
ATOM     83  C   UNL A   1      45.004  27.063  34.831  1.00  0.00     0.148 A 
ATOM     84  C   UNL A   1      47.163  28.839  34.562  1.00  0.00     0.002 A 
ATOM     85  C   UNL A   1      46.139  26.907  35.616  1.00  0.00     0.091 A 
ATOM     86  F   UNL A   1      43.966  26.216  34.913  1.00  0.00    -0.205 F 
ATOM     87  C   UNL A   1      47.225  27.786  35.473  1.00  0.00     0.022 A 
BRANCH  85  88
ATOM     88  S   UNL A   1      46.269  25.644  36.886  1.00  0.00     0.127 S 
ATOM     89  O   UNL A   1      46.232  24.418  36.091  1.00  0.00    -0.237 OA
ATOM     90  O   UNL A   1      47.569  25.944  37.486  1.00  0.00    -0.237 OA
ATOM     91  O   UNL A   1      45.130  25.844  37.773  1.00  0.00    -0.744 OA
ENDBRANCH  85  88
ENDBRANCH  58  81
ENDBRANCH  32  33
ENDBRANCH  24  27
ENDBRANCH  22  23
ENDBRANCH  21  22
ENDBRANCH   1  21
TORSDOF 17
ENDMDL
MODEL 3
REMARK VINA RESULT:     -11.2      2.297      3.409
REMARK SMILES C[C@@H](CC(=O)NCCCNC(=O)c1ccc(-c2c3nc(c(-c4cccc(S(=O)(=O)[O-])c4F)c4ccc([nH]4)c(-c4cccc(S(=O)(=O)[O-])c4F)c4nc(c(-c5cccc(S(=O)(=O)[O-])c5F)c5ccc2[nH]5)C=C4)C=C3)cc1)NC(=O)/C=C/c1cccnc1
REMARK SMILES IDX 7 1 6 2 4 3 5 4 3 6 2 7 1 8 76 9 77 10 78 12 79 13 80 14
REMARK SMILES IDX 81 15 82 16 86 17 83 18 85 19 84 20 8 21 9 22 10 23 11 24
REMARK SMILES IDX 12 26 13 27 14 28 75 29 15 30 74 31 16 32 17 33 18 34 68 35
REMARK SMILES IDX 19 36 73 37 67 38 69 39 20 40 72 41 66 42 65 43 21 45 53 46
REMARK SMILES IDX 33 47 52 48 34 49 37 50 51 51 70 52 35 53 36 54 50 56 71 57
REMARK SMILES IDX 38 58 22 59 23 60 31 61 24 62 26 63 32 64 25 65 27 66 28 67
REMARK SMILES IDX 29 68 30 69 54 70 55 71 63 72 56 73 58 74 64 75 57 76 59 77
REMARK SMILES IDX 60 78 61 79 62 80 39 81 40 82 48 83 41 84 43 85 49 86 42 87
REMARK SMILES IDX 44 88 45 89 46 90 47 91
REMARK H PARENT 6 5 76 11 10 25 69 44 37 55
REMARK Flexibility Score: inf
ROOT
ATOM      1  C   UNL A   1      34.128  28.021  23.125  1.00  0.00     0.117 C 
ENDROOT
BRANCH   1   2
ATOM      2  N   UNL A   1      33.569  27.263  22.017  1.00  0.00    -0.356 N 
ATOM      3  C   UNL A   1      33.420  25.924  21.838  1.00  0.00     0.222 C 
ATOM      4  O   UNL A   1      33.037  25.526  20.735  1.00  0.00    -0.275 OA
ATOM      5  H   UNL A   1      33.244  27.815  21.269  1.00  0.00     0.163 HD
BRANCH   3   6
ATOM      6  C   UNL A   1      33.648  24.954  22.972  1.00  0.00     0.124 C 
BRANCH   6   7
ATOM      7  C   UNL A   1      33.427  25.475  24.398  1.00  0.00     0.088 C 
ATOM      8  C   UNL A   1      34.576  25.168  25.348  1.00  0.00     0.031 C 
BRANCH   7   9
ATOM      9  N   UNL A   1      32.185  25.022  25.018  1.00  0.00    -0.350 N 
ATOM     10  C   UNL A   1      30.939  25.581  25.017  1.00  0.00     0.244 C 
ATOM     11  H   UNL A   1      32.258  24.178  25.517  1.00  0.00     0.164 HD
ATOM     12  O   UNL A   1      30.059  25.099  25.727  1.00  0.00    -0.270 OA
BRANCH  10  13
ATOM     13  C   UNL A   1      30.576  26.663  24.061  1.00  0.00     0.072 C 
ATOM     14  C   UNL A   1      29.338  27.081  23.776  1.00  0.00     0.015 C 
BRANCH  14  15
ATOM     15  C   UNL A   1      28.994  28.236  22.960  1.00  0.00    -0.007 A 
ATOM     16  C   UNL A   1      27.743  28.836  23.031  1.00  0.00     0.011 A 
ATOM     17  C   UNL A   1      29.982  28.864  22.203  1.00  0.00     0.119 A 
ATOM     18  C   UNL A   1      27.535  30.043  22.370  1.00  0.00     0.021 A 
ATOM     19  N   UNL A   1      29.807  30.031  21.542  1.00  0.00    -0.264 NA
ATOM     20  C   UNL A   1      28.587  30.598  21.654  1.00  0.00     0.111 A 
ENDBRANCH  14  15
ENDBRANCH  10  13
ENDBRANCH   7   9
ENDBRANCH   6   7
ENDBRANCH   3   6
ENDBRANCH   1   2
BRANCH   1  21
ATOM     21  C   UNL A   1      33.117  29.018  23.682  1.00  0.00     0.042 C 
BRANCH  21  22
ATOM     22  C   UNL A   1      33.139  29.126  25.195  1.00  0.00     0.118 C 
BRANCH  22  23
ATOM     23  N   UNL A   1      32.498  30.342  25.658  1.00  0.00    -0.352 N 
ATOM     24  C   UNL A   1      32.818  31.120  26.746  1.00  0.00     0.251 C 
ATOM     25  H   UNL A   1      31.732  30.651  25.122  1.00  0.00     0.163 HD
ATOM     26  O   UNL A   1      32.028  31.972  27.137  1.00  0.00    -0.269 OA
BRANCH  24  27
ATOM     27  C   UNL A   1      34.105  30.907  27.450  1.00  0.00     0.039 A 
ATOM     28  C   UNL A   1      34.950  31.997  27.669  1.00  0.00     0.014 A 
ATOM     29  C   UNL A   1      34.477  29.634  27.893  1.00  0.00     0.014 A 
ATOM     30  C   UNL A   1      36.144  31.817  28.374  1.00  0.00     0.010 A 
ATOM     31  C   UNL A   1      35.608  29.479  28.685  1.00  0.00     0.010 A 
ATOM     32  C   UNL A   1      36.470  30.562  28.911  1.00  0.00    -0.014 A 
BRANCH  32  33
ATOM     33  C   UNL A   1      37.729  30.332  29.669  1.00  0.00     0.031 A 
ATOM     34  C   UNL A   1      38.795  29.441  29.080  1.00  0.00     0.074 A 
ATOM     35  C   UNL A   1      37.885  30.849  30.903  1.00  0.00     0.049 A 
ATOM     36  N   UNL A   1      39.905  29.012  29.619  1.00  0.00    -0.248 NA
ATOM     37  C   UNL A   1      38.564  28.939  27.713  1.00  0.00     0.031 C 
ATOM     38  C   UNL A   1      36.906  31.682  31.606  1.00  0.00     0.029 A 
ATOM     39  N   UNL A   1      38.916  30.724  31.802  1.00  0.00    -0.354 N 
ATOM     40  C   UNL A   1      40.485  28.170  28.678  1.00  0.00     0.074 A 
ATOM     41  C   UNL A   1      39.580  28.105  27.552  1.00  0.00     0.031 C 
ATOM     42  C   UNL A   1      37.384  31.995  32.821  1.00  0.00     0.029 A 
ATOM     43  C   UNL A   1      38.682  31.352  33.004  1.00  0.00     0.049 A 
ATOM     44  H   UNL A   1      39.745  30.231  31.605  1.00  0.00     0.167 HD
ATOM     45  C   UNL A   1      41.681  27.536  28.723  1.00  0.00     0.034 A 
ATOM     46  C   UNL A   1      39.421  31.389  34.130  1.00  0.00     0.034 A 
ATOM     47  C   UNL A   1      42.597  27.635  29.824  1.00  0.00     0.049 A 
ATOM     48  C   UNL A   1      40.749  30.674  34.154  1.00  0.00     0.074 A 
ATOM     49  C   UNL A   1      43.855  27.075  29.949  1.00  0.00     0.029 A 
ATOM     50  N   UNL A   1      42.355  28.347  30.989  1.00  0.00    -0.354 N 
ATOM     51  N   UNL A   1      41.331  29.981  33.205  1.00  0.00    -0.248 NA
ATOM     52  C   UNL A   1      41.536  30.774  35.392  1.00  0.00     0.031 C 
ATOM     53  C   UNL A   1      44.367  27.430  31.201  1.00  0.00     0.029 A 
ATOM     54  C   UNL A   1      43.442  28.242  31.838  1.00  0.00     0.049 A 
ATOM     55  H   UNL A   1      41.533  28.851  31.184  1.00  0.00     0.167 HD
ATOM     56  C   UNL A   1      42.571  29.610  33.712  1.00  0.00     0.074 A 
ATOM     57  C   UNL A   1      42.662  30.164  35.046  1.00  0.00     0.031 C 
ATOM     58  C   UNL A   1      43.544  28.866  33.132  1.00  0.00     0.034 A 
BRANCH  45  59
ATOM     59  C   UNL A   1      42.094  26.729  27.518  1.00  0.00     0.023 A 
ATOM     60  C   UNL A   1      42.758  27.370  26.452  1.00  0.00     0.012 A 
ATOM     61  C   UNL A   1      41.885  25.338  27.465  1.00  0.00     0.148 A 
ATOM     62  C   UNL A   1      43.174  26.647  25.335  1.00  0.00     0.002 A 
ATOM     63  C   UNL A   1      42.348  24.616  26.371  1.00  0.00     0.091 A 
ATOM     64  F   UNL A   1      41.239  24.749  28.481  1.00  0.00    -0.205 F 
ATOM     65  C   UNL A   1      42.980  25.270  25.300  1.00  0.00     0.022 A 
BRANCH  63  66
ATOM     66  S   UNL A   1      42.222  22.828  26.262  1.00  0.00     0.127 S 
ATOM     67  O   UNL A   1      40.772  22.631  26.303  1.00  0.00    -0.237 OA
ATOM     68  O   UNL A   1      42.836  22.557  24.962  1.00  0.00    -0.237 OA
ATOM     69  O   UNL A   1      42.952  22.300  27.405  1.00  0.00    -0.744 OA
ENDBRANCH  63  66
ENDBRANCH  45  59
BRANCH  46  70
ATOM     70  C   UNL A   1      38.960  32.166  35.317  1.00  0.00     0.023 A 
ATOM     71  C   UNL A   1      39.126  33.566  35.336  1.00  0.00     0.012 A 
ATOM     72  C   UNL A   1      38.378  31.533  36.432  1.00  0.00     0.148 A 
ATOM     73  C   UNL A   1      38.770  34.313  36.460  1.00  0.00     0.002 A 
ATOM     74  C   UNL A   1      37.970  32.289  37.525  1.00  0.00     0.091 A 
ATOM     75  F   UNL A   1      38.234  30.200  36.403  1.00  0.00    -0.205 F 
ATOM     76  C   UNL A   1      38.187  33.676  37.551  1.00  0.00     0.022 A 
BRANCH  74  77
ATOM     77  S   UNL A   1      37.091  31.571  38.918  1.00  0.00     0.127 S 
ATOM     78  O   UNL A   1      38.061  31.731  39.998  1.00  0.00    -0.237 OA
ATOM     79  O   UNL A   1      35.914  32.435  39.012  1.00  0.00    -0.237 OA
ATOM     80  O   UNL A   1      36.795  30.199  38.527  1.00  0.00    -0.744 OA
ENDBRANCH  74  77
ENDBRANCH  46  70
BRANCH  58  81
ATOM     81  C   UNL A   1      44.829  28.667  33.892  1.00  0.00     0.023 A 
ATOM     82  C   UNL A   1      45.877  29.600  33.770  1.00  0.00     0.012 A 
ATOM     83  C   UNL A   1      44.954  27.597  34.801  1.00  0.00     0.148 A 
ATOM     84  C   UNL A   1      47.042  29.454  34.521  1.00  0.00     0.002 A 
ATOM     85  C   UNL A   1      46.095  27.490  35.586  1.00  0.00     0.091 A 
ATOM     86  F   UNL A   1      43.950  26.712  34.889  1.00  0.00    -0.205 F 
ATOM     87  C   UNL A   1      47.146  28.409  35.438  1.00  0.00     0.022 A 
BRANCH  85  88
ATOM     88  S   UNL A   1      46.274  26.239  36.862  1.00  0.00     0.127 S 
ATOM     89  O   UNL A   1      45.054  26.434  37.643  1.00  0.00    -0.237 OA
ATOM     90  O   UNL A   1      46.307  25.004  36.079  1.00  0.00    -0.237 OA
ATOM     91  O   UNL A   1      47.514  26.549  37.561  1.00  0.00    -0.744 OA
ENDBRANCH  85  88
ENDBRANCH  58  81
ENDBRANCH  32  33
ENDBRANCH  24  27
ENDBRANCH  22  23
ENDBRANCH  21  22
ENDBRANCH   1  21
TORSDOF 17
ENDMDL
