MODEL 1
REMARK VINA RESULT:     -13.3      0.000      0.000
REMARK SMILES NC(=O)c1c(-c2ccc(Cl)cc2)csc1NC(=O)[C@H]1[C@@H](C(=O)NCCCNC(=O)c2ccc(-c3c4nc(c(-c5cccc(S(=O)(=O)[O-])c5F)c5ccc([nH]5)c(-c5cccc(S(=O)(=O)[O-])c5F)c5nc(c(-c6cccc(S(=O)(=O)[O-])c6F)c6ccc3[nH]6)C=C5)C=C4)cc2)[C@@H]2CC[C@H]1O2
REMARK SMILES IDX 25 1 24 2 23 3 21 4 22 5 20 7 19 8 96 9 93 10 95 11 97 12
REMARK SMILES IDX 94 13 17 14 16 15 18 17 15 18 4 19 5 20 13 21 14 22 2 23
REMARK SMILES IDX 1 24 3 27 6 28 7 29 12 30 8 31 11 32 9 33 10 34 26 35 27 36
REMARK SMILES IDX 28 37 29 39 30 40 31 41 92 42 32 43 91 44 33 45 34 46 35 47
REMARK SMILES IDX 85 48 36 49 90 50 84 51 86 52 37 53 89 54 83 55 82 56 38 58
REMARK SMILES IDX 70 59 50 60 69 61 51 62 54 63 68 64 87 65 52 66 53 67 67 69
REMARK SMILES IDX 88 70 55 71 39 72 40 73 48 74 41 75 43 76 49 77 42 78 44 79
REMARK SMILES IDX 45 80 46 81 47 82 71 83 72 84 80 85 73 86 75 87 81 88 74 89
REMARK SMILES IDX 76 90 77 91 78 92 79 93 56 94 57 95 65 96 58 97 60 98 66 99
REMARK SMILES IDX 59 100 61 101 62 102 63 103 64 104
REMARK H PARENT 23 6 16 16 1 25 1 26 27 38 86 57 54 68
REMARK Flexibility Score: inf
ROOT
ATOM      1  C   UNL A   1      35.776  22.899  24.855  1.00  0.00     0.042 C 
ENDROOT
BRANCH   1   2
ATOM      2  C   UNL A   1      35.355  24.290  25.273  1.00  0.00     0.117 C 
BRANCH   2   3
ATOM      3  N   UNL A   1      34.775  25.114  24.236  1.00  0.00    -0.356 N 
ATOM      4  C   UNL A   1      34.033  26.244  24.333  1.00  0.00     0.226 C 
ATOM      5  O   UNL A   1      33.872  26.881  23.282  1.00  0.00    -0.275 OA
ATOM      6  H   UNL A   1      34.946  24.807  23.316  1.00  0.00     0.163 HD
BRANCH   4   7
ATOM      7  C   UNL A   1      33.277  26.701  25.576  1.00  0.00     0.122 C 
ATOM      8  C   UNL A   1      31.762  26.597  25.804  1.00  0.00     0.123 C 
ATOM      9  C   UNL A   1      31.379  28.085  25.985  1.00  0.00     0.132 C 
ATOM     10  C   UNL A   1      33.535  28.204  25.777  1.00  0.00     0.132 C 
ATOM     11  C   UNL A   1      31.802  28.562  27.374  1.00  0.00     0.035 C 
ATOM     12  O   UNL A   1      32.359  28.778  25.179  1.00  0.00    -0.373 OA
ATOM     13  C   UNL A   1      33.326  28.610  27.240  1.00  0.00     0.035 C 
BRANCH   8  14
ATOM     14  C   UNL A   1      30.876  25.911  24.782  1.00  0.00     0.231 C 
ATOM     15  N   UNL A   1      31.420  24.981  23.932  1.00  0.00    -0.317 N 
ATOM     16  H   UNL A   1      31.696  25.232  23.021  1.00  0.00     0.170 HD
ATOM     17  O   UNL A   1      29.672  26.152  24.681  1.00  0.00    -0.274 OA
BRANCH  15  18
ATOM     18  C   UNL A   1      31.570  23.673  24.386  1.00  0.00     0.108 A 
ATOM     19  C   UNL A   1      32.177  22.625  23.713  1.00  0.00     0.082 A 
ATOM     20  C   UNL A   1      32.163  21.432  24.526  1.00  0.00     0.007 A 
ATOM     21  C   UNL A   1      31.556  21.651  25.749  1.00  0.00     0.076 A 
ATOM     22  S   UNL A   1      31.029  23.265  25.936  1.00  0.00    -0.125 S 
BRANCH  19  23
ATOM     23  C   UNL A   1      32.709  22.801  22.362  1.00  0.00     0.252 C 
ATOM     24  N   UNL A   1      32.156  22.037  21.379  1.00  0.00    -0.365 N 
ATOM     25  H   UNL A   1      32.479  22.118  20.452  1.00  0.00     0.159 HD
ATOM     26  H   UNL A   1      31.434  21.403  21.594  1.00  0.00     0.159 HD
ATOM     27  O   UNL A   1      33.572  23.633  22.103  1.00  0.00    -0.269 OA
ENDBRANCH  19  23
BRANCH  20  28
ATOM     28  C   UNL A   1      32.748  20.134  24.218  1.00  0.00    -0.017 A 
ATOM     29  C   UNL A   1      33.890  19.690  24.896  1.00  0.00     0.010 A 
ATOM     30  C   UNL A   1      32.139  19.304  23.267  1.00  0.00     0.010 A 
ATOM     31  C   UNL A   1      34.413  18.423  24.628  1.00  0.00     0.021 A 
ATOM     32  C   UNL A   1      32.663  18.037  23.002  1.00  0.00     0.021 A 
ATOM     33  C   UNL A   1      33.797  17.602  23.684  1.00  0.00     0.041 A 
ATOM     34  Cl  UNL A   1      34.440  16.039  23.364  1.00  0.00    -0.084 Cl
ENDBRANCH  20  28
ENDBRANCH  15  18
ENDBRANCH   8  14
ENDBRANCH   4   7
ENDBRANCH   2   3
ENDBRANCH   1   2
BRANCH   1  35
ATOM     35  C   UNL A   1      36.179  21.992  26.004  1.00  0.00     0.118 C 
BRANCH  35  36
ATOM     36  N   UNL A   1      37.268  21.067  25.691  1.00  0.00    -0.352 N 
ATOM     37  C   UNL A   1      38.633  21.180  25.828  1.00  0.00     0.251 C 
ATOM     38  H   UNL A   1      36.971  20.208  25.313  1.00  0.00     0.163 HD
ATOM     39  O   UNL A   1      39.363  20.286  25.405  1.00  0.00    -0.269 OA
BRANCH  37  40
ATOM     40  C   UNL A   1      39.234  22.382  26.447  1.00  0.00     0.039 A 
ATOM     41  C   UNL A   1      40.289  22.234  27.353  1.00  0.00     0.014 A 
ATOM     42  C   UNL A   1      38.775  23.655  26.126  1.00  0.00     0.014 A 
ATOM     43  C   UNL A   1      40.948  23.367  27.841  1.00  0.00     0.010 A 
ATOM     44  C   UNL A   1      39.517  24.768  26.494  1.00  0.00     0.010 A 
ATOM     45  C   UNL A   1      40.608  24.643  27.365  1.00  0.00    -0.014 A 
BRANCH  45  46
ATOM     46  C   UNL A   1      41.358  25.868  27.751  1.00  0.00     0.031 A 
ATOM     47  C   UNL A   1      40.662  26.962  28.520  1.00  0.00     0.074 A 
ATOM     48  C   UNL A   1      42.615  26.056  27.300  1.00  0.00     0.049 A 
ATOM     49  N   UNL A   1      41.085  28.162  28.818  1.00  0.00    -0.248 NA
ATOM     50  C   UNL A   1      39.285  26.689  28.973  1.00  0.00     0.031 C 
ATOM     51  C   UNL A   1      43.371  25.116  26.469  1.00  0.00     0.029 A 
ATOM     52  N   UNL A   1      43.469  27.122  27.447  1.00  0.00    -0.354 N 
ATOM     53  C   UNL A   1      40.015  28.801  29.435  1.00  0.00     0.074 A 
ATOM     54  C   UNL A   1      38.908  27.872  29.430  1.00  0.00     0.031 C 
ATOM     55  C   UNL A   1      44.575  25.640  26.190  1.00  0.00     0.029 A 
ATOM     56  C   UNL A   1      44.665  26.969  26.784  1.00  0.00     0.049 A 
ATOM     57  H   UNL A   1      43.245  27.921  27.978  1.00  0.00     0.167 HD
ATOM     58  C   UNL A   1      39.966  30.035  29.989  1.00  0.00     0.034 A 
ATOM     59  C   UNL A   1      45.712  27.809  26.658  1.00  0.00     0.034 A 
ATOM     60  C   UNL A   1      41.091  30.925  30.057  1.00  0.00     0.049 A 
ATOM     61  C   UNL A   1      45.656  29.149  27.341  1.00  0.00     0.074 A 
ATOM     62  C   UNL A   1      41.179  32.152  30.690  1.00  0.00     0.029 A 
ATOM     63  N   UNL A   1      42.325  30.685  29.473  1.00  0.00    -0.354 N 
ATOM     64  N   UNL A   1      44.689  29.672  28.055  1.00  0.00    -0.248 NA
ATOM     65  C   UNL A   1      46.849  30.001  27.232  1.00  0.00     0.031 C 
ATOM     66  C   UNL A   1      42.463  32.662  30.472  1.00  0.00     0.029 A 
ATOM     67  C   UNL A   1      43.181  31.741  29.726  1.00  0.00     0.049 A 
ATOM     68  H   UNL A   1      42.556  29.881  28.954  1.00  0.00     0.167 HD
ATOM     69  C   UNL A   1      45.169  30.893  28.513  1.00  0.00     0.074 A 
ATOM     70  C   UNL A   1      46.521  31.025  28.009  1.00  0.00     0.031 C 
ATOM     71  C   UNL A   1      44.544  31.827  29.271  1.00  0.00     0.034 A 
BRANCH  58  72
ATOM     72  C   UNL A   1      38.670  30.468  30.625  1.00  0.00     0.023 A 
ATOM     73  C   UNL A   1      38.461  30.247  32.003  1.00  0.00     0.012 A 
ATOM     74  C   UNL A   1      37.682  31.137  29.877  1.00  0.00     0.148 A 
ATOM     75  C   UNL A   1      37.274  30.647  32.616  1.00  0.00     0.002 A 
ATOM     76  C   UNL A   1      36.523  31.577  30.507  1.00  0.00     0.091 A 
ATOM     77  F   UNL A   1      37.888  31.321  28.565  1.00  0.00    -0.205 F 
ATOM     78  C   UNL A   1      36.311  31.321  31.871  1.00  0.00     0.022 A 
BRANCH  76  79
ATOM     79  S   UNL A   1      35.259  32.530  29.656  1.00  0.00     0.127 S 
ATOM     80  O   UNL A   1      36.033  33.663  29.152  1.00  0.00    -0.237 OA
ATOM     81  O   UNL A   1      34.810  31.593  28.627  1.00  0.00    -0.237 OA
ATOM     82  O   UNL A   1      34.257  32.855  30.661  1.00  0.00    -0.744 OA
ENDBRANCH  76  79
ENDBRANCH  58  72
BRANCH  59  83
ATOM     83  C   UNL A   1      46.931  27.377  25.916  1.00  0.00     0.023 A 
ATOM     84  C   UNL A   1      47.897  26.593  26.577  1.00  0.00     0.012 A 
ATOM     85  C   UNL A   1      47.131  27.714  24.563  1.00  0.00     0.148 A 
ATOM     86  C   UNL A   1      49.055  26.180  25.918  1.00  0.00     0.002 A 
ATOM     87  C   UNL A   1      48.262  27.253  23.896  1.00  0.00     0.091 A 
ATOM     88  F   UNL A   1      46.207  28.468  23.953  1.00  0.00    -0.205 F 
ATOM     89  C   UNL A   1      49.232  26.502  24.576  1.00  0.00     0.022 A 
BRANCH  87  90
ATOM     90  S   UNL A   1      48.518  27.512  22.137  1.00  0.00     0.127 S 
ATOM     91  O   UNL A   1      49.752  28.296  22.126  1.00  0.00    -0.237 OA
ATOM     92  O   UNL A   1      48.656  26.141  21.647  1.00  0.00    -0.237 OA
ATOM     93  O   UNL A   1      47.326  28.203  21.663  1.00  0.00    -0.744 OA
ENDBRANCH  87  90
ENDBRANCH  59  83
BRANCH  71  94
ATOM     94  C   UNL A   1      45.323  33.058  29.653  1.00  0.00     0.023 A 
ATOM     95  C   UNL A   1      46.103  33.059  30.826  1.00  0.00     0.012 A 
ATOM     96  C   UNL A   1      45.355  34.176  28.797  1.00  0.00     0.148 A 
ATOM     97  C   UNL A   1      46.882  34.167  31.155  1.00  0.00     0.002 A 
ATOM     98  C   UNL A   1      46.172  35.256  29.106  1.00  0.00     0.091 A 
ATOM     99  F   UNL A   1      44.591  34.159  27.695  1.00  0.00    -0.205 F 
ATOM    100  C   UNL A   1      46.927  35.258  30.289  1.00  0.00     0.022 A 
BRANCH  98 101
ATOM    101  S   UNL A   1      46.372  36.658  28.002  1.00  0.00     0.127 S 
ATOM    102  O   UNL A   1      47.060  37.619  28.863  1.00  0.00    -0.237 OA
ATOM    103  O   UNL A   1      47.198  36.096  26.933  1.00  0.00    -0.237 OA
ATOM    104  O   UNL A   1      45.028  37.042  27.590  1.00  0.00    -0.744 OA
ENDBRANCH  98 101
ENDBRANCH  71  94
ENDBRANCH  45  46
ENDBRANCH  37  40
ENDBRANCH  35  36
ENDBRANCH   1  35
TORSDOF 17
ENDMDL
MODEL 2
REMARK VINA RESULT:     -13.0      5.313     10.177
REMARK SMILES NC(=O)c1c(-c2ccc(Cl)cc2)csc1NC(=O)[C@H]1[C@@H](C(=O)NCCCNC(=O)c2ccc(-c3c4nc(c(-c5cccc(S(=O)(=O)[O-])c5F)c5ccc([nH]5)c(-c5cccc(S(=O)(=O)[O-])c5F)c5nc(c(-c6cccc(S(=O)(=O)[O-])c6F)c6ccc3[nH]6)C=C5)C=C4)cc2)[C@@H]2CC[C@H]1O2
REMARK SMILES IDX 25 1 24 2 23 3 21 4 22 5 20 7 19 8 96 9 93 10 95 11 97 12
REMARK SMILES IDX 94 13 17 14 16 15 18 17 15 18 4 19 5 20 13 21 14 22 2 23
REMARK SMILES IDX 1 24 3 27 6 28 7 29 12 30 8 31 11 32 9 33 10 34 26 35 27 36
REMARK SMILES IDX 28 37 29 39 30 40 31 41 92 42 32 43 91 44 33 45 34 46 35 47
REMARK SMILES IDX 85 48 36 49 90 50 84 51 86 52 37 53 89 54 83 55 82 56 38 58
REMARK SMILES IDX 70 59 50 60 69 61 51 62 54 63 68 64 87 65 52 66 53 67 67 69
REMARK SMILES IDX 88 70 55 71 39 72 40 73 48 74 41 75 43 76 49 77 42 78 44 79
REMARK SMILES IDX 45 80 46 81 47 82 71 83 72 84 80 85 73 86 75 87 81 88 74 89
REMARK SMILES IDX 76 90 77 91 78 92 79 93 56 94 57 95 65 96 58 97 60 98 66 99
REMARK SMILES IDX 59 100 61 101 62 102 63 103 64 104
REMARK H PARENT 23 6 16 16 1 25 1 26 27 38 86 57 54 68
REMARK Flexibility Score: inf
ROOT
ATOM      1  C   UNL A   1      32.272  28.170  26.026  1.00  0.00     0.042 C 
ENDROOT
BRANCH   1   2
ATOM      2  C   UNL A   1      32.967  26.864  26.341  1.00  0.00     0.117 C 
BRANCH   2   3
ATOM      3  N   UNL A   1      32.101  25.736  26.608  1.00  0.00    -0.356 N 
ATOM      4  C   UNL A   1      32.346  24.407  26.505  1.00  0.00     0.226 C 
ATOM      5  O   UNL A   1      31.509  23.658  27.029  1.00  0.00    -0.275 OA
ATOM      6  H   UNL A   1      31.194  25.970  26.912  1.00  0.00     0.163 HD
BRANCH   4   7
ATOM      7  C   UNL A   1      33.467  23.775  25.687  1.00  0.00     0.122 C 
ATOM      8  C   UNL A   1      33.314  23.083  24.324  1.00  0.00     0.123 C 
ATOM      9  C   UNL A   1      33.813  21.656  24.650  1.00  0.00     0.132 C 
ATOM     10  C   UNL A   1      34.131  22.678  26.537  1.00  0.00     0.132 C 
ATOM     11  C   UNL A   1      35.338  21.652  24.755  1.00  0.00     0.035 C 
ATOM     12  O   UNL A   1      33.470  21.497  26.046  1.00  0.00    -0.373 OA
ATOM     13  C   UNL A   1      35.564  22.407  26.068  1.00  0.00     0.035 C 
BRANCH   8  14
ATOM     14  C   UNL A   1      31.972  23.059  23.620  1.00  0.00     0.231 C 
ATOM     15  N   UNL A   1      31.021  23.995  23.946  1.00  0.00    -0.317 N 
ATOM     16  H   UNL A   1      30.305  23.782  24.588  1.00  0.00     0.170 HD
ATOM     17  O   UNL A   1      31.692  22.230  22.753  1.00  0.00    -0.274 OA
BRANCH  15  18
ATOM     18  C   UNL A   1      31.091  25.250  23.347  1.00  0.00     0.108 A 
ATOM     19  C   UNL A   1      30.249  26.327  23.575  1.00  0.00     0.082 A 
ATOM     20  C   UNL A   1      30.664  27.463  22.785  1.00  0.00     0.007 A 
ATOM     21  C   UNL A   1      31.780  27.177  22.021  1.00  0.00     0.076 A 
ATOM     22  S   UNL A   1      32.341  25.582  22.257  1.00  0.00    -0.125 S 
BRANCH  19  23
ATOM     23  C   UNL A   1      29.116  26.219  24.493  1.00  0.00     0.252 C 
ATOM     24  N   UNL A   1      27.872  26.348  23.952  1.00  0.00    -0.365 N 
ATOM     25  H   UNL A   1      27.076  26.284  24.528  1.00  0.00     0.159 HD
ATOM     26  H   UNL A   1      27.768  26.505  22.986  1.00  0.00     0.159 HD
ATOM     27  O   UNL A   1      29.262  25.971  25.685  1.00  0.00    -0.269 OA
ENDBRANCH  19  23
BRANCH  20  28
ATOM     28  C   UNL A   1      30.089  28.801  22.777  1.00  0.00    -0.017 A 
ATOM     29  C   UNL A   1      30.176  29.619  23.910  1.00  0.00     0.010 A 
ATOM     30  C   UNL A   1      29.485  29.293  21.612  1.00  0.00     0.010 A 
ATOM     31  C   UNL A   1      29.666  30.919  23.875  1.00  0.00     0.021 A 
ATOM     32  C   UNL A   1      28.978  30.593  21.578  1.00  0.00     0.021 A 
ATOM     33  C   UNL A   1      29.072  31.401  22.710  1.00  0.00     0.041 A 
ATOM     34  Cl  UNL A   1      28.454  33.005  22.667  1.00  0.00    -0.084 Cl
ENDBRANCH  20  28
ENDBRANCH  15  18
ENDBRANCH   8  14
ENDBRANCH   4   7
ENDBRANCH   2   3
ENDBRANCH   1   2
BRANCH   1  35
ATOM     35  C   UNL A   1      31.934  29.012  27.243  1.00  0.00     0.118 C 
BRANCH  35  36
ATOM     36  N   UNL A   1      31.819  30.445  26.974  1.00  0.00    -0.352 N 
ATOM     37  C   UNL A   1      32.702  31.485  27.159  1.00  0.00     0.251 C 
ATOM     38  H   UNL A   1      30.953  30.715  26.590  1.00  0.00     0.163 HD
ATOM     39  O   UNL A   1      32.339  32.638  26.935  1.00  0.00    -0.269 OA
BRANCH  37  40
ATOM     40  C   UNL A   1      34.072  31.235  27.660  1.00  0.00     0.039 A 
ATOM     41  C   UNL A   1      34.916  32.318  27.925  1.00  0.00     0.014 A 
ATOM     42  C   UNL A   1      34.523  29.939  27.886  1.00  0.00     0.014 A 
ATOM     43  C   UNL A   1      36.161  32.097  28.521  1.00  0.00     0.010 A 
ATOM     44  C   UNL A   1      35.690  29.731  28.605  1.00  0.00     0.010 A 
ATOM     45  C   UNL A   1      36.533  30.805  28.925  1.00  0.00    -0.014 A 
BRANCH  45  46
ATOM     46  C   UNL A   1      37.787  30.530  29.677  1.00  0.00     0.031 A 
ATOM     47  C   UNL A   1      38.832  29.620  29.083  1.00  0.00     0.074 A 
ATOM     48  C   UNL A   1      37.927  30.986  30.938  1.00  0.00     0.049 A 
ATOM     49  N   UNL A   1      39.914  29.134  29.632  1.00  0.00    -0.248 NA
ATOM     50  C   UNL A   1      38.606  29.154  27.702  1.00  0.00     0.031 C 
ATOM     51  C   UNL A   1      36.948  31.800  31.664  1.00  0.00     0.029 A 
ATOM     52  N   UNL A   1      38.937  30.798  31.851  1.00  0.00    -0.354 N 
ATOM     53  C   UNL A   1      40.460  28.266  28.694  1.00  0.00     0.074 A 
ATOM     54  C   UNL A   1      39.568  28.257  27.556  1.00  0.00     0.031 C 
ATOM     55  C   UNL A   1      37.408  32.050  32.900  1.00  0.00     0.029 A 
ATOM     56  C   UNL A   1      38.693  31.381  33.073  1.00  0.00     0.049 A 
ATOM     57  H   UNL A   1      39.758  30.294  31.648  1.00  0.00     0.167 HD
ATOM     58  C   UNL A   1      41.617  27.567  28.754  1.00  0.00     0.034 A 
ATOM     59  C   UNL A   1      39.416  31.369  34.210  1.00  0.00     0.034 A 
ATOM     60  C   UNL A   1      42.537  27.637  29.856  1.00  0.00     0.049 A 
ATOM     61  C   UNL A   1      40.733  30.638  34.228  1.00  0.00     0.074 A 
ATOM     62  C   UNL A   1      43.786  27.055  29.972  1.00  0.00     0.029 A 
ATOM     63  N   UNL A   1      42.307  28.334  31.032  1.00  0.00    -0.354 N 
ATOM     64  N   UNL A   1      41.307  29.950  33.272  1.00  0.00    -0.248 NA
ATOM     65  C   UNL A   1      41.517  30.711  35.469  1.00  0.00     0.031 C 
ATOM     66  C   UNL A   1      44.304  27.384  31.228  1.00  0.00     0.029 A 
ATOM     67  C   UNL A   1      43.389  28.194  31.883  1.00  0.00     0.049 A 
ATOM     68  H   UNL A   1      41.494  28.851  31.233  1.00  0.00     0.167 HD
ATOM     69  C   UNL A   1      42.535  29.542  33.779  1.00  0.00     0.074 A 
ATOM     70  C   UNL A   1      42.629  30.075  35.123  1.00  0.00     0.031 C 
ATOM     71  C   UNL A   1      43.493  28.784  33.192  1.00  0.00     0.034 A 
BRANCH  58  72
ATOM     72  C   UNL A   1      41.986  26.715  27.567  1.00  0.00     0.023 A 
ATOM     73  C   UNL A   1      42.691  27.291  26.488  1.00  0.00     0.012 A 
ATOM     74  C   UNL A   1      41.685  25.340  27.537  1.00  0.00     0.148 A 
ATOM     75  C   UNL A   1      43.052  26.522  25.382  1.00  0.00     0.002 A 
ATOM     76  C   UNL A   1      42.092  24.570  26.453  1.00  0.00     0.091 A 
ATOM     77  F   UNL A   1      40.997  24.814  28.561  1.00  0.00    -0.205 F 
ATOM     78  C   UNL A   1      42.762  25.161  25.370  1.00  0.00     0.022 A 
BRANCH  76  79
ATOM     79  S   UNL A   1      41.844  22.792  26.379  1.00  0.00     0.127 S 
ATOM     80  O   UNL A   1      40.385  22.699  26.346  1.00  0.00    -0.237 OA
ATOM     81  O   UNL A   1      42.505  22.442  25.123  1.00  0.00    -0.237 OA
ATOM     82  O   UNL A   1      42.477  22.248  27.572  1.00  0.00    -0.744 OA
ENDBRANCH  76  79
ENDBRANCH  58  72
BRANCH  59  83
ATOM     83  C   UNL A   1      38.949  32.134  35.403  1.00  0.00     0.023 A 
ATOM     84  C   UNL A   1      39.085  33.536  35.416  1.00  0.00     0.012 A 
ATOM     85  C   UNL A   1      38.353  31.492  36.505  1.00  0.00     0.148 A 
ATOM     86  C   UNL A   1      38.669  34.283  36.518  1.00  0.00     0.002 A 
ATOM     87  C   UNL A   1      37.891  32.248  37.578  1.00  0.00     0.091 A 
ATOM     88  F   UNL A   1      38.240  30.157  36.479  1.00  0.00    -0.205 F 
ATOM     89  C   UNL A   1      38.064  33.640  37.594  1.00  0.00     0.022 A 
BRANCH  87  90
ATOM     90  S   UNL A   1      36.988  31.524  38.952  1.00  0.00     0.127 S 
ATOM     91  O   UNL A   1      35.805  32.380  39.016  1.00  0.00    -0.237 OA
ATOM     92  O   UNL A   1      36.740  30.166  38.468  1.00  0.00    -0.237 OA
ATOM     93  O   UNL A   1      37.886  31.600  40.096  1.00  0.00    -0.744 OA
ENDBRANCH  87  90
ENDBRANCH  59  83
BRANCH  71  94
ATOM     94  C   UNL A   1      44.756  28.522  33.968  1.00  0.00     0.023 A 
ATOM     95  C   UNL A   1      45.836  29.422  33.879  1.00  0.00     0.012 A 
ATOM     96  C   UNL A   1      44.831  27.434  34.860  1.00  0.00     0.148 A 
ATOM     97  C   UNL A   1      46.983  29.226  34.646  1.00  0.00     0.002 A 
ATOM     98  C   UNL A   1      45.957  27.274  35.658  1.00  0.00     0.091 A 
ATOM     99  F   UNL A   1      43.798  26.581  34.916  1.00  0.00    -0.205 F 
ATOM    100  C   UNL A   1      47.039  28.162  35.543  1.00  0.00     0.022 A 
BRANCH  98 101
ATOM    101  S   UNL A   1      46.074  25.995  36.913  1.00  0.00     0.127 S 
ATOM    102  O   UNL A   1      47.403  26.247  37.471  1.00  0.00    -0.237 OA
ATOM    103  O   UNL A   1      44.964  26.332  37.804  1.00  0.00    -0.237 OA
ATOM    104  O   UNL A   1      45.923  24.727  36.212  1.00  0.00    -0.744 OA
ENDBRANCH  98 101
ENDBRANCH  71  94
ENDBRANCH  45  46
ENDBRANCH  37  40
ENDBRANCH  35  36
ENDBRANCH   1  35
TORSDOF 17
ENDMDL
MODEL 3
REMARK VINA RESULT:     -12.9      5.157      7.776
REMARK SMILES NC(=O)c1c(-c2ccc(Cl)cc2)csc1NC(=O)[C@H]1[C@@H](C(=O)NCCCNC(=O)c2ccc(-c3c4nc(c(-c5cccc(S(=O)(=O)[O-])c5F)c5ccc([nH]5)c(-c5cccc(S(=O)(=O)[O-])c5F)c5nc(c(-c6cccc(S(=O)(=O)[O-])c6F)c6ccc3[nH]6)C=C5)C=C4)cc2)[C@@H]2CC[C@H]1O2
REMARK SMILES IDX 25 1 24 2 23 3 21 4 22 5 20 7 19 8 96 9 93 10 95 11 97 12
REMARK SMILES IDX 94 13 17 14 16 15 18 17 15 18 4 19 5 20 13 21 14 22 2 23
REMARK SMILES IDX 1 24 3 27 6 28 7 29 12 30 8 31 11 32 9 33 10 34 26 35 27 36
REMARK SMILES IDX 28 37 29 39 30 40 31 41 92 42 32 43 91 44 33 45 34 46 35 47
REMARK SMILES IDX 85 48 36 49 90 50 84 51 86 52 37 53 89 54 83 55 82 56 38 58
REMARK SMILES IDX 70 59 50 60 69 61 51 62 54 63 68 64 87 65 52 66 53 67 67 69
REMARK SMILES IDX 88 70 55 71 39 72 40 73 48 74 41 75 43 76 49 77 42 78 44 79
REMARK SMILES IDX 45 80 46 81 47 82 71 83 72 84 80 85 73 86 75 87 81 88 74 89
REMARK SMILES IDX 76 90 77 91 78 92 79 93 56 94 57 95 65 96 58 97 60 98 66 99
REMARK SMILES IDX 59 100 61 101 62 102 63 103 64 104
REMARK H PARENT 23 6 16 16 1 25 1 26 27 38 86 57 54 68
REMARK Flexibility Score: inf
ROOT
ATOM      1  C   UNL A   1      31.403  31.873  26.895  1.00  0.00     0.042 C 
ENDROOT
BRANCH   1   2
ATOM      2  C   UNL A   1      31.954  30.466  26.968  1.00  0.00     0.117 C 
BRANCH   2   3
ATOM      3  N   UNL A   1      32.851  30.083  25.900  1.00  0.00    -0.356 N 
ATOM      4  C   UNL A   1      32.606  29.385  24.763  1.00  0.00     0.226 C 
ATOM      5  O   UNL A   1      33.501  29.410  23.906  1.00  0.00    -0.275 OA
ATOM      6  H   UNL A   1      33.785  30.373  26.015  1.00  0.00     0.163 HD
BRANCH   4   7
ATOM      7  C   UNL A   1      31.405  28.476  24.526  1.00  0.00     0.122 C 
ATOM      8  C   UNL A   1      31.448  27.044  23.973  1.00  0.00     0.123 C 
ATOM      9  C   UNL A   1      30.598  27.188  22.689  1.00  0.00     0.132 C 
ATOM     10  C   UNL A   1      30.450  29.176  23.545  1.00  0.00     0.132 C 
ATOM     11  C   UNL A   1      29.116  27.262  23.056  1.00  0.00     0.035 C 
ATOM     12  O   UNL A   1      30.822  28.562  22.297  1.00  0.00    -0.373 OA
ATOM     13  C   UNL A   1      29.019  28.650  23.695  1.00  0.00     0.035 C 
BRANCH   8  14
ATOM     14  C   UNL A   1      32.776  26.369  23.691  1.00  0.00     0.231 C 
ATOM     15  N   UNL A   1      33.399  25.659  24.688  1.00  0.00    -0.317 N 
ATOM     16  H   UNL A   1      34.111  26.071  25.229  1.00  0.00     0.170 HD
ATOM     17  O   UNL A   1      33.329  26.425  22.591  1.00  0.00    -0.274 OA
BRANCH  15  18
ATOM     18  C   UNL A   1      33.003  24.344  24.914  1.00  0.00     0.108 A 
ATOM     19  C   UNL A   1      33.487  23.210  24.280  1.00  0.00     0.082 A 
ATOM     20  C   UNL A   1      32.849  22.028  24.811  1.00  0.00     0.007 A 
ATOM     21  C   UNL A   1      31.937  22.339  25.803  1.00  0.00     0.076 A 
ATOM     22  S   UNL A   1      31.857  24.016  26.113  1.00  0.00    -0.125 S 
BRANCH  19  23
ATOM     23  C   UNL A   1      34.488  23.307  23.219  1.00  0.00     0.252 C 
ATOM     24  N   UNL A   1      35.794  23.335  23.607  1.00  0.00    -0.365 N 
ATOM     25  H   UNL A   1      36.507  23.400  22.931  1.00  0.00     0.159 HD
ATOM     26  H   UNL A   1      36.026  23.290  24.563  1.00  0.00     0.159 HD
ATOM     27  O   UNL A   1      34.184  23.308  22.031  1.00  0.00    -0.269 OA
ENDBRANCH  19  23
BRANCH  20  28
ATOM     28  C   UNL A   1      33.114  20.639  24.464  1.00  0.00    -0.017 A 
ATOM     29  C   UNL A   1      32.262  19.949  23.593  1.00  0.00     0.010 A 
ATOM     30  C   UNL A   1      34.255  20.000  24.968  1.00  0.00     0.010 A 
ATOM     31  C   UNL A   1      32.553  18.632  23.227  1.00  0.00     0.021 A 
ATOM     32  C   UNL A   1      34.545  18.685  24.599  1.00  0.00     0.021 A 
ATOM     33  C   UNL A   1      33.693  18.008  23.730  1.00  0.00     0.041 A 
ATOM     34  Cl  UNL A   1      34.053  16.390  23.269  1.00  0.00    -0.084 Cl
ENDBRANCH  20  28
ENDBRANCH  15  18
ENDBRANCH   8  14
ENDBRANCH   4   7
ENDBRANCH   2   3
ENDBRANCH   1   2
BRANCH   1  35
ATOM     35  C   UNL A   1      32.445  32.942  26.620  1.00  0.00     0.118 C 
BRANCH  35  36
ATOM     36  N   UNL A   1      32.390  34.087  27.527  1.00  0.00    -0.352 N 
ATOM     37  C   UNL A   1      33.169  34.438  28.607  1.00  0.00     0.251 C 
ATOM     38  H   UNL A   1      31.663  34.723  27.331  1.00  0.00     0.163 HD
ATOM     39  O   UNL A   1      32.867  35.421  29.281  1.00  0.00    -0.269 OA
BRANCH  37  40
ATOM     40  C   UNL A   1      34.344  33.625  28.987  1.00  0.00     0.039 A 
ATOM     41  C   UNL A   1      35.624  34.184  28.903  1.00  0.00     0.014 A 
ATOM     42  C   UNL A   1      34.192  32.320  29.444  1.00  0.00     0.014 A 
ATOM     43  C   UNL A   1      36.726  33.470  29.383  1.00  0.00     0.010 A 
ATOM     44  C   UNL A   1      35.259  31.673  30.050  1.00  0.00     0.010 A 
ATOM     45  C   UNL A   1      36.544  32.233  30.020  1.00  0.00    -0.014 A 
BRANCH  45  46
ATOM     46  C   UNL A   1      37.662  31.490  30.662  1.00  0.00     0.031 A 
ATOM     47  C   UNL A   1      38.030  31.783  32.095  1.00  0.00     0.074 A 
ATOM     48  C   UNL A   1      38.426  30.657  29.926  1.00  0.00     0.049 A 
ATOM     49  N   UNL A   1      39.056  31.363  32.788  1.00  0.00    -0.248 NA
ATOM     50  C   UNL A   1      37.154  32.711  32.834  1.00  0.00     0.031 C 
ATOM     51  C   UNL A   1      38.233  30.357  28.505  1.00  0.00     0.029 A 
ATOM     52  N   UNL A   1      39.544  29.934  30.264  1.00  0.00    -0.354 N 
ATOM     53  C   UNL A   1      38.981  32.017  34.012  1.00  0.00     0.074 A 
ATOM     54  C   UNL A   1      37.835  32.895  33.954  1.00  0.00     0.031 C 
ATOM     55  C   UNL A   1      39.190  29.509  28.098  1.00  0.00     0.029 A 
ATOM     56  C   UNL A   1      40.089  29.235  29.213  1.00  0.00     0.049 A 
ATOM     57  H   UNL A   1      39.920  29.919  31.175  1.00  0.00     0.167 HD
ATOM     58  C   UNL A   1      39.771  31.874  35.102  1.00  0.00     0.034 A 
ATOM     59  C   UNL A   1      41.196  28.468  29.149  1.00  0.00     0.034 A 
ATOM     60  C   UNL A   1      40.865  30.946  35.180  1.00  0.00     0.049 A 
ATOM     61  C   UNL A   1      42.020  28.274  30.395  1.00  0.00     0.074 A 
ATOM     62  C   UNL A   1      41.660  30.645  36.271  1.00  0.00     0.029 A 
ATOM     63  N   UNL A   1      41.315  30.167  34.126  1.00  0.00    -0.354 N 
ATOM     64  N   UNL A   1      41.840  28.781  31.590  1.00  0.00    -0.248 NA
ATOM     65  C   UNL A   1      43.178  27.374  30.293  1.00  0.00     0.031 C 
ATOM     66  C   UNL A   1      42.606  29.696  35.870  1.00  0.00     0.029 A 
ATOM     67  C   UNL A   1      42.381  29.387  34.538  1.00  0.00     0.049 A 
ATOM     68  H   UNL A   1      40.933  30.168  33.219  1.00  0.00     0.167 HD
ATOM     69  C   UNL A   1      42.834  28.233  32.391  1.00  0.00     0.074 A 
ATOM     70  C   UNL A   1      43.604  27.341  31.549  1.00  0.00     0.031 C 
ATOM     71  C   UNL A   1      43.096  28.457  33.703  1.00  0.00     0.034 A 
BRANCH  58  72
ATOM     72  C   UNL A   1      39.441  32.697  36.321  1.00  0.00     0.023 A 
ATOM     73  C   UNL A   1      40.005  33.982  36.470  1.00  0.00     0.012 A 
ATOM     74  C   UNL A   1      38.537  32.226  37.292  1.00  0.00     0.148 A 
ATOM     75  C   UNL A   1      39.709  34.765  37.584  1.00  0.00     0.002 A 
ATOM     76  C   UNL A   1      38.207  33.033  38.375  1.00  0.00     0.091 A 
ATOM     77  F   UNL A   1      38.025  30.994  37.146  1.00  0.00    -0.205 F 
ATOM     78  C   UNL A   1      38.802  34.296  38.530  1.00  0.00     0.022 A 
BRANCH  76  79
ATOM     79  S   UNL A   1      36.986  32.557  39.604  1.00  0.00     0.127 S 
ATOM     80  O   UNL A   1      35.759  32.539  38.808  1.00  0.00    -0.237 OA
ATOM     81  O   UNL A   1      37.463  31.238  40.016  1.00  0.00    -0.237 OA
ATOM     82  O   UNL A   1      37.042  33.576  40.642  1.00  0.00    -0.744 OA
ENDBRANCH  76  79
ENDBRANCH  58  72
BRANCH  59  83
ATOM     83  C   UNL A   1      41.548  27.766  27.882  1.00  0.00     0.023 A 
ATOM     84  C   UNL A   1      42.003  28.520  26.782  1.00  0.00     0.012 A 
ATOM     85  C   UNL A   1      41.460  26.365  27.764  1.00  0.00     0.148 A 
ATOM     86  C   UNL A   1      42.331  27.898  25.577  1.00  0.00     0.002 A 
ATOM     87  C   UNL A   1      41.841  25.746  26.577  1.00  0.00     0.091 A 
ATOM     88  F   UNL A   1      41.017  25.665  28.817  1.00  0.00    -0.205 F 
ATOM     89  C   UNL A   1      42.259  26.511  25.478  1.00  0.00     0.022 A 
BRANCH  87  90
ATOM     90  S   UNL A   1      41.899  23.960  26.395  1.00  0.00     0.127 S 
ATOM     91  O   UNL A   1      42.649  23.562  27.586  1.00  0.00    -0.237 OA
ATOM     92  O   UNL A   1      40.480  23.608  26.416  1.00  0.00    -0.237 OA
ATOM     93  O   UNL A   1      42.561  23.716  25.121  1.00  0.00    -0.744 OA
ENDBRANCH  87  90
ENDBRANCH  59  83
BRANCH  71  94
ATOM     94  C   UNL A   1      44.228  27.692  34.334  1.00  0.00     0.023 A 
ATOM     95  C   UNL A   1      45.500  28.287  34.449  1.00  0.00     0.012 A 
ATOM     96  C   UNL A   1      44.002  26.421  34.898  1.00  0.00     0.148 A 
ATOM     97  C   UNL A   1      46.538  27.615  35.093  1.00  0.00     0.002 A 
ATOM     98  C   UNL A   1      45.028  25.780  35.582  1.00  0.00     0.091 A 
ATOM     99  F   UNL A   1      42.789  25.867  34.762  1.00  0.00    -0.205 F 
ATOM    100  C   UNL A   1      46.299  26.370  35.670  1.00  0.00     0.022 A 
BRANCH  98 101
ATOM    101  S   UNL A   1      44.783  24.223  36.443  1.00  0.00     0.127 S 
ATOM    102  O   UNL A   1      46.122  23.636  36.382  1.00  0.00    -0.237 OA
ATOM    103  O   UNL A   1      44.372  24.667  37.776  1.00  0.00    -0.237 OA
ATOM    104  O   UNL A   1      43.755  23.508  35.700  1.00  0.00    -0.744 OA
ENDBRANCH  98 101
ENDBRANCH  71  94
ENDBRANCH  45  46
ENDBRANCH  37  40
ENDBRANCH  35  36
ENDBRANCH   1  35
TORSDOF 17
ENDMDL
