MODEL 1
REMARK VINA RESULT:     -11.4      0.000      0.000
REMARK SMILES COc1ccccc1S(=O)(=O)[C@@H](C)[C@H](C)C(=O)NCCCNC(=O)c1ccc(-c2c3nc(c(-c4cccc(S(=O)(=O)[O-])c4F)c4ccc([nH]4)c(-c4cccc(S(=O)(=O)[O-])c4F)c4nc(c(-c5cccc(S(=O)(=O)[O-])c5F)c5ccc2[nH]5)C=C4)C=C3)cc1
REMARK SMILES IDX 19 1 18 2 16 3 17 4 14 6 15 7 12 8 13 9 9 10 10 11 11 12
REMARK SMILES IDX 8 13 3 14 4 15 5 16 7 17 6 18 2 19 1 20 20 21 21 22 22 23
REMARK SMILES IDX 23 24 24 26 25 27 26 28 87 29 27 30 86 31 28 32 29 33 30 34
REMARK SMILES IDX 80 35 31 36 85 37 79 38 81 39 32 40 84 41 78 42 77 43 33 45
REMARK SMILES IDX 65 46 45 47 64 48 46 49 49 50 63 51 82 52 47 53 48 54 62 56
REMARK SMILES IDX 83 57 50 58 34 59 35 60 43 61 36 62 38 63 44 64 37 65 39 66
REMARK SMILES IDX 40 67 41 68 42 69 66 70 67 71 75 72 68 73 70 74 76 75 69 76
REMARK SMILES IDX 71 77 72 78 73 79 74 80 51 81 52 82 60 83 53 84 55 85 61 86
REMARK SMILES IDX 54 87 56 88 57 89 58 90 59 91
REMARK H PARENT 18 5 22 25 81 44 49 55
REMARK Flexibility Score: inf
ROOT
ATOM      1  C   UNL A   1      32.159  28.127  27.523  1.00  0.00     0.117 C 
ENDROOT
BRANCH   1   2
ATOM      2  N   UNL A   1      31.137  27.122  27.308  1.00  0.00    -0.356 N 
ATOM      3  C   UNL A   1      31.049  26.142  26.364  1.00  0.00     0.224 C 
ATOM      4  O   UNL A   1      30.073  25.393  26.397  1.00  0.00    -0.275 OA
ATOM      5  H   UNL A   1      30.388  27.151  27.946  1.00  0.00     0.163 HD
BRANCH   3   6
ATOM      6  C   UNL A   1      32.130  25.991  25.295  1.00  0.00     0.093 C 
ATOM      7  C   UNL A   1      33.206  25.046  25.847  1.00  0.00     0.019 C 
BRANCH   6   8
ATOM      8  C   UNL A   1      31.455  25.749  23.908  1.00  0.00     0.122 C 
ATOM      9  C   UNL A   1      31.952  24.658  22.952  1.00  0.00     0.026 C 
BRANCH   8  10
ATOM     10  S   UNL A   1      31.027  27.247  23.026  1.00  0.00     0.185 S 
ATOM     11  O   UNL A   1      31.291  27.015  21.616  1.00  0.00    -0.223 OA
ATOM     12  O   UNL A   1      31.722  28.339  23.693  1.00  0.00    -0.223 OA
BRANCH  10  13
ATOM     13  C   UNL A   1      29.311  27.680  23.120  1.00  0.00     0.109 A 
ATOM     14  C   UNL A   1      28.725  28.805  22.551  1.00  0.00     0.137 A 
ATOM     15  C   UNL A   1      27.382  29.096  22.825  1.00  0.00     0.048 A 
ATOM     16  C   UNL A   1      26.600  28.214  23.571  1.00  0.00     0.004 A 
ATOM     17  C   UNL A   1      28.511  26.780  23.847  1.00  0.00     0.024 A 
ATOM     18  C   UNL A   1      27.158  27.038  24.059  1.00  0.00     0.002 A 
BRANCH  14  19
ATOM     19  O   UNL A   1      29.452  29.657  21.783  1.00  0.00    -0.495 OA
ATOM     20  C   UNL A   1      29.265  31.034  22.116  1.00  0.00     0.278 C 
ENDBRANCH  14  19
ENDBRANCH  10  13
ENDBRANCH   8  10
ENDBRANCH   6   8
ENDBRANCH   3   6
ENDBRANCH   1   2
BRANCH   1  21
ATOM     21  C   UNL A   1      31.772  29.502  27.010  1.00  0.00     0.042 C 
BRANCH  21  22
ATOM     22  C   UNL A   1      32.934  30.254  26.389  1.00  0.00     0.118 C 
BRANCH  22  23
ATOM     23  N   UNL A   1      32.895  31.677  26.706  1.00  0.00    -0.352 N 
ATOM     24  C   UNL A   1      33.649  32.409  27.588  1.00  0.00     0.251 C 
ATOM     25  H   UNL A   1      32.222  32.194  26.208  1.00  0.00     0.163 HD
ATOM     26  O   UNL A   1      33.287  33.540  27.893  1.00  0.00    -0.269 OA
BRANCH  24  27
ATOM     27  C   UNL A   1      34.881  31.836  28.167  1.00  0.00     0.039 A 
ATOM     28  C   UNL A   1      36.037  32.616  28.211  1.00  0.00     0.014 A 
ATOM     29  C   UNL A   1      34.906  30.522  28.643  1.00  0.00     0.014 A 
ATOM     30  C   UNL A   1      37.200  32.093  28.777  1.00  0.00     0.010 A 
ATOM     31  C   UNL A   1      36.026  30.046  29.309  1.00  0.00     0.010 A 
ATOM     32  C   UNL A   1      37.195  30.814  29.358  1.00  0.00    -0.014 A 
BRANCH  32  33
ATOM     33  C   UNL A   1      38.409  30.262  30.006  1.00  0.00     0.031 A 
ATOM     34  C   UNL A   1      38.790  30.691  31.398  1.00  0.00     0.074 A 
ATOM     35  C   UNL A   1      39.205  29.425  29.313  1.00  0.00     0.049 A 
ATOM     36  N   UNL A   1      39.813  30.317  32.121  1.00  0.00    -0.248 NA
ATOM     37  C   UNL A   1      37.933  31.695  32.051  1.00  0.00     0.031 C 
ATOM     38  C   UNL A   1      38.993  29.014  27.923  1.00  0.00     0.029 A 
ATOM     39  N   UNL A   1      40.361  28.785  29.676  1.00  0.00    -0.354 N 
ATOM     40  C   UNL A   1      39.743  31.063  33.292  1.00  0.00     0.074 A 
ATOM     41  C   UNL A   1      38.605  31.945  33.164  1.00  0.00     0.031 C 
ATOM     42  C   UNL A   1      39.977  28.177  27.558  1.00  0.00     0.029 A 
ATOM     43  C   UNL A   1      40.903  28.016  28.674  1.00  0.00     0.049 A 
ATOM     44  H   UNL A   1      40.765  28.867  30.571  1.00  0.00     0.167 HD
ATOM     45  C   UNL A   1      40.534  31.000  34.389  1.00  0.00     0.034 A 
ATOM     46  C   UNL A   1      42.022  27.267  28.654  1.00  0.00     0.034 A 
ATOM     47  C   UNL A   1      41.642  30.093  34.526  1.00  0.00     0.049 A 
ATOM     48  C   UNL A   1      42.851  27.168  29.905  1.00  0.00     0.074 A 
ATOM     49  C   UNL A   1      42.445  29.875  35.630  1.00  0.00     0.029 A 
ATOM     50  N   UNL A   1      42.115  29.266  33.518  1.00  0.00    -0.354 N 
ATOM     51  N   UNL A   1      42.668  27.748  31.066  1.00  0.00    -0.248 NA
ATOM     52  C   UNL A   1      44.017  26.276  29.855  1.00  0.00     0.031 C 
ATOM     53  C   UNL A   1      43.428  28.943  35.279  1.00  0.00     0.029 A 
ATOM     54  C   UNL A   1      43.210  28.548  33.968  1.00  0.00     0.049 A 
ATOM     55  H   UNL A   1      41.728  29.199  32.615  1.00  0.00     0.167 HD
ATOM     56  C   UNL A   1      43.678  27.272  31.894  1.00  0.00     0.074 A 
ATOM     57  C   UNL A   1      44.449  26.331  31.107  1.00  0.00     0.031 C 
ATOM     58  C   UNL A   1      43.951  27.593  33.184  1.00  0.00     0.034 A 
BRANCH  45  59
ATOM     59  C   UNL A   1      40.201  31.911  35.543  1.00  0.00     0.023 A 
ATOM     60  C   UNL A   1      40.960  33.081  35.756  1.00  0.00     0.012 A 
ATOM     61  C   UNL A   1      39.117  31.629  36.396  1.00  0.00     0.148 A 
ATOM     62  C   UNL A   1      40.674  33.931  36.825  1.00  0.00     0.002 A 
ATOM     63  C   UNL A   1      38.806  32.507  37.428  1.00  0.00     0.091 A 
ATOM     64  F   UNL A   1      38.420  30.501  36.195  1.00  0.00    -0.205 F 
ATOM     65  C   UNL A   1      39.592  33.649  37.654  1.00  0.00     0.022 A 
BRANCH  63  66
ATOM     66  S   UNL A   1      37.380  32.279  38.496  1.00  0.00     0.127 S 
ATOM     67  O   UNL A   1      37.834  32.916  39.733  1.00  0.00    -0.237 OA
ATOM     68  O   UNL A   1      36.339  33.014  37.780  1.00  0.00    -0.237 OA
ATOM     69  O   UNL A   1      37.164  30.842  38.577  1.00  0.00    -0.744 OA
ENDBRANCH  63  66
ENDBRANCH  45  59
BRANCH  46  70
ATOM     70  C   UNL A   1      42.380  26.505  27.426  1.00  0.00     0.023 A 
ATOM     71  C   UNL A   1      43.038  27.159  26.366  1.00  0.00     0.012 A 
ATOM     72  C   UNL A   1      42.108  25.127  27.321  1.00  0.00     0.148 A 
ATOM     73  C   UNL A   1      43.390  26.462  25.211  1.00  0.00     0.002 A 
ATOM     74  C   UNL A   1      42.515  24.426  26.193  1.00  0.00     0.091 A 
ATOM     75  F   UNL A   1      41.477  24.526  28.340  1.00  0.00    -0.205 F 
ATOM     76  C   UNL A   1      43.140  25.095  25.128  1.00  0.00     0.022 A 
BRANCH  74  77
ATOM     77  S   UNL A   1      42.361  22.642  26.059  1.00  0.00     0.127 S 
ATOM     78  O   UNL A   1      43.109  22.187  27.227  1.00  0.00    -0.237 OA
ATOM     79  O   UNL A   1      40.911  22.459  26.144  1.00  0.00    -0.237 OA
ATOM     80  O   UNL A   1      42.935  22.291  24.767  1.00  0.00    -0.744 OA
ENDBRANCH  74  77
ENDBRANCH  46  70
BRANCH  58  81
ATOM     81  C   UNL A   1      45.121  26.902  33.835  1.00  0.00     0.023 A 
ATOM     82  C   UNL A   1      46.422  27.425  33.685  1.00  0.00     0.012 A 
ATOM     83  C   UNL A   1      44.926  25.756  34.630  1.00  0.00     0.148 A 
ATOM     84  C   UNL A   1      47.514  26.791  34.274  1.00  0.00     0.002 A 
ATOM     85  C   UNL A   1      46.012  25.161  35.262  1.00  0.00     0.091 A 
ATOM     86  F   UNL A   1      43.686  25.261  34.749  1.00  0.00    -0.205 F 
ATOM     87  C   UNL A   1      47.309  25.666  35.071  1.00  0.00     0.022 A 
BRANCH  85  88
ATOM     88  S   UNL A   1      45.828  23.772  36.384  1.00  0.00     0.127 S 
ATOM     89  O   UNL A   1      45.404  22.709  35.475  1.00  0.00    -0.237 OA
ATOM     90  O   UNL A   1      47.183  23.619  36.915  1.00  0.00    -0.237 OA
ATOM     91  O   UNL A   1      44.838  24.185  37.371  1.00  0.00    -0.744 OA
ENDBRANCH  85  88
ENDBRANCH  58  81
ENDBRANCH  32  33
ENDBRANCH  24  27
ENDBRANCH  22  23
ENDBRANCH  21  22
ENDBRANCH   1  21
TORSDOF 17
ENDMDL
MODEL 2
REMARK VINA RESULT:     -11.3      2.305      8.254
REMARK SMILES COc1ccccc1S(=O)(=O)[C@@H](C)[C@H](C)C(=O)NCCCNC(=O)c1ccc(-c2c3nc(c(-c4cccc(S(=O)(=O)[O-])c4F)c4ccc([nH]4)c(-c4cccc(S(=O)(=O)[O-])c4F)c4nc(c(-c5cccc(S(=O)(=O)[O-])c5F)c5ccc2[nH]5)C=C4)C=C3)cc1
REMARK SMILES IDX 19 1 18 2 16 3 17 4 14 6 15 7 12 8 13 9 9 10 10 11 11 12
REMARK SMILES IDX 8 13 3 14 4 15 5 16 7 17 6 18 2 19 1 20 20 21 21 22 22 23
REMARK SMILES IDX 23 24 24 26 25 27 26 28 87 29 27 30 86 31 28 32 29 33 30 34
REMARK SMILES IDX 80 35 31 36 85 37 79 38 81 39 32 40 84 41 78 42 77 43 33 45
REMARK SMILES IDX 65 46 45 47 64 48 46 49 49 50 63 51 82 52 47 53 48 54 62 56
REMARK SMILES IDX 83 57 50 58 34 59 35 60 43 61 36 62 38 63 44 64 37 65 39 66
REMARK SMILES IDX 40 67 41 68 42 69 66 70 67 71 75 72 68 73 70 74 76 75 69 76
REMARK SMILES IDX 71 77 72 78 73 79 74 80 51 81 52 82 60 83 53 84 55 85 61 86
REMARK SMILES IDX 54 87 56 88 57 89 58 90 59 91
REMARK H PARENT 18 5 22 25 81 44 49 55
REMARK Flexibility Score: inf
ROOT
ATOM      1  C   UNL A   1      31.680  30.793  26.131  1.00  0.00     0.117 C 
ENDROOT
BRANCH   1   2
ATOM      2  N   UNL A   1      31.409  29.766  27.117  1.00  0.00    -0.356 N 
ATOM      3  C   UNL A   1      31.928  28.512  27.250  1.00  0.00     0.224 C 
ATOM      4  O   UNL A   1      31.540  27.822  28.192  1.00  0.00    -0.275 OA
ATOM      5  H   UNL A   1      30.744  30.013  27.800  1.00  0.00     0.163 HD
BRANCH   3   6
ATOM      6  C   UNL A   1      32.956  27.984  26.250  1.00  0.00     0.093 C 
ATOM      7  C   UNL A   1      34.326  28.557  26.639  1.00  0.00     0.019 C 
BRANCH   6   8
ATOM      8  C   UNL A   1      32.733  26.454  26.039  1.00  0.00     0.122 C 
ATOM      9  C   UNL A   1      33.906  25.499  25.783  1.00  0.00     0.026 C 
BRANCH   8  10
ATOM     10  S   UNL A   1      31.323  26.049  25.013  1.00  0.00     0.185 S 
ATOM     11  O   UNL A   1      30.171  25.910  25.888  1.00  0.00    -0.223 OA
ATOM     12  O   UNL A   1      31.715  24.912  24.193  1.00  0.00    -0.223 OA
BRANCH  10  13
ATOM     13  C   UNL A   1      30.883  27.314  23.851  1.00  0.00     0.109 A 
ATOM     14  C   UNL A   1      31.767  28.007  23.032  1.00  0.00     0.137 A 
ATOM     15  C   UNL A   1      31.296  29.080  22.265  1.00  0.00     0.048 A 
ATOM     16  C   UNL A   1      29.937  29.390  22.229  1.00  0.00     0.004 A 
ATOM     17  C   UNL A   1      29.510  27.612  23.791  1.00  0.00     0.024 A 
ATOM     18  C   UNL A   1      29.037  28.635  22.972  1.00  0.00     0.002 A 
BRANCH  14  19
ATOM     19  O   UNL A   1      33.089  27.696  23.013  1.00  0.00    -0.495 OA
ATOM     20  C   UNL A   1      33.456  26.807  21.957  1.00  0.00     0.278 C 
ENDBRANCH  14  19
ENDBRANCH  10  13
ENDBRANCH   8  10
ENDBRANCH   6   8
ENDBRANCH   3   6
ENDBRANCH   1   2
BRANCH   1  21
ATOM     21  C   UNL A   1      31.514  32.203  26.666  1.00  0.00     0.042 C 
BRANCH  21  22
ATOM     22  C   UNL A   1      32.800  32.782  27.227  1.00  0.00     0.118 C 
BRANCH  22  23
ATOM     23  N   UNL A   1      32.634  34.166  27.655  1.00  0.00    -0.352 N 
ATOM     24  C   UNL A   1      33.178  34.834  28.722  1.00  0.00     0.251 C 
ATOM     25  H   UNL A   1      32.038  34.706  27.088  1.00  0.00     0.163 HD
ATOM     26  O   UNL A   1      32.713  35.920  29.053  1.00  0.00    -0.269 OA
BRANCH  24  27
ATOM     27  C   UNL A   1      34.311  34.248  29.467  1.00  0.00     0.039 A 
ATOM     28  C   UNL A   1      34.050  33.466  30.594  1.00  0.00     0.014 A 
ATOM     29  C   UNL A   1      35.630  34.489  29.074  1.00  0.00     0.014 A 
ATOM     30  C   UNL A   1      35.111  32.889  31.291  1.00  0.00     0.010 A 
ATOM     31  C   UNL A   1      36.674  33.820  29.697  1.00  0.00     0.010 A 
ATOM     32  C   UNL A   1      36.430  33.036  30.831  1.00  0.00    -0.014 A 
BRANCH  32  33
ATOM     33  C   UNL A   1      37.564  32.389  31.533  1.00  0.00     0.031 A 
ATOM     34  C   UNL A   1      38.320  31.262  30.880  1.00  0.00     0.074 A 
ATOM     35  C   UNL A   1      37.870  32.773  32.788  1.00  0.00     0.049 A 
ATOM     36  N   UNL A   1      39.335  30.579  31.341  1.00  0.00    -0.248 NA
ATOM     37  C   UNL A   1      37.858  30.822  29.553  1.00  0.00     0.031 C 
ATOM     38  C   UNL A   1      37.147  33.784  33.562  1.00  0.00     0.029 A 
ATOM     39  N   UNL A   1      38.855  32.344  33.639  1.00  0.00    -0.354 N 
ATOM     40  C   UNL A   1      39.606  29.609  30.383  1.00  0.00     0.074 A 
ATOM     41  C   UNL A   1      38.620  29.762  29.336  1.00  0.00     0.031 C 
ATOM     42  C   UNL A   1      37.725  33.910  34.767  1.00  0.00     0.029 A 
ATOM     43  C   UNL A   1      38.836  32.970  34.862  1.00  0.00     0.049 A 
ATOM     44  H   UNL A   1      39.514  31.653  33.397  1.00  0.00     0.167 HD
ATOM     45  C   UNL A   1      40.603  28.694  30.358  1.00  0.00     0.034 A 
ATOM     46  C   UNL A   1      39.625  32.805  35.941  1.00  0.00     0.034 A 
ATOM     47  C   UNL A   1      41.603  28.571  31.384  1.00  0.00     0.049 A 
ATOM     48  C   UNL A   1      40.761  31.823  35.866  1.00  0.00     0.074 A 
ATOM     49  C   UNL A   1      42.714  27.748  31.410  1.00  0.00     0.029 A 
ATOM     50  N   UNL A   1      41.603  29.281  32.576  1.00  0.00    -0.354 N 
ATOM     51  N   UNL A   1      41.110  31.036  34.877  1.00  0.00    -0.248 NA
ATOM     52  C   UNL A   1      41.639  31.738  37.041  1.00  0.00     0.031 C 
ATOM     53  C   UNL A   1      43.365  27.932  32.634  1.00  0.00     0.029 A 
ATOM     54  C   UNL A   1      42.684  28.902  33.353  1.00  0.00     0.049 A 
ATOM     55  H   UNL A   1      40.933  29.954  32.831  1.00  0.00     0.167 HD
ATOM     56  C   UNL A   1      42.262  30.383  35.297  1.00  0.00     0.074 A 
ATOM     57  C   UNL A   1      42.568  30.891  36.619  1.00  0.00     0.031 C 
ATOM     58  C   UNL A   1      42.994  29.438  34.655  1.00  0.00     0.034 A 
BRANCH  45  59
ATOM     59  C   UNL A   1      40.681  27.779  29.162  1.00  0.00     0.023 A 
ATOM     60  C   UNL A   1      39.847  26.645  29.087  1.00  0.00     0.012 A 
ATOM     61  C   UNL A   1      41.556  28.061  28.094  1.00  0.00     0.148 A 
ATOM     62  C   UNL A   1      39.913  25.781  27.994  1.00  0.00     0.002 A 
ATOM     63  C   UNL A   1      41.579  27.224  26.984  1.00  0.00     0.091 A 
ATOM     64  F   UNL A   1      42.360  29.129  28.189  1.00  0.00    -0.205 F 
ATOM     65  C   UNL A   1      40.771  26.076  26.939  1.00  0.00     0.022 A 
BRANCH  63  66
ATOM     66  S   UNL A   1      42.587  27.564  25.537  1.00  0.00     0.127 S 
ATOM     67  O   UNL A   1      42.347  26.372  24.724  1.00  0.00    -0.237 OA
ATOM     68  O   UNL A   1      41.975  28.788  25.018  1.00  0.00    -0.237 OA
ATOM     69  O   UNL A   1      43.949  27.725  26.024  1.00  0.00    -0.744 OA
ENDBRANCH  63  66
ENDBRANCH  45  59
BRANCH  46  70
ATOM     70  C   UNL A   1      39.401  33.637  37.155  1.00  0.00     0.023 A 
ATOM     71  C   UNL A   1      39.872  34.965  37.187  1.00  0.00     0.012 A 
ATOM     72  C   UNL A   1      38.687  33.135  38.260  1.00  0.00     0.148 A 
ATOM     73  C   UNL A   1      39.665  35.765  38.309  1.00  0.00     0.002 A 
ATOM     74  C   UNL A   1      38.432  33.957  39.350  1.00  0.00     0.091 A 
ATOM     75  F   UNL A   1      38.251  31.869  38.210  1.00  0.00    -0.205 F 
ATOM     76  C   UNL A   1      38.936  35.267  39.386  1.00  0.00     0.022 A 
BRANCH  74  77
ATOM     77  S   UNL A   1      37.386  33.448  40.718  1.00  0.00     0.127 S 
ATOM     78  O   UNL A   1      36.196  32.965  40.022  1.00  0.00    -0.237 OA
ATOM     79  O   UNL A   1      38.199  32.405  41.346  1.00  0.00    -0.237 OA
ATOM     80  O   UNL A   1      37.198  34.637  41.537  1.00  0.00    -0.744 OA
ENDBRANCH  74  77
ENDBRANCH  46  70
BRANCH  58  81
ATOM     81  C   UNL A   1      44.214  28.909  35.364  1.00  0.00     0.023 A 
ATOM     82  C   UNL A   1      45.478  29.481  35.114  1.00  0.00     0.012 A 
ATOM     83  C   UNL A   1      44.101  27.872  36.310  1.00  0.00     0.148 A 
ATOM     84  C   UNL A   1      46.616  28.996  35.756  1.00  0.00     0.002 A 
ATOM     85  C   UNL A   1      45.231  27.430  36.988  1.00  0.00     0.091 A 
ATOM     86  F   UNL A   1      42.895  27.326  36.523  1.00  0.00    -0.205 F 
ATOM     87  C   UNL A   1      46.492  27.979  36.700  1.00  0.00     0.022 A 
BRANCH  85  88
ATOM     88  S   UNL A   1      45.149  26.197  38.290  1.00  0.00     0.127 S 
ATOM     89  O   UNL A   1      44.708  25.015  37.553  1.00  0.00    -0.237 OA
ATOM     90  O   UNL A   1      46.535  26.144  38.756  1.00  0.00    -0.237 OA
ATOM     91  O   UNL A   1      44.203  26.714  39.271  1.00  0.00    -0.744 OA
ENDBRANCH  85  88
ENDBRANCH  58  81
ENDBRANCH  32  33
ENDBRANCH  24  27
ENDBRANCH  22  23
ENDBRANCH  21  22
ENDBRANCH   1  21
TORSDOF 17
ENDMDL
MODEL 3
REMARK VINA RESULT:     -11.2      5.130     10.107
REMARK SMILES COc1ccccc1S(=O)(=O)[C@@H](C)[C@H](C)C(=O)NCCCNC(=O)c1ccc(-c2c3nc(c(-c4cccc(S(=O)(=O)[O-])c4F)c4ccc([nH]4)c(-c4cccc(S(=O)(=O)[O-])c4F)c4nc(c(-c5cccc(S(=O)(=O)[O-])c5F)c5ccc2[nH]5)C=C4)C=C3)cc1
REMARK SMILES IDX 19 1 18 2 16 3 17 4 14 6 15 7 12 8 13 9 9 10 10 11 11 12
REMARK SMILES IDX 8 13 3 14 4 15 5 16 7 17 6 18 2 19 1 20 20 21 21 22 22 23
REMARK SMILES IDX 23 24 24 26 25 27 26 28 87 29 27 30 86 31 28 32 29 33 30 34
REMARK SMILES IDX 80 35 31 36 85 37 79 38 81 39 32 40 84 41 78 42 77 43 33 45
REMARK SMILES IDX 65 46 45 47 64 48 46 49 49 50 63 51 82 52 47 53 48 54 62 56
REMARK SMILES IDX 83 57 50 58 34 59 35 60 43 61 36 62 38 63 44 64 37 65 39 66
REMARK SMILES IDX 40 67 41 68 42 69 66 70 67 71 75 72 68 73 70 74 76 75 69 76
REMARK SMILES IDX 71 77 72 78 73 79 74 80 51 81 52 82 60 83 53 84 55 85 61 86
REMARK SMILES IDX 54 87 56 88 57 89 58 90 59 91
REMARK H PARENT 18 5 22 25 81 44 49 55
REMARK Flexibility Score: inf
ROOT
ATOM      1  C   UNL A   1      34.478  22.994  26.945  1.00  0.00     0.117 C 
ENDROOT
BRANCH   1   2
ATOM      2  N   UNL A   1      33.055  22.720  26.963  1.00  0.00    -0.356 N 
ATOM      3  C   UNL A   1      32.132  22.788  25.962  1.00  0.00     0.224 C 
ATOM      4  O   UNL A   1      30.967  22.491  26.227  1.00  0.00    -0.275 OA
ATOM      5  H   UNL A   1      32.699  22.440  27.837  1.00  0.00     0.163 HD
BRANCH   3   6
ATOM      6  C   UNL A   1      32.537  23.229  24.556  1.00  0.00     0.093 C 
ATOM      7  C   UNL A   1      32.434  22.007  23.633  1.00  0.00     0.019 C 
BRANCH   6   8
ATOM      8  C   UNL A   1      31.833  24.580  24.215  1.00  0.00     0.122 C 
ATOM      9  C   UNL A   1      30.660  24.648  23.229  1.00  0.00     0.026 C 
BRANCH   8  10
ATOM     10  S   UNL A   1      32.952  25.960  23.997  1.00  0.00     0.185 S 
ATOM     11  O   UNL A   1      32.666  26.554  22.702  1.00  0.00    -0.223 OA
ATOM     12  O   UNL A   1      34.294  25.455  24.250  1.00  0.00    -0.223 OA
BRANCH  10  13
ATOM     13  C   UNL A   1      32.732  27.267  25.174  1.00  0.00     0.109 A 
ATOM     14  C   UNL A   1      31.657  28.147  25.218  1.00  0.00     0.137 A 
ATOM     15  C   UNL A   1      31.685  29.222  26.117  1.00  0.00     0.048 A 
ATOM     16  C   UNL A   1      32.722  29.354  27.040  1.00  0.00     0.004 A 
ATOM     17  C   UNL A   1      33.762  27.388  26.124  1.00  0.00     0.024 A 
ATOM     18  C   UNL A   1      33.749  28.418  27.063  1.00  0.00     0.002 A 
BRANCH  14  19
ATOM     19  O   UNL A   1      30.613  28.015  24.362  1.00  0.00    -0.495 OA
ATOM     20  C   UNL A   1      30.345  29.191  23.594  1.00  0.00     0.278 C 
ENDBRANCH  14  19
ENDBRANCH  10  13
ENDBRANCH   8  10
ENDBRANCH   6   8
ENDBRANCH   3   6
ENDBRANCH   1   2
BRANCH   1  21
ATOM     21  C   UNL A   1      35.305  21.862  26.365  1.00  0.00     0.042 C 
BRANCH  21  22
ATOM     22  C   UNL A   1      36.625  22.328  25.780  1.00  0.00     0.118 C 
BRANCH  22  23
ATOM     23  N   UNL A   1      37.672  21.323  25.926  1.00  0.00    -0.352 N 
ATOM     24  C   UNL A   1      39.014  21.470  26.166  1.00  0.00     0.251 C 
ATOM     25  H   UNL A   1      37.366  20.391  25.840  1.00  0.00     0.163 HD
ATOM     26  O   UNL A   1      39.764  20.513  25.998  1.00  0.00    -0.269 OA
BRANCH  24  27
ATOM     27  C   UNL A   1      39.551  22.770  26.616  1.00  0.00     0.039 A 
ATOM     28  C   UNL A   1      40.491  22.796  27.648  1.00  0.00     0.014 A 
ATOM     29  C   UNL A   1      39.110  23.965  26.041  1.00  0.00     0.014 A 
ATOM     30  C   UNL A   1      41.021  24.017  28.065  1.00  0.00     0.010 A 
ATOM     31  C   UNL A   1      39.723  25.165  26.376  1.00  0.00     0.010 A 
ATOM     32  C   UNL A   1      40.664  25.209  27.412  1.00  0.00    -0.014 A 
BRANCH  32  33
ATOM     33  C   UNL A   1      41.254  26.508  27.811  1.00  0.00     0.031 A 
ATOM     34  C   UNL A   1      42.691  26.823  27.489  1.00  0.00     0.074 A 
ATOM     35  C   UNL A   1      40.514  27.378  28.525  1.00  0.00     0.049 A 
ATOM     36  N   UNL A   1      43.376  27.903  27.759  1.00  0.00    -0.248 NA
ATOM     37  C   UNL A   1      43.471  25.777  26.806  1.00  0.00     0.031 C 
ATOM     38  C   UNL A   1      39.143  27.145  28.983  1.00  0.00     0.029 A 
ATOM     39  N   UNL A   1      40.818  28.626  29.007  1.00  0.00    -0.354 N 
ATOM     40  C   UNL A   1      44.670  27.653  27.315  1.00  0.00     0.074 A 
ATOM     41  C   UNL A   1      44.686  26.302  26.800  1.00  0.00     0.031 C 
ATOM     42  C   UNL A   1      38.718  28.221  29.663  1.00  0.00     0.029 A 
ATOM     43  C   UNL A   1      39.793  29.206  29.716  1.00  0.00     0.049 A 
ATOM     44  H   UNL A   1      41.687  29.065  28.858  1.00  0.00     0.167 HD
ATOM     45  C   UNL A   1      45.740  28.482  27.306  1.00  0.00     0.034 A 
ATOM     46  C   UNL A   1      39.727  30.397  30.341  1.00  0.00     0.034 A 
ATOM     47  C   UNL A   1      45.707  29.837  27.785  1.00  0.00     0.049 A 
ATOM     48  C   UNL A   1      40.910  31.322  30.265  1.00  0.00     0.074 A 
ATOM     49  C   UNL A   1      46.704  30.794  27.730  1.00  0.00     0.029 A 
ATOM     50  N   UNL A   1      44.625  30.424  28.424  1.00  0.00    -0.354 N 
ATOM     51  N   UNL A   1      42.070  31.136  29.684  1.00  0.00    -0.248 NA
ATOM     52  C   UNL A   1      40.758  32.641  30.896  1.00  0.00     0.031 C 
ATOM     53  C   UNL A   1      46.237  31.948  28.370  1.00  0.00     0.029 A 
ATOM     54  C   UNL A   1      44.934  31.724  28.786  1.00  0.00     0.049 A 
ATOM     55  H   UNL A   1      43.763  29.980  28.596  1.00  0.00     0.167 HD
ATOM     56  C   UNL A   1      42.776  32.320  29.853  1.00  0.00     0.074 A 
ATOM     57  C   UNL A   1      41.900  33.228  30.565  1.00  0.00     0.031 C 
ATOM     58  C   UNL A   1      44.041  32.626  29.468  1.00  0.00     0.034 A 
BRANCH  45  59
ATOM     59  C   UNL A   1      47.026  27.954  26.723  1.00  0.00     0.023 A 
ATOM     60  C   UNL A   1      48.021  27.429  27.574  1.00  0.00     0.012 A 
ATOM     61  C   UNL A   1      47.237  27.945  25.330  1.00  0.00     0.148 A 
ATOM     62  C   UNL A   1      49.222  26.946  27.054  1.00  0.00     0.002 A 
ATOM     63  C   UNL A   1      48.415  27.415  24.816  1.00  0.00     0.091 A 
ATOM     64  F   UNL A   1      46.293  28.469  24.536  1.00  0.00    -0.205 F 
ATOM     65  C   UNL A   1      49.414  26.930  25.675  1.00  0.00     0.022 A 
BRANCH  63  66
ATOM     66  S   UNL A   1      48.722  27.270  23.052  1.00  0.00     0.127 S 
ATOM     67  O   UNL A   1      50.167  27.485  22.986  1.00  0.00    -0.237 OA
ATOM     68  O   UNL A   1      48.296  25.898  22.779  1.00  0.00    -0.237 OA
ATOM     69  O   UNL A   1      47.908  28.296  22.417  1.00  0.00    -0.744 OA
ENDBRANCH  63  66
ENDBRANCH  45  59
BRANCH  46  70
ATOM     70  C   UNL A   1      38.472  30.800  31.032  1.00  0.00     0.023 A 
ATOM     71  C   UNL A   1      38.333  30.570  32.415  1.00  0.00     0.012 A 
ATOM     72  C   UNL A   1      37.434  31.448  30.336  1.00  0.00     0.148 A 
ATOM     73  C   UNL A   1      37.170  30.948  33.085  1.00  0.00     0.002 A 
ATOM     74  C   UNL A   1      36.303  31.876  31.020  1.00  0.00     0.091 A 
ATOM     75  F   UNL A   1      37.585  31.653  29.020  1.00  0.00    -0.205 F 
ATOM     76  C   UNL A   1      36.160  31.610  32.392  1.00  0.00     0.022 A 
BRANCH  74  77
ATOM     77  S   UNL A   1      35.017  32.857  30.240  1.00  0.00     0.127 S 
ATOM     78  O   UNL A   1      34.101  33.090  31.354  1.00  0.00    -0.237 OA
ATOM     79  O   UNL A   1      35.765  34.035  29.799  1.00  0.00    -0.237 OA
ATOM     80  O   UNL A   1      34.495  32.036  29.156  1.00  0.00    -0.744 OA
ENDBRANCH  74  77
ENDBRANCH  46  70
BRANCH  58  81
ATOM     81  C   UNL A   1      44.545  34.010  29.786  1.00  0.00     0.023 A 
ATOM     82  C   UNL A   1      45.180  34.263  31.019  1.00  0.00     0.012 A 
ATOM     83  C   UNL A   1      44.427  35.051  28.844  1.00  0.00     0.148 A 
ATOM     84  C   UNL A   1      45.642  35.541  31.330  1.00  0.00     0.002 A 
ATOM     85  C   UNL A   1      44.941  36.309  29.138  1.00  0.00     0.091 A 
ATOM     86  F   UNL A   1      43.805  34.798  27.683  1.00  0.00    -0.205 F 
ATOM     87  C   UNL A   1      45.533  36.561  30.386  1.00  0.00     0.022 A 
BRANCH  85  88
ATOM     88  S   UNL A   1      44.934  37.651  27.946  1.00  0.00     0.127 S 
ATOM     89  O   UNL A   1      45.644  37.051  26.817  1.00  0.00    -0.237 OA
ATOM     90  O   UNL A   1      43.503  37.863  27.724  1.00  0.00    -0.237 OA
ATOM     91  O   UNL A   1      45.615  38.765  28.594  1.00  0.00    -0.744 OA
ENDBRANCH  85  88
ENDBRANCH  58  81
ENDBRANCH  32  33
ENDBRANCH  24  27
ENDBRANCH  22  23
ENDBRANCH  21  22
ENDBRANCH   1  21
TORSDOF 17
ENDMDL
