MODEL 1
REMARK VINA RESULT:     -11.4      0.000      0.000
REMARK SMILES Cc1noc(-c2ccc(CCl)cc2)c1C(=O)NCCCNC(=O)c1ccc(-c2c3nc(c(-c4cccc(S(=O)(=O)[O-])c4F)c4ccc([nH]4)c(-c4cccc(S(=O)(=O)[O-])c4F)c4nc(c(-c5cccc(S(=O)(=O)[O-])c5F)c5ccc2[nH]5)C=C4)C=C3)cc1
REMARK SMILES IDX 19 1 18 2 17 3 15 4 16 5 14 7 1 8 2 9 3 10 4 11 5 12 6 13
REMARK SMILES IDX 7 14 13 15 8 16 12 17 9 18 10 19 11 20 20 21 21 22 22 23
REMARK SMILES IDX 23 25 24 26 25 27 86 28 26 29 85 30 27 31 28 32 29 33 79 34
REMARK SMILES IDX 30 35 84 36 78 37 80 38 31 39 83 40 77 41 76 42 32 44 64 45
REMARK SMILES IDX 44 46 63 47 45 48 48 49 62 50 81 51 46 52 47 53 61 55 82 56
REMARK SMILES IDX 49 57 33 58 34 59 42 60 35 61 37 62 43 63 36 64 38 65 39 66
REMARK SMILES IDX 40 67 41 68 65 69 66 70 74 71 67 72 69 73 75 74 68 75 70 76
REMARK SMILES IDX 71 77 72 78 73 79 50 80 51 81 59 82 52 83 54 84 60 85 53 86
REMARK SMILES IDX 55 87 56 88 57 89 58 90
REMARK H PARENT 17 6 21 24 80 43 48 54
REMARK Flexibility Score: inf
ROOT
ATOM      1  C   UNL A   1      33.326  27.792  26.852  1.00  0.00     0.042 C 
ENDROOT
BRANCH   1   2
ATOM      2  C   UNL A   1      31.856  28.183  26.993  1.00  0.00     0.118 C 
BRANCH   2   3
ATOM      3  N   UNL A   1      31.013  27.028  26.875  1.00  0.00    -0.352 N 
ATOM      4  C   UNL A   1      30.532  26.298  25.831  1.00  0.00     0.257 C 
ATOM      5  O   UNL A   1      29.909  25.304  26.220  1.00  0.00    -0.269 OA
ATOM      6  H   UNL A   1      30.714  26.685  27.748  1.00  0.00     0.163 HD
BRANCH   4   7
ATOM      7  C   UNL A   1      30.739  26.566  24.408  1.00  0.00     0.110 A 
ATOM      8  C   UNL A   1      28.893  28.137  23.187  1.00  0.00     0.071 C 
ATOM      9  C   UNL A   1      30.126  27.327  23.345  1.00  0.00     0.094 A 
ATOM     10  N   UNL A   1      30.835  27.234  22.208  1.00  0.00    -0.084 NA
ATOM     11  O   UNL A   1      31.856  26.366  22.453  1.00  0.00    -0.355 OA
ATOM     12  C   UNL A   1      31.788  25.937  23.733  1.00  0.00     0.179 A 
BRANCH  12  13
ATOM     13  C   UNL A   1      32.804  24.946  24.061  1.00  0.00     0.021 A 
ATOM     14  C   UNL A   1      34.136  25.332  24.236  1.00  0.00     0.012 A 
ATOM     15  C   UNL A   1      32.467  23.594  24.200  1.00  0.00     0.012 A 
ATOM     16  C   UNL A   1      35.105  24.390  24.590  1.00  0.00     0.006 A 
ATOM     17  C   UNL A   1      33.432  22.652  24.560  1.00  0.00     0.006 A 
ATOM     18  C   UNL A   1      34.761  23.041  24.768  1.00  0.00    -0.033 A 
BRANCH  18  19
ATOM     19  C   UNL A   1      35.789  22.035  25.201  1.00  0.00     0.145 C 
ATOM     20  Cl  UNL A   1      35.224  20.375  24.921  1.00  0.00    -0.122 Cl
ENDBRANCH  18  19
ENDBRANCH  12  13
ENDBRANCH   4   7
ENDBRANCH   2   3
ENDBRANCH   1   2
BRANCH   1  21
ATOM     21  C   UNL A   1      34.143  28.832  26.084  1.00  0.00     0.118 C 
BRANCH  21  22
ATOM     22  N   UNL A   1      33.912  30.177  26.601  1.00  0.00    -0.352 N 
ATOM     23  C   UNL A   1      34.534  30.852  27.616  1.00  0.00     0.251 C 
ATOM     24  H   UNL A   1      33.195  30.678  26.149  1.00  0.00     0.163 HD
ATOM     25  O   UNL A   1      34.008  31.868  28.074  1.00  0.00    -0.269 OA
BRANCH  23  26
ATOM     26  C   UNL A   1      35.822  30.377  28.153  1.00  0.00     0.039 A 
ATOM     27  C   UNL A   1      35.835  29.664  29.355  1.00  0.00     0.014 A 
ATOM     28  C   UNL A   1      37.020  30.669  27.495  1.00  0.00     0.014 A 
ATOM     29  C   UNL A   1      37.046  29.204  29.871  1.00  0.00     0.010 A 
ATOM     30  C   UNL A   1      38.214  30.137  27.965  1.00  0.00     0.010 A 
ATOM     31  C   UNL A   1      38.242  29.411  29.164  1.00  0.00    -0.014 A 
BRANCH  31  32
ATOM     32  C   UNL A   1      39.532  28.873  29.660  1.00  0.00     0.031 A 
ATOM     33  C   UNL A   1      40.257  29.561  30.786  1.00  0.00     0.074 A 
ATOM     34  C   UNL A   1      40.091  27.819  29.035  1.00  0.00     0.049 A 
ATOM     35  N   UNL A   1      41.419  29.273  31.312  1.00  0.00    -0.248 NA
ATOM     36  C   UNL A   1      39.608  30.743  31.377  1.00  0.00     0.031 C 
ATOM     37  C   UNL A   1      39.519  27.122  27.880  1.00  0.00     0.029 A 
ATOM     38  N   UNL A   1      41.274  27.165  29.263  1.00  0.00    -0.354 N 
ATOM     39  C   UNL A   1      41.659  30.259  32.261  1.00  0.00     0.074 A 
ATOM     40  C   UNL A   1      40.538  31.171  32.218  1.00  0.00     0.031 C 
ATOM     41  C   UNL A   1      40.346  26.132  27.510  1.00  0.00     0.029 A 
ATOM     42  C   UNL A   1      41.521  26.146  28.373  1.00  0.00     0.049 A 
ATOM     43  H   UNL A   1      41.888  27.402  29.996  1.00  0.00     0.167 HD
ATOM     44  C   UNL A   1      42.706  30.379  33.111  1.00  0.00     0.034 A 
ATOM     45  C   UNL A   1      42.582  25.323  28.260  1.00  0.00     0.034 A 
ATOM     46  C   UNL A   1      43.794  29.442  33.178  1.00  0.00     0.049 A 
ATOM     47  C   UNL A   1      43.710  25.451  29.246  1.00  0.00     0.074 A 
ATOM     48  C   UNL A   1      44.852  29.416  34.069  1.00  0.00     0.029 A 
ATOM     49  N   UNL A   1      43.972  28.373  32.313  1.00  0.00    -0.354 N 
ATOM     50  N   UNL A   1      43.844  26.294  30.241  1.00  0.00    -0.248 NA
ATOM     51  C   UNL A   1      44.817  24.493  29.116  1.00  0.00     0.031 C 
ATOM     52  C   UNL A   1      45.689  28.351  33.720  1.00  0.00     0.029 A 
ATOM     53  C   UNL A   1      45.130  27.689  32.638  1.00  0.00     0.049 A 
ATOM     54  H   UNL A   1      43.364  28.136  31.576  1.00  0.00     0.167 HD
ATOM     55  C   UNL A   1      45.028  25.945  30.879  1.00  0.00     0.074 A 
ATOM     56  C   UNL A   1      45.563  24.802  30.167  1.00  0.00     0.031 C 
ATOM     57  C   UNL A   1      45.625  26.525  31.950  1.00  0.00     0.034 A 
BRANCH  44  58
ATOM     58  C   UNL A   1      42.707  31.544  34.067  1.00  0.00     0.023 A 
ATOM     59  C   UNL A   1      43.284  32.770  33.678  1.00  0.00     0.012 A 
ATOM     60  C   UNL A   1      42.083  31.443  35.326  1.00  0.00     0.148 A 
ATOM     61  C   UNL A   1      43.272  33.866  34.541  1.00  0.00     0.002 A 
ATOM     62  C   UNL A   1      42.032  32.554  36.160  1.00  0.00     0.091 A 
ATOM     63  F   UNL A   1      41.558  30.263  35.687  1.00  0.00    -0.205 F 
ATOM     64  C   UNL A   1      42.637  33.762  35.774  1.00  0.00     0.022 A 
BRANCH  62  65
ATOM     65  S   UNL A   1      41.166  32.546  37.734  1.00  0.00     0.127 S 
ATOM     66  O   UNL A   1      41.985  31.621  38.516  1.00  0.00    -0.237 OA
ATOM     67  O   UNL A   1      41.269  33.947  38.145  1.00  0.00    -0.237 OA
ATOM     68  O   UNL A   1      39.813  32.093  37.449  1.00  0.00    -0.744 OA
ENDBRANCH  62  65
ENDBRANCH  44  58
BRANCH  45  69
ATOM     69  C   UNL A   1      42.592  24.265  27.212  1.00  0.00     0.023 A 
ATOM     70  C   UNL A   1      43.261  24.501  25.996  1.00  0.00     0.012 A 
ATOM     71  C   UNL A   1      41.972  23.018  27.424  1.00  0.00     0.148 A 
ATOM     72  C   UNL A   1      43.287  23.528  24.997  1.00  0.00     0.002 A 
ATOM     73  C   UNL A   1      42.050  22.032  26.449  1.00  0.00     0.091 A 
ATOM     74  F   UNL A   1      41.336  22.816  28.586  1.00  0.00    -0.205 F 
ATOM     75  C   UNL A   1      42.690  22.290  25.226  1.00  0.00     0.022 A 
BRANCH  73  76
ATOM     76  S   UNL A   1      41.429  20.367  26.708  1.00  0.00     0.127 S 
ATOM     77  O   UNL A   1      41.776  19.719  25.447  1.00  0.00    -0.237 OA
ATOM     78  O   UNL A   1      42.216  19.931  27.863  1.00  0.00    -0.237 OA
ATOM     79  O   UNL A   1      40.004  20.514  26.972  1.00  0.00    -0.744 OA
ENDBRANCH  73  76
ENDBRANCH  45  69
BRANCH  57  80
ATOM     80  C   UNL A   1      46.906  25.912  32.452  1.00  0.00     0.023 A 
ATOM     81  C   UNL A   1      48.146  26.366  31.960  1.00  0.00     0.012 A 
ATOM     82  C   UNL A   1      46.880  24.937  33.468  1.00  0.00     0.148 A 
ATOM     83  C   UNL A   1      49.338  25.833  32.448  1.00  0.00     0.002 A 
ATOM     84  C   UNL A   1      48.072  24.451  33.988  1.00  0.00     0.091 A 
ATOM     85  F   UNL A   1      45.688  24.506  33.910  1.00  0.00    -0.205 F 
ATOM     86  C   UNL A   1      49.302  24.887  33.468  1.00  0.00     0.022 A 
BRANCH  84  87
ATOM     87  S   UNL A   1      48.124  23.308  35.372  1.00  0.00     0.127 S 
ATOM     88  O   UNL A   1      47.440  24.072  36.415  1.00  0.00    -0.237 OA
ATOM     89  O   UNL A   1      47.366  22.166  34.858  1.00  0.00    -0.237 OA
ATOM     90  O   UNL A   1      49.533  23.037  35.619  1.00  0.00    -0.744 OA
ENDBRANCH  84  87
ENDBRANCH  57  80
ENDBRANCH  31  32
ENDBRANCH  23  26
ENDBRANCH  21  22
ENDBRANCH   1  21
TORSDOF 15
ENDMDL
MODEL 2
REMARK VINA RESULT:     -11.3      4.789      9.590
REMARK SMILES Cc1noc(-c2ccc(CCl)cc2)c1C(=O)NCCCNC(=O)c1ccc(-c2c3nc(c(-c4cccc(S(=O)(=O)[O-])c4F)c4ccc([nH]4)c(-c4cccc(S(=O)(=O)[O-])c4F)c4nc(c(-c5cccc(S(=O)(=O)[O-])c5F)c5ccc2[nH]5)C=C4)C=C3)cc1
REMARK SMILES IDX 19 1 18 2 17 3 15 4 16 5 14 7 1 8 2 9 3 10 4 11 5 12 6 13
REMARK SMILES IDX 7 14 13 15 8 16 12 17 9 18 10 19 11 20 20 21 21 22 22 23
REMARK SMILES IDX 23 25 24 26 25 27 86 28 26 29 85 30 27 31 28 32 29 33 79 34
REMARK SMILES IDX 30 35 84 36 78 37 80 38 31 39 83 40 77 41 76 42 32 44 64 45
REMARK SMILES IDX 44 46 63 47 45 48 48 49 62 50 81 51 46 52 47 53 61 55 82 56
REMARK SMILES IDX 49 57 33 58 34 59 42 60 35 61 37 62 43 63 36 64 38 65 39 66
REMARK SMILES IDX 40 67 41 68 65 69 66 70 74 71 67 72 69 73 75 74 68 75 70 76
REMARK SMILES IDX 71 77 72 78 73 79 50 80 51 81 59 82 52 83 54 84 60 85 53 86
REMARK SMILES IDX 55 87 56 88 57 89 58 90
REMARK H PARENT 17 6 21 24 80 43 48 54
REMARK Flexibility Score: inf
ROOT
ATOM      1  C   UNL A   1      35.902  23.604  26.021  1.00  0.00     0.042 C 
ENDROOT
BRANCH   1   2
ATOM      2  C   UNL A   1      35.303  22.319  26.591  1.00  0.00     0.118 C 
BRANCH   2   3
ATOM      3  N   UNL A   1      34.061  22.593  27.256  1.00  0.00    -0.352 N 
ATOM      4  C   UNL A   1      32.809  22.931  26.842  1.00  0.00     0.257 C 
ATOM      5  O   UNL A   1      32.012  22.971  27.787  1.00  0.00    -0.269 OA
ATOM      6  H   UNL A   1      34.131  22.522  28.235  1.00  0.00     0.163 HD
BRANCH   4   7
ATOM      7  C   UNL A   1      32.378  23.171  25.465  1.00  0.00     0.110 A 
ATOM      8  C   UNL A   1      32.184  20.995  23.855  1.00  0.00     0.071 C 
ATOM      9  C   UNL A   1      32.082  22.415  24.271  1.00  0.00     0.094 A 
ATOM     10  N   UNL A   1      31.650  23.216  23.283  1.00  0.00    -0.084 NA
ATOM     11  O   UNL A   1      31.729  24.492  23.750  1.00  0.00    -0.355 OA
ATOM     12  C   UNL A   1      32.192  24.483  25.019  1.00  0.00     0.179 A 
BRANCH  12  13
ATOM     13  C   UNL A   1      32.377  25.817  25.574  1.00  0.00     0.021 A 
ATOM     14  C   UNL A   1      31.328  26.455  26.242  1.00  0.00     0.012 A 
ATOM     15  C   UNL A   1      33.601  26.483  25.443  1.00  0.00     0.012 A 
ATOM     16  C   UNL A   1      31.515  27.718  26.810  1.00  0.00     0.006 A 
ATOM     17  C   UNL A   1      33.792  27.742  26.015  1.00  0.00     0.006 A 
ATOM     18  C   UNL A   1      32.753  28.370  26.713  1.00  0.00    -0.033 A 
BRANCH  18  19
ATOM     19  C   UNL A   1      32.974  29.704  27.367  1.00  0.00     0.145 C 
ATOM     20  Cl  UNL A   1      34.706  30.040  27.576  1.00  0.00    -0.122 Cl
ENDBRANCH  18  19
ENDBRANCH  12  13
ENDBRANCH   4   7
ENDBRANCH   2   3
ENDBRANCH   1   2
BRANCH   1  21
ATOM     21  C   UNL A   1      37.168  23.352  25.202  1.00  0.00     0.118 C 
BRANCH  21  22
ATOM     22  N   UNL A   1      38.073  22.436  25.889  1.00  0.00    -0.352 N 
ATOM     23  C   UNL A   1      39.241  22.683  26.557  1.00  0.00     0.251 C 
ATOM     24  H   UNL A   1      37.800  21.490  25.867  1.00  0.00     0.163 HD
ATOM     25  O   UNL A   1      39.991  21.743  26.826  1.00  0.00    -0.269 OA
BRANCH  23  26
ATOM     26  C   UNL A   1      39.597  24.056  26.959  1.00  0.00     0.039 A 
ATOM     27  C   UNL A   1      39.345  24.465  28.271  1.00  0.00     0.014 A 
ATOM     28  C   UNL A   1      40.141  24.952  26.034  1.00  0.00     0.014 A 
ATOM     29  C   UNL A   1      39.682  25.760  28.667  1.00  0.00     0.010 A 
ATOM     30  C   UNL A   1      40.555  26.210  26.452  1.00  0.00     0.010 A 
ATOM     31  C   UNL A   1      40.318  26.633  27.768  1.00  0.00    -0.014 A 
BRANCH  31  32
ATOM     32  C   UNL A   1      40.745  27.990  28.187  1.00  0.00     0.031 A 
ATOM     33  C   UNL A   1      42.204  28.356  28.193  1.00  0.00     0.074 A 
ATOM     34  C   UNL A   1      39.823  28.859  28.645  1.00  0.00     0.049 A 
ATOM     35  N   UNL A   1      42.771  29.468  28.582  1.00  0.00    -0.248 NA
ATOM     36  C   UNL A   1      43.155  27.330  27.733  1.00  0.00     0.031 C 
ATOM     37  C   UNL A   1      38.389  28.585  28.762  1.00  0.00     0.029 A 
ATOM     38  N   UNL A   1      39.957  30.137  29.124  1.00  0.00    -0.354 N 
ATOM     39  C   UNL A   1      44.139  29.261  28.455  1.00  0.00     0.074 A 
ATOM     40  C   UNL A   1      44.321  27.906  27.984  1.00  0.00     0.031 C 
ATOM     41  C   UNL A   1      37.774  29.666  29.267  1.00  0.00     0.029 A 
ATOM     42  C   UNL A   1      38.772  30.693  29.545  1.00  0.00     0.049 A 
ATOM     43  H   UNL A   1      40.819  30.611  29.161  1.00  0.00     0.167 HD
ATOM     44  C   UNL A   1      45.152  30.130  28.685  1.00  0.00     0.034 A 
ATOM     45  C   UNL A   1      38.520  31.894  30.101  1.00  0.00     0.034 A 
ATOM     46  C   UNL A   1      44.959  31.489  29.110  1.00  0.00     0.049 A 
ATOM     47  C   UNL A   1      39.658  32.855  30.304  1.00  0.00     0.074 A 
ATOM     48  C   UNL A   1      45.910  32.481  29.276  1.00  0.00     0.029 A 
ATOM     49  N   UNL A   1      43.736  32.046  29.450  1.00  0.00    -0.354 N 
ATOM     50  N   UNL A   1      40.930  32.696  30.028  1.00  0.00    -0.248 NA
ATOM     51  C   UNL A   1      39.323  34.173  30.861  1.00  0.00     0.031 C 
ATOM     52  C   UNL A   1      45.265  33.628  29.750  1.00  0.00     0.029 A 
ATOM     53  C   UNL A   1      43.907  33.363  29.840  1.00  0.00     0.049 A 
ATOM     54  H   UNL A   1      42.873  31.574  29.419  1.00  0.00     0.167 HD
ATOM     55  C   UNL A   1      41.541  33.905  30.342  1.00  0.00     0.074 A 
ATOM     56  C   UNL A   1      40.495  34.791  30.811  1.00  0.00     0.031 C 
ATOM     57  C   UNL A   1      42.850  34.247  30.260  1.00  0.00     0.034 A 
BRANCH  44  58
ATOM     58  C   UNL A   1      46.560  29.650  28.442  1.00  0.00     0.023 A 
ATOM     59  C   UNL A   1      47.163  29.852  27.184  1.00  0.00     0.012 A 
ATOM     60  C   UNL A   1      47.306  29.055  29.478  1.00  0.00     0.148 A 
ATOM     61  C   UNL A   1      48.473  29.436  26.949  1.00  0.00     0.002 A 
ATOM     62  C   UNL A   1      48.627  28.689  29.251  1.00  0.00     0.091 A 
ATOM     63  F   UNL A   1      46.710  28.853  30.662  1.00  0.00    -0.205 F 
ATOM     64  C   UNL A   1      49.208  28.866  27.984  1.00  0.00     0.022 A 
BRANCH  62  65
ATOM     65  S   UNL A   1      49.685  28.022  30.542  1.00  0.00     0.127 S 
ATOM     66  O   UNL A   1      48.770  27.114  31.232  1.00  0.00    -0.237 OA
ATOM     67  O   UNL A   1      50.733  27.358  29.765  1.00  0.00    -0.237 OA
ATOM     68  O   UNL A   1      50.137  29.163  31.323  1.00  0.00    -0.744 OA
ENDBRANCH  62  65
ENDBRANCH  44  58
BRANCH  45  69
ATOM     69  C   UNL A   1      37.121  32.274  30.444  1.00  0.00     0.023 A 
ATOM     70  C   UNL A   1      36.642  32.049  31.749  1.00  0.00     0.012 A 
ATOM     71  C   UNL A   1      36.275  32.886  29.498  1.00  0.00     0.148 A 
ATOM     72  C   UNL A   1      35.336  32.396  32.098  1.00  0.00     0.002 A 
ATOM     73  C   UNL A   1      34.996  33.281  29.867  1.00  0.00     0.091 A 
ATOM     74  F   UNL A   1      36.749  33.086  28.261  1.00  0.00    -0.205 F 
ATOM     75  C   UNL A   1      34.516  33.020  31.161  1.00  0.00     0.022 A 
BRANCH  73  76
ATOM     76  S   UNL A   1      33.919  34.210  28.771  1.00  0.00     0.127 S 
ATOM     77  O   UNL A   1      34.805  35.276  28.313  1.00  0.00    -0.237 OA
ATOM     78  O   UNL A   1      33.585  33.207  27.758  1.00  0.00    -0.237 OA
ATOM     79  O   UNL A   1      32.792  34.634  29.591  1.00  0.00    -0.744 OA
ENDBRANCH  73  76
ENDBRANCH  45  69
BRANCH  57  80
ATOM     80  C   UNL A   1      43.231  35.652  30.645  1.00  0.00     0.023 A 
ATOM     81  C   UNL A   1      43.612  35.943  31.970  1.00  0.00     0.012 A 
ATOM     82  C   UNL A   1      43.281  36.670  29.672  1.00  0.00     0.148 A 
ATOM     83  C   UNL A   1      44.004  37.232  32.327  1.00  0.00     0.002 A 
ATOM     84  C   UNL A   1      43.726  37.938  30.022  1.00  0.00     0.091 A 
ATOM     85  F   UNL A   1      42.897  36.376  28.420  1.00  0.00    -0.205 F 
ATOM     86  C   UNL A   1      44.073  38.224  31.353  1.00  0.00     0.022 A 
BRANCH  84  87
ATOM     87  S   UNL A   1      43.944  39.249  28.815  1.00  0.00     0.127 S 
ATOM     88  O   UNL A   1      42.566  39.496  28.391  1.00  0.00    -0.237 OA
ATOM     89  O   UNL A   1      44.534  40.317  29.622  1.00  0.00    -0.237 OA
ATOM     90  O   UNL A   1      44.824  38.709  27.788  1.00  0.00    -0.744 OA
ENDBRANCH  84  87
ENDBRANCH  57  80
ENDBRANCH  31  32
ENDBRANCH  23  26
ENDBRANCH  21  22
ENDBRANCH   1  21
TORSDOF 15
ENDMDL
MODEL 3
REMARK VINA RESULT:     -11.3      1.748      2.294
REMARK SMILES Cc1noc(-c2ccc(CCl)cc2)c1C(=O)NCCCNC(=O)c1ccc(-c2c3nc(c(-c4cccc(S(=O)(=O)[O-])c4F)c4ccc([nH]4)c(-c4cccc(S(=O)(=O)[O-])c4F)c4nc(c(-c5cccc(S(=O)(=O)[O-])c5F)c5ccc2[nH]5)C=C4)C=C3)cc1
REMARK SMILES IDX 19 1 18 2 17 3 15 4 16 5 14 7 1 8 2 9 3 10 4 11 5 12 6 13
REMARK SMILES IDX 7 14 13 15 8 16 12 17 9 18 10 19 11 20 20 21 21 22 22 23
REMARK SMILES IDX 23 25 24 26 25 27 86 28 26 29 85 30 27 31 28 32 29 33 79 34
REMARK SMILES IDX 30 35 84 36 78 37 80 38 31 39 83 40 77 41 76 42 32 44 64 45
REMARK SMILES IDX 44 46 63 47 45 48 48 49 62 50 81 51 46 52 47 53 61 55 82 56
REMARK SMILES IDX 49 57 33 58 34 59 42 60 35 61 37 62 43 63 36 64 38 65 39 66
REMARK SMILES IDX 40 67 41 68 65 69 66 70 74 71 67 72 69 73 75 74 68 75 70 76
REMARK SMILES IDX 71 77 72 78 73 79 50 80 51 81 59 82 52 83 54 84 60 85 53 86
REMARK SMILES IDX 55 87 56 88 57 89 58 90
REMARK H PARENT 17 6 21 24 80 43 48 54
REMARK Flexibility Score: inf
ROOT
ATOM      1  C   UNL A   1      31.987  28.984  26.817  1.00  0.00     0.042 C 
ENDROOT
BRANCH   1   2
ATOM      2  C   UNL A   1      32.322  27.493  26.852  1.00  0.00     0.118 C 
BRANCH   2   3
ATOM      3  N   UNL A   1      31.136  26.706  26.676  1.00  0.00    -0.352 N 
ATOM      4  C   UNL A   1      30.391  26.325  25.601  1.00  0.00     0.257 C 
ATOM      5  O   UNL A   1      29.488  25.546  25.926  1.00  0.00    -0.269 OA
ATOM      6  H   UNL A   1      30.778  26.362  27.526  1.00  0.00     0.163 HD
BRANCH   4   7
ATOM      7  C   UNL A   1      30.612  26.705  24.206  1.00  0.00     0.110 A 
ATOM      8  C   UNL A   1      28.837  28.451  23.126  1.00  0.00     0.071 C 
ATOM      9  C   UNL A   1      30.034  27.579  23.212  1.00  0.00     0.094 A 
ATOM     10  N   UNL A   1      30.742  27.554  22.071  1.00  0.00    -0.084 NA
ATOM     11  O   UNL A   1      31.724  26.626  22.240  1.00  0.00    -0.355 OA
ATOM     12  C   UNL A   1      31.636  26.092  23.478  1.00  0.00     0.179 A 
BRANCH  12  13
ATOM     13  C   UNL A   1      32.609  25.035  23.719  1.00  0.00     0.021 A 
ATOM     14  C   UNL A   1      33.856  25.337  24.273  1.00  0.00     0.012 A 
ATOM     15  C   UNL A   1      32.314  23.705  23.397  1.00  0.00     0.012 A 
ATOM     16  C   UNL A   1      34.776  24.319  24.542  1.00  0.00     0.006 A 
ATOM     17  C   UNL A   1      33.229  22.686  23.670  1.00  0.00     0.006 A 
ATOM     18  C   UNL A   1      34.467  22.981  24.255  1.00  0.00    -0.033 A 
BRANCH  18  19
ATOM     19  C   UNL A   1      35.430  21.879  24.592  1.00  0.00     0.145 C 
ATOM     20  Cl  UNL A   1      37.028  22.178  23.875  1.00  0.00    -0.122 Cl
ENDBRANCH  18  19
ENDBRANCH  12  13
ENDBRANCH   4   7
ENDBRANCH   2   3
ENDBRANCH   1   2
BRANCH   1  21
ATOM     21  C   UNL A   1      33.051  29.811  26.094  1.00  0.00     0.118 C 
BRANCH  21  22
ATOM     22  N   UNL A   1      32.966  31.222  26.458  1.00  0.00    -0.352 N 
ATOM     23  C   UNL A   1      33.643  31.929  27.414  1.00  0.00     0.251 C 
ATOM     24  H   UNL A   1      32.319  31.747  25.934  1.00  0.00     0.163 HD
ATOM     25  O   UNL A   1      33.228  33.042  27.745  1.00  0.00    -0.269 OA
BRANCH  23  26
ATOM     26  C   UNL A   1      34.858  31.374  28.037  1.00  0.00     0.039 A 
ATOM     27  C   UNL A   1      36.029  32.138  28.037  1.00  0.00     0.014 A 
ATOM     28  C   UNL A   1      34.857  30.088  28.582  1.00  0.00     0.014 A 
ATOM     29  C   UNL A   1      37.185  31.627  28.628  1.00  0.00     0.010 A 
ATOM     30  C   UNL A   1      35.982  29.617  29.245  1.00  0.00     0.010 A 
ATOM     31  C   UNL A   1      37.162  30.374  29.263  1.00  0.00    -0.014 A 
BRANCH  31  32
ATOM     32  C   UNL A   1      38.361  29.841  29.955  1.00  0.00     0.031 A 
ATOM     33  C   UNL A   1      38.742  30.358  31.315  1.00  0.00     0.074 A 
ATOM     34  C   UNL A   1      39.152  28.957  29.316  1.00  0.00     0.049 A 
ATOM     35  N   UNL A   1      39.784  30.057  32.047  1.00  0.00    -0.248 NA
ATOM     36  C   UNL A   1      37.858  31.367  31.922  1.00  0.00     0.031 C 
ATOM     37  C   UNL A   1      38.926  28.446  27.962  1.00  0.00     0.029 A 
ATOM     38  N   UNL A   1      40.318  28.353  29.707  1.00  0.00    -0.354 N 
ATOM     39  C   UNL A   1      39.703  30.866  33.173  1.00  0.00     0.074 A 
ATOM     40  C   UNL A   1      38.529  31.695  33.015  1.00  0.00     0.031 C 
ATOM     41  C   UNL A   1      39.914  27.598  27.641  1.00  0.00     0.029 A 
ATOM     42  C   UNL A   1      40.862  27.532  28.747  1.00  0.00     0.049 A 
ATOM     43  H   UNL A   1      40.727  28.492  30.592  1.00  0.00     0.167 HD
ATOM     44  C   UNL A   1      40.518  30.898  34.254  1.00  0.00     0.034 A 
ATOM     45  C   UNL A   1      42.003  26.815  28.755  1.00  0.00     0.034 A 
ATOM     46  C   UNL A   1      41.658  30.039  34.421  1.00  0.00     0.049 A 
ATOM     47  C   UNL A   1      42.866  26.835  29.985  1.00  0.00     0.074 A 
ATOM     48  C   UNL A   1      42.491  29.921  35.520  1.00  0.00     0.029 A 
ATOM     49  N   UNL A   1      42.134  29.159  33.461  1.00  0.00    -0.354 N 
ATOM     50  N   UNL A   1      42.687  27.490  31.108  1.00  0.00    -0.248 NA
ATOM     51  C   UNL A   1      44.070  25.992  29.967  1.00  0.00     0.031 C 
ATOM     52  C   UNL A   1      43.493  28.995  35.209  1.00  0.00     0.029 A 
ATOM     53  C   UNL A   1      43.259  28.506  33.934  1.00  0.00     0.049 A 
ATOM     54  H   UNL A   1      41.733  29.021  32.573  1.00  0.00     0.167 HD
ATOM     55  C   UNL A   1      43.733  27.109  31.941  1.00  0.00     0.074 A 
ATOM     56  C   UNL A   1      44.529  26.153  31.199  1.00  0.00     0.031 C 
ATOM     57  C   UNL A   1      44.014  27.522  33.201  1.00  0.00     0.034 A 
BRANCH  44  58
ATOM     58  C   UNL A   1      40.185  31.866  35.359  1.00  0.00     0.023 A 
ATOM     59  C   UNL A   1      40.891  33.082  35.463  1.00  0.00     0.012 A 
ATOM     60  C   UNL A   1      39.132  31.600  36.256  1.00  0.00     0.148 A 
ATOM     61  C   UNL A   1      40.580  34.001  36.465  1.00  0.00     0.002 A 
ATOM     62  C   UNL A   1      38.796  32.543  37.220  1.00  0.00     0.091 A 
ATOM     63  F   UNL A   1      38.486  30.431  36.155  1.00  0.00    -0.205 F 
ATOM     64  C   UNL A   1      39.527  33.737  37.335  1.00  0.00     0.022 A 
BRANCH  62  65
ATOM     65  S   UNL A   1      37.403  32.334  38.336  1.00  0.00     0.127 S 
ATOM     66  O   UNL A   1      36.355  33.079  37.641  1.00  0.00    -0.237 OA
ATOM     67  O   UNL A   1      37.224  30.882  38.333  1.00  0.00    -0.237 OA
ATOM     68  O   UNL A   1      37.822  32.893  39.613  1.00  0.00    -0.744 OA
ENDBRANCH  62  65
ENDBRANCH  44  58
BRANCH  45  69
ATOM     69  C   UNL A   1      42.356  25.969  27.581  1.00  0.00     0.023 A 
ATOM     70  C   UNL A   1      43.150  26.510  26.551  1.00  0.00     0.012 A 
ATOM     71  C   UNL A   1      41.938  24.627  27.493  1.00  0.00     0.148 A 
ATOM     72  C   UNL A   1      43.496  25.739  25.440  1.00  0.00     0.002 A 
ATOM     73  C   UNL A   1      42.333  23.849  26.413  1.00  0.00     0.091 A 
ATOM     74  F   UNL A   1      41.178  24.134  28.481  1.00  0.00    -0.205 F 
ATOM     75  C   UNL A   1      43.097  24.407  25.376  1.00  0.00     0.022 A 
BRANCH  73  76
ATOM     76  S   UNL A   1      41.980  22.091  26.310  1.00  0.00     0.127 S 
ATOM     77  O   UNL A   1      40.532  22.087  26.128  1.00  0.00    -0.237 OA
ATOM     78  O   UNL A   1      42.752  21.699  25.130  1.00  0.00    -0.237 OA
ATOM     79  O   UNL A   1      42.461  21.518  27.560  1.00  0.00    -0.744 OA
ENDBRANCH  73  76
ENDBRANCH  45  69
BRANCH  57  80
ATOM     80  C   UNL A   1      45.211  26.914  33.885  1.00  0.00     0.023 A 
ATOM     81  C   UNL A   1      46.474  27.530  33.778  1.00  0.00     0.012 A 
ATOM     82  C   UNL A   1      45.065  25.771  34.695  1.00  0.00     0.148 A 
ATOM     83  C   UNL A   1      47.579  26.997  34.440  1.00  0.00     0.002 A 
ATOM     84  C   UNL A   1      46.158  25.278  35.395  1.00  0.00     0.091 A 
ATOM     85  F   UNL A   1      43.858  25.190  34.769  1.00  0.00    -0.205 F 
ATOM     86  C   UNL A   1      47.419  25.881  35.256  1.00  0.00     0.022 A 
BRANCH  84  87
ATOM     87  S   UNL A   1      46.025  23.909  36.549  1.00  0.00     0.127 S 
ATOM     88  O   UNL A   1      47.402  23.787  37.027  1.00  0.00    -0.237 OA
ATOM     89  O   UNL A   1      45.080  24.428  37.538  1.00  0.00    -0.237 OA
ATOM     90  O   UNL A   1      45.531  22.777  35.776  1.00  0.00    -0.744 OA
ENDBRANCH  84  87
ENDBRANCH  57  80
ENDBRANCH  31  32
ENDBRANCH  23  26
ENDBRANCH  21  22
ENDBRANCH   1  21
TORSDOF 15
ENDMDL
