MODEL 1
REMARK VINA RESULT:     -12.1      0.000      0.000
REMARK SMILES O=C(NCCCNC(=O)[C@H]1CC[C@@H](CNc2ccccc2[N+](=O)[O-])O1)c1ccc(-c2c3nc(c(-c4cccc(S(=O)(=O)[O-])c4F)c4ccc([nH]4)c(-c4cccc(S(=O)(=O)[O-])c4F)c4nc(c(-c5cccc(S(=O)(=O)[O-])c5F)c5ccc2[nH]5)C=C4)C=C3)cc1
REMARK SMILES IDX 5 1 4 2 3 3 1 4 2 5 26 7 27 8 88 9 28 10 87 11 29 12 30 13
REMARK SMILES IDX 31 14 81 15 32 16 86 17 80 18 82 19 33 20 85 21 79 22 78 23
REMARK SMILES IDX 34 25 66 26 46 27 65 28 47 29 50 30 64 31 83 32 48 33 49 34
REMARK SMILES IDX 63 36 84 37 51 38 35 39 36 40 44 41 37 42 39 43 45 44 38 45
REMARK SMILES IDX 40 46 41 47 42 48 43 49 67 50 68 51 76 52 69 53 71 54 77 55
REMARK SMILES IDX 70 56 72 57 73 58 74 59 75 60 52 61 53 62 61 63 54 64 56 65
REMARK SMILES IDX 62 66 55 67 57 68 58 69 59 70 60 71 6 72 7 73 8 74 9 76
REMARK SMILES IDX 10 77 11 78 25 79 12 80 13 81 14 82 15 83 16 85 17 86 21 87
REMARK SMILES IDX 18 88 20 89 19 90 22 91 23 92 24 93
REMARK H PARENT 3 6 82 24 50 35 7 75 15 84
REMARK Flexibility Score: inf
ROOT
ATOM      1  C   UNL A   1      31.945  28.478  26.843  1.00  0.00     0.042 C 
ENDROOT
BRANCH   1   2
ATOM      2  C   UNL A   1      33.037  29.358  26.248  1.00  0.00     0.118 C 
BRANCH   2   3
ATOM      3  N   UNL A   1      32.858  30.769  26.566  1.00  0.00    -0.352 N 
ATOM      4  O   UNL A   1      33.150  32.710  27.658  1.00  0.00    -0.269 OA
ATOM      5  C   UNL A   1      33.595  31.601  27.374  1.00  0.00     0.251 C 
ATOM      6  H   UNL A   1      32.085  31.196  26.130  1.00  0.00     0.163 HD
BRANCH   5   7
ATOM      7  C   UNL A   1      34.895  31.154  27.921  1.00  0.00     0.039 A 
ATOM      8  C   UNL A   1      35.075  29.839  28.352  1.00  0.00     0.014 A 
ATOM      9  C   UNL A   1      35.955  32.062  27.993  1.00  0.00     0.014 A 
ATOM     10  C   UNL A   1      36.240  29.485  29.022  1.00  0.00     0.010 A 
ATOM     11  C   UNL A   1      37.167  31.672  28.572  1.00  0.00     0.010 A 
ATOM     12  C   UNL A   1      37.303  30.394  29.137  1.00  0.00    -0.014 A 
BRANCH  12  13
ATOM     13  C   UNL A   1      38.554  29.968  29.814  1.00  0.00     0.031 A 
ATOM     14  C   UNL A   1      38.899  30.456  31.195  1.00  0.00     0.074 A 
ATOM     15  C   UNL A   1      39.378  29.114  29.176  1.00  0.00     0.049 A 
ATOM     16  N   UNL A   1      39.925  30.140  31.945  1.00  0.00    -0.248 NA
ATOM     17  C   UNL A   1      37.987  31.431  31.813  1.00  0.00     0.031 C 
ATOM     18  C   UNL A   1      39.172  28.603  27.817  1.00  0.00     0.029 A 
ATOM     19  N   UNL A   1      40.546  28.518  29.579  1.00  0.00    -0.354 N 
ATOM     20  C   UNL A   1      39.810  30.910  33.097  1.00  0.00     0.074 A 
ATOM     21  C   UNL A   1      38.617  31.715  32.945  1.00  0.00     0.031 C 
ATOM     22  C   UNL A   1      40.153  27.741  27.517  1.00  0.00     0.029 A 
ATOM     23  C   UNL A   1      41.086  27.677  28.636  1.00  0.00     0.049 A 
ATOM     24  H   UNL A   1      40.957  28.678  30.459  1.00  0.00     0.167 HD
ATOM     25  C   UNL A   1      40.615  30.932  34.188  1.00  0.00     0.034 A 
ATOM     26  C   UNL A   1      42.209  26.935  28.663  1.00  0.00     0.034 A 
ATOM     27  C   UNL A   1      41.773  30.094  34.352  1.00  0.00     0.049 A 
ATOM     28  C   UNL A   1      43.060  26.950  29.901  1.00  0.00     0.074 A 
ATOM     29  C   UNL A   1      42.608  29.988  35.452  1.00  0.00     0.029 A 
ATOM     30  N   UNL A   1      42.264  29.222  33.393  1.00  0.00    -0.354 N 
ATOM     31  N   UNL A   1      42.861  27.584  31.030  1.00  0.00    -0.248 NA
ATOM     32  C   UNL A   1      44.275  26.125  29.878  1.00  0.00     0.031 C 
ATOM     33  C   UNL A   1      43.617  29.066  35.147  1.00  0.00     0.029 A 
ATOM     34  C   UNL A   1      43.397  28.581  33.868  1.00  0.00     0.049 A 
ATOM     35  H   UNL A   1      41.867  29.079  32.504  1.00  0.00     0.167 HD
ATOM     36  C   UNL A   1      43.906  27.211  31.866  1.00  0.00     0.074 A 
ATOM     37  C   UNL A   1      44.724  26.278  31.116  1.00  0.00     0.031 C 
ATOM     38  C   UNL A   1      44.171  27.614  33.132  1.00  0.00     0.034 A 
BRANCH  25  39
ATOM     39  C   UNL A   1      40.251  31.873  35.307  1.00  0.00     0.023 A 
ATOM     40  C   UNL A   1      40.931  33.101  35.438  1.00  0.00     0.012 A 
ATOM     41  C   UNL A   1      39.203  31.568  36.199  1.00  0.00     0.148 A 
ATOM     42  C   UNL A   1      40.598  33.994  36.456  1.00  0.00     0.002 A 
ATOM     43  C   UNL A   1      38.850  32.481  37.187  1.00  0.00     0.091 A 
ATOM     44  F   UNL A   1      38.583  30.386  36.078  1.00  0.00    -0.205 F 
ATOM     45  C   UNL A   1      39.553  33.689  37.324  1.00  0.00     0.022 A 
BRANCH  43  46
ATOM     46  S   UNL A   1      37.466  32.205  38.300  1.00  0.00     0.127 S 
ATOM     47  O   UNL A   1      37.957  32.811  39.536  1.00  0.00    -0.237 OA
ATOM     48  O   UNL A   1      36.386  32.945  37.646  1.00  0.00    -0.237 OA
ATOM     49  O   UNL A   1      37.270  30.762  38.337  1.00  0.00    -0.744 OA
ENDBRANCH  43  46
ENDBRANCH  25  39
BRANCH  26  50
ATOM     50  C   UNL A   1      42.544  26.063  27.503  1.00  0.00     0.023 A 
ATOM     51  C   UNL A   1      43.407  26.549  26.502  1.00  0.00     0.012 A 
ATOM     52  C   UNL A   1      42.065  24.742  27.417  1.00  0.00     0.148 A 
ATOM     53  C   UNL A   1      43.772  25.740  25.427  1.00  0.00     0.002 A 
ATOM     54  C   UNL A   1      42.477  23.923  26.374  1.00  0.00     0.091 A 
ATOM     55  F   UNL A   1      41.234  24.304  28.375  1.00  0.00    -0.205 F 
ATOM     56  C   UNL A   1      43.319  24.424  25.369  1.00  0.00     0.022 A 
BRANCH  54  57
ATOM     57  S   UNL A   1      42.057  22.178  26.296  1.00  0.00     0.127 S 
ATOM     58  O   UNL A   1      40.616  22.229  26.059  1.00  0.00    -0.237 OA
ATOM     59  O   UNL A   1      42.854  21.727  25.155  1.00  0.00    -0.237 OA
ATOM     60  O   UNL A   1      42.470  21.618  27.575  1.00  0.00    -0.744 OA
ENDBRANCH  54  57
ENDBRANCH  26  50
BRANCH  38  61
ATOM     61  C   UNL A   1      45.378  27.022  33.809  1.00  0.00     0.023 A 
ATOM     62  C   UNL A   1      46.619  27.687  33.736  1.00  0.00     0.012 A 
ATOM     63  C   UNL A   1      45.269  25.842  34.569  1.00  0.00     0.148 A 
ATOM     64  C   UNL A   1      47.740  27.168  34.383  1.00  0.00     0.002 A 
ATOM     65  C   UNL A   1      46.380  25.355  35.249  1.00  0.00     0.091 A 
ATOM     66  F   UNL A   1      44.087  25.210  34.606  1.00  0.00    -0.205 F 
ATOM     67  C   UNL A   1      47.618  26.009  35.148  1.00  0.00     0.022 A 
BRANCH  65  68
ATOM     68  S   UNL A   1      46.285  23.925  36.332  1.00  0.00     0.127 S 
ATOM     69  O   UNL A   1      47.651  23.845  36.843  1.00  0.00    -0.237 OA
ATOM     70  O   UNL A   1      45.287  24.342  37.317  1.00  0.00    -0.237 OA
ATOM     71  O   UNL A   1      45.863  22.815  35.485  1.00  0.00    -0.744 OA
ENDBRANCH  65  68
ENDBRANCH  38  61
ENDBRANCH  12  13
ENDBRANCH   5   7
ENDBRANCH   2   3
ENDBRANCH   1   2
BRANCH   1  72
ATOM     72  C   UNL A   1      31.550  27.308  25.956  1.00  0.00     0.117 C 
BRANCH  72  73
ATOM     73  N   UNL A   1      31.265  26.107  26.720  1.00  0.00    -0.354 N 
ATOM     74  C   UNL A   1      31.696  24.829  26.507  1.00  0.00     0.249 C 
ATOM     75  H   UNL A   1      30.679  26.232  27.501  1.00  0.00     0.163 HD
ATOM     76  O   UNL A   1      31.328  23.952  27.288  1.00  0.00    -0.272 OA
BRANCH  74  77
ATOM     77  C   UNL A   1      32.639  24.550  25.322  1.00  0.00     0.207 C 
ATOM     78  C   UNL A   1      34.072  24.940  25.659  1.00  0.00     0.045 C 
ATOM     79  O   UNL A   1      32.671  23.150  25.003  1.00  0.00    -0.363 OA
ATOM     80  C   UNL A   1      34.611  23.673  26.272  1.00  0.00     0.037 C 
ATOM     81  C   UNL A   1      33.930  22.605  25.429  1.00  0.00     0.138 C 
BRANCH  81  82
ATOM     82  C   UNL A   1      33.743  21.275  26.181  1.00  0.00     0.145 C 
BRANCH  82  83
ATOM     83  N   UNL A   1      34.420  20.211  25.446  1.00  0.00    -0.377 N 
ATOM     84  H   UNL A   1      35.393  20.149  25.579  1.00  0.00     0.160 HD
BRANCH  83  85
ATOM     85  C   UNL A   1      33.872  19.282  24.586  1.00  0.00     0.113 A 
ATOM     86  C   UNL A   1      32.698  19.691  23.919  1.00  0.00     0.033 A 
ATOM     87  C   UNL A   1      34.375  18.026  24.213  1.00  0.00     0.292 A 
ATOM     88  C   UNL A   1      32.072  18.906  22.943  1.00  0.00     0.003 A 
ATOM     89  C   UNL A   1      33.758  17.226  23.230  1.00  0.00     0.088 A 
ATOM     90  C   UNL A   1      32.606  17.673  22.592  1.00  0.00     0.007 A 
BRANCH  87  91
ATOM     91  N   UNL A   1      35.502  17.416  24.896  1.00  0.00     0.064 N 
ATOM     92  O   UNL A   1      35.334  16.267  25.334  1.00  0.00    -0.258 OA
ATOM     93  O   UNL A   1      36.517  18.106  25.064  1.00  0.00    -0.258 OA
ENDBRANCH  87  91
ENDBRANCH  83  85
ENDBRANCH  82  83
ENDBRANCH  81  82
ENDBRANCH  74  77
ENDBRANCH  72  73
ENDBRANCH   1  72
TORSDOF 17
ENDMDL
MODEL 2
REMARK VINA RESULT:     -11.7      1.959      2.535
REMARK SMILES O=C(NCCCNC(=O)[C@H]1CC[C@@H](CNc2ccccc2[N+](=O)[O-])O1)c1ccc(-c2c3nc(c(-c4cccc(S(=O)(=O)[O-])c4F)c4ccc([nH]4)c(-c4cccc(S(=O)(=O)[O-])c4F)c4nc(c(-c5cccc(S(=O)(=O)[O-])c5F)c5ccc2[nH]5)C=C4)C=C3)cc1
REMARK SMILES IDX 5 1 4 2 3 3 1 4 2 5 26 7 27 8 88 9 28 10 87 11 29 12 30 13
REMARK SMILES IDX 31 14 81 15 32 16 86 17 80 18 82 19 33 20 85 21 79 22 78 23
REMARK SMILES IDX 34 25 66 26 46 27 65 28 47 29 50 30 64 31 83 32 48 33 49 34
REMARK SMILES IDX 63 36 84 37 51 38 35 39 36 40 44 41 37 42 39 43 45 44 38 45
REMARK SMILES IDX 40 46 41 47 42 48 43 49 67 50 68 51 76 52 69 53 71 54 77 55
REMARK SMILES IDX 70 56 72 57 73 58 74 59 75 60 52 61 53 62 61 63 54 64 56 65
REMARK SMILES IDX 62 66 55 67 57 68 58 69 59 70 60 71 6 72 7 73 8 74 9 76
REMARK SMILES IDX 10 77 11 78 25 79 12 80 13 81 14 82 15 83 16 85 17 86 21 87
REMARK SMILES IDX 18 88 20 89 19 90 22 91 23 92 24 93
REMARK H PARENT 3 6 82 24 50 35 7 75 15 84
REMARK Flexibility Score: inf
ROOT
ATOM      1  C   UNL A   1      31.400  29.312  26.801  1.00  0.00     0.042 C 
ENDROOT
BRANCH   1   2
ATOM      2  C   UNL A   1      32.412  30.200  26.088  1.00  0.00     0.118 C 
BRANCH   2   3
ATOM      3  N   UNL A   1      32.266  31.609  26.434  1.00  0.00    -0.352 N 
ATOM      4  O   UNL A   1      32.578  33.513  27.584  1.00  0.00    -0.269 OA
ATOM      5  C   UNL A   1      32.997  32.397  27.290  1.00  0.00     0.251 C 
ATOM      6  H   UNL A   1      31.525  32.072  25.979  1.00  0.00     0.163 HD
BRANCH   5   7
ATOM      7  C   UNL A   1      34.260  31.894  27.876  1.00  0.00     0.039 A 
ATOM      8  C   UNL A   1      34.375  30.568  28.295  1.00  0.00     0.014 A 
ATOM      9  C   UNL A   1      35.350  32.760  27.997  1.00  0.00     0.014 A 
ATOM     10  C   UNL A   1      35.501  30.161  29.000  1.00  0.00     0.010 A 
ATOM     11  C   UNL A   1      36.525  32.317  28.612  1.00  0.00     0.010 A 
ATOM     12  C   UNL A   1      36.593  31.028  29.164  1.00  0.00    -0.014 A 
BRANCH  12  13
ATOM     13  C   UNL A   1      37.803  30.546  29.878  1.00  0.00     0.031 A 
ATOM     14  C   UNL A   1      38.073  30.937  31.306  1.00  0.00     0.074 A 
ATOM     15  C   UNL A   1      38.657  29.730  29.229  1.00  0.00     0.049 A 
ATOM     16  N   UNL A   1      39.055  30.563  32.088  1.00  0.00    -0.248 NA
ATOM     17  C   UNL A   1      37.133  31.876  31.938  1.00  0.00     0.031 C 
ATOM     18  C   UNL A   1      38.523  29.315  27.830  1.00  0.00     0.029 A 
ATOM     19  N   UNL A   1      39.797  29.099  29.655  1.00  0.00    -0.354 N 
ATOM     20  C   UNL A   1      38.880  31.254  33.281  1.00  0.00     0.074 A 
ATOM     21  C   UNL A   1      37.701  32.077  33.119  1.00  0.00     0.031 C 
ATOM     22  C   UNL A   1      39.515  28.467  27.526  1.00  0.00     0.029 A 
ATOM     23  C   UNL A   1      40.385  28.318  28.687  1.00  0.00     0.049 A 
ATOM     24  H   UNL A   1      40.160  29.195  30.565  1.00  0.00     0.167 HD
ATOM     25  C   UNL A   1      39.623  31.195  34.413  1.00  0.00     0.034 A 
ATOM     26  C   UNL A   1      41.501  27.567  28.726  1.00  0.00     0.034 A 
ATOM     27  C   UNL A   1      40.767  30.338  34.584  1.00  0.00     0.049 A 
ATOM     28  C   UNL A   1      42.283  27.491  30.006  1.00  0.00     0.074 A 
ATOM     29  C   UNL A   1      41.539  30.151  35.718  1.00  0.00     0.029 A 
ATOM     30  N   UNL A   1      41.306  29.529  33.596  1.00  0.00    -0.354 N 
ATOM     31  N   UNL A   1      42.024  28.049  31.163  1.00  0.00    -0.248 NA
ATOM     32  C   UNL A   1      43.493  26.659  29.994  1.00  0.00     0.031 C 
ATOM     33  C   UNL A   1      42.558  29.242  35.407  1.00  0.00     0.029 A 
ATOM     34  C   UNL A   1      42.407  28.847  34.088  1.00  0.00     0.049 A 
ATOM     35  H   UNL A   1      40.958  29.449  32.679  1.00  0.00     0.167 HD
ATOM     36  C   UNL A   1      43.019  27.611  32.028  1.00  0.00     0.074 A 
ATOM     37  C   UNL A   1      43.874  26.724  31.263  1.00  0.00     0.031 C 
ATOM     38  C   UNL A   1      43.216  27.926  33.331  1.00  0.00     0.034 A 
BRANCH  25  39
ATOM     39  C   UNL A   1      39.203  32.061  35.573  1.00  0.00     0.023 A 
ATOM     40  C   UNL A   1      38.351  31.536  36.566  1.00  0.00     0.012 A 
ATOM     41  C   UNL A   1      39.690  33.376  35.709  1.00  0.00     0.148 A 
ATOM     42  C   UNL A   1      37.964  32.314  37.656  1.00  0.00     0.002 A 
ATOM     43  C   UNL A   1      39.332  34.132  36.820  1.00  0.00     0.091 A 
ATOM     44  F   UNL A   1      40.479  33.871  34.745  1.00  0.00    -0.205 F 
ATOM     45  C   UNL A   1      38.462  33.608  37.788  1.00  0.00     0.022 A 
BRANCH  43  46
ATOM     46  S   UNL A   1      39.987  35.781  37.112  1.00  0.00     0.127 S 
ATOM     47  O   UNL A   1      39.285  36.165  38.335  1.00  0.00    -0.237 OA
ATOM     48  O   UNL A   1      41.417  35.524  37.286  1.00  0.00    -0.237 OA
ATOM     49  O   UNL A   1      39.654  36.554  35.922  1.00  0.00    -0.744 OA
ENDBRANCH  43  46
ENDBRANCH  25  39
BRANCH  26  50
ATOM     50  C   UNL A   1      41.895  26.773  27.529  1.00  0.00     0.023 A 
ATOM     51  C   UNL A   1      42.612  27.399  26.492  1.00  0.00     0.012 A 
ATOM     52  C   UNL A   1      41.619  25.395  27.441  1.00  0.00     0.148 A 
ATOM     53  C   UNL A   1      43.032  26.670  25.380  1.00  0.00     0.002 A 
ATOM     54  C   UNL A   1      42.089  24.663  26.358  1.00  0.00     0.091 A 
ATOM     55  F   UNL A   1      40.924  24.821  28.435  1.00  0.00    -0.205 F 
ATOM     56  C   UNL A   1      42.783  25.301  25.318  1.00  0.00     0.022 A 
BRANCH  54  57
ATOM     57  S   UNL A   1      41.937  22.875  26.265  1.00  0.00     0.127 S 
ATOM     58  O   UNL A   1      40.488  22.704  26.182  1.00  0.00    -0.237 OA
ATOM     59  O   UNL A   1      42.665  22.574  25.032  1.00  0.00    -0.237 OA
ATOM     60  O   UNL A   1      42.567  22.365  27.474  1.00  0.00    -0.744 OA
ENDBRANCH  54  57
ENDBRANCH  26  50
BRANCH  38  61
ATOM     61  C   UNL A   1      44.381  27.279  34.032  1.00  0.00     0.023 A 
ATOM     62  C   UNL A   1      45.657  27.874  33.966  1.00  0.00     0.012 A 
ATOM     63  C   UNL A   1      44.199  26.118  34.807  1.00  0.00     0.148 A 
ATOM     64  C   UNL A   1      46.740  27.305  34.633  1.00  0.00     0.002 A 
ATOM     65  C   UNL A   1      45.273  25.581  35.507  1.00  0.00     0.091 A 
ATOM     66  F   UNL A   1      42.983  25.551  34.838  1.00  0.00    -0.205 F 
ATOM     67  C   UNL A   1      46.546  26.165  35.413  1.00  0.00     0.022 A 
BRANCH  65  68
ATOM     68  S   UNL A   1      45.087  24.174  36.609  1.00  0.00     0.127 S 
ATOM     69  O   UNL A   1      44.181  24.706  37.624  1.00  0.00    -0.237 OA
ATOM     70  O   UNL A   1      44.495  23.164  35.731  1.00  0.00    -0.237 OA
ATOM     71  O   UNL A   1      46.432  23.853  37.071  1.00  0.00    -0.744 OA
ENDBRANCH  65  68
ENDBRANCH  38  61
ENDBRANCH  12  13
ENDBRANCH   5   7
ENDBRANCH   2   3
ENDBRANCH   1   2
BRANCH   1  72
ATOM     72  C   UNL A   1      31.967  27.974  27.247  1.00  0.00     0.117 C 
BRANCH  72  73
ATOM     73  N   UNL A   1      33.107  27.564  26.447  1.00  0.00    -0.354 N 
ATOM     74  C   UNL A   1      33.162  26.658  25.427  1.00  0.00     0.249 C 
ATOM     75  H   UNL A   1      33.960  28.000  26.673  1.00  0.00     0.163 HD
ATOM     76  O   UNL A   1      34.247  26.460  24.881  1.00  0.00    -0.272 OA
BRANCH  74  77
ATOM     77  C   UNL A   1      31.867  25.949  24.992  1.00  0.00     0.207 C 
ATOM     78  C   UNL A   1      31.258  26.621  23.768  1.00  0.00     0.045 C 
ATOM     79  O   UNL A   1      32.122  24.587  24.614  1.00  0.00    -0.363 OA
ATOM     80  C   UNL A   1      31.934  25.891  22.635  1.00  0.00     0.037 C 
ATOM     81  C   UNL A   1      32.020  24.475  23.185  1.00  0.00     0.138 C 
BRANCH  81  82
ATOM     82  C   UNL A   1      33.193  23.671  22.597  1.00  0.00     0.145 C 
BRANCH  82  83
ATOM     83  N   UNL A   1      34.272  23.611  23.578  1.00  0.00    -0.377 N 
ATOM     84  H   UNL A   1      34.502  24.463  24.015  1.00  0.00     0.160 HD
BRANCH  83  85
ATOM     85  C   UNL A   1      35.013  22.516  23.970  1.00  0.00     0.113 A 
ATOM     86  C   UNL A   1      36.410  22.644  23.819  1.00  0.00     0.033 A 
ATOM     87  C   UNL A   1      34.575  21.334  24.587  1.00  0.00     0.292 A 
ATOM     88  C   UNL A   1      37.309  21.665  24.258  1.00  0.00     0.003 A 
ATOM     89  C   UNL A   1      35.469  20.341  25.037  1.00  0.00     0.088 A 
ATOM     90  C   UNL A   1      36.839  20.513  24.874  1.00  0.00     0.007 A 
BRANCH  87  91
ATOM     91  N   UNL A   1      33.166  21.003  24.701  1.00  0.00     0.064 N 
ATOM     92  O   UNL A   1      32.539  21.537  25.629  1.00  0.00    -0.258 OA
ATOM     93  O   UNL A   1      32.708  20.156  23.921  1.00  0.00    -0.258 OA
ENDBRANCH  87  91
ENDBRANCH  83  85
ENDBRANCH  82  83
ENDBRANCH  81  82
ENDBRANCH  74  77
ENDBRANCH  72  73
ENDBRANCH   1  72
TORSDOF 17
ENDMDL
MODEL 3
REMARK VINA RESULT:     -11.7      2.739      3.963
REMARK SMILES O=C(NCCCNC(=O)[C@H]1CC[C@@H](CNc2ccccc2[N+](=O)[O-])O1)c1ccc(-c2c3nc(c(-c4cccc(S(=O)(=O)[O-])c4F)c4ccc([nH]4)c(-c4cccc(S(=O)(=O)[O-])c4F)c4nc(c(-c5cccc(S(=O)(=O)[O-])c5F)c5ccc2[nH]5)C=C4)C=C3)cc1
REMARK SMILES IDX 5 1 4 2 3 3 1 4 2 5 26 7 27 8 88 9 28 10 87 11 29 12 30 13
REMARK SMILES IDX 31 14 81 15 32 16 86 17 80 18 82 19 33 20 85 21 79 22 78 23
REMARK SMILES IDX 34 25 66 26 46 27 65 28 47 29 50 30 64 31 83 32 48 33 49 34
REMARK SMILES IDX 63 36 84 37 51 38 35 39 36 40 44 41 37 42 39 43 45 44 38 45
REMARK SMILES IDX 40 46 41 47 42 48 43 49 67 50 68 51 76 52 69 53 71 54 77 55
REMARK SMILES IDX 70 56 72 57 73 58 74 59 75 60 52 61 53 62 61 63 54 64 56 65
REMARK SMILES IDX 62 66 55 67 57 68 58 69 59 70 60 71 6 72 7 73 8 74 9 76
REMARK SMILES IDX 10 77 11 78 25 79 12 80 13 81 14 82 15 83 16 85 17 86 21 87
REMARK SMILES IDX 18 88 20 89 19 90 22 91 23 92 24 93
REMARK H PARENT 3 6 82 24 50 35 7 75 15 84
REMARK Flexibility Score: inf
ROOT
ATOM      1  C   UNL A   1      32.989  27.998  26.888  1.00  0.00     0.042 C 
ENDROOT
BRANCH   1   2
ATOM      2  C   UNL A   1      34.117  28.912  26.428  1.00  0.00     0.118 C 
BRANCH   2   3
ATOM      3  N   UNL A   1      33.894  30.308  26.788  1.00  0.00    -0.352 N 
ATOM      4  O   UNL A   1      34.077  32.206  27.975  1.00  0.00    -0.269 OA
ATOM      5  C   UNL A   1      34.559  31.115  27.679  1.00  0.00     0.251 C 
ATOM      6  H   UNL A   1      33.147  30.742  26.316  1.00  0.00     0.163 HD
BRANCH   5   7
ATOM      7  C   UNL A   1      35.824  30.664  28.299  1.00  0.00     0.039 A 
ATOM      8  C   UNL A   1      37.044  31.228  27.926  1.00  0.00     0.014 A 
ATOM      9  C   UNL A   1      35.788  29.668  29.279  1.00  0.00     0.014 A 
ATOM     10  C   UNL A   1      38.232  30.674  28.386  1.00  0.00     0.010 A 
ATOM     11  C   UNL A   1      36.982  29.183  29.821  1.00  0.00     0.010 A 
ATOM     12  C   UNL A   1      38.217  29.647  29.343  1.00  0.00    -0.014 A 
BRANCH  12  13
ATOM     13  C   UNL A   1      39.505  29.111  29.853  1.00  0.00     0.031 A 
ATOM     14  C   UNL A   1      40.135  29.655  31.107  1.00  0.00     0.074 A 
ATOM     15  C   UNL A   1      40.102  28.107  29.180  1.00  0.00     0.049 A 
ATOM     16  N   UNL A   1      41.228  29.264  31.713  1.00  0.00    -0.248 NA
ATOM     17  C   UNL A   1      39.464  30.789  31.762  1.00  0.00     0.031 C 
ATOM     18  C   UNL A   1      39.609  27.525  27.929  1.00  0.00     0.029 A 
ATOM     19  N   UNL A   1      41.241  27.394  29.451  1.00  0.00    -0.354 N 
ATOM     20  C   UNL A   1      41.403  30.130  32.787  1.00  0.00     0.074 A 
ATOM     21  C   UNL A   1      40.305  31.073  32.747  1.00  0.00     0.031 C 
ATOM     22  C   UNL A   1      40.415  26.518  27.564  1.00  0.00     0.029 A 
ATOM     23  C   UNL A   1      41.510  26.417  28.522  1.00  0.00     0.049 A 
ATOM     24  H   UNL A   1      41.811  27.566  30.235  1.00  0.00     0.167 HD
ATOM     25  C   UNL A   1      42.377  30.129  33.729  1.00  0.00     0.034 A 
ATOM     26  C   UNL A   1      42.525  25.536  28.445  1.00  0.00     0.034 A 
ATOM     27  C   UNL A   1      43.439  29.159  33.790  1.00  0.00     0.049 A 
ATOM     28  C   UNL A   1      43.569  25.533  29.525  1.00  0.00     0.074 A 
ATOM     29  C   UNL A   1      44.429  29.028  34.749  1.00  0.00     0.029 A 
ATOM     30  N   UNL A   1      43.653  28.157  32.857  1.00  0.00    -0.354 N 
ATOM     31  N   UNL A   1      43.640  26.275  30.603  1.00  0.00    -0.248 NA
ATOM     32  C   UNL A   1      44.655  24.554  29.392  1.00  0.00     0.031 C 
ATOM     33  C   UNL A   1      45.254  27.958  34.382  1.00  0.00     0.029 A 
ATOM     34  C   UNL A   1      44.764  27.408  33.208  1.00  0.00     0.049 A 
ATOM     35  H   UNL A   1      43.096  27.999  32.060  1.00  0.00     0.167 HD
ATOM     36  C   UNL A   1      44.760  25.831  31.296  1.00  0.00     0.074 A 
ATOM     37  C   UNL A   1      45.322  24.742  30.522  1.00  0.00     0.031 C 
ATOM     38  C   UNL A   1      45.282  26.293  32.458  1.00  0.00     0.034 A 
BRANCH  25  39
ATOM     39  C   UNL A   1      42.323  31.194  34.793  1.00  0.00     0.023 A 
ATOM     40  C   UNL A   1      41.649  30.939  36.006  1.00  0.00     0.012 A 
ATOM     41  C   UNL A   1      42.982  32.427  34.618  1.00  0.00     0.148 A 
ATOM     42  C   UNL A   1      41.603  31.904  37.010  1.00  0.00     0.002 A 
ATOM     43  C   UNL A   1      42.965  33.370  35.642  1.00  0.00     0.091 A 
ATOM     44  F   UNL A   1      43.598  32.666  33.452  1.00  0.00    -0.205 F 
ATOM     45  C   UNL A   1      42.268  33.115  36.833  1.00  0.00     0.022 A 
BRANCH  43  46
ATOM     46  S   UNL A   1      43.859  34.925  35.530  1.00  0.00     0.127 S 
ATOM     47  O   UNL A   1      45.229  34.463  35.316  1.00  0.00    -0.237 OA
ATOM     48  O   UNL A   1      43.241  35.559  34.365  1.00  0.00    -0.237 OA
ATOM     49  O   UNL A   1      43.614  35.613  36.791  1.00  0.00    -0.744 OA
ENDBRANCH  43  46
ENDBRANCH  25  39
BRANCH  26  50
ATOM     50  C   UNL A   1      42.552  24.539  27.338  1.00  0.00     0.023 A 
ATOM     51  C   UNL A   1      43.234  24.851  26.147  1.00  0.00     0.012 A 
ATOM     52  C   UNL A   1      41.962  23.269  27.482  1.00  0.00     0.148 A 
ATOM     53  C   UNL A   1      43.312  23.921  25.111  1.00  0.00     0.002 A 
ATOM     54  C   UNL A   1      42.092  22.327  26.469  1.00  0.00     0.091 A 
ATOM     55  F   UNL A   1      41.307  22.998  28.621  1.00  0.00    -0.205 F 
ATOM     56  C   UNL A   1      42.754  22.656  25.276  1.00  0.00     0.022 A 
BRANCH  54  57
ATOM     57  S   UNL A   1      41.528  20.631  26.653  1.00  0.00     0.127 S 
ATOM     58  O   UNL A   1      42.042  20.013  25.434  1.00  0.00    -0.237 OA
ATOM     59  O   UNL A   1      42.202  20.221  27.885  1.00  0.00    -0.237 OA
ATOM     60  O   UNL A   1      40.078  20.710  26.761  1.00  0.00    -0.744 OA
ENDBRANCH  54  57
ENDBRANCH  26  50
BRANCH  38  61
ATOM     61  C   UNL A   1      46.507  25.599  32.991  1.00  0.00     0.023 A 
ATOM     62  C   UNL A   1      47.787  26.082  32.654  1.00  0.00     0.012 A 
ATOM     63  C   UNL A   1      46.388  24.510  33.876  1.00  0.00     0.148 A 
ATOM     64  C   UNL A   1      48.932  25.469  33.163  1.00  0.00     0.002 A 
ATOM     65  C   UNL A   1      47.532  23.933  34.416  1.00  0.00     0.091 A 
ATOM     66  F   UNL A   1      45.162  24.049  34.165  1.00  0.00    -0.205 F 
ATOM     67  C   UNL A   1      48.804  24.403  34.053  1.00  0.00     0.022 A 
BRANCH  65  68
ATOM     68  S   UNL A   1      47.452  22.621  35.640  1.00  0.00     0.127 S 
ATOM     69  O   UNL A   1      46.861  21.528  34.871  1.00  0.00    -0.237 OA
ATOM     70  O   UNL A   1      48.861  22.431  35.989  1.00  0.00    -0.237 OA
ATOM     71  O   UNL A   1      46.631  23.143  36.726  1.00  0.00    -0.744 OA
ENDBRANCH  65  68
ENDBRANCH  38  61
ENDBRANCH  12  13
ENDBRANCH   5   7
ENDBRANCH   2   3
ENDBRANCH   1   2
BRANCH   1  72
ATOM     72  C   UNL A   1      32.956  26.658  26.171  1.00  0.00     0.117 C 
BRANCH  72  73
ATOM     73  N   UNL A   1      31.895  25.796  26.661  1.00  0.00    -0.354 N 
ATOM     74  C   UNL A   1      31.859  24.433  26.736  1.00  0.00     0.249 C 
ATOM     75  H   UNL A   1      31.089  26.259  26.984  1.00  0.00     0.163 HD
ATOM     76  O   UNL A   1      30.846  23.901  27.190  1.00  0.00    -0.272 OA
BRANCH  74  77
ATOM     77  C   UNL A   1      33.089  23.630  26.276  1.00  0.00     0.207 C 
ATOM     78  C   UNL A   1      32.978  22.169  26.694  1.00  0.00     0.045 C 
ATOM     79  O   UNL A   1      33.202  23.627  24.845  1.00  0.00    -0.363 OA
ATOM     80  C   UNL A   1      32.252  21.558  25.524  1.00  0.00     0.037 C 
ATOM     81  C   UNL A   1      32.847  22.325  24.353  1.00  0.00     0.138 C 
BRANCH  81  82
ATOM     82  C   UNL A   1      31.893  22.418  23.148  1.00  0.00     0.145 C 
BRANCH  82  83
ATOM     83  N   UNL A   1      32.107  23.689  22.465  1.00  0.00    -0.377 N 
ATOM     84  H   UNL A   1      32.771  23.679  21.738  1.00  0.00     0.160 HD
BRANCH  83  85
ATOM     85  C   UNL A   1      31.500  24.904  22.706  1.00  0.00     0.113 A 
ATOM     86  C   UNL A   1      30.314  24.849  23.469  1.00  0.00     0.033 A 
ATOM     87  C   UNL A   1      31.953  26.192  22.381  1.00  0.00     0.292 A 
ATOM     88  C   UNL A   1      29.629  25.998  23.884  1.00  0.00     0.003 A 
ATOM     89  C   UNL A   1      31.276  27.358  22.795  1.00  0.00     0.088 A 
ATOM     90  C   UNL A   1      30.114  27.256  23.552  1.00  0.00     0.007 A 
BRANCH  87  91
ATOM     91  N   UNL A   1      33.087  26.409  21.501  1.00  0.00     0.064 N 
ATOM     92  O   UNL A   1      33.844  27.350  21.785  1.00  0.00    -0.258 OA
ATOM     93  O   UNL A   1      33.176  25.698  20.489  1.00  0.00    -0.258 OA
ENDBRANCH  87  91
ENDBRANCH  83  85
ENDBRANCH  82  83
ENDBRANCH  81  82
ENDBRANCH  74  77
ENDBRANCH  72  73
ENDBRANCH   1  72
TORSDOF 17
ENDMDL
