MODEL 1
REMARK VINA RESULT:     -11.7      0.000      0.000
REMARK SMILES O=C(NCCCNC(=O)[C@@H]1[C@H](C(=O)NCc2cccnc2)[C@H]2C=C[C@@H]1C2)c1ccc(-c2c3nc(c(-c4cccc(S(=O)(=O)[O-])c4F)c4ccc([nH]4)c(-c4cccc(S(=O)(=O)[O-])c4F)c4nc(c(-c5cccc(S(=O)(=O)[O-])c5F)c5ccc2[nH]5)C=C4)C=C3)cc1
REMARK SMILES IDX 5 1 4 2 3 3 1 4 2 5 27 7 28 8 89 9 29 10 88 11 30 12 31 13
REMARK SMILES IDX 32 14 82 15 33 16 87 17 81 18 83 19 34 20 86 21 80 22 79 23
REMARK SMILES IDX 35 25 67 26 47 27 66 28 48 29 51 30 65 31 84 32 49 33 50 34
REMARK SMILES IDX 64 36 85 37 52 38 36 39 37 40 45 41 38 42 40 43 46 44 39 45
REMARK SMILES IDX 41 46 42 47 43 48 44 49 68 50 69 51 77 52 70 53 72 54 78 55
REMARK SMILES IDX 71 56 73 57 74 58 75 59 76 60 53 61 54 62 62 63 55 64 57 65
REMARK SMILES IDX 63 66 56 67 58 68 59 69 60 70 61 71 6 72 7 73 8 74 9 76
REMARK SMILES IDX 10 77 11 78 25 79 22 80 24 81 26 82 23 83 12 84 13 85 14 86
REMARK SMILES IDX 15 88 16 89 17 90 21 91 18 92 20 93 19 94
REMARK H PARENT 3 6 83 24 51 35 7 75 14 87
REMARK Flexibility Score: inf
ROOT
ATOM      1  C   UNL A   1      32.492  28.170  25.864  1.00  0.00     0.042 C 
ENDROOT
BRANCH   1   2
ATOM      2  C   UNL A   1      33.048  29.397  25.153  1.00  0.00     0.118 C 
BRANCH   2   3
ATOM      3  N   UNL A   1      32.588  30.641  25.746  1.00  0.00    -0.352 N 
ATOM      4  O   UNL A   1      32.338  32.225  27.314  1.00  0.00    -0.269 OA
ATOM      5  C   UNL A   1      33.025  31.310  26.868  1.00  0.00     0.251 C 
ATOM      6  H   UNL A   1      31.844  31.076  25.270  1.00  0.00     0.163 HD
BRANCH   5   7
ATOM      7  C   UNL A   1      34.291  30.934  27.548  1.00  0.00     0.039 A 
ATOM      8  C   UNL A   1      35.328  31.852  27.714  1.00  0.00     0.014 A 
ATOM      9  C   UNL A   1      34.417  29.654  28.104  1.00  0.00     0.014 A 
ATOM     10  C   UNL A   1      36.533  31.455  28.291  1.00  0.00     0.010 A 
ATOM     11  C   UNL A   1      35.589  29.291  28.783  1.00  0.00     0.010 A 
ATOM     12  C   UNL A   1      36.669  30.181  28.866  1.00  0.00    -0.014 A 
BRANCH  12  13
ATOM     13  C   UNL A   1      37.900  29.865  29.644  1.00  0.00     0.031 A 
ATOM     14  C   UNL A   1      38.141  30.428  31.019  1.00  0.00     0.074 A 
ATOM     15  C   UNL A   1      38.815  29.043  29.088  1.00  0.00     0.049 A 
ATOM     16  N   UNL A   1      39.148  30.212  31.829  1.00  0.00    -0.248 NA
ATOM     17  C   UNL A   1      37.136  31.359  31.555  1.00  0.00     0.031 C 
ATOM     18  C   UNL A   1      38.728  28.477  27.739  1.00  0.00     0.029 A 
ATOM     19  N   UNL A   1      39.992  28.535  29.580  1.00  0.00    -0.354 N 
ATOM     20  C   UNL A   1      38.919  30.997  32.952  1.00  0.00     0.074 A 
ATOM     21  C   UNL A   1      37.678  31.708  32.716  1.00  0.00     0.031 C 
ATOM     22  C   UNL A   1      39.781  27.677  27.523  1.00  0.00     0.029 A 
ATOM     23  C   UNL A   1      40.654  27.720  28.689  1.00  0.00     0.049 A 
ATOM     24  H   UNL A   1      40.330  28.735  30.482  1.00  0.00     0.167 HD
ATOM     25  C   UNL A   1      39.661  31.105  34.082  1.00  0.00     0.034 A 
ATOM     26  C   UNL A   1      41.841  27.092  28.784  1.00  0.00     0.034 A 
ATOM     27  C   UNL A   1      40.882  30.376  34.323  1.00  0.00     0.049 A 
ATOM     28  C   UNL A   1      42.631  27.221  30.054  1.00  0.00     0.074 A 
ATOM     29  C   UNL A   1      41.671  30.377  35.461  1.00  0.00     0.029 A 
ATOM     30  N   UNL A   1      41.497  29.530  33.415  1.00  0.00    -0.354 N 
ATOM     31  N   UNL A   1      42.325  27.863  31.154  1.00  0.00    -0.248 NA
ATOM     32  C   UNL A   1      43.918  26.514  30.107  1.00  0.00     0.031 C 
ATOM     33  C   UNL A   1      42.777  29.551  35.230  1.00  0.00     0.029 A 
ATOM     34  C   UNL A   1      42.661  29.012  33.961  1.00  0.00     0.049 A 
ATOM     35  H   UNL A   1      41.157  29.326  32.513  1.00  0.00     0.167 HD
ATOM     36  C   UNL A   1      43.369  27.621  32.037  1.00  0.00     0.074 A 
ATOM     37  C   UNL A   1      44.296  26.740  31.356  1.00  0.00     0.031 C 
ATOM     38  C   UNL A   1      43.555  28.101  33.292  1.00  0.00     0.034 A 
BRANCH  25  39
ATOM     39  C   UNL A   1      39.164  32.016  35.176  1.00  0.00     0.023 A 
ATOM     40  C   UNL A   1      38.207  31.538  36.096  1.00  0.00     0.012 A 
ATOM     41  C   UNL A   1      39.712  33.302  35.356  1.00  0.00     0.148 A 
ATOM     42  C   UNL A   1      37.788  32.334  37.163  1.00  0.00     0.002 A 
ATOM     43  C   UNL A   1      39.319  34.073  36.446  1.00  0.00     0.091 A 
ATOM     44  F   UNL A   1      40.609  33.744  34.465  1.00  0.00    -0.205 F 
ATOM     45  C   UNL A   1      38.351  33.594  37.343  1.00  0.00     0.022 A 
BRANCH  43  46
ATOM     46  S   UNL A   1      40.041  35.677  36.816  1.00  0.00     0.127 S 
ATOM     47  O   UNL A   1      39.653  36.452  35.637  1.00  0.00    -0.237 OA
ATOM     48  O   UNL A   1      39.343  36.050  38.047  1.00  0.00    -0.237 OA
ATOM     49  O   UNL A   1      41.470  35.451  36.968  1.00  0.00    -0.744 OA
ENDBRANCH  43  46
ENDBRANCH  25  39
BRANCH  26  50
ATOM     50  C   UNL A   1      42.343  26.268  27.648  1.00  0.00     0.023 A 
ATOM     51  C   UNL A   1      43.241  26.830  26.721  1.00  0.00     0.012 A 
ATOM     52  C   UNL A   1      41.948  24.925  27.493  1.00  0.00     0.148 A 
ATOM     53  C   UNL A   1      43.707  26.081  25.640  1.00  0.00     0.002 A 
ATOM     54  C   UNL A   1      42.466  24.166  26.452  1.00  0.00     0.091 A 
ATOM     55  F   UNL A   1      41.078  24.412  28.376  1.00  0.00    -0.205 F 
ATOM     56  C   UNL A   1      43.329  24.747  25.512  1.00  0.00     0.022 A 
BRANCH  54  57
ATOM     57  S   UNL A   1      42.147  22.405  26.305  1.00  0.00     0.127 S 
ATOM     58  O   UNL A   1      42.653  21.902  27.579  1.00  0.00    -0.237 OA
ATOM     59  O   UNL A   1      40.690  22.371  26.164  1.00  0.00    -0.237 OA
ATOM     60  O   UNL A   1      42.871  21.977  25.116  1.00  0.00    -0.744 OA
ENDBRANCH  54  57
ENDBRANCH  26  50
BRANCH  38  61
ATOM     61  C   UNL A   1      44.796  27.659  34.022  1.00  0.00     0.023 A 
ATOM     62  C   UNL A   1      45.964  28.445  33.958  1.00  0.00     0.012 A 
ATOM     63  C   UNL A   1      44.795  26.486  34.802  1.00  0.00     0.148 A 
ATOM     64  C   UNL A   1      47.123  28.048  34.623  1.00  0.00     0.002 A 
ATOM     65  C   UNL A   1      45.938  26.124  35.502  1.00  0.00     0.091 A 
ATOM     66  F   UNL A   1      43.680  25.740  34.834  1.00  0.00    -0.205 F 
ATOM     67  C   UNL A   1      47.107  26.895  35.402  1.00  0.00     0.022 A 
BRANCH  65  68
ATOM     68  S   UNL A   1      45.982  24.706  36.605  1.00  0.00     0.127 S 
ATOM     69  O   UNL A   1      47.350  24.770  37.117  1.00  0.00    -0.237 OA
ATOM     70  O   UNL A   1      44.948  25.042  37.583  1.00  0.00    -0.237 OA
ATOM     71  O   UNL A   1      45.679  23.546  35.778  1.00  0.00    -0.744 OA
ENDBRANCH  65  68
ENDBRANCH  38  61
ENDBRANCH  12  13
ENDBRANCH   5   7
ENDBRANCH   2   3
ENDBRANCH   1   2
BRANCH   1  72
ATOM     72  C   UNL A   1      33.414  26.953  25.866  1.00  0.00     0.117 C 
BRANCH  72  73
ATOM     73  N   UNL A   1      32.726  25.679  26.056  1.00  0.00    -0.356 N 
ATOM     74  C   UNL A   1      33.185  24.397  25.954  1.00  0.00     0.224 C 
ATOM     75  H   UNL A   1      31.774  25.757  26.297  1.00  0.00     0.163 HD
ATOM     76  O   UNL A   1      32.503  23.489  26.428  1.00  0.00    -0.275 OA
BRANCH  74  77
ATOM     77  C   UNL A   1      34.537  24.122  25.343  1.00  0.00     0.098 C 
ATOM     78  C   UNL A   1      34.624  23.596  23.891  1.00  0.00     0.098 C 
ATOM     79  C   UNL A   1      35.437  23.095  26.113  1.00  0.00     0.025 C 
ATOM     80  C   UNL A   1      35.737  22.511  23.972  1.00  0.00     0.025 C 
ATOM     81  C   UNL A   1      36.859  23.484  25.751  1.00  0.00    -0.027 C 
ATOM     82  C   UNL A   1      35.423  21.801  25.282  1.00  0.00     0.017 C 
ATOM     83  C   UNL A   1      37.028  23.165  24.455  1.00  0.00    -0.027 C 
BRANCH  78  84
ATOM     84  C   UNL A   1      33.386  23.202  23.075  1.00  0.00     0.224 C 
ATOM     85  O   UNL A   1      32.904  22.078  23.274  1.00  0.00    -0.275 OA
ATOM     86  N   UNL A   1      32.756  23.945  22.127  1.00  0.00    -0.352 N 
ATOM     87  H   UNL A   1      32.314  23.425  21.417  1.00  0.00     0.163 HD
BRANCH  86  88
ATOM     88  C   UNL A   1      32.637  25.377  22.002  1.00  0.00     0.153 C 
BRANCH  88  89
ATOM     89  C   UNL A   1      31.459  26.067  22.619  1.00  0.00    -0.010 A 
ATOM     90  C   UNL A   1      30.474  25.482  23.406  1.00  0.00     0.009 A 
ATOM     91  C   UNL A   1      31.344  27.444  22.376  1.00  0.00     0.116 A 
ATOM     92  C   UNL A   1      29.421  26.271  23.876  1.00  0.00     0.020 A 
ATOM     93  N   UNL A   1      30.350  28.234  22.831  1.00  0.00    -0.264 NA
ATOM     94  C   UNL A   1      29.401  27.622  23.561  1.00  0.00     0.111 A 
ENDBRANCH  88  89
ENDBRANCH  86  88
ENDBRANCH  78  84
ENDBRANCH  74  77
ENDBRANCH  72  73
ENDBRANCH   1  72
TORSDOF 16
ENDMDL
MODEL 2
REMARK VINA RESULT:     -11.6      1.377      2.751
REMARK SMILES O=C(NCCCNC(=O)[C@@H]1[C@H](C(=O)NCc2cccnc2)[C@H]2C=C[C@@H]1C2)c1ccc(-c2c3nc(c(-c4cccc(S(=O)(=O)[O-])c4F)c4ccc([nH]4)c(-c4cccc(S(=O)(=O)[O-])c4F)c4nc(c(-c5cccc(S(=O)(=O)[O-])c5F)c5ccc2[nH]5)C=C4)C=C3)cc1
REMARK SMILES IDX 5 1 4 2 3 3 1 4 2 5 27 7 28 8 89 9 29 10 88 11 30 12 31 13
REMARK SMILES IDX 32 14 82 15 33 16 87 17 81 18 83 19 34 20 86 21 80 22 79 23
REMARK SMILES IDX 35 25 67 26 47 27 66 28 48 29 51 30 65 31 84 32 49 33 50 34
REMARK SMILES IDX 64 36 85 37 52 38 36 39 37 40 45 41 38 42 40 43 46 44 39 45
REMARK SMILES IDX 41 46 42 47 43 48 44 49 68 50 69 51 77 52 70 53 72 54 78 55
REMARK SMILES IDX 71 56 73 57 74 58 75 59 76 60 53 61 54 62 62 63 55 64 57 65
REMARK SMILES IDX 63 66 56 67 58 68 59 69 60 70 61 71 6 72 7 73 8 74 9 76
REMARK SMILES IDX 10 77 11 78 25 79 22 80 24 81 26 82 23 83 12 84 13 85 14 86
REMARK SMILES IDX 15 88 16 89 17 90 21 91 18 92 20 93 19 94
REMARK H PARENT 3 6 83 24 51 35 7 75 14 87
REMARK Flexibility Score: inf
ROOT
ATOM      1  C   UNL A   1      32.468  27.817  25.587  1.00  0.00     0.042 C 
ENDROOT
BRANCH   1   2
ATOM      2  C   UNL A   1      33.248  29.016  25.066  1.00  0.00     0.118 C 
BRANCH   2   3
ATOM      3  N   UNL A   1      32.686  30.281  25.508  1.00  0.00    -0.352 N 
ATOM      4  O   UNL A   1      32.215  31.967  26.910  1.00  0.00    -0.269 OA
ATOM      5  C   UNL A   1      32.977  31.049  26.613  1.00  0.00     0.251 C 
ATOM      6  H   UNL A   1      31.984  30.648  24.923  1.00  0.00     0.163 HD
BRANCH   5   7
ATOM      7  C   UNL A   1      34.173  30.778  27.451  1.00  0.00     0.039 A 
ATOM      8  C   UNL A   1      34.403  29.519  28.005  1.00  0.00     0.014 A 
ATOM      9  C   UNL A   1      35.130  31.786  27.626  1.00  0.00     0.014 A 
ATOM     10  C   UNL A   1      35.494  29.310  28.846  1.00  0.00     0.010 A 
ATOM     11  C   UNL A   1      36.284  31.541  28.382  1.00  0.00     0.010 A 
ATOM     12  C   UNL A   1      36.469  30.306  29.019  1.00  0.00    -0.014 A 
BRANCH  12  13
ATOM     13  C   UNL A   1      37.716  29.977  29.765  1.00  0.00     0.031 A 
ATOM     14  C   UNL A   1      37.987  30.515  31.145  1.00  0.00     0.074 A 
ATOM     15  C   UNL A   1      38.620  29.165  29.176  1.00  0.00     0.049 A 
ATOM     16  N   UNL A   1      39.011  30.285  31.929  1.00  0.00    -0.248 NA
ATOM     17  C   UNL A   1      36.992  31.435  31.719  1.00  0.00     0.031 C 
ATOM     18  C   UNL A   1      38.505  28.624  27.818  1.00  0.00     0.029 A 
ATOM     19  N   UNL A   1      39.808  28.650  29.633  1.00  0.00    -0.354 N 
ATOM     20  C   UNL A   1      38.805  31.050  33.071  1.00  0.00     0.074 A 
ATOM     21  C   UNL A   1      37.559  31.764  32.874  1.00  0.00     0.031 C 
ATOM     22  C   UNL A   1      39.553  27.829  27.566  1.00  0.00     0.029 A 
ATOM     23  C   UNL A   1      40.451  27.852  28.714  1.00  0.00     0.049 A 
ATOM     24  H   UNL A   1      40.165  28.834  30.531  1.00  0.00     0.167 HD
ATOM     25  C   UNL A   1      39.571  31.138  34.186  1.00  0.00     0.034 A 
ATOM     26  C   UNL A   1      41.640  27.223  28.772  1.00  0.00     0.034 A 
ATOM     27  C   UNL A   1      40.797  30.406  34.388  1.00  0.00     0.049 A 
ATOM     28  C   UNL A   1      42.456  27.329  30.027  1.00  0.00     0.074 A 
ATOM     29  C   UNL A   1      41.610  30.387  35.509  1.00  0.00     0.029 A 
ATOM     30  N   UNL A   1      41.393  29.576  33.452  1.00  0.00    -0.354 N 
ATOM     31  N   UNL A   1      42.174  27.951  31.145  1.00  0.00    -0.248 NA
ATOM     32  C   UNL A   1      43.745  26.623  30.040  1.00  0.00     0.031 C 
ATOM     33  C   UNL A   1      42.711  29.566  35.240  1.00  0.00     0.029 A 
ATOM     34  C   UNL A   1      42.568  29.049  33.964  1.00  0.00     0.049 A 
ATOM     35  H   UNL A   1      41.034  29.388  32.554  1.00  0.00     0.167 HD
ATOM     36  C   UNL A   1      43.236  27.694  32.001  1.00  0.00     0.074 A 
ATOM     37  C   UNL A   1      44.149  26.826  31.285  1.00  0.00     0.031 C 
ATOM     38  C   UNL A   1      43.448  28.152  33.260  1.00  0.00     0.034 A 
BRANCH  25  39
ATOM     39  C   UNL A   1      39.096  32.028  35.307  1.00  0.00     0.023 A 
ATOM     40  C   UNL A   1      38.179  31.525  36.254  1.00  0.00     0.012 A 
ATOM     41  C   UNL A   1      39.630  33.321  35.484  1.00  0.00     0.148 A 
ATOM     42  C   UNL A   1      37.783  32.301  37.343  1.00  0.00     0.002 A 
ATOM     43  C   UNL A   1      39.262  34.073  36.595  1.00  0.00     0.091 A 
ATOM     44  F   UNL A   1      40.489  33.787  34.568  1.00  0.00    -0.205 F 
ATOM     45  C   UNL A   1      38.333  33.569  37.519  1.00  0.00     0.022 A 
BRANCH  43  46
ATOM     46  S   UNL A   1      39.970  35.685  36.959  1.00  0.00     0.127 S 
ATOM     47  O   UNL A   1      41.387  35.354  37.116  1.00  0.00    -0.237 OA
ATOM     48  O   UNL A   1      39.651  36.440  35.746  1.00  0.00    -0.237 OA
ATOM     49  O   UNL A   1      39.304  36.156  38.164  1.00  0.00    -0.744 OA
ENDBRANCH  43  46
ENDBRANCH  25  39
BRANCH  26  50
ATOM     50  C   UNL A   1      42.118  26.420  27.611  1.00  0.00     0.023 A 
ATOM     51  C   UNL A   1      42.954  27.016  26.647  1.00  0.00     0.012 A 
ATOM     52  C   UNL A   1      41.762  25.065  27.468  1.00  0.00     0.148 A 
ATOM     53  C   UNL A   1      43.395  26.286  25.542  1.00  0.00     0.002 A 
ATOM     54  C   UNL A   1      42.259  24.327  26.401  1.00  0.00     0.091 A 
ATOM     55  F   UNL A   1      40.952  24.519  28.386  1.00  0.00    -0.205 F 
ATOM     56  C   UNL A   1      43.059  24.940  25.426  1.00  0.00     0.022 A 
BRANCH  54  57
ATOM     57  S   UNL A   1      41.994  22.557  26.261  1.00  0.00     0.127 S 
ATOM     58  O   UNL A   1      42.685  22.249  25.012  1.00  0.00    -0.237 OA
ATOM     59  O   UNL A   1      42.650  22.054  27.469  1.00  0.00    -0.237 OA
ATOM     60  O   UNL A   1      40.548  22.380  26.251  1.00  0.00    -0.744 OA
ENDBRANCH  54  57
ENDBRANCH  26  50
BRANCH  38  61
ATOM     61  C   UNL A   1      44.705  27.698  33.956  1.00  0.00     0.023 A 
ATOM     62  C   UNL A   1      45.877  28.474  33.862  1.00  0.00     0.012 A 
ATOM     63  C   UNL A   1      44.715  26.523  34.733  1.00  0.00     0.148 A 
ATOM     64  C   UNL A   1      47.051  28.066  34.494  1.00  0.00     0.002 A 
ATOM     65  C   UNL A   1      45.874  26.150  35.402  1.00  0.00     0.091 A 
ATOM     66  F   UNL A   1      43.595  25.786  34.793  1.00  0.00    -0.205 F 
ATOM     67  C   UNL A   1      47.046  26.911  35.272  1.00  0.00     0.022 A 
BRANCH  65  68
ATOM     68  S   UNL A   1      45.935  24.729  36.500  1.00  0.00     0.127 S 
ATOM     69  O   UNL A   1      47.315  24.278  36.325  1.00  0.00    -0.237 OA
ATOM     70  O   UNL A   1      45.650  25.331  37.802  1.00  0.00    -0.237 OA
ATOM     71  O   UNL A   1      44.912  23.809  36.022  1.00  0.00    -0.744 OA
ENDBRANCH  65  68
ENDBRANCH  38  61
ENDBRANCH  12  13
ENDBRANCH   5   7
ENDBRANCH   2   3
ENDBRANCH   1   2
BRANCH   1  72
ATOM     72  C   UNL A   1      32.691  26.517  24.816  1.00  0.00     0.117 C 
BRANCH  72  73
ATOM     73  N   UNL A   1      32.291  25.314  25.540  1.00  0.00    -0.356 N 
ATOM     74  C   UNL A   1      33.016  24.219  25.914  1.00  0.00     0.224 C 
ATOM     75  H   UNL A   1      31.342  25.287  25.801  1.00  0.00     0.163 HD
ATOM     76  O   UNL A   1      32.540  23.458  26.755  1.00  0.00    -0.275 OA
BRANCH  74  77
ATOM     77  C   UNL A   1      34.403  24.004  25.361  1.00  0.00     0.098 C 
ATOM     78  C   UNL A   1      34.580  23.269  24.011  1.00  0.00     0.098 C 
ATOM     79  C   UNL A   1      35.394  23.218  26.288  1.00  0.00     0.025 C 
ATOM     80  C   UNL A   1      35.803  22.341  24.269  1.00  0.00     0.025 C 
ATOM     81  C   UNL A   1      36.771  23.701  25.875  1.00  0.00    -0.027 C 
ATOM     82  C   UNL A   1      35.539  21.816  25.674  1.00  0.00     0.017 C 
ATOM     83  C   UNL A   1      37.003  23.203  24.647  1.00  0.00    -0.027 C 
BRANCH  78  84
ATOM     84  C   UNL A   1      33.410  22.615  23.263  1.00  0.00     0.224 C 
ATOM     85  O   UNL A   1      33.180  23.003  22.109  1.00  0.00    -0.275 OA
ATOM     86  N   UNL A   1      32.567  21.658  23.733  1.00  0.00    -0.352 N 
ATOM     87  H   UNL A   1      31.658  21.681  23.353  1.00  0.00     0.163 HD
BRANCH  86  88
ATOM     88  C   UNL A   1      32.799  20.615  24.702  1.00  0.00     0.153 C 
BRANCH  88  89
ATOM     89  C   UNL A   1      33.293  19.281  24.233  1.00  0.00    -0.010 A 
ATOM     90  C   UNL A   1      34.457  18.638  24.639  1.00  0.00     0.009 A 
ATOM     91  C   UNL A   1      32.495  18.616  23.291  1.00  0.00     0.116 A 
ATOM     92  C   UNL A   1      34.785  17.404  24.072  1.00  0.00     0.020 A 
ATOM     93  N   UNL A   1      32.778  17.417  22.740  1.00  0.00    -0.264 NA
ATOM     94  C   UNL A   1      33.928  16.844  23.135  1.00  0.00     0.111 A 
ENDBRANCH  88  89
ENDBRANCH  86  88
ENDBRANCH  78  84
ENDBRANCH  74  77
ENDBRANCH  72  73
ENDBRANCH   1  72
TORSDOF 16
ENDMDL
MODEL 3
REMARK VINA RESULT:     -11.6      5.130      9.805
REMARK SMILES O=C(NCCCNC(=O)[C@@H]1[C@H](C(=O)NCc2cccnc2)[C@H]2C=C[C@@H]1C2)c1ccc(-c2c3nc(c(-c4cccc(S(=O)(=O)[O-])c4F)c4ccc([nH]4)c(-c4cccc(S(=O)(=O)[O-])c4F)c4nc(c(-c5cccc(S(=O)(=O)[O-])c5F)c5ccc2[nH]5)C=C4)C=C3)cc1
REMARK SMILES IDX 5 1 4 2 3 3 1 4 2 5 27 7 28 8 89 9 29 10 88 11 30 12 31 13
REMARK SMILES IDX 32 14 82 15 33 16 87 17 81 18 83 19 34 20 86 21 80 22 79 23
REMARK SMILES IDX 35 25 67 26 47 27 66 28 48 29 51 30 65 31 84 32 49 33 50 34
REMARK SMILES IDX 64 36 85 37 52 38 36 39 37 40 45 41 38 42 40 43 46 44 39 45
REMARK SMILES IDX 41 46 42 47 43 48 44 49 68 50 69 51 77 52 70 53 72 54 78 55
REMARK SMILES IDX 71 56 73 57 74 58 75 59 76 60 53 61 54 62 62 63 55 64 57 65
REMARK SMILES IDX 63 66 56 67 58 68 59 69 60 70 61 71 6 72 7 73 8 74 9 76
REMARK SMILES IDX 10 77 11 78 25 79 22 80 24 81 26 82 23 83 12 84 13 85 14 86
REMARK SMILES IDX 15 88 16 89 17 90 21 91 18 92 20 93 19 94
REMARK H PARENT 3 6 83 24 51 35 7 75 14 87
REMARK Flexibility Score: inf
ROOT
ATOM      1  C   UNL A   1      35.401  23.023  25.076  1.00  0.00     0.042 C 
ENDROOT
BRANCH   1   2
ATOM      2  C   UNL A   1      35.873  22.269  26.312  1.00  0.00     0.118 C 
BRANCH   2   3
ATOM      3  N   UNL A   1      36.819  21.213  25.993  1.00  0.00    -0.352 N 
ATOM      4  O   UNL A   1      38.748  20.288  25.321  1.00  0.00    -0.269 OA
ATOM      5  C   UNL A   1      38.183  21.262  25.812  1.00  0.00     0.251 C 
ATOM      6  H   UNL A   1      36.420  20.319  25.888  1.00  0.00     0.163 HD
BRANCH   5   7
ATOM      7  C   UNL A   1      38.970  22.466  26.182  1.00  0.00     0.039 A 
ATOM      8  C   UNL A   1      38.638  23.730  25.695  1.00  0.00     0.014 A 
ATOM      9  C   UNL A   1      40.020  22.343  27.101  1.00  0.00     0.014 A 
ATOM     10  C   UNL A   1      39.435  24.832  25.999  1.00  0.00     0.010 A 
ATOM     11  C   UNL A   1      40.753  23.472  27.492  1.00  0.00     0.010 A 
ATOM     12  C   UNL A   1      40.482  24.727  26.929  1.00  0.00    -0.014 A 
BRANCH  12  13
ATOM     13  C   UNL A   1      41.182  25.965  27.375  1.00  0.00     0.031 A 
ATOM     14  C   UNL A   1      42.610  26.255  26.995  1.00  0.00     0.074 A 
ATOM     15  C   UNL A   1      40.501  26.846  28.138  1.00  0.00     0.049 A 
ATOM     16  N   UNL A   1      43.336  27.307  27.279  1.00  0.00    -0.248 NA
ATOM     17  C   UNL A   1      43.320  25.237  26.205  1.00  0.00     0.031 C 
ATOM     18  C   UNL A   1      39.132  26.654  28.625  1.00  0.00     0.029 A 
ATOM     19  N   UNL A   1      40.857  28.074  28.638  1.00  0.00    -0.354 N 
ATOM     20  C   UNL A   1      44.593  27.070  26.735  1.00  0.00     0.074 A 
ATOM     21  C   UNL A   1      44.536  25.764  26.110  1.00  0.00     0.031 C 
ATOM     22  C   UNL A   1      38.752  27.735  29.319  1.00  0.00     0.029 A 
ATOM     23  C   UNL A   1      39.867  28.671  29.386  1.00  0.00     0.049 A 
ATOM     24  H   UNL A   1      41.735  28.488  28.477  1.00  0.00     0.167 HD
ATOM     25  C   UNL A   1      45.687  27.870  26.739  1.00  0.00     0.034 A 
ATOM     26  C   UNL A   1      39.858  29.830  30.071  1.00  0.00     0.034 A 
ATOM     27  C   UNL A   1      45.732  29.180  27.340  1.00  0.00     0.049 A 
ATOM     28  C   UNL A   1      41.082  30.699  30.042  1.00  0.00     0.074 A 
ATOM     29  C   UNL A   1      46.779  30.088  27.343  1.00  0.00     0.029 A 
ATOM     30  N   UNL A   1      44.698  29.767  28.051  1.00  0.00    -0.354 N 
ATOM     31  N   UNL A   1      42.212  30.513  29.407  1.00  0.00    -0.248 NA
ATOM     32  C   UNL A   1      41.019  31.955  30.804  1.00  0.00     0.031 C 
ATOM     33  C   UNL A   1      46.385  31.211  28.079  1.00  0.00     0.029 A 
ATOM     34  C   UNL A   1      45.083  31.017  28.508  1.00  0.00     0.049 A 
ATOM     35  H   UNL A   1      43.817  29.355  28.209  1.00  0.00     0.167 HD
ATOM     36  C   UNL A   1      42.986  31.634  29.672  1.00  0.00     0.074 A 
ATOM     37  C   UNL A   1      42.180  32.513  30.494  1.00  0.00     0.031 C 
ATOM     38  C   UNL A   1      44.258  31.904  29.288  1.00  0.00     0.034 A 
BRANCH  25  39
ATOM     39  C   UNL A   1      46.930  27.380  26.039  1.00  0.00     0.023 A 
ATOM     40  C   UNL A   1      47.779  26.463  26.692  1.00  0.00     0.012 A 
ATOM     41  C   UNL A   1      47.204  27.743  24.705  1.00  0.00     0.148 A 
ATOM     42  C   UNL A   1      48.893  25.934  26.039  1.00  0.00     0.002 A 
ATOM     43  C   UNL A   1      48.292  27.180  24.046  1.00  0.00     0.091 A 
ATOM     44  F   UNL A   1      46.393  28.624  24.104  1.00  0.00    -0.205 F 
ATOM     45  C   UNL A   1      49.142  26.284  24.714  1.00  0.00     0.022 A 
BRANCH  43  46
ATOM     46  S   UNL A   1      48.656  27.500  22.315  1.00  0.00     0.127 S 
ATOM     47  O   UNL A   1      47.498  28.301  21.915  1.00  0.00    -0.237 OA
ATOM     48  O   UNL A   1      49.912  28.246  22.399  1.00  0.00    -0.237 OA
ATOM     49  O   UNL A   1      48.761  26.197  21.677  1.00  0.00    -0.744 OA
ENDBRANCH  43  46
ENDBRANCH  25  39
BRANCH  26  50
ATOM     50  C   UNL A   1      38.640  30.244  30.823  1.00  0.00     0.023 A 
ATOM     51  C   UNL A   1      38.504  29.891  32.179  1.00  0.00     0.012 A 
ATOM     52  C   UNL A   1      37.624  30.999  30.205  1.00  0.00     0.148 A 
ATOM     53  C   UNL A   1      37.362  30.252  32.895  1.00  0.00     0.002 A 
ATOM     54  C   UNL A   1      36.522  31.410  30.942  1.00  0.00     0.091 A 
ATOM     55  F   UNL A   1      37.763  31.310  28.908  1.00  0.00    -0.205 F 
ATOM     56  C   UNL A   1      36.377  31.021  32.281  1.00  0.00     0.022 A 
BRANCH  54  57
ATOM     57  S   UNL A   1      35.286  32.525  30.266  1.00  0.00     0.127 S 
ATOM     58  O   UNL A   1      34.779  31.757  29.132  1.00  0.00    -0.237 OA
ATOM     59  O   UNL A   1      34.353  32.659  31.386  1.00  0.00    -0.237 OA
ATOM     60  O   UNL A   1      36.004  33.749  29.939  1.00  0.00    -0.744 OA
ENDBRANCH  54  57
ENDBRANCH  26  50
BRANCH  38  61
ATOM     61  C   UNL A   1      44.848  33.218  29.729  1.00  0.00     0.023 A 
ATOM     62  C   UNL A   1      45.577  33.290  30.933  1.00  0.00     0.012 A 
ATOM     63  C   UNL A   1      44.712  34.372  28.934  1.00  0.00     0.148 A 
ATOM     64  C   UNL A   1      46.124  34.500  31.360  1.00  0.00     0.002 A 
ATOM     65  C   UNL A   1      45.303  35.562  29.340  1.00  0.00     0.091 A 
ATOM     66  F   UNL A   1      43.997  34.289  27.802  1.00  0.00    -0.205 F 
ATOM     67  C   UNL A   1      45.996  35.631  30.559  1.00  0.00     0.022 A 
BRANCH  65  68
ATOM     68  S   UNL A   1      45.270  37.047  28.329  1.00  0.00     0.127 S 
ATOM     69  O   UNL A   1      45.898  36.581  27.094  1.00  0.00    -0.237 OA
ATOM     70  O   UNL A   1      43.836  37.317  28.221  1.00  0.00    -0.237 OA
ATOM     71  O   UNL A   1      46.020  38.053  29.070  1.00  0.00    -0.744 OA
ENDBRANCH  65  68
ENDBRANCH  38  61
ENDBRANCH  12  13
ENDBRANCH   5   7
ENDBRANCH   2   3
ENDBRANCH   1   2
BRANCH   1  72
ATOM     72  C   UNL A   1      34.929  24.453  25.334  1.00  0.00     0.117 C 
BRANCH  72  73
ATOM     73  N   UNL A   1      34.248  25.073  24.201  1.00  0.00    -0.356 N 
ATOM     74  C   UNL A   1      33.612  26.277  24.097  1.00  0.00     0.224 C 
ATOM     75  H   UNL A   1      34.248  24.536  23.376  1.00  0.00     0.163 HD
ATOM     76  O   UNL A   1      33.355  26.712  22.975  1.00  0.00    -0.275 OA
BRANCH  74  77
ATOM     77  C   UNL A   1      33.307  27.083  25.336  1.00  0.00     0.098 C 
ATOM     78  C   UNL A   1      31.861  27.123  25.884  1.00  0.00     0.098 C 
ATOM     79  C   UNL A   1      33.667  28.607  25.265  1.00  0.00     0.025 C 
ATOM     80  C   UNL A   1      31.672  28.616  26.282  1.00  0.00     0.025 C 
ATOM     81  C   UNL A   1      33.916  29.011  26.706  1.00  0.00    -0.027 C 
ATOM     82  C   UNL A   1      32.333  29.359  25.129  1.00  0.00     0.017 C 
ATOM     83  C   UNL A   1      32.722  28.982  27.326  1.00  0.00    -0.027 C 
BRANCH  78  84
ATOM     84  C   UNL A   1      30.675  26.490  25.142  1.00  0.00     0.224 C 
ATOM     85  O   UNL A   1      30.165  27.140  24.220  1.00  0.00    -0.275 OA
ATOM     86  N   UNL A   1      30.095  25.288  25.397  1.00  0.00    -0.352 N 
ATOM     87  H   UNL A   1      29.136  25.234  25.179  1.00  0.00     0.163 HD
BRANCH  86  88
ATOM     88  C   UNL A   1      30.668  24.079  25.937  1.00  0.00     0.153 C 
BRANCH  88  89
ATOM     89  C   UNL A   1      31.297  23.090  25.004  1.00  0.00    -0.010 A 
ATOM     90  C   UNL A   1      31.433  23.220  23.626  1.00  0.00     0.009 A 
ATOM     91  C   UNL A   1      31.799  21.916  25.584  1.00  0.00     0.116 A 
ATOM     92  C   UNL A   1      32.019  22.180  22.900  1.00  0.00     0.020 A 
ATOM     93  N   UNL A   1      32.385  20.904  24.910  1.00  0.00    -0.264 NA
ATOM     94  C   UNL A   1      32.468  21.056  23.577  1.00  0.00     0.111 A 
ENDBRANCH  88  89
ENDBRANCH  86  88
ENDBRANCH  78  84
ENDBRANCH  74  77
ENDBRANCH  72  73
ENDBRANCH   1  72
TORSDOF 16
ENDMDL
