MODEL 1
REMARK VINA RESULT:     -14.1      0.000      0.000
REMARK SMILES Cc1ccccc1C(=O)Nc1ccc(N2CCCCC2)cc1C(=O)NCCCNC(=O)c1ccc(-c2c3nc(c(-c4cccc(S(=O)(=O)[O-])c4F)c4ccc([nH]4)c(-c4cccc(S(=O)(=O)[O-])c4F)c4nc(c(-c5cccc(S(=O)(=O)[O-])c5F)c5ccc2[nH]5)C=C4)C=C3)cc1
REMARK SMILES IDX 27 1 26 2 25 3 23 4 24 5 22 7 11 8 12 9 13 10 21 11 14 12
REMARK SMILES IDX 10 13 8 14 9 15 7 17 1 18 2 19 3 20 4 21 6 22 5 23 15 24
REMARK SMILES IDX 16 25 20 26 17 27 19 28 18 29 28 30 29 31 30 32 31 34 32 35
REMARK SMILES IDX 33 36 94 37 34 38 93 39 35 40 36 41 37 42 87 43 38 44 92 45
REMARK SMILES IDX 86 46 88 47 39 48 91 49 85 50 84 51 40 53 72 54 52 55 71 56
REMARK SMILES IDX 53 57 56 58 70 59 89 60 54 61 55 62 69 64 90 65 57 66 41 67
REMARK SMILES IDX 42 68 50 69 43 70 45 71 51 72 44 73 46 74 47 75 48 76 49 77
REMARK SMILES IDX 73 78 74 79 82 80 75 81 77 82 83 83 76 84 78 85 79 86 80 87
REMARK SMILES IDX 81 88 58 89 59 90 67 91 60 92 62 93 68 94 61 95 63 96 64 97
REMARK SMILES IDX 65 98 66 99
REMARK H PARENT 25 6 10 16 29 33 88 52 56 63
REMARK Flexibility Score: inf
ROOT
ATOM      1  C   UNL A   1      32.471  31.179  27.264  1.00  0.00     0.042 C 
ENDROOT
BRANCH   1   2
ATOM      2  C   UNL A   1      31.763  29.880  26.968  1.00  0.00     0.118 C 
BRANCH   2   3
ATOM      3  N   UNL A   1      32.657  28.797  26.568  1.00  0.00    -0.352 N 
ATOM      4  C   UNL A   1      32.488  27.755  25.676  1.00  0.00     0.253 C 
ATOM      5  O   UNL A   1      33.418  26.981  25.472  1.00  0.00    -0.269 OA
ATOM      6  H   UNL A   1      33.535  28.811  27.013  1.00  0.00     0.163 HD
BRANCH   4   7
ATOM      7  C   UNL A   1      31.203  27.570  24.957  1.00  0.00     0.065 A 
ATOM      8  C   UNL A   1      30.328  26.504  25.204  1.00  0.00     0.054 A 
ATOM      9  C   UNL A   1      29.161  26.402  24.434  1.00  0.00     0.029 A 
ATOM     10  C   UNL A   1      28.765  27.456  23.614  1.00  0.00     0.028 A 
ATOM     11  C   UNL A   1      30.881  28.481  23.935  1.00  0.00     0.042 A 
ATOM     12  C   UNL A   1      29.592  28.560  23.416  1.00  0.00     0.038 A 
BRANCH   8  13
ATOM     13  N   UNL A   1      30.443  25.496  26.171  1.00  0.00    -0.321 N 
ATOM     14  C   UNL A   1      30.966  24.228  26.181  1.00  0.00     0.255 C 
ATOM     15  O   UNL A   1      30.764  23.562  27.203  1.00  0.00    -0.269 OA
ATOM     16  H   UNL A   1      30.064  25.759  27.040  1.00  0.00     0.170 HD
BRANCH  14  17
ATOM     17  C   UNL A   1      31.880  23.657  25.150  1.00  0.00     0.043 A 
ATOM     18  C   UNL A   1      34.064  23.696  26.532  1.00  0.00     0.045 C 
ATOM     19  C   UNL A   1      33.250  23.363  25.317  1.00  0.00    -0.038 A 
ATOM     20  C   UNL A   1      33.928  22.680  24.283  1.00  0.00     0.004 A 
ATOM     21  C   UNL A   1      33.262  22.236  23.142  1.00  0.00     0.000 A 
ATOM     22  C   UNL A   1      31.223  23.184  23.995  1.00  0.00     0.014 A 
ATOM     23  C   UNL A   1      31.903  22.477  23.003  1.00  0.00     0.001 A 
ENDBRANCH  14  17
ENDBRANCH   8  13
BRANCH  12  24
ATOM     24  N   UNL A   1      29.081  29.718  22.831  1.00  0.00    -0.372 N 
ATOM     25  C   UNL A   1      29.039  30.873  23.753  1.00  0.00     0.116 C 
ATOM     26  C   UNL A   1      29.439  30.076  21.455  1.00  0.00     0.116 C 
ATOM     27  C   UNL A   1      28.001  31.877  23.266  1.00  0.00     0.021 C 
ATOM     28  C   UNL A   1      28.398  31.055  20.914  1.00  0.00     0.021 C 
ATOM     29  C   UNL A   1      28.246  32.280  21.815  1.00  0.00     0.004 C 
ENDBRANCH  12  24
ENDBRANCH   4   7
ENDBRANCH   2   3
ENDBRANCH   1   2
BRANCH   1  30
ATOM     30  C   UNL A   1      33.977  31.047  27.192  1.00  0.00     0.118 C 
BRANCH  30  31
ATOM     31  N   UNL A   1      34.633  31.863  28.219  1.00  0.00    -0.352 N 
ATOM     32  C   UNL A   1      35.698  31.557  29.056  1.00  0.00     0.251 C 
ATOM     33  H   UNL A   1      34.260  32.767  28.334  1.00  0.00     0.163 HD
ATOM     34  O   UNL A   1      36.118  32.385  29.843  1.00  0.00    -0.269 OA
BRANCH  32  35
ATOM     35  C   UNL A   1      36.361  30.249  28.869  1.00  0.00     0.039 A 
ATOM     36  C   UNL A   1      36.682  29.524  30.020  1.00  0.00     0.014 A 
ATOM     37  C   UNL A   1      36.984  29.991  27.655  1.00  0.00     0.014 A 
ATOM     38  C   UNL A   1      37.837  28.752  30.026  1.00  0.00     0.010 A 
ATOM     39  C   UNL A   1      38.195  29.334  27.695  1.00  0.00     0.010 A 
ATOM     40  C   UNL A   1      38.655  28.781  28.900  1.00  0.00    -0.014 A 
BRANCH  40  41
ATOM     41  C   UNL A   1      40.040  28.333  28.881  1.00  0.00     0.031 A 
ATOM     42  C   UNL A   1      40.333  26.896  28.733  1.00  0.00     0.074 A 
ATOM     43  C   UNL A   1      41.048  29.234  28.848  1.00  0.00     0.049 A 
ATOM     44  N   UNL A   1      41.489  26.366  28.941  1.00  0.00    -0.248 NA
ATOM     45  C   UNL A   1      39.301  25.924  28.399  1.00  0.00     0.031 C 
ATOM     46  C   UNL A   1      42.422  28.997  28.412  1.00  0.00     0.029 A 
ATOM     47  N   UNL A   1      41.095  30.500  29.443  1.00  0.00    -0.354 N 
ATOM     48  C   UNL A   1      41.430  25.060  28.507  1.00  0.00     0.074 A 
ATOM     49  C   UNL A   1      40.028  24.811  28.290  1.00  0.00     0.031 C 
ATOM     50  C   UNL A   1      43.221  29.904  28.989  1.00  0.00     0.029 A 
ATOM     51  C   UNL A   1      42.406  30.641  29.937  1.00  0.00     0.049 A 
ATOM     52  H   UNL A   1      40.362  31.154  29.504  1.00  0.00     0.167 HD
ATOM     53  C   UNL A   1      42.599  24.405  28.254  1.00  0.00     0.034 A 
ATOM     54  C   UNL A   1      42.719  30.853  31.247  1.00  0.00     0.034 A 
ATOM     55  C   UNL A   1      43.751  25.190  28.724  1.00  0.00     0.049 A 
ATOM     56  C   UNL A   1      43.710  29.852  31.810  1.00  0.00     0.074 A 
ATOM     57  C   UNL A   1      44.681  25.995  28.087  1.00  0.00     0.029 A 
ATOM     58  N   UNL A   1      43.920  25.398  30.087  1.00  0.00    -0.354 N 
ATOM     59  N   UNL A   1      44.083  28.761  31.202  1.00  0.00    -0.248 NA
ATOM     60  C   UNL A   1      44.335  29.987  33.121  1.00  0.00     0.031 C 
ATOM     61  C   UNL A   1      45.385  26.725  29.082  1.00  0.00     0.029 A 
ATOM     62  C   UNL A   1      44.901  26.346  30.323  1.00  0.00     0.049 A 
ATOM     63  H   UNL A   1      43.410  24.934  30.790  1.00  0.00     0.167 HD
ATOM     64  C   UNL A   1      44.871  28.000  32.033  1.00  0.00     0.074 A 
ATOM     65  C   UNL A   1      45.054  28.853  33.195  1.00  0.00     0.031 C 
ATOM     66  C   UNL A   1      45.242  26.723  31.692  1.00  0.00     0.034 A 
BRANCH  53  67
ATOM     67  C   UNL A   1      42.764  23.187  27.351  1.00  0.00     0.023 A 
ATOM     68  C   UNL A   1      42.051  22.020  27.714  1.00  0.00     0.012 A 
ATOM     69  C   UNL A   1      43.632  23.046  26.245  1.00  0.00     0.148 A 
ATOM     70  C   UNL A   1      42.255  20.783  27.091  1.00  0.00     0.002 A 
ATOM     71  C   UNL A   1      43.866  21.807  25.640  1.00  0.00     0.091 A 
ATOM     72  F   UNL A   1      44.225  24.111  25.714  1.00  0.00    -0.205 F 
ATOM     73  C   UNL A   1      43.185  20.668  26.070  1.00  0.00     0.022 A 
BRANCH  71  74
ATOM     74  S   UNL A   1      45.087  21.587  24.331  1.00  0.00     0.127 S 
ATOM     75  O   UNL A   1      45.048  20.139  24.118  1.00  0.00    -0.237 OA
ATOM     76  O   UNL A   1      44.523  22.377  23.238  1.00  0.00    -0.237 OA
ATOM     77  O   UNL A   1      46.355  22.078  24.857  1.00  0.00    -0.744 OA
ENDBRANCH  71  74
ENDBRANCH  53  67
BRANCH  54  78
ATOM     78  C   UNL A   1      41.649  31.535  32.027  1.00  0.00     0.023 A 
ATOM     79  C   UNL A   1      41.362  32.878  31.682  1.00  0.00     0.012 A 
ATOM     80  C   UNL A   1      40.705  30.807  32.770  1.00  0.00     0.148 A 
ATOM     81  C   UNL A   1      40.116  33.439  31.962  1.00  0.00     0.002 A 
ATOM     82  C   UNL A   1      39.461  31.375  33.045  1.00  0.00     0.091 A 
ATOM     83  F   UNL A   1      40.999  29.550  33.124  1.00  0.00    -0.205 F 
ATOM     84  C   UNL A   1      39.155  32.676  32.613  1.00  0.00     0.022 A 
BRANCH  82  85
ATOM     85  S   UNL A   1      38.138  30.430  33.814  1.00  0.00     0.127 S 
ATOM     86  O   UNL A   1      38.379  30.688  35.230  1.00  0.00    -0.237 OA
ATOM     87  O   UNL A   1      36.942  31.067  33.264  1.00  0.00    -0.237 OA
ATOM     88  O   UNL A   1      38.345  29.064  33.359  1.00  0.00    -0.744 OA
ENDBRANCH  82  85
ENDBRANCH  54  78
BRANCH  66  89
ATOM     89  C   UNL A   1      45.929  25.682  32.581  1.00  0.00     0.023 A 
ATOM     90  C   UNL A   1      47.321  25.633  32.779  1.00  0.00     0.012 A 
ATOM     91  C   UNL A   1      45.164  24.760  33.355  1.00  0.00     0.148 A 
ATOM     92  C   UNL A   1      47.925  24.727  33.664  1.00  0.00     0.002 A 
ATOM     93  C   UNL A   1      45.760  23.930  34.306  1.00  0.00     0.091 A 
ATOM     94  F   UNL A   1      43.844  24.647  33.159  1.00  0.00    -0.205 F 
ATOM     95  C   UNL A   1      47.145  23.895  34.449  1.00  0.00     0.022 A 
BRANCH  93  96
ATOM     96  S   UNL A   1      44.759  22.984  35.465  1.00  0.00     0.127 S 
ATOM     97  O   UNL A   1      45.748  22.582  36.463  1.00  0.00    -0.237 OA
ATOM     98  O   UNL A   1      43.793  23.979  35.935  1.00  0.00    -0.237 OA
ATOM     99  O   UNL A   1      44.171  21.916  34.670  1.00  0.00    -0.744 OA
ENDBRANCH  93  96
ENDBRANCH  66  89
ENDBRANCH  40  41
ENDBRANCH  32  35
ENDBRANCH  30  31
ENDBRANCH   1  30
TORSDOF 16
ENDMDL
MODEL 2
REMARK VINA RESULT:     -13.8      1.596      2.012
REMARK SMILES Cc1ccccc1C(=O)Nc1ccc(N2CCCCC2)cc1C(=O)NCCCNC(=O)c1ccc(-c2c3nc(c(-c4cccc(S(=O)(=O)[O-])c4F)c4ccc([nH]4)c(-c4cccc(S(=O)(=O)[O-])c4F)c4nc(c(-c5cccc(S(=O)(=O)[O-])c5F)c5ccc2[nH]5)C=C4)C=C3)cc1
REMARK SMILES IDX 27 1 26 2 25 3 23 4 24 5 22 7 11 8 12 9 13 10 21 11 14 12
REMARK SMILES IDX 10 13 8 14 9 15 7 17 1 18 2 19 3 20 4 21 6 22 5 23 15 24
REMARK SMILES IDX 16 25 20 26 17 27 19 28 18 29 28 30 29 31 30 32 31 34 32 35
REMARK SMILES IDX 33 36 94 37 34 38 93 39 35 40 36 41 37 42 87 43 38 44 92 45
REMARK SMILES IDX 86 46 88 47 39 48 91 49 85 50 84 51 40 53 72 54 52 55 71 56
REMARK SMILES IDX 53 57 56 58 70 59 89 60 54 61 55 62 69 64 90 65 57 66 41 67
REMARK SMILES IDX 42 68 50 69 43 70 45 71 51 72 44 73 46 74 47 75 48 76 49 77
REMARK SMILES IDX 73 78 74 79 82 80 75 81 77 82 83 83 76 84 78 85 79 86 80 87
REMARK SMILES IDX 81 88 58 89 59 90 67 91 60 92 62 93 68 94 61 95 63 96 64 97
REMARK SMILES IDX 65 98 66 99
REMARK H PARENT 25 6 10 16 29 33 88 52 56 63
REMARK Flexibility Score: inf
ROOT
ATOM      1  C   UNL A   1      32.467  30.681  27.250  1.00  0.00     0.042 C 
ENDROOT
BRANCH   1   2
ATOM      2  C   UNL A   1      32.222  29.192  27.287  1.00  0.00     0.118 C 
BRANCH   2   3
ATOM      3  N   UNL A   1      33.114  28.424  26.424  1.00  0.00    -0.352 N 
ATOM      4  C   UNL A   1      32.866  27.674  25.290  1.00  0.00     0.253 C 
ATOM      5  O   UNL A   1      33.804  27.146  24.701  1.00  0.00    -0.269 OA
ATOM      6  H   UNL A   1      34.060  28.445  26.697  1.00  0.00     0.163 HD
BRANCH   4   7
ATOM      7  C   UNL A   1      31.484  27.508  24.774  1.00  0.00     0.065 A 
ATOM      8  C   UNL A   1      30.613  26.503  25.213  1.00  0.00     0.054 A 
ATOM      9  C   UNL A   1      29.343  26.411  24.624  1.00  0.00     0.029 A 
ATOM     10  C   UNL A   1      28.875  27.433  23.801  1.00  0.00     0.028 A 
ATOM     11  C   UNL A   1      31.054  28.372  23.751  1.00  0.00     0.042 A 
ATOM     12  C   UNL A   1      29.707  28.481  23.415  1.00  0.00     0.038 A 
BRANCH   8  13
ATOM     13  N   UNL A   1      30.827  25.550  26.217  1.00  0.00    -0.321 N 
ATOM     14  C   UNL A   1      31.554  24.390  26.305  1.00  0.00     0.255 C 
ATOM     15  O   UNL A   1      31.394  23.721  27.333  1.00  0.00    -0.269 OA
ATOM     16  H   UNL A   1      30.346  25.762  27.051  1.00  0.00     0.170 HD
BRANCH  14  17
ATOM     17  C   UNL A   1      32.623  23.962  25.358  1.00  0.00     0.043 A 
ATOM     18  C   UNL A   1      31.131  23.505  23.298  1.00  0.00     0.045 C 
ATOM     19  C   UNL A   1      32.451  23.621  23.999  1.00  0.00    -0.038 A 
ATOM     20  C   UNL A   1      33.598  23.388  23.208  1.00  0.00     0.004 A 
ATOM     21  C   UNL A   1      34.883  23.551  23.719  1.00  0.00     0.000 A 
ATOM     22  C   UNL A   1      33.934  24.139  25.849  1.00  0.00     0.014 A 
ATOM     23  C   UNL A   1      35.053  23.941  25.040  1.00  0.00     0.001 A 
ENDBRANCH  14  17
ENDBRANCH   8  13
BRANCH  12  24
ATOM     24  N   UNL A   1      29.164  29.626  22.834  1.00  0.00    -0.372 N 
ATOM     25  C   UNL A   1      29.128  30.788  23.745  1.00  0.00     0.116 C 
ATOM     26  C   UNL A   1      29.480  29.976  21.446  1.00  0.00     0.116 C 
ATOM     27  C   UNL A   1      28.062  31.772  23.278  1.00  0.00     0.021 C 
ATOM     28  C   UNL A   1      28.410  30.933  20.923  1.00  0.00     0.021 C 
ATOM     29  C   UNL A   1      28.262  32.165  21.816  1.00  0.00     0.004 C 
ENDBRANCH  12  24
ENDBRANCH   4   7
ENDBRANCH   2   3
ENDBRANCH   1   2
BRANCH   1  30
ATOM     30  C   UNL A   1      33.931  31.023  27.077  1.00  0.00     0.118 C 
BRANCH  30  31
ATOM     31  N   UNL A   1      34.427  31.825  28.200  1.00  0.00    -0.352 N 
ATOM     32  C   UNL A   1      35.409  31.536  29.138  1.00  0.00     0.251 C 
ATOM     33  H   UNL A   1      33.997  32.704  28.306  1.00  0.00     0.163 HD
ATOM     34  O   UNL A   1      35.696  32.350  29.997  1.00  0.00    -0.269 OA
BRANCH  32  35
ATOM     35  C   UNL A   1      36.156  30.271  28.979  1.00  0.00     0.039 A 
ATOM     36  C   UNL A   1      36.497  29.579  30.144  1.00  0.00     0.014 A 
ATOM     37  C   UNL A   1      36.820  30.041  27.781  1.00  0.00     0.014 A 
ATOM     38  C   UNL A   1      37.698  28.880  30.182  1.00  0.00     0.010 A 
ATOM     39  C   UNL A   1      38.069  29.462  27.854  1.00  0.00     0.010 A 
ATOM     40  C   UNL A   1      38.536  28.950  29.074  1.00  0.00    -0.014 A 
BRANCH  40  41
ATOM     41  C   UNL A   1      39.947  28.590  29.088  1.00  0.00     0.031 A 
ATOM     42  C   UNL A   1      40.339  27.192  28.830  1.00  0.00     0.074 A 
ATOM     43  C   UNL A   1      40.895  29.549  29.186  1.00  0.00     0.049 A 
ATOM     44  N   UNL A   1      41.515  26.716  29.052  1.00  0.00    -0.248 NA
ATOM     45  C   UNL A   1      39.388  26.194  28.360  1.00  0.00     0.031 C 
ATOM     46  C   UNL A   1      42.300  29.435  28.803  1.00  0.00     0.029 A 
ATOM     47  N   UNL A   1      40.832  30.756  29.891  1.00  0.00    -0.354 N 
ATOM     48  C   UNL A   1      41.561  25.453  28.504  1.00  0.00     0.074 A 
ATOM     49  C   UNL A   1      40.190  25.141  28.193  1.00  0.00     0.031 C 
ATOM     50  C   UNL A   1      43.011  30.333  29.498  1.00  0.00     0.029 A 
ATOM     51  C   UNL A   1      42.107  30.932  30.462  1.00  0.00     0.049 A 
ATOM     52  H   UNL A   1      40.057  31.358  29.970  1.00  0.00     0.167 HD
ATOM     53  C   UNL A   1      42.780  24.896  28.256  1.00  0.00     0.034 A 
ATOM     54  C   UNL A   1      42.344  31.043  31.801  1.00  0.00     0.034 A 
ATOM     55  C   UNL A   1      43.856  25.703  28.852  1.00  0.00     0.049 A 
ATOM     56  C   UNL A   1      43.370  30.057  32.326  1.00  0.00     0.074 A 
ATOM     57  C   UNL A   1      44.761  26.617  28.337  1.00  0.00     0.029 A 
ATOM     58  N   UNL A   1      43.947  25.796  30.235  1.00  0.00    -0.354 N 
ATOM     59  N   UNL A   1      43.841  29.049  31.646  1.00  0.00    -0.248 NA
ATOM     60  C   UNL A   1      43.923  30.110  33.675  1.00  0.00     0.031 C 
ATOM     61  C   UNL A   1      45.369  27.294  29.427  1.00  0.00     0.029 A 
ATOM     62  C   UNL A   1      44.853  26.777  30.603  1.00  0.00     0.049 A 
ATOM     63  H   UNL A   1      43.436  25.241  30.868  1.00  0.00     0.167 HD
ATOM     64  C   UNL A   1      44.636  28.265  32.447  1.00  0.00     0.074 A 
ATOM     65  C   UNL A   1      44.710  29.019  33.687  1.00  0.00     0.031 C 
ATOM     66  C   UNL A   1      45.104  27.048  32.016  1.00  0.00     0.034 A 
BRANCH  53  67
ATOM     67  C   UNL A   1      43.066  23.776  27.261  1.00  0.00     0.023 A 
ATOM     68  C   UNL A   1      43.793  24.124  26.097  1.00  0.00     0.012 A 
ATOM     69  C   UNL A   1      42.600  22.442  27.306  1.00  0.00     0.148 A 
ATOM     70  C   UNL A   1      43.960  23.249  25.018  1.00  0.00     0.002 A 
ATOM     71  C   UNL A   1      42.735  21.573  26.218  1.00  0.00     0.091 A 
ATOM     72  F   UNL A   1      42.052  21.957  28.416  1.00  0.00    -0.205 F 
ATOM     73  C   UNL A   1      43.407  21.979  25.066  1.00  0.00     0.022 A 
BRANCH  71  74
ATOM     74  S   UNL A   1      42.009  19.922  26.206  1.00  0.00     0.127 S 
ATOM     75  O   UNL A   1      42.440  19.390  27.499  1.00  0.00    -0.237 OA
ATOM     76  O   UNL A   1      40.579  20.209  26.111  1.00  0.00    -0.237 OA
ATOM     77  O   UNL A   1      42.575  19.226  25.056  1.00  0.00    -0.744 OA
ENDBRANCH  71  74
ENDBRANCH  53  67
BRANCH  54  78
ATOM     78  C   UNL A   1      41.196  31.586  32.580  1.00  0.00     0.023 A 
ATOM     79  C   UNL A   1      40.152  30.684  32.895  1.00  0.00     0.012 A 
ATOM     80  C   UNL A   1      41.304  32.782  33.308  1.00  0.00     0.148 A 
ATOM     81  C   UNL A   1      39.314  30.909  33.987  1.00  0.00     0.002 A 
ATOM     82  C   UNL A   1      40.463  33.000  34.400  1.00  0.00     0.091 A 
ATOM     83  F   UNL A   1      42.272  33.648  32.980  1.00  0.00    -0.205 F 
ATOM     84  C   UNL A   1      39.493  32.051  34.759  1.00  0.00     0.022 A 
BRANCH  82  85
ATOM     85  S   UNL A   1      40.678  34.412  35.493  1.00  0.00     0.127 S 
ATOM     86  O   UNL A   1      42.027  34.186  36.001  1.00  0.00    -0.237 OA
ATOM     87  O   UNL A   1      40.545  35.540  34.570  1.00  0.00    -0.237 OA
ATOM     88  O   UNL A   1      39.594  34.304  36.457  1.00  0.00    -0.744 OA
ENDBRANCH  82  85
ENDBRANCH  54  78
BRANCH  66  89
ATOM     89  C   UNL A   1      45.815  25.975  32.846  1.00  0.00     0.023 A 
ATOM     90  C   UNL A   1      47.212  25.914  32.997  1.00  0.00     0.012 A 
ATOM     91  C   UNL A   1      45.071  25.029  33.611  1.00  0.00     0.148 A 
ATOM     92  C   UNL A   1      47.840  24.977  33.831  1.00  0.00     0.002 A 
ATOM     93  C   UNL A   1      45.693  24.164  34.513  1.00  0.00     0.091 A 
ATOM     94  F   UNL A   1      43.745  24.927  33.454  1.00  0.00    -0.205 F 
ATOM     95  C   UNL A   1      47.082  24.120  34.611  1.00  0.00     0.022 A 
BRANCH  93  96
ATOM     96  S   UNL A   1      44.726  23.182  35.670  1.00  0.00     0.127 S 
ATOM     97  O   UNL A   1      45.762  22.623  36.536  1.00  0.00    -0.237 OA
ATOM     98  O   UNL A   1      43.879  24.190  36.311  1.00  0.00    -0.237 OA
ATOM     99  O   UNL A   1      43.996  22.235  34.840  1.00  0.00    -0.744 OA
ENDBRANCH  93  96
ENDBRANCH  66  89
ENDBRANCH  40  41
ENDBRANCH  32  35
ENDBRANCH  30  31
ENDBRANCH   1  30
TORSDOF 16
ENDMDL
MODEL 3
REMARK VINA RESULT:     -13.8      4.160     10.034
REMARK SMILES Cc1ccccc1C(=O)Nc1ccc(N2CCCCC2)cc1C(=O)NCCCNC(=O)c1ccc(-c2c3nc(c(-c4cccc(S(=O)(=O)[O-])c4F)c4ccc([nH]4)c(-c4cccc(S(=O)(=O)[O-])c4F)c4nc(c(-c5cccc(S(=O)(=O)[O-])c5F)c5ccc2[nH]5)C=C4)C=C3)cc1
REMARK SMILES IDX 27 1 26 2 25 3 23 4 24 5 22 7 11 8 12 9 13 10 21 11 14 12
REMARK SMILES IDX 10 13 8 14 9 15 7 17 1 18 2 19 3 20 4 21 6 22 5 23 15 24
REMARK SMILES IDX 16 25 20 26 17 27 19 28 18 29 28 30 29 31 30 32 31 34 32 35
REMARK SMILES IDX 33 36 94 37 34 38 93 39 35 40 36 41 37 42 87 43 38 44 92 45
REMARK SMILES IDX 86 46 88 47 39 48 91 49 85 50 84 51 40 53 72 54 52 55 71 56
REMARK SMILES IDX 53 57 56 58 70 59 89 60 54 61 55 62 69 64 90 65 57 66 41 67
REMARK SMILES IDX 42 68 50 69 43 70 45 71 51 72 44 73 46 74 47 75 48 76 49 77
REMARK SMILES IDX 73 78 74 79 82 80 75 81 77 82 83 83 76 84 78 85 79 86 80 87
REMARK SMILES IDX 81 88 58 89 59 90 67 91 60 92 62 93 68 94 61 95 63 96 64 97
REMARK SMILES IDX 65 98 66 99
REMARK H PARENT 25 6 10 16 29 33 88 52 56 63
REMARK Flexibility Score: inf
ROOT
ATOM      1  C   UNL A   1      38.595  21.029  25.318  1.00  0.00     0.042 C 
ENDROOT
BRANCH   1   2
ATOM      2  C   UNL A   1      37.325  21.462  24.626  1.00  0.00     0.118 C 
BRANCH   2   3
ATOM      3  N   UNL A   1      36.610  22.532  25.315  1.00  0.00    -0.352 N 
ATOM      4  C   UNL A   1      35.265  22.845  25.369  1.00  0.00     0.253 C 
ATOM      5  O   UNL A   1      34.894  23.785  26.065  1.00  0.00    -0.269 OA
ATOM      6  H   UNL A   1      37.188  23.137  25.834  1.00  0.00     0.163 HD
BRANCH   4   7
ATOM      7  C   UNL A   1      34.269  22.055  24.605  1.00  0.00     0.065 A 
ATOM      8  C   UNL A   1      33.668  22.507  23.423  1.00  0.00     0.054 A 
ATOM      9  C   UNL A   1      32.705  21.695  22.806  1.00  0.00     0.029 A 
ATOM     10  C   UNL A   1      32.524  20.378  23.223  1.00  0.00     0.028 A 
ATOM     11  C   UNL A   1      33.867  20.814  25.131  1.00  0.00     0.042 A 
ATOM     12  C   UNL A   1      33.172  19.889  24.355  1.00  0.00     0.038 A 
BRANCH   8  13
ATOM     13  N   UNL A   1      33.922  23.694  22.723  1.00  0.00    -0.321 N 
ATOM     14  C   UNL A   1      33.294  24.909  22.630  1.00  0.00     0.255 C 
ATOM     15  O   UNL A   1      33.743  25.695  21.787  1.00  0.00    -0.269 OA
ATOM     16  H   UNL A   1      34.736  23.643  22.172  1.00  0.00     0.170 HD
BRANCH  14  17
ATOM     17  C   UNL A   1      32.241  25.416  23.558  1.00  0.00     0.043 A 
ATOM     18  C   UNL A   1      33.757  26.840  25.092  1.00  0.00     0.045 C 
ATOM     19  C   UNL A   1      32.431  26.322  24.624  1.00  0.00    -0.038 A 
ATOM     20  C   UNL A   1      31.295  26.816  25.303  1.00  0.00     0.004 A 
ATOM     21  C   UNL A   1      30.003  26.481  24.906  1.00  0.00     0.000 A 
ATOM     22  C   UNL A   1      30.924  25.104  23.162  1.00  0.00     0.014 A 
ATOM     23  C   UNL A   1      29.815  25.633  23.824  1.00  0.00     0.001 A 
ENDBRANCH  14  17
ENDBRANCH   8  13
BRANCH  12  24
ATOM     24  N   UNL A   1      33.208  18.517  24.601  1.00  0.00    -0.372 N 
ATOM     25  C   UNL A   1      34.461  17.873  24.157  1.00  0.00     0.116 C 
ATOM     26  C   UNL A   1      32.678  17.973  25.854  1.00  0.00     0.116 C 
ATOM     27  C   UNL A   1      34.219  16.385  23.932  1.00  0.00     0.021 C 
ATOM     28  C   UNL A   1      32.384  16.486  25.661  1.00  0.00     0.021 C 
ATOM     29  C   UNL A   1      33.611  15.722  25.165  1.00  0.00     0.004 C 
ENDBRANCH  12  24
ENDBRANCH   4   7
ENDBRANCH   2   3
ENDBRANCH   1   2
BRANCH   1  30
ATOM     30  C   UNL A   1      39.034  22.008  26.386  1.00  0.00     0.118 C 
BRANCH  30  31
ATOM     31  N   UNL A   1      40.481  22.241  26.333  1.00  0.00    -0.352 N 
ATOM     32  C   UNL A   1      41.198  23.424  26.441  1.00  0.00     0.251 C 
ATOM     33  H   UNL A   1      41.028  21.433  26.200  1.00  0.00     0.163 HD
ATOM     34  O   UNL A   1      42.415  23.412  26.389  1.00  0.00    -0.269 OA
BRANCH  32  35
ATOM     35  C   UNL A   1      40.441  24.659  26.734  1.00  0.00     0.039 A 
ATOM     36  C   UNL A   1      40.869  25.835  26.110  1.00  0.00     0.014 A 
ATOM     37  C   UNL A   1      39.645  24.693  27.872  1.00  0.00     0.014 A 
ATOM     38  C   UNL A   1      40.752  27.038  26.796  1.00  0.00     0.010 A 
ATOM     39  C   UNL A   1      39.645  25.859  28.607  1.00  0.00     0.010 A 
ATOM     40  C   UNL A   1      40.267  27.010  28.100  1.00  0.00    -0.014 A 
BRANCH  40  41
ATOM     41  C   UNL A   1      40.420  28.097  29.056  1.00  0.00     0.031 A 
ATOM     42  C   UNL A   1      39.537  29.274  28.959  1.00  0.00     0.074 A 
ATOM     43  C   UNL A   1      41.256  27.966  30.110  1.00  0.00     0.049 A 
ATOM     44  N   UNL A   1      39.734  30.383  29.585  1.00  0.00    -0.248 NA
ATOM     45  C   UNL A   1      38.381  29.306  28.073  1.00  0.00     0.031 C 
ATOM     46  C   UNL A   1      41.226  28.733  31.353  1.00  0.00     0.029 A 
ATOM     47  N   UNL A   1      42.470  27.272  30.169  1.00  0.00    -0.354 N 
ATOM     48  C   UNL A   1      38.611  31.161  29.414  1.00  0.00     0.074 A 
ATOM     49  C   UNL A   1      37.860  30.494  28.382  1.00  0.00     0.031 C 
ATOM     50  C   UNL A   1      42.447  28.713  31.902  1.00  0.00     0.029 A 
ATOM     51  C   UNL A   1      43.330  28.072  30.944  1.00  0.00     0.049 A 
ATOM     52  H   UNL A   1      42.678  26.405  29.753  1.00  0.00     0.167 HD
ATOM     53  C   UNL A   1      38.399  32.195  30.276  1.00  0.00     0.034 A 
ATOM     54  C   UNL A   1      44.517  28.581  30.505  1.00  0.00     0.034 A 
ATOM     55  C   UNL A   1      39.579  32.419  31.125  1.00  0.00     0.049 A 
ATOM     56  C   UNL A   1      44.639  30.084  30.670  1.00  0.00     0.074 A 
ATOM     57  C   UNL A   1      39.891  32.090  32.434  1.00  0.00     0.029 A 
ATOM     58  N   UNL A   1      40.757  32.871  30.543  1.00  0.00    -0.354 N 
ATOM     59  N   UNL A   1      43.653  30.874  30.993  1.00  0.00    -0.248 NA
ATOM     60  C   UNL A   1      45.878  30.821  30.449  1.00  0.00     0.031 C 
ATOM     61  C   UNL A   1      41.282  32.307  32.623  1.00  0.00     0.029 A 
ATOM     62  C   UNL A   1      41.811  32.792  31.438  1.00  0.00     0.049 A 
ATOM     63  H   UNL A   1      40.833  33.203  29.619  1.00  0.00     0.167 HD
ATOM     64  C   UNL A   1      44.052  32.187  30.916  1.00  0.00     0.074 A 
ATOM     65  C   UNL A   1      45.476  32.089  30.642  1.00  0.00     0.031 C 
ATOM     66  C   UNL A   1      43.149  33.214  31.034  1.00  0.00     0.034 A 
BRANCH  53  67
ATOM     67  C   UNL A   1      37.055  32.854  30.570  1.00  0.00     0.023 A 
ATOM     68  C   UNL A   1      36.552  32.722  31.886  1.00  0.00     0.012 A 
ATOM     69  C   UNL A   1      36.192  33.498  29.654  1.00  0.00     0.148 A 
ATOM     70  C   UNL A   1      35.255  33.108  32.243  1.00  0.00     0.002 A 
ATOM     71  C   UNL A   1      34.884  33.856  29.996  1.00  0.00     0.091 A 
ATOM     72  F   UNL A   1      36.621  33.824  28.439  1.00  0.00    -0.205 F 
ATOM     73  C   UNL A   1      34.408  33.652  31.290  1.00  0.00     0.022 A 
BRANCH  71  74
ATOM     74  S   UNL A   1      33.724  34.534  28.793  1.00  0.00     0.127 S 
ATOM     75  O   UNL A   1      32.594  34.916  29.641  1.00  0.00    -0.237 OA
ATOM     76  O   UNL A   1      34.472  35.658  28.233  1.00  0.00    -0.237 OA
ATOM     77  O   UNL A   1      33.426  33.462  27.850  1.00  0.00    -0.744 OA
ENDBRANCH  71  74
ENDBRANCH  53  67
BRANCH  54  78
ATOM     78  C   UNL A   1      45.162  27.779  29.428  1.00  0.00     0.023 A 
ATOM     79  C   UNL A   1      45.512  26.444  29.746  1.00  0.00     0.012 A 
ATOM     80  C   UNL A   1      45.071  28.154  28.078  1.00  0.00     0.148 A 
ATOM     81  C   UNL A   1      45.645  25.480  28.748  1.00  0.00     0.002 A 
ATOM     82  C   UNL A   1      45.204  27.184  27.085  1.00  0.00     0.091 A 
ATOM     83  F   UNL A   1      44.776  29.427  27.785  1.00  0.00    -0.205 F 
ATOM     84  C   UNL A   1      45.457  25.844  27.420  1.00  0.00     0.022 A 
BRANCH  82  85
ATOM     85  S   UNL A   1      44.901  27.557  25.351  1.00  0.00     0.127 S 
ATOM     86  O   UNL A   1      45.091  26.249  24.733  1.00  0.00    -0.237 OA
ATOM     87  O   UNL A   1      43.519  28.036  25.375  1.00  0.00    -0.237 OA
ATOM     88  O   UNL A   1      45.878  28.582  25.017  1.00  0.00    -0.744 OA
ENDBRANCH  82  85
ENDBRANCH  54  78
BRANCH  66  89
ATOM     89  C   UNL A   1      43.390  34.703  30.768  1.00  0.00     0.023 A 
ATOM     90  C   UNL A   1      43.832  35.603  31.754  1.00  0.00     0.012 A 
ATOM     91  C   UNL A   1      43.280  35.239  29.450  1.00  0.00     0.148 A 
ATOM     92  C   UNL A   1      44.131  36.945  31.471  1.00  0.00     0.002 A 
ATOM     93  C   UNL A   1      43.672  36.545  29.155  1.00  0.00     0.091 A 
ATOM     94  F   UNL A   1      42.761  34.498  28.462  1.00  0.00    -0.205 F 
ATOM     95  C   UNL A   1      44.079  37.410  30.168  1.00  0.00     0.022 A 
BRANCH  93  96
ATOM     96  S   UNL A   1      43.795  37.112  27.451  1.00  0.00     0.127 S 
ATOM     97  O   UNL A   1      42.454  37.637  27.207  1.00  0.00    -0.237 OA
ATOM     98  O   UNL A   1      44.841  38.134  27.532  1.00  0.00    -0.237 OA
ATOM     99  O   UNL A   1      44.177  35.932  26.690  1.00  0.00    -0.744 OA
ENDBRANCH  93  96
ENDBRANCH  66  89
ENDBRANCH  40  41
ENDBRANCH  32  35
ENDBRANCH  30  31
ENDBRANCH   1  30
TORSDOF 16
ENDMDL
