MODEL 1
REMARK VINA RESULT:     -12.9      0.000      0.000
REMARK SMILES Cc1oc(C)c(S(=O)(=O)Nn2c(C)ccc2C)c1C(=O)NCCCNC(=O)c1ccc(-c2c3nc(c(-c4cccc(S(=O)(=O)[O-])c4F)c4ccc([nH]4)c(-c4cccc(S(=O)(=O)[O-])c4F)c4nc(c(-c5cccc(S(=O)(=O)[O-])c5F)c5ccc2[nH]5)C=C4)C=C3)cc1
REMARK SMILES IDX 23 1 22 2 21 3 19 4 20 5 18 7 1 8 2 9 3 10 4 11 6 12 5 13
REMARK SMILES IDX 7 14 8 15 9 16 10 17 11 19 12 20 16 21 13 22 14 23 15 24
REMARK SMILES IDX 17 25 24 26 25 27 26 28 27 30 28 31 29 32 90 33 30 34 89 35
REMARK SMILES IDX 31 36 32 37 33 38 83 39 34 40 88 41 82 42 84 43 35 44 87 45
REMARK SMILES IDX 81 46 80 47 36 49 68 50 48 51 67 52 49 53 52 54 66 55 85 56
REMARK SMILES IDX 50 57 51 58 65 60 86 61 53 62 37 63 38 64 46 65 39 66 41 67
REMARK SMILES IDX 47 68 40 69 42 70 43 71 44 72 45 73 69 74 70 75 78 76 71 77
REMARK SMILES IDX 73 78 79 79 72 80 74 81 75 82 76 83 77 84 54 85 55 86 63 87
REMARK SMILES IDX 56 88 58 89 64 90 57 91 59 92 60 93 61 94 62 95
REMARK H PARENT 21 6 10 18 25 29 84 48 52 59
REMARK Flexibility Score: inf
ROOT
ATOM      1  C   UNL A   1      33.701  28.119  26.199  1.00  0.00     0.042 C 
ENDROOT
BRANCH   1   2
ATOM      2  C   UNL A   1      33.794  29.046  24.961  1.00  0.00     0.118 C 
BRANCH   2   3
ATOM      3  N   UNL A   1      34.210  28.491  23.676  1.00  0.00    -0.352 N 
ATOM      4  C   UNL A   1      33.592  27.725  22.706  1.00  0.00     0.256 C 
ATOM      5  O   UNL A   1      34.095  27.722  21.582  1.00  0.00    -0.269 OA
ATOM      6  H   UNL A   1      35.141  28.713  23.449  1.00  0.00     0.163 HD
BRANCH   4   7
ATOM      7  C   UNL A   1      32.425  26.893  22.944  1.00  0.00     0.101 A 
ATOM      8  C   UNL A   1      30.338  28.404  22.286  1.00  0.00     0.088 C 
ATOM      9  C   UNL A   1      31.088  27.212  22.735  1.00  0.00     0.115 A 
ATOM     10  O   UNL A   1      30.293  26.121  22.908  1.00  0.00    -0.464 OA
ATOM     11  C   UNL A   1      31.096  25.061  23.158  1.00  0.00     0.122 A 
ATOM     12  C   UNL A   1      32.415  25.472  23.215  1.00  0.00     0.143 A 
ATOM     13  C   UNL A   1      30.413  23.748  23.257  1.00  0.00     0.089 C 
BRANCH  12  14
ATOM     14  S   UNL A   1      33.672  24.325  23.478  1.00  0.00     0.279 S 
ATOM     15  O   UNL A   1      34.124  23.995  22.139  1.00  0.00    -0.200 OA
ATOM     16  O   UNL A   1      34.561  25.047  24.367  1.00  0.00    -0.200 OA
BRANCH  14  17
ATOM     17  N   UNL A   1      33.362  22.925  24.265  1.00  0.00    -0.216 N 
ATOM     18  H   UNL A   1      33.063  22.177  23.699  1.00  0.00     0.202 HD
BRANCH  17  19
ATOM     19  N   UNL A   1      33.462  22.647  25.617  1.00  0.00    -0.256 N 
ATOM     20  C   UNL A   1      32.796  23.191  26.689  1.00  0.00     0.038 A 
ATOM     21  C   UNL A   1      34.311  21.644  26.045  1.00  0.00     0.038 A 
ATOM     22  C   UNL A   1      31.709  24.204  26.669  1.00  0.00     0.067 C 
ATOM     23  C   UNL A   1      33.279  22.544  27.816  1.00  0.00     0.025 A 
ATOM     24  C   UNL A   1      34.268  21.625  27.422  1.00  0.00     0.025 A 
ATOM     25  C   UNL A   1      35.165  20.812  25.151  1.00  0.00     0.067 C 
ENDBRANCH  17  19
ENDBRANCH  14  17
ENDBRANCH  12  14
ENDBRANCH   4   7
ENDBRANCH   2   3
ENDBRANCH   1   2
BRANCH   1  26
ATOM     26  C   UNL A   1      33.438  28.701  27.607  1.00  0.00     0.118 C 
BRANCH  26  27
ATOM     27  N   UNL A   1      33.574  30.143  27.716  1.00  0.00    -0.352 N 
ATOM     28  C   UNL A   1      34.653  30.972  27.989  1.00  0.00     0.251 C 
ATOM     29  H   UNL A   1      32.731  30.630  27.567  1.00  0.00     0.163 HD
ATOM     30  O   UNL A   1      34.389  32.180  27.978  1.00  0.00    -0.269 OA
BRANCH  28  31
ATOM     31  C   UNL A   1      36.026  30.528  28.462  1.00  0.00     0.039 A 
ATOM     32  C   UNL A   1      36.895  30.120  27.459  1.00  0.00     0.014 A 
ATOM     33  C   UNL A   1      36.437  30.210  29.772  1.00  0.00     0.014 A 
ATOM     34  C   UNL A   1      38.139  29.490  27.757  1.00  0.00     0.010 A 
ATOM     35  C   UNL A   1      37.677  29.464  30.065  1.00  0.00     0.010 A 
ATOM     36  C   UNL A   1      38.574  29.050  29.061  1.00  0.00    -0.014 A 
BRANCH  36  37
ATOM     37  C   UNL A   1      39.646  27.823  29.059  1.00  0.00     0.031 A 
ATOM     38  C   UNL A   1      40.659  28.282  30.050  1.00  0.00     0.074 A 
ATOM     39  C   UNL A   1      40.046  26.632  28.441  1.00  0.00     0.049 A 
ATOM     40  N   UNL A   1      41.171  29.475  29.935  1.00  0.00    -0.248 NA
ATOM     41  C   UNL A   1      40.847  27.677  31.371  1.00  0.00     0.031 C 
ATOM     42  C   UNL A   1      39.493  25.977  27.245  1.00  0.00     0.029 A 
ATOM     43  N   UNL A   1      41.088  25.687  28.759  1.00  0.00    -0.354 N 
ATOM     44  C   UNL A   1      42.056  29.602  30.958  1.00  0.00     0.074 A 
ATOM     45  C   UNL A   1      41.612  28.620  31.934  1.00  0.00     0.031 C 
ATOM     46  C   UNL A   1      40.055  24.748  27.028  1.00  0.00     0.029 A 
ATOM     47  C   UNL A   1      41.093  24.451  28.015  1.00  0.00     0.049 A 
ATOM     48  H   UNL A   1      41.763  25.876  29.451  1.00  0.00     0.167 HD
ATOM     49  C   UNL A   1      43.314  29.980  30.594  1.00  0.00     0.034 A 
ATOM     50  C   UNL A   1      41.908  23.322  28.110  1.00  0.00     0.034 A 
ATOM     51  C   UNL A   1      44.282  28.951  30.829  1.00  0.00     0.049 A 
ATOM     52  C   UNL A   1      43.177  23.778  28.700  1.00  0.00     0.074 A 
ATOM     53  C   UNL A   1      44.478  28.058  31.866  1.00  0.00     0.029 A 
ATOM     54  N   UNL A   1      44.889  28.408  29.716  1.00  0.00    -0.354 N 
ATOM     55  N   UNL A   1      44.079  24.348  27.957  1.00  0.00    -0.248 NA
ATOM     56  C   UNL A   1      43.608  23.451  30.054  1.00  0.00     0.031 C 
ATOM     57  C   UNL A   1      44.728  26.817  31.236  1.00  0.00     0.029 A 
ATOM     58  C   UNL A   1      45.017  27.043  29.896  1.00  0.00     0.049 A 
ATOM     59  H   UNL A   1      45.183  28.912  28.924  1.00  0.00     0.167 HD
ATOM     60  C   UNL A   1      44.934  24.896  28.858  1.00  0.00     0.074 A 
ATOM     61  C   UNL A   1      44.779  24.095  30.057  1.00  0.00     0.031 C 
ATOM     62  C   UNL A   1      45.183  26.221  28.719  1.00  0.00     0.034 A 
BRANCH  49  63
ATOM     63  C   UNL A   1      43.332  30.998  29.469  1.00  0.00     0.023 A 
ATOM     64  C   UNL A   1      43.788  30.551  28.217  1.00  0.00     0.012 A 
ATOM     65  C   UNL A   1      43.209  32.397  29.690  1.00  0.00     0.148 A 
ATOM     66  C   UNL A   1      44.178  31.467  27.236  1.00  0.00     0.002 A 
ATOM     67  C   UNL A   1      43.713  33.298  28.756  1.00  0.00     0.091 A 
ATOM     68  F   UNL A   1      42.660  32.824  30.840  1.00  0.00    -0.205 F 
ATOM     69  C   UNL A   1      44.182  32.833  27.520  1.00  0.00     0.022 A 
BRANCH  67  70
ATOM     70  S   UNL A   1      44.039  35.029  29.160  1.00  0.00     0.127 S 
ATOM     71  O   UNL A   1      42.692  35.568  29.379  1.00  0.00    -0.237 OA
ATOM     72  O   UNL A   1      44.843  34.931  30.375  1.00  0.00    -0.237 OA
ATOM     73  O   UNL A   1      44.712  35.607  28.003  1.00  0.00    -0.744 OA
ENDBRANCH  67  70
ENDBRANCH  49  63
BRANCH  50  74
ATOM     74  C   UNL A   1      42.144  21.847  27.625  1.00  0.00     0.023 A 
ATOM     75  C   UNL A   1      41.021  20.942  27.660  1.00  0.00     0.012 A 
ATOM     76  C   UNL A   1      43.182  21.452  26.752  1.00  0.00     0.148 A 
ATOM     77  C   UNL A   1      40.860  19.841  26.800  1.00  0.00     0.002 A 
ATOM     78  C   UNL A   1      43.038  20.304  25.922  1.00  0.00     0.091 A 
ATOM     79  F   UNL A   1      44.258  22.241  26.644  1.00  0.00    -0.205 F 
ATOM     80  C   UNL A   1      41.867  19.529  25.917  1.00  0.00     0.022 A 
BRANCH  78  81
ATOM     81  S   UNL A   1      44.296  19.763  24.742  1.00  0.00     0.127 S 
ATOM     82  O   UNL A   1      44.374  20.891  23.810  1.00  0.00    -0.237 OA
ATOM     83  O   UNL A   1      45.470  19.609  25.599  1.00  0.00    -0.237 OA
ATOM     84  O   UNL A   1      43.765  18.540  24.157  1.00  0.00    -0.744 OA
ENDBRANCH  78  81
ENDBRANCH  50  74
BRANCH  62  85
ATOM     85  C   UNL A   1      45.330  26.771  27.305  1.00  0.00     0.023 A 
ATOM     86  C   UNL A   1      44.269  27.266  26.507  1.00  0.00     0.012 A 
ATOM     87  C   UNL A   1      46.612  26.784  26.735  1.00  0.00     0.148 A 
ATOM     88  C   UNL A   1      44.469  27.701  25.191  1.00  0.00     0.002 A 
ATOM     89  C   UNL A   1      46.823  27.279  25.450  1.00  0.00     0.091 A 
ATOM     90  F   UNL A   1      47.629  26.291  27.459  1.00  0.00    -0.205 F 
ATOM     91  C   UNL A   1      45.753  27.723  24.666  1.00  0.00     0.022 A 
BRANCH  89  92
ATOM     92  S   UNL A   1      48.490  27.396  24.806  1.00  0.00     0.127 S 
ATOM     93  O   UNL A   1      48.261  27.920  23.462  1.00  0.00    -0.237 OA
ATOM     94  O   UNL A   1      49.147  28.330  25.717  1.00  0.00    -0.237 OA
ATOM     95  O   UNL A   1      49.007  26.031  24.871  1.00  0.00    -0.744 OA
ENDBRANCH  89  92
ENDBRANCH  62  85
ENDBRANCH  36  37
ENDBRANCH  28  31
ENDBRANCH  26  27
ENDBRANCH   1  26
TORSDOF 16
ENDMDL
MODEL 2
REMARK VINA RESULT:     -12.6      4.269     10.009
REMARK SMILES Cc1oc(C)c(S(=O)(=O)Nn2c(C)ccc2C)c1C(=O)NCCCNC(=O)c1ccc(-c2c3nc(c(-c4cccc(S(=O)(=O)[O-])c4F)c4ccc([nH]4)c(-c4cccc(S(=O)(=O)[O-])c4F)c4nc(c(-c5cccc(S(=O)(=O)[O-])c5F)c5ccc2[nH]5)C=C4)C=C3)cc1
REMARK SMILES IDX 23 1 22 2 21 3 19 4 20 5 18 7 1 8 2 9 3 10 4 11 6 12 5 13
REMARK SMILES IDX 7 14 8 15 9 16 10 17 11 19 12 20 16 21 13 22 14 23 15 24
REMARK SMILES IDX 17 25 24 26 25 27 26 28 27 30 28 31 29 32 90 33 30 34 89 35
REMARK SMILES IDX 31 36 32 37 33 38 83 39 34 40 88 41 82 42 84 43 35 44 87 45
REMARK SMILES IDX 81 46 80 47 36 49 68 50 48 51 67 52 49 53 52 54 66 55 85 56
REMARK SMILES IDX 50 57 51 58 65 60 86 61 53 62 37 63 38 64 46 65 39 66 41 67
REMARK SMILES IDX 47 68 40 69 42 70 43 71 44 72 45 73 69 74 70 75 78 76 71 77
REMARK SMILES IDX 73 78 79 79 72 80 74 81 75 82 76 83 77 84 54 85 55 86 63 87
REMARK SMILES IDX 56 88 58 89 64 90 57 91 59 92 60 93 61 94 62 95
REMARK H PARENT 21 6 10 18 25 29 84 48 52 59
REMARK Flexibility Score: inf
ROOT
ATOM      1  C   UNL A   1      35.707  23.713  25.866  1.00  0.00     0.042 C 
ENDROOT
BRANCH   1   2
ATOM      2  C   UNL A   1      34.947  22.413  26.229  1.00  0.00     0.118 C 
BRANCH   2   3
ATOM      3  N   UNL A   1      33.514  22.470  26.500  1.00  0.00    -0.352 N 
ATOM      4  C   UNL A   1      32.392  22.721  25.734  1.00  0.00     0.256 C 
ATOM      5  O   UNL A   1      31.307  22.345  26.178  1.00  0.00    -0.269 OA
ATOM      6  H   UNL A   1      33.297  22.285  27.442  1.00  0.00     0.163 HD
BRANCH   4   7
ATOM      7  C   UNL A   1      32.411  23.441  24.471  1.00  0.00     0.101 A 
ATOM      8  C   UNL A   1      32.291  21.563  22.592  1.00  0.00     0.088 C 
ATOM      9  C   UNL A   1      32.347  22.915  23.185  1.00  0.00     0.115 A 
ATOM     10  O   UNL A   1      32.215  23.904  22.260  1.00  0.00    -0.464 OA
ATOM     11  C   UNL A   1      32.117  25.080  22.923  1.00  0.00     0.122 A 
ATOM     12  C   UNL A   1      32.251  24.866  24.284  1.00  0.00     0.143 A 
ATOM     13  C   UNL A   1      31.847  26.271  22.083  1.00  0.00     0.089 C 
BRANCH  12  14
ATOM     14  S   UNL A   1      32.127  26.181  25.386  1.00  0.00     0.279 S 
ATOM     15  O   UNL A   1      30.702  26.276  25.652  1.00  0.00    -0.200 OA
ATOM     16  O   UNL A   1      33.018  25.770  26.453  1.00  0.00    -0.200 OA
BRANCH  14  17
ATOM     17  N   UNL A   1      32.661  27.668  24.963  1.00  0.00    -0.216 N 
ATOM     18  H   UNL A   1      33.434  27.684  24.354  1.00  0.00     0.202 HD
BRANCH  17  19
ATOM     19  N   UNL A   1      32.175  28.907  25.343  1.00  0.00    -0.256 N 
ATOM     20  C   UNL A   1      31.189  29.686  24.785  1.00  0.00     0.038 A 
ATOM     21  C   UNL A   1      32.673  29.515  26.480  1.00  0.00     0.038 A 
ATOM     22  C   UNL A   1      30.311  29.357  23.633  1.00  0.00     0.067 C 
ATOM     23  C   UNL A   1      31.106  30.827  25.567  1.00  0.00     0.025 A 
ATOM     24  C   UNL A   1      32.073  30.750  26.585  1.00  0.00     0.025 A 
ATOM     25  C   UNL A   1      33.729  28.939  27.360  1.00  0.00     0.067 C 
ENDBRANCH  17  19
ENDBRANCH  14  17
ENDBRANCH  12  14
ENDBRANCH   4   7
ENDBRANCH   2   3
ENDBRANCH   1   2
BRANCH   1  26
ATOM     26  C   UNL A   1      37.012  23.664  25.039  1.00  0.00     0.118 C 
BRANCH  26  27
ATOM     27  N   UNL A   1      38.014  22.728  25.518  1.00  0.00    -0.352 N 
ATOM     28  C   UNL A   1      39.091  22.857  26.384  1.00  0.00     0.251 C 
ATOM     29  H   UNL A   1      37.908  21.818  25.155  1.00  0.00     0.163 HD
ATOM     30  O   UNL A   1      39.725  21.813  26.575  1.00  0.00    -0.269 OA
BRANCH  28  31
ATOM     31  C   UNL A   1      39.642  24.159  26.940  1.00  0.00     0.039 A 
ATOM     32  C   UNL A   1      38.997  24.640  28.071  1.00  0.00     0.014 A 
ATOM     33  C   UNL A   1      40.514  25.074  26.316  1.00  0.00     0.014 A 
ATOM     34  C   UNL A   1      39.264  25.941  28.589  1.00  0.00     0.010 A 
ATOM     35  C   UNL A   1      40.704  26.456  26.800  1.00  0.00     0.010 A 
ATOM     36  C   UNL A   1      40.065  26.958  27.950  1.00  0.00    -0.014 A 
BRANCH  36  37
ATOM     37  C   UNL A   1      39.692  28.492  28.354  1.00  0.00     0.031 A 
ATOM     38  C   UNL A   1      41.028  29.075  28.658  1.00  0.00     0.074 A 
ATOM     39  C   UNL A   1      38.665  29.400  28.640  1.00  0.00     0.049 A 
ATOM     40  N   UNL A   1      41.824  28.456  29.482  1.00  0.00    -0.248 NA
ATOM     41  C   UNL A   1      41.697  30.073  27.819  1.00  0.00     0.031 C 
ATOM     42  C   UNL A   1      37.216  29.162  28.735  1.00  0.00     0.029 A 
ATOM     43  N   UNL A   1      38.684  30.814  28.920  1.00  0.00    -0.354 N 
ATOM     44  C   UNL A   1      42.944  29.221  29.568  1.00  0.00     0.074 A 
ATOM     45  C   UNL A   1      42.925  30.012  28.348  1.00  0.00     0.031 C 
ATOM     46  C   UNL A   1      36.515  30.326  28.890  1.00  0.00     0.029 A 
ATOM     47  C   UNL A   1      37.407  31.483  28.975  1.00  0.00     0.049 A 
ATOM     48  H   UNL A   1      39.528  31.300  29.067  1.00  0.00     0.167 HD
ATOM     49  C   UNL A   1      43.322  29.557  30.834  1.00  0.00     0.034 A 
ATOM     50  C   UNL A   1      37.077  32.826  29.163  1.00  0.00     0.034 A 
ATOM     51  C   UNL A   1      43.206  30.963  31.082  1.00  0.00     0.049 A 
ATOM     52  C   UNL A   1      38.204  33.429  29.893  1.00  0.00     0.074 A 
ATOM     53  C   UNL A   1      43.499  32.083  30.326  1.00  0.00     0.029 A 
ATOM     54  N   UNL A   1      42.272  31.349  32.020  1.00  0.00    -0.354 N 
ATOM     55  N   UNL A   1      38.301  33.288  31.182  1.00  0.00    -0.248 NA
ATOM     56  C   UNL A   1      39.144  34.375  29.302  1.00  0.00     0.031 C 
ATOM     57  C   UNL A   1      42.384  32.936  30.493  1.00  0.00     0.029 A 
ATOM     58  C   UNL A   1      41.635  32.493  31.575  1.00  0.00     0.049 A 
ATOM     59  H   UNL A   1      42.090  30.885  32.868  1.00  0.00     0.167 HD
ATOM     60  C   UNL A   1      39.572  33.685  31.451  1.00  0.00     0.074 A 
ATOM     61  C   UNL A   1      39.920  34.585  30.369  1.00  0.00     0.031 C 
ATOM     62  C   UNL A   1      40.341  32.805  32.137  1.00  0.00     0.034 A 
BRANCH  49  63
ATOM     63  C   UNL A   1      43.111  28.441  31.839  1.00  0.00     0.023 A 
ATOM     64  C   UNL A   1      42.018  28.573  32.712  1.00  0.00     0.012 A 
ATOM     65  C   UNL A   1      44.104  27.466  32.132  1.00  0.00     0.148 A 
ATOM     66  C   UNL A   1      41.946  27.809  33.880  1.00  0.00     0.002 A 
ATOM     67  C   UNL A   1      44.087  26.798  33.353  1.00  0.00     0.091 A 
ATOM     68  F   UNL A   1      45.084  27.254  31.238  1.00  0.00    -0.205 F 
ATOM     69  C   UNL A   1      42.998  26.957  34.220  1.00  0.00     0.022 A 
BRANCH  67  70
ATOM     70  S   UNL A   1      45.534  25.932  34.001  1.00  0.00     0.127 S 
ATOM     71  O   UNL A   1      45.758  24.884  32.999  1.00  0.00    -0.237 OA
ATOM     72  O   UNL A   1      46.557  26.973  34.009  1.00  0.00    -0.237 OA
ATOM     73  O   UNL A   1      45.156  25.410  35.309  1.00  0.00    -0.744 OA
ENDBRANCH  67  70
ENDBRANCH  49  63
BRANCH  50  74
ATOM     74  C   UNL A   1      35.924  33.892  29.158  1.00  0.00     0.023 A 
ATOM     75  C   UNL A   1      35.079  33.962  27.991  1.00  0.00     0.012 A 
ATOM     76  C   UNL A   1      35.355  34.455  30.322  1.00  0.00     0.148 A 
ATOM     77  C   UNL A   1      33.741  34.393  28.001  1.00  0.00     0.002 A 
ATOM     78  C   UNL A   1      34.016  34.942  30.315  1.00  0.00     0.091 A 
ATOM     79  F   UNL A   1      36.063  34.420  31.457  1.00  0.00    -0.205 F 
ATOM     80  C   UNL A   1      33.203  34.872  29.173  1.00  0.00     0.022 A 
BRANCH  78  81
ATOM     81  S   UNL A   1      33.197  35.626  31.774  1.00  0.00     0.127 S 
ATOM     82  O   UNL A   1      34.256  36.428  32.395  1.00  0.00    -0.237 OA
ATOM     83  O   UNL A   1      32.120  36.412  31.177  1.00  0.00    -0.237 OA
ATOM     84  O   UNL A   1      32.788  34.469  32.557  1.00  0.00    -0.744 OA
ENDBRANCH  78  81
ENDBRANCH  50  74
BRANCH  62  85
ATOM     85  C   UNL A   1      39.683  32.013  33.262  1.00  0.00     0.023 A 
ATOM     86  C   UNL A   1      39.170  30.698  33.143  1.00  0.00     0.012 A 
ATOM     87  C   UNL A   1      39.561  32.631  34.516  1.00  0.00     0.148 A 
ATOM     88  C   UNL A   1      38.523  30.054  34.204  1.00  0.00     0.002 A 
ATOM     89  C   UNL A   1      38.978  31.966  35.592  1.00  0.00     0.091 A 
ATOM     90  F   UNL A   1      40.011  33.889  34.646  1.00  0.00    -0.205 F 
ATOM     91  C   UNL A   1      38.441  30.683  35.438  1.00  0.00     0.022 A 
BRANCH  89  92
ATOM     92  S   UNL A   1      38.955  32.739  37.207  1.00  0.00     0.127 S 
ATOM     93  O   UNL A   1      38.061  33.873  36.988  1.00  0.00    -0.237 OA
ATOM     94  O   UNL A   1      38.413  31.700  38.079  1.00  0.00    -0.237 OA
ATOM     95  O   UNL A   1      40.351  33.078  37.475  1.00  0.00    -0.744 OA
ENDBRANCH  89  92
ENDBRANCH  62  85
ENDBRANCH  36  37
ENDBRANCH  28  31
ENDBRANCH  26  27
ENDBRANCH   1  26
TORSDOF 16
ENDMDL
MODEL 3
REMARK VINA RESULT:     -12.2      4.409     10.190
REMARK SMILES Cc1oc(C)c(S(=O)(=O)Nn2c(C)ccc2C)c1C(=O)NCCCNC(=O)c1ccc(-c2c3nc(c(-c4cccc(S(=O)(=O)[O-])c4F)c4ccc([nH]4)c(-c4cccc(S(=O)(=O)[O-])c4F)c4nc(c(-c5cccc(S(=O)(=O)[O-])c5F)c5ccc2[nH]5)C=C4)C=C3)cc1
REMARK SMILES IDX 23 1 22 2 21 3 19 4 20 5 18 7 1 8 2 9 3 10 4 11 6 12 5 13
REMARK SMILES IDX 7 14 8 15 9 16 10 17 11 19 12 20 16 21 13 22 14 23 15 24
REMARK SMILES IDX 17 25 24 26 25 27 26 28 27 30 28 31 29 32 90 33 30 34 89 35
REMARK SMILES IDX 31 36 32 37 33 38 83 39 34 40 88 41 82 42 84 43 35 44 87 45
REMARK SMILES IDX 81 46 80 47 36 49 68 50 48 51 67 52 49 53 52 54 66 55 85 56
REMARK SMILES IDX 50 57 51 58 65 60 86 61 53 62 37 63 38 64 46 65 39 66 41 67
REMARK SMILES IDX 47 68 40 69 42 70 43 71 44 72 45 73 69 74 70 75 78 76 71 77
REMARK SMILES IDX 73 78 79 79 72 80 74 81 75 82 76 83 77 84 54 85 55 86 63 87
REMARK SMILES IDX 56 88 58 89 64 90 57 91 59 92 60 93 61 94 62 95
REMARK H PARENT 21 6 10 18 25 29 84 48 52 59
REMARK Flexibility Score: inf
ROOT
ATOM      1  C   UNL A   1      38.270  22.154  25.768  1.00  0.00     0.042 C 
ENDROOT
BRANCH   1   2
ATOM      2  C   UNL A   1      36.964  21.339  25.598  1.00  0.00     0.118 C 
BRANCH   2   3
ATOM      3  N   UNL A   1      35.809  21.648  26.436  1.00  0.00    -0.352 N 
ATOM      4  C   UNL A   1      34.465  21.333  26.388  1.00  0.00     0.256 C 
ATOM      5  O   UNL A   1      33.819  21.448  27.429  1.00  0.00    -0.269 OA
ATOM      6  H   UNL A   1      36.041  22.207  27.212  1.00  0.00     0.163 HD
BRANCH   4   7
ATOM      7  C   UNL A   1      33.766  20.926  25.180  1.00  0.00     0.101 A 
ATOM      8  C   UNL A   1      32.900  18.460  25.668  1.00  0.00     0.088 C 
ATOM      9  C   UNL A   1      33.111  19.725  24.934  1.00  0.00     0.115 A 
ATOM     10  O   UNL A   1      32.426  19.774  23.758  1.00  0.00    -0.464 OA
ATOM     11  C   UNL A   1      32.560  21.024  23.255  1.00  0.00     0.122 A 
ATOM     12  C   UNL A   1      33.388  21.774  24.071  1.00  0.00     0.143 A 
ATOM     13  C   UNL A   1      31.779  21.308  22.027  1.00  0.00     0.089 C 
BRANCH  12  14
ATOM     14  S   UNL A   1      33.708  23.424  23.701  1.00  0.00     0.279 S 
ATOM     15  O   UNL A   1      34.519  23.877  24.817  1.00  0.00    -0.200 OA
ATOM     16  O   UNL A   1      34.308  23.330  22.384  1.00  0.00    -0.200 OA
BRANCH  14  17
ATOM     17  N   UNL A   1      32.476  24.483  23.510  1.00  0.00    -0.216 N 
ATOM     18  H   UNL A   1      32.079  24.514  22.610  1.00  0.00     0.202 HD
BRANCH  17  19
ATOM     19  N   UNL A   1      31.914  25.341  24.440  1.00  0.00    -0.256 N 
ATOM     20  C   UNL A   1      31.116  25.076  25.526  1.00  0.00     0.038 A 
ATOM     21  C   UNL A   1      32.183  26.694  24.366  1.00  0.00     0.038 A 
ATOM     22  C   UNL A   1      30.691  23.749  26.044  1.00  0.00     0.067 C 
ATOM     23  C   UNL A   1      30.842  26.300  26.115  1.00  0.00     0.025 A 
ATOM     24  C   UNL A   1      31.453  27.314  25.357  1.00  0.00     0.025 A 
ATOM     25  C   UNL A   1      33.046  27.337  23.335  1.00  0.00     0.067 C 
ENDBRANCH  17  19
ENDBRANCH  14  17
ENDBRANCH  12  14
ENDBRANCH   4   7
ENDBRANCH   2   3
ENDBRANCH   1   2
BRANCH   1  26
ATOM     26  C   UNL A   1      39.593  21.460  26.165  1.00  0.00     0.118 C 
BRANCH  26  27
ATOM     27  N   UNL A   1      40.803  22.149  25.751  1.00  0.00    -0.352 N 
ATOM     28  C   UNL A   1      41.450  23.285  26.219  1.00  0.00     0.251 C 
ATOM     29  H   UNL A   1      41.253  21.728  24.983  1.00  0.00     0.163 HD
ATOM     30  O   UNL A   1      42.492  23.567  25.615  1.00  0.00    -0.269 OA
BRANCH  28  31
ATOM     31  C   UNL A   1      40.908  24.268  27.241  1.00  0.00     0.039 A 
ATOM     32  C   UNL A   1      39.819  25.019  26.822  1.00  0.00     0.014 A 
ATOM     33  C   UNL A   1      41.519  24.717  28.429  1.00  0.00     0.014 A 
ATOM     34  C   UNL A   1      39.326  26.116  27.587  1.00  0.00     0.010 A 
ATOM     35  C   UNL A   1      41.067  25.918  29.159  1.00  0.00     0.010 A 
ATOM     36  C   UNL A   1      39.959  26.686  28.752  1.00  0.00    -0.014 A 
BRANCH  36  37
ATOM     37  C   UNL A   1      39.614  28.254  29.033  1.00  0.00     0.031 A 
ATOM     38  C   UNL A   1      40.955  28.825  29.344  1.00  0.00     0.074 A 
ATOM     39  C   UNL A   1      38.603  29.205  29.217  1.00  0.00     0.049 A 
ATOM     40  N   UNL A   1      41.705  28.246  30.238  1.00  0.00    -0.248 NA
ATOM     41  C   UNL A   1      41.679  29.743  28.461  1.00  0.00     0.031 C 
ATOM     42  C   UNL A   1      37.146  29.010  29.277  1.00  0.00     0.029 A 
ATOM     43  N   UNL A   1      38.651  30.635  29.398  1.00  0.00    -0.354 N 
ATOM     44  C   UNL A   1      42.841  28.988  30.310  1.00  0.00     0.074 A 
ATOM     45  C   UNL A   1      42.886  29.690  29.037  1.00  0.00     0.031 C 
ATOM     46  C   UNL A   1      36.472  30.200  29.324  1.00  0.00     0.029 A 
ATOM     47  C   UNL A   1      37.391  31.338  29.360  1.00  0.00     0.049 A 
ATOM     48  H   UNL A   1      39.502  31.109  29.540  1.00  0.00     0.167 HD
ATOM     49  C   UNL A   1      43.185  29.404  31.561  1.00  0.00     0.034 A 
ATOM     50  C   UNL A   1      37.092  32.698  29.440  1.00  0.00     0.034 A 
ATOM     51  C   UNL A   1      43.098  30.826  31.705  1.00  0.00     0.049 A 
ATOM     52  C   UNL A   1      38.209  33.323  30.167  1.00  0.00     0.074 A 
ATOM     53  C   UNL A   1      43.447  31.882  30.884  1.00  0.00     0.029 A 
ATOM     54  N   UNL A   1      42.144  31.301  32.580  1.00  0.00    -0.354 N 
ATOM     55  N   UNL A   1      38.258  33.273  31.465  1.00  0.00    -0.248 NA
ATOM     56  C   UNL A   1      39.194  34.201  29.545  1.00  0.00     0.031 C 
ATOM     57  C   UNL A   1      42.351  32.772  30.950  1.00  0.00     0.029 A 
ATOM     58  C   UNL A   1      41.554  32.426  32.033  1.00  0.00     0.049 A 
ATOM     59  H   UNL A   1      41.920  30.903  33.452  1.00  0.00     0.167 HD
ATOM     60  C   UNL A   1      39.529  33.656  31.751  1.00  0.00     0.074 A 
ATOM     61  C   UNL A   1      39.938  34.468  30.621  1.00  0.00     0.031 C 
ATOM     62  C   UNL A   1      40.250  32.809  32.525  1.00  0.00     0.034 A 
BRANCH  49  63
ATOM     63  C   UNL A   1      42.909  28.368  32.634  1.00  0.00     0.023 A 
ATOM     64  C   UNL A   1      42.047  28.749  33.676  1.00  0.00     0.012 A 
ATOM     65  C   UNL A   1      43.692  27.191  32.792  1.00  0.00     0.148 A 
ATOM     66  C   UNL A   1      42.013  28.023  34.871  1.00  0.00     0.002 A 
ATOM     67  C   UNL A   1      43.742  26.547  34.026  1.00  0.00     0.091 A 
ATOM     68  F   UNL A   1      44.424  26.758  31.752  1.00  0.00    -0.205 F 
ATOM     69  C   UNL A   1      42.889  26.953  35.060  1.00  0.00     0.022 A 
BRANCH  67  70
ATOM     70  S   UNL A   1      45.048  25.373  34.450  1.00  0.00     0.127 S 
ATOM     71  O   UNL A   1      44.625  24.153  33.751  1.00  0.00    -0.237 OA
ATOM     72  O   UNL A   1      46.240  25.996  33.886  1.00  0.00    -0.237 OA
ATOM     73  O   UNL A   1      45.033  25.240  35.903  1.00  0.00    -0.744 OA
ENDBRANCH  67  70
ENDBRANCH  49  63
BRANCH  50  74
ATOM     74  C   UNL A   1      35.969  33.789  29.319  1.00  0.00     0.023 A 
ATOM     75  C   UNL A   1      35.195  33.823  28.102  1.00  0.00     0.012 A 
ATOM     76  C   UNL A   1      35.348  34.419  30.420  1.00  0.00     0.148 A 
ATOM     77  C   UNL A   1      33.870  34.285  28.014  1.00  0.00     0.002 A 
ATOM     78  C   UNL A   1      34.025  34.936  30.312  1.00  0.00     0.091 A 
ATOM     79  F   UNL A   1      35.988  34.422  31.596  1.00  0.00    -0.205 F 
ATOM     80  C   UNL A   1      33.278  34.831  29.129  1.00  0.00     0.022 A 
BRANCH  78  81
ATOM     81  S   UNL A   1      33.142  35.708  31.688  1.00  0.00     0.127 S 
ATOM     82  O   UNL A   1      34.180  36.521  32.326  1.00  0.00    -0.237 OA
ATOM     83  O   UNL A   1      32.115  36.481  30.993  1.00  0.00    -0.237 OA
ATOM     84  O   UNL A   1      32.668  34.599  32.503  1.00  0.00    -0.744 OA
ENDBRANCH  78  81
ENDBRANCH  50  74
BRANCH  62  85
ATOM     85  C   UNL A   1      39.532  32.115  33.678  1.00  0.00     0.023 A 
ATOM     86  C   UNL A   1      38.824  30.893  33.581  1.00  0.00     0.012 A 
ATOM     87  C   UNL A   1      39.562  32.735  34.937  1.00  0.00     0.148 A 
ATOM     88  C   UNL A   1      38.136  30.345  34.671  1.00  0.00     0.002 A 
ATOM     89  C   UNL A   1      38.935  32.156  36.038  1.00  0.00     0.091 A 
ATOM     90  F   UNL A   1      40.201  33.911  35.047  1.00  0.00    -0.205 F 
ATOM     91  C   UNL A   1      38.206  30.969  35.908  1.00  0.00     0.022 A 
BRANCH  89  92
ATOM     92  S   UNL A   1      39.102  32.911  37.653  1.00  0.00     0.127 S 
ATOM     93  O   UNL A   1      40.553  32.938  37.827  1.00  0.00    -0.237 OA
ATOM     94  O   UNL A   1      38.488  34.225  37.484  1.00  0.00    -0.237 OA
ATOM     95  O   UNL A   1      38.376  32.020  38.554  1.00  0.00    -0.744 OA
ENDBRANCH  89  92
ENDBRANCH  62  85
ENDBRANCH  36  37
ENDBRANCH  28  31
ENDBRANCH  26  27
ENDBRANCH   1  26
TORSDOF 16
ENDMDL
