MODEL 1
REMARK VINA RESULT:     -13.1      0.000      0.000
REMARK SMILES O=C(NCCCNC(=O)c1cccn1CC(=O)N1CC[C@H]2CCCC[C@H]2C1)c1ccc(-c2c3nc(c(-c4cccc(S(=O)(=O)[O-])c4F)c4ccc([nH]4)c(-c4cccc(S(=O)(=O)[O-])c4F)c4nc(c(-c5cccc(S(=O)(=O)[O-])c5F)c5ccc2[nH]5)C=C4)C=C3)cc1
REMARK SMILES IDX 5 1 4 2 3 3 1 4 2 5 28 7 29 8 90 9 30 10 89 11 31 12 32 13
REMARK SMILES IDX 33 14 83 15 34 16 88 17 82 18 84 19 35 20 87 21 81 22 80 23
REMARK SMILES IDX 36 25 68 26 48 27 67 28 49 29 52 30 66 31 85 32 50 33 51 34
REMARK SMILES IDX 65 36 86 37 53 38 37 39 38 40 46 41 39 42 41 43 47 44 40 45
REMARK SMILES IDX 42 46 43 47 44 48 45 49 69 50 70 51 78 52 71 53 73 54 79 55
REMARK SMILES IDX 72 56 74 57 75 58 76 59 77 60 54 61 55 62 63 63 56 64 58 65
REMARK SMILES IDX 64 66 57 67 59 68 60 69 61 70 62 71 6 72 7 73 8 74 9 76
REMARK SMILES IDX 10 77 11 78 14 79 12 80 13 81 15 82 16 83 17 84 18 85 19 86
REMARK SMILES IDX 27 87 20 88 26 89 21 90 25 91 22 92 24 93 23 94
REMARK H PARENT 3 6 84 24 52 35 7 75
REMARK Flexibility Score: inf
ROOT
ATOM      1  C   UNL A   1      33.307  28.844  26.650  1.00  0.00     0.042 C 
ENDROOT
BRANCH   1   2
ATOM      2  C   UNL A   1      34.731  28.936  27.182  1.00  0.00     0.118 C 
BRANCH   2   3
ATOM      3  N   UNL A   1      34.958  29.911  28.221  1.00  0.00    -0.352 N 
ATOM      4  O   UNL A   1      35.973  31.374  29.535  1.00  0.00    -0.269 OA
ATOM      5  C   UNL A   1      36.093  30.355  28.855  1.00  0.00     0.251 C 
ATOM      6  H   UNL A   1      34.134  30.344  28.541  1.00  0.00     0.163 HD
BRANCH   5   7
ATOM      7  C   UNL A   1      37.394  29.627  28.838  1.00  0.00     0.039 A 
ATOM      8  C   UNL A   1      38.360  29.733  27.833  1.00  0.00     0.014 A 
ATOM      9  C   UNL A   1      37.649  28.783  29.932  1.00  0.00     0.014 A 
ATOM     10  C   UNL A   1      39.509  28.940  27.871  1.00  0.00     0.010 A 
ATOM     11  C   UNL A   1      38.811  28.007  29.989  1.00  0.00     0.010 A 
ATOM     12  C   UNL A   1      39.744  28.082  28.952  1.00  0.00    -0.014 A 
BRANCH  12  13
ATOM     13  C   UNL A   1      41.105  27.494  29.091  1.00  0.00     0.031 A 
ATOM     14  C   UNL A   1      41.110  26.023  28.595  1.00  0.00     0.074 A 
ATOM     15  C   UNL A   1      42.087  28.260  29.671  1.00  0.00     0.049 A 
ATOM     16  N   UNL A   1      41.753  24.986  29.050  1.00  0.00    -0.248 NA
ATOM     17  C   UNL A   1      40.156  25.613  27.523  1.00  0.00     0.031 C 
ATOM     18  C   UNL A   1      41.942  29.687  30.038  1.00  0.00     0.029 A 
ATOM     19  N   UNL A   1      43.395  28.022  30.067  1.00  0.00    -0.354 N 
ATOM     20  C   UNL A   1      41.482  23.904  28.167  1.00  0.00     0.074 A 
ATOM     21  C   UNL A   1      40.370  24.305  27.368  1.00  0.00     0.031 C 
ATOM     22  C   UNL A   1      43.054  30.153  30.654  1.00  0.00     0.029 A 
ATOM     23  C   UNL A   1      44.050  29.097  30.735  1.00  0.00     0.049 A 
ATOM     24  H   UNL A   1      43.844  27.163  29.896  1.00  0.00     0.167 HD
ATOM     25  C   UNL A   1      42.312  22.824  28.028  1.00  0.00     0.034 A 
ATOM     26  C   UNL A   1      45.292  29.132  31.329  1.00  0.00     0.034 A 
ATOM     27  C   UNL A   1      43.450  23.017  28.863  1.00  0.00     0.049 A 
ATOM     28  C   UNL A   1      45.937  27.877  30.941  1.00  0.00     0.074 A 
ATOM     29  C   UNL A   1      43.640  22.967  30.216  1.00  0.00     0.029 A 
ATOM     30  N   UNL A   1      44.498  23.669  28.261  1.00  0.00    -0.354 N 
ATOM     31  N   UNL A   1      46.417  27.640  29.759  1.00  0.00    -0.248 NA
ATOM     32  C   UNL A   1      46.026  26.788  31.922  1.00  0.00     0.031 C 
ATOM     33  C   UNL A   1      44.579  23.989  30.438  1.00  0.00     0.029 A 
ATOM     34  C   UNL A   1      45.081  24.453  29.213  1.00  0.00     0.049 A 
ATOM     35  H   UNL A   1      44.776  23.586  27.320  1.00  0.00     0.167 HD
ATOM     36  C   UNL A   1      46.486  26.272  29.764  1.00  0.00     0.074 A 
ATOM     37  C   UNL A   1      46.599  25.869  31.149  1.00  0.00     0.031 C 
ATOM     38  C   UNL A   1      45.847  25.592  28.776  1.00  0.00     0.034 A 
BRANCH  25  39
ATOM     39  C   UNL A   1      42.445  21.690  27.029  1.00  0.00     0.023 A 
ATOM     40  C   UNL A   1      41.698  20.514  27.348  1.00  0.00     0.012 A 
ATOM     41  C   UNL A   1      43.434  21.565  26.041  1.00  0.00     0.148 A 
ATOM     42  C   UNL A   1      42.010  19.257  26.834  1.00  0.00     0.002 A 
ATOM     43  C   UNL A   1      43.706  20.309  25.484  1.00  0.00     0.091 A 
ATOM     44  F   UNL A   1      44.164  22.631  25.701  1.00  0.00    -0.205 F 
ATOM     45  C   UNL A   1      43.031  19.154  25.910  1.00  0.00     0.022 A 
BRANCH  43  46
ATOM     46  S   UNL A   1      44.937  20.055  24.199  1.00  0.00     0.127 S 
ATOM     47  O   UNL A   1      44.670  18.679  23.789  1.00  0.00    -0.237 OA
ATOM     48  O   UNL A   1      44.553  21.066  23.211  1.00  0.00    -0.237 OA
ATOM     49  O   UNL A   1      46.223  20.308  24.834  1.00  0.00    -0.744 OA
ENDBRANCH  43  46
ENDBRANCH  25  39
BRANCH  26  50
ATOM     50  C   UNL A   1      46.127  30.014  32.247  1.00  0.00     0.023 A 
ATOM     51  C   UNL A   1      47.240  30.760  31.843  1.00  0.00     0.012 A 
ATOM     52  C   UNL A   1      45.724  30.210  33.614  1.00  0.00     0.148 A 
ATOM     53  C   UNL A   1      47.846  31.700  32.710  1.00  0.00     0.002 A 
ATOM     54  C   UNL A   1      46.228  31.229  34.415  1.00  0.00     0.091 A 
ATOM     55  F   UNL A   1      44.850  29.372  34.180  1.00  0.00    -0.205 F 
ATOM     56  C   UNL A   1      47.312  31.972  33.972  1.00  0.00     0.022 A 
BRANCH  54  57
ATOM     57  S   UNL A   1      45.416  31.722  35.954  1.00  0.00     0.127 S 
ATOM     58  O   UNL A   1      46.068  32.994  36.261  1.00  0.00    -0.237 OA
ATOM     59  O   UNL A   1      44.023  31.835  35.522  1.00  0.00    -0.237 OA
ATOM     60  O   UNL A   1      45.665  30.656  36.917  1.00  0.00    -0.744 OA
ENDBRANCH  54  57
ENDBRANCH  26  50
BRANCH  38  61
ATOM     61  C   UNL A   1      45.740  26.347  27.449  1.00  0.00     0.023 A 
ATOM     62  C   UNL A   1      44.453  26.774  27.056  1.00  0.00     0.012 A 
ATOM     63  C   UNL A   1      46.789  26.549  26.521  1.00  0.00     0.148 A 
ATOM     64  C   UNL A   1      44.211  27.348  25.804  1.00  0.00     0.002 A 
ATOM     65  C   UNL A   1      46.547  27.111  25.260  1.00  0.00     0.091 A 
ATOM     66  F   UNL A   1      48.023  26.187  26.866  1.00  0.00    -0.205 F 
ATOM     67  C   UNL A   1      45.255  27.514  24.905  1.00  0.00     0.022 A 
BRANCH  65  68
ATOM     68  S   UNL A   1      47.808  27.301  23.980  1.00  0.00     0.127 S 
ATOM     69  O   UNL A   1      47.103  28.072  22.952  1.00  0.00    -0.237 OA
ATOM     70  O   UNL A   1      48.848  28.051  24.680  1.00  0.00    -0.237 OA
ATOM     71  O   UNL A   1      48.178  25.954  23.560  1.00  0.00    -0.744 OA
ENDBRANCH  65  68
ENDBRANCH  38  61
ENDBRANCH  12  13
ENDBRANCH   5   7
ENDBRANCH   2   3
ENDBRANCH   1   2
BRANCH   1  72
ATOM     72  C   UNL A   1      33.076  29.237  25.193  1.00  0.00     0.118 C 
BRANCH  72  73
ATOM     73  N   UNL A   1      33.494  28.214  24.248  1.00  0.00    -0.351 N 
ATOM     74  C   UNL A   1      32.863  27.092  23.771  1.00  0.00     0.267 C 
ATOM     75  H   UNL A   1      34.397  28.351  23.882  1.00  0.00     0.163 HD
ATOM     76  O   UNL A   1      33.535  26.350  23.053  1.00  0.00    -0.268 OA
BRANCH  74  77
ATOM     77  C   UNL A   1      31.480  26.802  24.108  1.00  0.00     0.107 A 
ATOM     78  C   UNL A   1      30.333  27.027  23.356  1.00  0.00     0.033 A 
ATOM     79  N   UNL A   1      31.061  26.119  25.248  1.00  0.00    -0.334 N 
ATOM     80  C   UNL A   1      29.226  26.468  24.033  1.00  0.00     0.020 A 
ATOM     81  C   UNL A   1      29.706  25.883  25.180  1.00  0.00     0.087 A 
BRANCH  79  82
ATOM     82  C   UNL A   1      31.912  25.628  26.324  1.00  0.00     0.222 C 
BRANCH  82  83
ATOM     83  C   UNL A   1      31.904  24.142  26.668  1.00  0.00     0.242 C 
ATOM     84  O   UNL A   1      30.911  23.678  27.246  1.00  0.00    -0.273 OA
BRANCH  83  85
ATOM     85  N   UNL A   1      32.841  23.295  26.104  1.00  0.00    -0.341 N 
ATOM     86  C   UNL A   1      32.778  21.847  26.066  1.00  0.00     0.120 C 
ATOM     87  C   UNL A   1      34.062  23.838  25.514  1.00  0.00     0.123 C 
ATOM     88  C   UNL A   1      33.900  21.280  26.912  1.00  0.00     0.025 C 
ATOM     89  C   UNL A   1      35.282  23.322  26.314  1.00  0.00     0.012 C 
ATOM     90  C   UNL A   1      35.287  21.786  26.472  1.00  0.00    -0.005 C 
ATOM     91  C   UNL A   1      36.619  23.784  25.740  1.00  0.00     0.006 C 
ATOM     92  C   UNL A   1      35.757  21.008  25.232  1.00  0.00     0.004 C 
ATOM     93  C   UNL A   1      36.887  23.186  24.370  1.00  0.00     0.000 C 
ATOM     94  C   UNL A   1      36.813  21.664  24.346  1.00  0.00     0.000 C 
ENDBRANCH  83  85
ENDBRANCH  82  83
ENDBRANCH  79  82
ENDBRANCH  74  77
ENDBRANCH  72  73
ENDBRANCH   1  72
TORSDOF 16
ENDMDL
MODEL 2
REMARK VINA RESULT:     -12.9      4.507      9.975
REMARK SMILES O=C(NCCCNC(=O)c1cccn1CC(=O)N1CC[C@H]2CCCC[C@H]2C1)c1ccc(-c2c3nc(c(-c4cccc(S(=O)(=O)[O-])c4F)c4ccc([nH]4)c(-c4cccc(S(=O)(=O)[O-])c4F)c4nc(c(-c5cccc(S(=O)(=O)[O-])c5F)c5ccc2[nH]5)C=C4)C=C3)cc1
REMARK SMILES IDX 5 1 4 2 3 3 1 4 2 5 28 7 29 8 90 9 30 10 89 11 31 12 32 13
REMARK SMILES IDX 33 14 83 15 34 16 88 17 82 18 84 19 35 20 87 21 81 22 80 23
REMARK SMILES IDX 36 25 68 26 48 27 67 28 49 29 52 30 66 31 85 32 50 33 51 34
REMARK SMILES IDX 65 36 86 37 53 38 37 39 38 40 46 41 39 42 41 43 47 44 40 45
REMARK SMILES IDX 42 46 43 47 44 48 45 49 69 50 70 51 78 52 71 53 73 54 79 55
REMARK SMILES IDX 72 56 74 57 75 58 76 59 77 60 54 61 55 62 63 63 56 64 58 65
REMARK SMILES IDX 64 66 57 67 59 68 60 69 61 70 62 71 6 72 7 73 8 74 9 76
REMARK SMILES IDX 10 77 11 78 14 79 12 80 13 81 15 82 16 83 17 84 18 85 19 86
REMARK SMILES IDX 27 87 20 88 26 89 21 90 25 91 22 92 24 93 23 94
REMARK H PARENT 3 6 84 24 52 35 7 75
REMARK Flexibility Score: inf
ROOT
ATOM      1  C   UNL A   1      36.863  23.011  25.105  1.00  0.00     0.042 C 
ENDROOT
BRANCH   1   2
ATOM      2  C   UNL A   1      37.681  23.938  25.994  1.00  0.00     0.118 C 
BRANCH   2   3
ATOM      3  N   UNL A   1      39.097  23.670  26.056  1.00  0.00    -0.352 N 
ATOM      4  O   UNL A   1      41.185  23.597  26.785  1.00  0.00    -0.269 OA
ATOM      5  C   UNL A   1      40.121  24.216  26.791  1.00  0.00     0.251 C 
ATOM      6  H   UNL A   1      39.389  22.953  25.448  1.00  0.00     0.163 HD
BRANCH   5   7
ATOM      7  C   UNL A   1      40.035  25.529  27.491  1.00  0.00     0.039 A 
ATOM      8  C   UNL A   1      39.572  25.714  28.797  1.00  0.00     0.014 A 
ATOM      9  C   UNL A   1      40.465  26.652  26.763  1.00  0.00     0.014 A 
ATOM     10  C   UNL A   1      39.450  27.000  29.329  1.00  0.00     0.010 A 
ATOM     11  C   UNL A   1      40.370  27.939  27.300  1.00  0.00     0.010 A 
ATOM     12  C   UNL A   1      39.858  28.116  28.587  1.00  0.00    -0.014 A 
BRANCH  12  13
ATOM     13  C   UNL A   1      39.988  29.416  29.302  1.00  0.00     0.031 A 
ATOM     14  C   UNL A   1      38.726  30.289  29.066  1.00  0.00     0.074 A 
ATOM     15  C   UNL A   1      41.162  29.677  29.965  1.00  0.00     0.049 A 
ATOM     16  N   UNL A   1      38.614  31.577  28.909  1.00  0.00    -0.248 NA
ATOM     17  C   UNL A   1      37.412  29.622  28.832  1.00  0.00     0.031 C 
ATOM     18  C   UNL A   1      42.261  28.704  30.157  1.00  0.00     0.029 A 
ATOM     19  N   UNL A   1      41.680  30.786  30.617  1.00  0.00    -0.354 N 
ATOM     20  C   UNL A   1      37.225  31.871  28.830  1.00  0.00     0.074 A 
ATOM     21  C   UNL A   1      36.561  30.627  28.613  1.00  0.00     0.031 C 
ATOM     22  C   UNL A   1      43.316  29.271  30.789  1.00  0.00     0.029 A 
ATOM     23  C   UNL A   1      43.016  30.658  31.100  1.00  0.00     0.049 A 
ATOM     24  H   UNL A   1      41.158  31.611  30.740  1.00  0.00     0.167 HD
ATOM     25  C   UNL A   1      36.699  33.098  29.137  1.00  0.00     0.034 A 
ATOM     26  C   UNL A   1      43.828  31.602  31.687  1.00  0.00     0.034 A 
ATOM     27  C   UNL A   1      37.757  33.949  29.565  1.00  0.00     0.049 A 
ATOM     28  C   UNL A   1      42.960  32.753  31.938  1.00  0.00     0.074 A 
ATOM     29  C   UNL A   1      38.784  34.572  28.911  1.00  0.00     0.029 A 
ATOM     30  N   UNL A   1      38.004  33.920  30.916  1.00  0.00    -0.354 N 
ATOM     31  N   UNL A   1      42.075  32.804  32.886  1.00  0.00    -0.248 NA
ATOM     32  C   UNL A   1      43.049  33.920  31.053  1.00  0.00     0.031 C 
ATOM     33  C   UNL A   1      39.836  34.501  29.840  1.00  0.00     0.029 A 
ATOM     34  C   UNL A   1      39.353  34.053  31.079  1.00  0.00     0.049 A 
ATOM     35  H   UNL A   1      37.336  33.823  31.632  1.00  0.00     0.167 HD
ATOM     36  C   UNL A   1      41.266  33.818  32.447  1.00  0.00     0.074 A 
ATOM     37  C   UNL A   1      42.079  34.655  31.591  1.00  0.00     0.031 C 
ATOM     38  C   UNL A   1      39.939  33.564  32.301  1.00  0.00     0.034 A 
BRANCH  25  39
ATOM     39  C   UNL A   1      35.306  33.636  29.405  1.00  0.00     0.023 A 
ATOM     40  C   UNL A   1      34.519  33.879  28.237  1.00  0.00     0.012 A 
ATOM     41  C   UNL A   1      34.849  34.198  30.607  1.00  0.00     0.148 A 
ATOM     42  C   UNL A   1      33.431  34.750  28.226  1.00  0.00     0.002 A 
ATOM     43  C   UNL A   1      33.721  35.028  30.602  1.00  0.00     0.091 A 
ATOM     44  F   UNL A   1      35.544  34.003  31.732  1.00  0.00    -0.205 F 
ATOM     45  C   UNL A   1      33.043  35.340  29.413  1.00  0.00     0.022 A 
BRANCH  43  46
ATOM     46  S   UNL A   1      33.050  35.774  32.093  1.00  0.00     0.127 S 
ATOM     47  O   UNL A   1      34.251  36.291  32.743  1.00  0.00    -0.237 OA
ATOM     48  O   UNL A   1      32.169  36.807  31.541  1.00  0.00    -0.237 OA
ATOM     49  O   UNL A   1      32.344  34.704  32.784  1.00  0.00    -0.744 OA
ENDBRANCH  43  46
ENDBRANCH  25  39
BRANCH  26  50
ATOM     50  C   UNL A   1      45.283  31.809  32.090  1.00  0.00     0.023 A 
ATOM     51  C   UNL A   1      46.345  31.970  31.194  1.00  0.00     0.012 A 
ATOM     52  C   UNL A   1      45.626  31.960  33.479  1.00  0.00     0.148 A 
ATOM     53  C   UNL A   1      47.632  32.347  31.644  1.00  0.00     0.002 A 
ATOM     54  C   UNL A   1      46.849  32.464  33.907  1.00  0.00     0.091 A 
ATOM     55  F   UNL A   1      44.765  31.577  34.426  1.00  0.00    -0.205 F 
ATOM     56  C   UNL A   1      47.873  32.643  32.988  1.00  0.00     0.022 A 
BRANCH  54  57
ATOM     57  S   UNL A   1      47.102  33.043  35.602  1.00  0.00     0.127 S 
ATOM     58  O   UNL A   1      48.389  33.730  35.512  1.00  0.00    -0.237 OA
ATOM     59  O   UNL A   1      45.947  33.923  35.780  1.00  0.00    -0.237 OA
ATOM     60  O   UNL A   1      47.095  31.859  36.452  1.00  0.00    -0.744 OA
ENDBRANCH  54  57
ENDBRANCH  26  50
BRANCH  38  61
ATOM     61  C   UNL A   1      39.384  32.501  33.252  1.00  0.00     0.023 A 
ATOM     62  C   UNL A   1      39.004  31.267  32.684  1.00  0.00     0.012 A 
ATOM     63  C   UNL A   1      39.103  32.683  34.628  1.00  0.00     0.148 A 
ATOM     64  C   UNL A   1      38.357  30.275  33.427  1.00  0.00     0.002 A 
ATOM     65  C   UNL A   1      38.443  31.696  35.372  1.00  0.00     0.091 A 
ATOM     66  F   UNL A   1      39.474  33.822  35.208  1.00  0.00    -0.205 F 
ATOM     67  C   UNL A   1      38.074  30.489  34.769  1.00  0.00     0.022 A 
BRANCH  65  68
ATOM     68  S   UNL A   1      37.950  31.894  37.099  1.00  0.00     0.127 S 
ATOM     69  O   UNL A   1      39.216  32.240  37.751  1.00  0.00    -0.237 OA
ATOM     70  O   UNL A   1      36.997  32.997  37.023  1.00  0.00    -0.237 OA
ATOM     71  O   UNL A   1      37.398  30.612  37.522  1.00  0.00    -0.744 OA
ENDBRANCH  65  68
ENDBRANCH  38  61
ENDBRANCH  12  13
ENDBRANCH   5   7
ENDBRANCH   2   3
ENDBRANCH   1   2
BRANCH   1  72
ATOM     72  C   UNL A   1      36.543  21.620  25.648  1.00  0.00     0.118 C 
BRANCH  72  73
ATOM     73  N   UNL A   1      35.541  21.629  26.702  1.00  0.00    -0.351 N 
ATOM     74  C   UNL A   1      34.170  21.589  26.665  1.00  0.00     0.267 C 
ATOM     75  H   UNL A   1      35.916  21.672  27.611  1.00  0.00     0.163 HD
ATOM     76  O   UNL A   1      33.589  21.728  27.742  1.00  0.00    -0.268 OA
BRANCH  74  77
ATOM     77  C   UNL A   1      33.453  21.399  25.415  1.00  0.00     0.107 A 
ATOM     78  C   UNL A   1      33.125  20.213  24.769  1.00  0.00     0.033 A 
ATOM     79  N   UNL A   1      32.851  22.415  24.676  1.00  0.00    -0.334 N 
ATOM     80  C   UNL A   1      32.315  20.512  23.650  1.00  0.00     0.020 A 
ATOM     81  C   UNL A   1      32.132  21.874  23.635  1.00  0.00     0.087 A 
BRANCH  79  82
ATOM     82  C   UNL A   1      32.878  23.840  24.982  1.00  0.00     0.222 C 
BRANCH  82  83
ATOM     83  C   UNL A   1      31.753  24.450  25.813  1.00  0.00     0.242 C 
ATOM     84  O   UNL A   1      31.204  23.741  26.667  1.00  0.00    -0.273 OA
BRANCH  83  85
ATOM     85  N   UNL A   1      31.552  25.819  25.809  1.00  0.00    -0.341 N 
ATOM     86  C   UNL A   1      30.569  26.540  25.025  1.00  0.00     0.120 C 
ATOM     87  C   UNL A   1      32.408  26.690  26.611  1.00  0.00     0.123 C 
ATOM     88  C   UNL A   1      31.284  27.412  24.015  1.00  0.00     0.025 C 
ATOM     89  C   UNL A   1      33.197  27.628  25.667  1.00  0.00     0.012 C 
ATOM     90  C   UNL A   1      32.287  28.380  24.672  1.00  0.00    -0.005 C 
ATOM     91  C   UNL A   1      34.081  28.627  26.410  1.00  0.00     0.006 C 
ATOM     92  C   UNL A   1      31.539  29.586  25.262  1.00  0.00     0.004 C 
ATOM     93  C   UNL A   1      33.263  29.626  27.209  1.00  0.00     0.000 C 
ATOM     94  C   UNL A   1      32.232  30.373  26.371  1.00  0.00     0.000 C 
ENDBRANCH  83  85
ENDBRANCH  82  83
ENDBRANCH  79  82
ENDBRANCH  74  77
ENDBRANCH  72  73
ENDBRANCH   1  72
TORSDOF 16
ENDMDL
MODEL 3
REMARK VINA RESULT:     -12.8      4.204     10.094
REMARK SMILES O=C(NCCCNC(=O)c1cccn1CC(=O)N1CC[C@H]2CCCC[C@H]2C1)c1ccc(-c2c3nc(c(-c4cccc(S(=O)(=O)[O-])c4F)c4ccc([nH]4)c(-c4cccc(S(=O)(=O)[O-])c4F)c4nc(c(-c5cccc(S(=O)(=O)[O-])c5F)c5ccc2[nH]5)C=C4)C=C3)cc1
REMARK SMILES IDX 5 1 4 2 3 3 1 4 2 5 28 7 29 8 90 9 30 10 89 11 31 12 32 13
REMARK SMILES IDX 33 14 83 15 34 16 88 17 82 18 84 19 35 20 87 21 81 22 80 23
REMARK SMILES IDX 36 25 68 26 48 27 67 28 49 29 52 30 66 31 85 32 50 33 51 34
REMARK SMILES IDX 65 36 86 37 53 38 37 39 38 40 46 41 39 42 41 43 47 44 40 45
REMARK SMILES IDX 42 46 43 47 44 48 45 49 69 50 70 51 78 52 71 53 73 54 79 55
REMARK SMILES IDX 72 56 74 57 75 58 76 59 77 60 54 61 55 62 63 63 56 64 58 65
REMARK SMILES IDX 64 66 57 67 59 68 60 69 61 70 62 71 6 72 7 73 8 74 9 76
REMARK SMILES IDX 10 77 11 78 14 79 12 80 13 81 15 82 16 83 17 84 18 85 19 86
REMARK SMILES IDX 27 87 20 88 26 89 21 90 25 91 22 92 24 93 23 94
REMARK H PARENT 3 6 84 24 52 35 7 75
REMARK Flexibility Score: inf
ROOT
ATOM      1  C   UNL A   1      36.628  23.043  25.283  1.00  0.00     0.042 C 
ENDROOT
BRANCH   1   2
ATOM      2  C   UNL A   1      37.530  24.090  25.922  1.00  0.00     0.118 C 
BRANCH   2   3
ATOM      3  N   UNL A   1      38.927  23.748  26.021  1.00  0.00    -0.352 N 
ATOM      4  O   UNL A   1      40.988  23.559  26.807  1.00  0.00    -0.269 OA
ATOM      5  C   UNL A   1      39.957  24.234  26.790  1.00  0.00     0.251 C 
ATOM      6  H   UNL A   1      39.198  23.020  25.416  1.00  0.00     0.163 HD
BRANCH   5   7
ATOM      7  C   UNL A   1      39.920  25.545  27.498  1.00  0.00     0.039 A 
ATOM      8  C   UNL A   1      39.428  25.745  28.791  1.00  0.00     0.014 A 
ATOM      9  C   UNL A   1      40.431  26.648  26.793  1.00  0.00     0.014 A 
ATOM     10  C   UNL A   1      39.360  27.032  29.330  1.00  0.00     0.010 A 
ATOM     11  C   UNL A   1      40.390  27.934  27.338  1.00  0.00     0.010 A 
ATOM     12  C   UNL A   1      39.848  28.130  28.610  1.00  0.00    -0.014 A 
BRANCH  12  13
ATOM     13  C   UNL A   1      40.026  29.416  29.339  1.00  0.00     0.031 A 
ATOM     14  C   UNL A   1      38.800  30.340  29.108  1.00  0.00     0.074 A 
ATOM     15  C   UNL A   1      41.207  29.624  30.010  1.00  0.00     0.049 A 
ATOM     16  N   UNL A   1      38.740  31.633  28.965  1.00  0.00    -0.248 NA
ATOM     17  C   UNL A   1      37.463  29.727  28.862  1.00  0.00     0.031 C 
ATOM     18  C   UNL A   1      42.267  28.606  30.195  1.00  0.00     0.029 A 
ATOM     19  N   UNL A   1      41.765  30.704  30.676  1.00  0.00    -0.354 N 
ATOM     20  C   UNL A   1      37.363  31.982  28.884  1.00  0.00     0.074 A 
ATOM     21  C   UNL A   1      36.653  30.767  28.650  1.00  0.00     0.031 C 
ATOM     22  C   UNL A   1      43.340  29.125  30.837  1.00  0.00     0.029 A 
ATOM     23  C   UNL A   1      43.093  30.520  31.163  1.00  0.00     0.049 A 
ATOM     24  H   UNL A   1      41.275  31.548  30.806  1.00  0.00     0.167 HD
ATOM     25  C   UNL A   1      36.885  33.225  29.202  1.00  0.00     0.034 A 
ATOM     26  C   UNL A   1      43.939  31.424  31.763  1.00  0.00     0.034 A 
ATOM     27  C   UNL A   1      37.973  34.030  29.644  1.00  0.00     0.049 A 
ATOM     28  C   UNL A   1      43.115  32.605  32.023  1.00  0.00     0.074 A 
ATOM     29  C   UNL A   1      39.026  34.619  29.000  1.00  0.00     0.029 A 
ATOM     30  N   UNL A   1      38.213  33.977  30.996  1.00  0.00    -0.354 N 
ATOM     31  N   UNL A   1      42.229  32.681  32.968  1.00  0.00    -0.248 NA
ATOM     32  C   UNL A   1      43.254  33.778  31.151  1.00  0.00     0.031 C 
ATOM     33  C   UNL A   1      40.071  34.496  29.933  1.00  0.00     0.029 A 
ATOM     34  C   UNL A   1      39.565  34.055  31.165  1.00  0.00     0.049 A 
ATOM     35  H   UNL A   1      37.539  33.897  31.707  1.00  0.00     0.167 HD
ATOM     36  C   UNL A   1      41.462  33.730  32.537  1.00  0.00     0.074 A 
ATOM     37  C   UNL A   1      42.311  34.544  31.694  1.00  0.00     0.031 C 
ATOM     38  C   UNL A   1      40.127  33.530  32.383  1.00  0.00     0.034 A 
BRANCH  25  39
ATOM     39  C   UNL A   1      35.513  33.814  29.471  1.00  0.00     0.023 A 
ATOM     40  C   UNL A   1      34.865  34.380  28.329  1.00  0.00     0.012 A 
ATOM     41  C   UNL A   1      34.977  34.135  30.728  1.00  0.00     0.148 A 
ATOM     42  C   UNL A   1      33.848  35.327  28.428  1.00  0.00     0.002 A 
ATOM     43  C   UNL A   1      33.915  35.044  30.820  1.00  0.00     0.091 A 
ATOM     44  F   UNL A   1      35.540  33.633  31.831  1.00  0.00    -0.205 F 
ATOM     45  C   UNL A   1      33.384  35.672  29.682  1.00  0.00     0.022 A 
BRANCH  43  46
ATOM     46  S   UNL A   1      33.152  35.499  32.382  1.00  0.00     0.127 S 
ATOM     47  O   UNL A   1      32.755  34.200  32.918  1.00  0.00    -0.237 OA
ATOM     48  O   UNL A   1      34.269  36.129  33.090  1.00  0.00    -0.237 OA
ATOM     49  O   UNL A   1      32.076  36.419  32.039  1.00  0.00    -0.744 OA
ENDBRANCH  43  46
ENDBRANCH  25  39
BRANCH  26  50
ATOM     50  C   UNL A   1      45.399  31.570  32.174  1.00  0.00     0.023 A 
ATOM     51  C   UNL A   1      45.837  32.145  33.371  1.00  0.00     0.012 A 
ATOM     52  C   UNL A   1      46.434  30.998  31.355  1.00  0.00     0.148 A 
ATOM     53  C   UNL A   1      47.195  32.071  33.765  1.00  0.00     0.002 A 
ATOM     54  C   UNL A   1      47.735  30.803  31.804  1.00  0.00     0.091 A 
ATOM     55  F   UNL A   1      46.174  30.658  30.089  1.00  0.00    -0.205 F 
ATOM     56  C   UNL A   1      48.131  31.359  33.012  1.00  0.00     0.022 A 
BRANCH  54  57
ATOM     57  S   UNL A   1      48.890  29.713  30.937  1.00  0.00     0.127 S 
ATOM     58  O   UNL A   1      49.218  30.487  29.742  1.00  0.00    -0.237 OA
ATOM     59  O   UNL A   1      49.972  29.604  31.916  1.00  0.00    -0.237 OA
ATOM     60  O   UNL A   1      48.177  28.467  30.686  1.00  0.00    -0.744 OA
ENDBRANCH  54  57
ENDBRANCH  26  50
BRANCH  38  61
ATOM     61  C   UNL A   1      39.527  32.479  33.321  1.00  0.00     0.023 A 
ATOM     62  C   UNL A   1      39.128  31.256  32.742  1.00  0.00     0.012 A 
ATOM     63  C   UNL A   1      39.222  32.666  34.691  1.00  0.00     0.148 A 
ATOM     64  C   UNL A   1      38.443  30.278  33.470  1.00  0.00     0.002 A 
ATOM     65  C   UNL A   1      38.523  31.694  35.419  1.00  0.00     0.091 A 
ATOM     66  F   UNL A   1      39.608  33.795  35.280  1.00  0.00    -0.205 F 
ATOM     67  C   UNL A   1      38.137  30.497  34.806  1.00  0.00     0.022 A 
BRANCH  65  68
ATOM     68  S   UNL A   1      38.000  31.901  37.136  1.00  0.00     0.127 S 
ATOM     69  O   UNL A   1      37.473  30.575  37.469  1.00  0.00    -0.237 OA
ATOM     70  O   UNL A   1      39.256  32.229  37.804  1.00  0.00    -0.237 OA
ATOM     71  O   UNL A   1      36.992  32.955  37.138  1.00  0.00    -0.744 OA
ENDBRANCH  65  68
ENDBRANCH  38  61
ENDBRANCH  12  13
ENDBRANCH   5   7
ENDBRANCH   2   3
ENDBRANCH   1   2
BRANCH   1  72
ATOM     72  C   UNL A   1      36.865  21.584  25.667  1.00  0.00     0.118 C 
BRANCH  72  73
ATOM     73  N   UNL A   1      35.947  20.661  25.020  1.00  0.00    -0.351 N 
ATOM     74  C   UNL A   1      34.594  20.471  25.149  1.00  0.00     0.267 C 
ATOM     75  H   UNL A   1      36.375  20.060  24.368  1.00  0.00     0.163 HD
ATOM     76  O   UNL A   1      34.114  19.517  24.536  1.00  0.00    -0.268 OA
BRANCH  74  77
ATOM     77  C   UNL A   1      33.783  21.351  25.972  1.00  0.00     0.107 A 
ATOM     78  C   UNL A   1      33.747  21.463  27.357  1.00  0.00     0.033 A 
ATOM     79  N   UNL A   1      32.945  22.354  25.487  1.00  0.00    -0.334 N 
ATOM     80  C   UNL A   1      32.901  22.540  27.706  1.00  0.00     0.020 A 
ATOM     81  C   UNL A   1      32.447  23.095  26.534  1.00  0.00     0.087 A 
BRANCH  79  82
ATOM     82  C   UNL A   1      32.687  22.662  24.086  1.00  0.00     0.222 C 
BRANCH  82  83
ATOM     83  C   UNL A   1      33.477  23.775  23.405  1.00  0.00     0.242 C 
ATOM     84  O   UNL A   1      34.273  23.466  22.508  1.00  0.00    -0.273 OA
BRANCH  83  85
ATOM     85  N   UNL A   1      33.109  25.097  23.585  1.00  0.00    -0.341 N 
ATOM     86  C   UNL A   1      33.906  26.134  24.209  1.00  0.00     0.120 C 
ATOM     87  C   UNL A   1      31.782  25.552  23.175  1.00  0.00     0.123 C 
ATOM     88  C   UNL A   1      33.234  26.569  25.495  1.00  0.00     0.025 C 
ATOM     89  C   UNL A   1      31.001  26.018  24.427  1.00  0.00     0.012 C 
ATOM     90  C   UNL A   1      31.785  27.042  25.275  1.00  0.00    -0.005 C 
ATOM     91  C   UNL A   1      29.616  26.574  24.101  1.00  0.00     0.006 C 
ATOM     92  C   UNL A   1      31.781  28.478  24.725  1.00  0.00     0.004 C 
ATOM     93  C   UNL A   1      29.694  27.862  23.301  1.00  0.00     0.000 C 
ATOM     94  C   UNL A   1      30.540  28.941  23.968  1.00  0.00     0.000 C 
ENDBRANCH  83  85
ENDBRANCH  82  83
ENDBRANCH  79  82
ENDBRANCH  74  77
ENDBRANCH  72  73
ENDBRANCH   1  72
TORSDOF 16
ENDMDL
