MODEL 1
REMARK VINA RESULT:     -12.5      0.000      0.000
REMARK SMILES Cc1ccc(S(=O)(=O)n2cc(C(=O)C(=O)NCC(=O)NCC(=O)NCCCNC(=O)c3ccc(-c4c5nc(c(-c6cccc(S(=O)(=O)[O-])c6F)c6ccc([nH]6)c(-c6cccc(S(=O)(=O)[O-])c6F)c6nc(c(-c7cccc(S(=O)(=O)[O-])c7F)c7ccc4[nH]7)C=C6)C=C5)cc3)c3ccccc32)cc1
REMARK SMILES IDX 22 1 23 2 24 3 21 5 20 6 18 7 19 8 17 10 16 11 14 12 15 13
REMARK SMILES IDX 12 15 13 16 11 17 9 18 10 19 99 20 94 21 98 22 95 23 97 24
REMARK SMILES IDX 96 25 6 26 7 27 8 28 5 29 1 30 2 31 3 32 101 33 4 34 100 35
REMARK SMILES IDX 25 36 26 37 27 38 28 39 29 40 30 42 31 43 32 44 93 45 33 46
REMARK SMILES IDX 92 47 34 48 35 49 36 50 86 51 37 52 91 53 85 54 87 55 38 56
REMARK SMILES IDX 90 57 84 58 83 59 39 61 71 62 51 63 70 64 52 65 55 66 69 67
REMARK SMILES IDX 88 68 53 69 54 70 68 72 89 73 56 74 40 75 41 76 49 77 42 78
REMARK SMILES IDX 44 79 50 80 43 81 45 82 46 83 47 84 48 85 72 86 73 87 81 88
REMARK SMILES IDX 74 89 76 90 82 91 75 92 77 93 78 94 79 95 80 96 57 97 58 98
REMARK SMILES IDX 66 99 59 100 61 101 67 102 60 103 62 104 63 105 64 106
REMARK SMILES IDX 65 107
REMARK H PARENT 24 4 20 9 16 14 28 41 87 60 55 71
REMARK Flexibility Score: inf
ROOT
ATOM      1  C   UNL A   1      38.811  24.013  26.780  1.00  0.00     0.239 C 
ATOM      2  O   UNL A   1      38.689  25.119  27.309  1.00  0.00    -0.273 OA
ATOM      3  N   UNL A   1      39.879  23.232  27.130  1.00  0.00    -0.355 N 
ATOM      4  H   UNL A   1      40.607  23.675  27.622  1.00  0.00     0.163 HD
ENDROOT
BRANCH   1   5
ATOM      5  C   UNL A   1      37.713  23.455  25.848  1.00  0.00     0.216 C 
BRANCH   5   6
ATOM      6  N   UNL A   1      36.393  23.408  26.460  1.00  0.00    -0.346 N 
ATOM      7  C   UNL A   1      35.285  22.657  26.222  1.00  0.00     0.239 C 
ATOM      8  O   UNL A   1      34.298  22.882  26.930  1.00  0.00    -0.273 OA
ATOM      9  H   UNL A   1      36.278  24.053  27.195  1.00  0.00     0.164 HD
BRANCH   7  10
ATOM     10  C   UNL A   1      35.232  21.527  25.181  1.00  0.00     0.216 C 
BRANCH  10  11
ATOM     11  N   UNL A   1      34.453  20.335  25.512  1.00  0.00    -0.340 N 
ATOM     12  C   UNL A   1      33.268  19.840  24.997  1.00  0.00     0.292 C 
ATOM     13  O   UNL A   1      32.776  18.830  25.486  1.00  0.00    -0.265 OA
ATOM     14  H   UNL A   1      34.841  19.785  26.230  1.00  0.00     0.164 HD
BRANCH  12  15
ATOM     15  C   UNL A   1      32.560  20.560  23.838  1.00  0.00     0.252 C 
ATOM     16  O   UNL A   1      32.195  19.870  22.890  1.00  0.00    -0.283 OA
BRANCH  15  17
ATOM     17  C   UNL A   1      32.296  22.004  23.819  1.00  0.00     0.054 A 
ATOM     18  N   UNL A   1      32.253  24.189  23.352  1.00  0.00    -0.240 N 
ATOM     19  C   UNL A   1      32.749  22.973  22.940  1.00  0.00     0.117 A 
ATOM     20  C   UNL A   1      31.476  24.054  24.486  1.00  0.00     0.065 A 
ATOM     21  C   UNL A   1      31.484  22.689  24.791  1.00  0.00     0.012 A 
ATOM     22  C   UNL A   1      30.798  24.984  25.294  1.00  0.00     0.028 A 
ATOM     23  C   UNL A   1      30.774  22.249  25.930  1.00  0.00     0.011 A 
ATOM     24  C   UNL A   1      30.133  24.517  26.431  1.00  0.00     0.002 A 
ATOM     25  C   UNL A   1      30.113  23.166  26.745  1.00  0.00     0.001 A 
BRANCH  18  26
ATOM     26  S   UNL A   1      32.654  25.683  22.636  1.00  0.00     0.268 S 
ATOM     27  O   UNL A   1      31.433  26.155  22.025  1.00  0.00    -0.201 OA
ATOM     28  O   UNL A   1      33.866  25.442  21.866  1.00  0.00    -0.201 OA
BRANCH  26  29
ATOM     29  C   UNL A   1      33.074  26.819  23.936  1.00  0.00     0.088 A 
ATOM     30  C   UNL A   1      33.708  29.600  27.160  1.00  0.00     0.044 C 
ATOM     31  C   UNL A   1      33.503  28.635  26.029  1.00  0.00    -0.051 A 
ATOM     32  C   UNL A   1      32.593  28.937  25.008  1.00  0.00     0.005 A 
ATOM     33  C   UNL A   1      34.216  27.431  25.975  1.00  0.00     0.005 A 
ATOM     34  C   UNL A   1      32.373  28.031  23.968  1.00  0.00     0.022 A 
ATOM     35  C   UNL A   1      34.014  26.529  24.927  1.00  0.00     0.022 A 
ENDBRANCH  26  29
ENDBRANCH  18  26
ENDBRANCH  15  17
ENDBRANCH  12  15
ENDBRANCH  10  11
ENDBRANCH   7  10
ENDBRANCH   5   6
ENDBRANCH   1   5
BRANCH   3  36
ATOM     36  C   UNL A   1      40.051  21.826  26.850  1.00  0.00     0.117 C 
BRANCH  36  37
ATOM     37  C   UNL A   1      41.489  21.359  26.982  1.00  0.00     0.042 C 
BRANCH  37  38
ATOM     38  C   UNL A   1      42.380  22.073  26.007  1.00  0.00     0.118 C 
BRANCH  38  39
ATOM     39  N   UNL A   1      43.212  21.181  25.232  1.00  0.00    -0.352 N 
ATOM     40  C   UNL A   1      44.427  21.454  24.633  1.00  0.00     0.251 C 
ATOM     41  H   UNL A   1      42.870  20.264  25.117  1.00  0.00     0.163 HD
ATOM     42  O   UNL A   1      44.795  20.722  23.720  1.00  0.00    -0.269 OA
BRANCH  40  43
ATOM     43  C   UNL A   1      45.335  22.474  25.235  1.00  0.00     0.039 A 
ATOM     44  C   UNL A   1      45.431  22.445  26.630  1.00  0.00     0.014 A 
ATOM     45  C   UNL A   1      45.636  23.646  24.556  1.00  0.00     0.014 A 
ATOM     46  C   UNL A   1      45.446  23.641  27.332  1.00  0.00     0.010 A 
ATOM     47  C   UNL A   1      45.462  24.825  25.219  1.00  0.00     0.010 A 
ATOM     48  C   UNL A   1      45.298  24.805  26.603  1.00  0.00    -0.014 A 
BRANCH  48  49
ATOM     49  C   UNL A   1      45.141  26.129  27.145  1.00  0.00     0.031 A 
ATOM     50  C   UNL A   1      43.774  26.674  27.118  1.00  0.00     0.074 A 
ATOM     51  C   UNL A   1      46.126  26.554  27.966  1.00  0.00     0.049 A 
ATOM     52  N   UNL A   1      43.468  27.861  27.484  1.00  0.00    -0.248 NA
ATOM     53  C   UNL A   1      42.617  25.889  26.677  1.00  0.00     0.031 C 
ATOM     54  C   UNL A   1      46.021  27.444  29.114  1.00  0.00     0.029 A 
ATOM     55  N   UNL A   1      47.480  26.283  27.930  1.00  0.00    -0.354 N 
ATOM     56  C   UNL A   1      42.098  27.895  27.635  1.00  0.00     0.074 A 
ATOM     57  C   UNL A   1      41.605  26.685  27.030  1.00  0.00     0.031 C 
ATOM     58  C   UNL A   1      47.256  27.842  29.477  1.00  0.00     0.029 A 
ATOM     59  C   UNL A   1      48.176  27.370  28.456  1.00  0.00     0.049 A 
ATOM     60  H   UNL A   1      47.888  25.455  27.589  1.00  0.00     0.167 HD
ATOM     61  C   UNL A   1      41.567  28.868  28.423  1.00  0.00     0.034 A 
ATOM     62  C   UNL A   1      48.903  28.198  27.636  1.00  0.00     0.034 A 
ATOM     63  C   UNL A   1      42.647  29.723  28.935  1.00  0.00     0.049 A 
ATOM     64  C   UNL A   1      48.268  29.579  27.481  1.00  0.00     0.074 A 
ATOM     65  C   UNL A   1      43.382  29.704  30.109  1.00  0.00     0.029 A 
ATOM     66  N   UNL A   1      43.367  30.495  28.034  1.00  0.00    -0.354 N 
ATOM     67  N   UNL A   1      47.060  29.878  27.881  1.00  0.00    -0.248 NA
ATOM     68  C   UNL A   1      48.948  30.741  26.914  1.00  0.00     0.031 C 
ATOM     69  C   UNL A   1      44.593  30.416  29.878  1.00  0.00     0.029 A 
ATOM     70  C   UNL A   1      44.584  30.883  28.575  1.00  0.00     0.049 A 
ATOM     71  H   UNL A   1      43.057  30.734  27.131  1.00  0.00     0.167 HD
ATOM     72  C   UNL A   1      46.755  31.177  27.579  1.00  0.00     0.074 A 
ATOM     73  C   UNL A   1      47.999  31.691  27.028  1.00  0.00     0.031 C 
ATOM     74  C   UNL A   1      45.501  31.700  27.783  1.00  0.00     0.034 A 
BRANCH  61  75
ATOM     75  C   UNL A   1      40.160  28.885  28.976  1.00  0.00     0.023 A 
ATOM     76  C   UNL A   1      39.114  29.006  28.033  1.00  0.00     0.012 A 
ATOM     77  C   UNL A   1      39.770  28.799  30.335  1.00  0.00     0.148 A 
ATOM     78  C   UNL A   1      37.770  29.092  28.398  1.00  0.00     0.002 A 
ATOM     79  C   UNL A   1      38.424  28.926  30.706  1.00  0.00     0.091 A 
ATOM     80  F   UNL A   1      40.686  28.537  31.273  1.00  0.00    -0.205 F 
ATOM     81  C   UNL A   1      37.424  29.070  29.738  1.00  0.00     0.022 A 
BRANCH  79  82
ATOM     82  S   UNL A   1      37.871  28.966  32.422  1.00  0.00     0.127 S 
ATOM     83  O   UNL A   1      37.940  27.552  32.801  1.00  0.00    -0.237 OA
ATOM     84  O   UNL A   1      38.878  29.810  33.059  1.00  0.00    -0.237 OA
ATOM     85  O   UNL A   1      36.518  29.507  32.401  1.00  0.00    -0.744 OA
ENDBRANCH  79  82
ENDBRANCH  61  75
BRANCH  62  86
ATOM     86  C   UNL A   1      49.643  27.422  26.586  1.00  0.00     0.023 A 
ATOM     87  C   UNL A   1      49.132  27.545  25.267  1.00  0.00     0.012 A 
ATOM     88  C   UNL A   1      50.994  27.071  26.754  1.00  0.00     0.148 A 
ATOM     89  C   UNL A   1      49.991  27.565  24.167  1.00  0.00     0.002 A 
ATOM     90  C   UNL A   1      51.843  27.067  25.645  1.00  0.00     0.091 A 
ATOM     91  F   UNL A   1      51.444  26.820  27.990  1.00  0.00    -0.205 F 
ATOM     92  C   UNL A   1      51.355  27.383  24.365  1.00  0.00     0.022 A 
BRANCH  90  93
ATOM     93  S   UNL A   1      53.612  26.781  25.808  1.00  0.00     0.127 S 
ATOM     94  O   UNL A   1      53.960  27.692  26.894  1.00  0.00    -0.237 OA
ATOM     95  O   UNL A   1      53.676  25.365  26.163  1.00  0.00    -0.237 OA
ATOM     96  O   UNL A   1      54.172  27.098  24.503  1.00  0.00    -0.744 OA
ENDBRANCH  90  93
ENDBRANCH  62  86
BRANCH  74  97
ATOM     97  C   UNL A   1      44.984  33.030  27.251  1.00  0.00     0.023 A 
ATOM     98  C   UNL A   1      44.550  33.199  25.925  1.00  0.00     0.012 A 
ATOM     99  C   UNL A   1      44.764  34.132  28.127  1.00  0.00     0.148 A 
ATOM    100  C   UNL A   1      43.985  34.398  25.475  1.00  0.00     0.002 A 
ATOM    101  C   UNL A   1      44.066  35.260  27.713  1.00  0.00     0.091 A 
ATOM    102  F   UNL A   1      45.257  34.115  29.374  1.00  0.00    -0.205 F 
ATOM    103  C   UNL A   1      43.712  35.416  26.376  1.00  0.00     0.022 A 
BRANCH 101 104
ATOM    104  S   UNL A   1      43.441  36.458  28.901  1.00  0.00     0.127 S 
ATOM    105  O   UNL A   1      42.591  37.300  28.063  1.00  0.00    -0.237 OA
ATOM    106  O   UNL A   1      42.715  35.606  29.844  1.00  0.00    -0.237 OA
ATOM    107  O   UNL A   1      44.625  37.093  29.462  1.00  0.00    -0.744 OA
ENDBRANCH 101 104
ENDBRANCH  74  97
ENDBRANCH  48  49
ENDBRANCH  40  43
ENDBRANCH  38  39
ENDBRANCH  37  38
ENDBRANCH  36  37
ENDBRANCH   3  36
TORSDOF 20
ENDMDL
MODEL 2
REMARK VINA RESULT:     -12.4      4.539      9.796
REMARK SMILES Cc1ccc(S(=O)(=O)n2cc(C(=O)C(=O)NCC(=O)NCC(=O)NCCCNC(=O)c3ccc(-c4c5nc(c(-c6cccc(S(=O)(=O)[O-])c6F)c6ccc([nH]6)c(-c6cccc(S(=O)(=O)[O-])c6F)c6nc(c(-c7cccc(S(=O)(=O)[O-])c7F)c7ccc4[nH]7)C=C6)C=C5)cc3)c3ccccc32)cc1
REMARK SMILES IDX 22 1 23 2 24 3 21 5 20 6 18 7 19 8 17 10 16 11 14 12 15 13
REMARK SMILES IDX 12 15 13 16 11 17 9 18 10 19 99 20 94 21 98 22 95 23 97 24
REMARK SMILES IDX 96 25 6 26 7 27 8 28 5 29 1 30 2 31 3 32 101 33 4 34 100 35
REMARK SMILES IDX 25 36 26 37 27 38 28 39 29 40 30 42 31 43 32 44 93 45 33 46
REMARK SMILES IDX 92 47 34 48 35 49 36 50 86 51 37 52 91 53 85 54 87 55 38 56
REMARK SMILES IDX 90 57 84 58 83 59 39 61 71 62 51 63 70 64 52 65 55 66 69 67
REMARK SMILES IDX 88 68 53 69 54 70 68 72 89 73 56 74 40 75 41 76 49 77 42 78
REMARK SMILES IDX 44 79 50 80 43 81 45 82 46 83 47 84 48 85 72 86 73 87 81 88
REMARK SMILES IDX 74 89 76 90 82 91 75 92 77 93 78 94 79 95 80 96 57 97 58 98
REMARK SMILES IDX 66 99 59 100 61 101 67 102 60 103 62 104 63 105 64 106
REMARK SMILES IDX 65 107
REMARK H PARENT 24 4 20 9 16 14 28 41 87 60 55 71
REMARK Flexibility Score: inf
ROOT
ATOM      1  C   UNL A   1      31.199  30.869  25.682  1.00  0.00     0.239 C 
ATOM      2  O   UNL A   1      30.584  31.894  25.385  1.00  0.00    -0.273 OA
ATOM      3  N   UNL A   1      31.800  30.796  26.909  1.00  0.00    -0.355 N 
ATOM      4  H   UNL A   1      31.893  31.641  27.405  1.00  0.00     0.163 HD
ENDROOT
BRANCH   1   5
ATOM      5  C   UNL A   1      31.177  29.635  24.753  1.00  0.00     0.216 C 
BRANCH   5   6
ATOM      6  N   UNL A   1      30.144  29.690  23.729  1.00  0.00    -0.346 N 
ATOM      7  C   UNL A   1      30.001  29.084  22.521  1.00  0.00     0.239 C 
ATOM      8  O   UNL A   1      28.987  29.365  21.874  1.00  0.00    -0.273 OA
ATOM      9  H   UNL A   1      29.397  30.289  23.957  1.00  0.00     0.164 HD
BRANCH   7  10
ATOM     10  C   UNL A   1      30.990  28.044  21.970  1.00  0.00     0.216 C 
BRANCH  10  11
ATOM     11  N   UNL A   1      32.413  28.383  21.988  1.00  0.00    -0.340 N 
ATOM     12  C   UNL A   1      33.545  27.592  22.065  1.00  0.00     0.292 C 
ATOM     13  O   UNL A   1      34.647  28.124  22.119  1.00  0.00    -0.265 OA
ATOM     14  H   UNL A   1      32.599  29.348  21.934  1.00  0.00     0.164 HD
BRANCH  12  15
ATOM     15  C   UNL A   1      33.425  26.060  22.109  1.00  0.00     0.252 C 
ATOM     16  O   UNL A   1      33.330  25.476  21.034  1.00  0.00    -0.283 OA
BRANCH  15  17
ATOM     17  C   UNL A   1      33.428  25.281  23.353  1.00  0.00     0.054 A 
ATOM     18  N   UNL A   1      33.937  23.924  25.054  1.00  0.00    -0.240 N 
ATOM     19  C   UNL A   1      34.411  24.458  23.877  1.00  0.00     0.117 A 
ATOM     20  C   UNL A   1      32.661  24.374  25.330  1.00  0.00     0.065 A 
ATOM     21  C   UNL A   1      32.326  25.234  24.278  1.00  0.00     0.012 A 
ATOM     22  C   UNL A   1      31.754  24.093  26.367  1.00  0.00     0.028 A 
ATOM     23  C   UNL A   1      31.050  25.840  24.284  1.00  0.00     0.011 A 
ATOM     24  C   UNL A   1      30.489  24.686  26.324  1.00  0.00     0.002 A 
ATOM     25  C   UNL A   1      30.139  25.554  25.300  1.00  0.00     0.001 A 
BRANCH  18  26
ATOM     26  S   UNL A   1      34.764  22.755  25.980  1.00  0.00     0.268 S 
ATOM     27  O   UNL A   1      34.238  22.886  27.319  1.00  0.00    -0.201 OA
ATOM     28  O   UNL A   1      36.177  22.936  25.679  1.00  0.00    -0.201 OA
BRANCH  26  29
ATOM     29  C   UNL A   1      34.299  21.149  25.378  1.00  0.00     0.088 A 
ATOM     30  C   UNL A   1      33.431  17.109  24.172  1.00  0.00     0.044 C 
ATOM     31  C   UNL A   1      33.727  18.524  24.577  1.00  0.00    -0.051 A 
ATOM     32  C   UNL A   1      35.051  18.978  24.613  1.00  0.00     0.005 A 
ATOM     33  C   UNL A   1      32.693  19.405  24.917  1.00  0.00     0.005 A 
ATOM     34  C   UNL A   1      35.339  20.284  25.017  1.00  0.00     0.022 A 
ATOM     35  C   UNL A   1      32.974  20.718  25.305  1.00  0.00     0.022 A 
ENDBRANCH  26  29
ENDBRANCH  18  26
ENDBRANCH  15  17
ENDBRANCH  12  15
ENDBRANCH  10  11
ENDBRANCH   7  10
ENDBRANCH   5   6
ENDBRANCH   1   5
BRANCH   3  36
ATOM     36  C   UNL A   1      32.315  29.610  27.550  1.00  0.00     0.117 C 
BRANCH  36  37
ATOM     37  C   UNL A   1      33.822  29.630  27.730  1.00  0.00     0.042 C 
BRANCH  37  38
ATOM     38  C   UNL A   1      34.451  30.705  26.891  1.00  0.00     0.118 C 
BRANCH  38  39
ATOM     39  N   UNL A   1      35.306  31.593  27.645  1.00  0.00    -0.352 N 
ATOM     40  C   UNL A   1      36.245  31.261  28.604  1.00  0.00     0.251 C 
ATOM     41  H   UNL A   1      35.208  32.554  27.451  1.00  0.00     0.163 HD
ATOM     42  O   UNL A   1      36.591  32.133  29.394  1.00  0.00    -0.269 OA
BRANCH  40  43
ATOM     43  C   UNL A   1      36.951  29.949  28.525  1.00  0.00     0.039 A 
ATOM     44  C   UNL A   1      37.047  29.244  29.730  1.00  0.00     0.014 A 
ATOM     45  C   UNL A   1      37.866  29.694  27.513  1.00  0.00     0.014 A 
ATOM     46  C   UNL A   1      38.235  28.604  30.046  1.00  0.00     0.010 A 
ATOM     47  C   UNL A   1      39.099  29.236  27.874  1.00  0.00     0.010 A 
ATOM     48  C   UNL A   1      39.291  28.756  29.168  1.00  0.00    -0.014 A 
BRANCH  48  49
ATOM     49  C   UNL A   1      40.639  28.301  29.378  1.00  0.00     0.031 A 
ATOM     50  C   UNL A   1      40.892  26.884  29.068  1.00  0.00     0.074 A 
ATOM     51  C   UNL A   1      41.588  29.260  29.431  1.00  0.00     0.049 A 
ATOM     52  N   UNL A   1      42.008  26.294  29.269  1.00  0.00    -0.248 NA
ATOM     53  C   UNL A   1      39.875  26.010  28.474  1.00  0.00     0.031 C 
ATOM     54  C   UNL A   1      42.976  29.181  28.996  1.00  0.00     0.029 A 
ATOM     55  N   UNL A   1      41.510  30.549  29.922  1.00  0.00    -0.354 N 
ATOM     56  C   UNL A   1      41.970  25.108  28.565  1.00  0.00     0.074 A 
ATOM     57  C   UNL A   1      40.597  24.929  28.171  1.00  0.00     0.031 C 
ATOM     58  C   UNL A   1      43.651  30.240  29.484  1.00  0.00     0.029 A 
ATOM     59  C   UNL A   1      42.761  30.930  30.402  1.00  0.00     0.049 A 
ATOM     60  H   UNL A   1      40.700  31.108  29.931  1.00  0.00     0.167 HD
ATOM     61  C   UNL A   1      43.152  24.517  28.247  1.00  0.00     0.034 A 
ATOM     62  C   UNL A   1      42.989  31.042  31.752  1.00  0.00     0.034 A 
ATOM     63  C   UNL A   1      44.259  25.319  28.790  1.00  0.00     0.049 A 
ATOM     64  C   UNL A   1      43.899  29.940  32.289  1.00  0.00     0.074 A 
ATOM     65  C   UNL A   1      45.049  26.318  28.245  1.00  0.00     0.029 A 
ATOM     66  N   UNL A   1      44.392  25.421  30.168  1.00  0.00    -0.354 N 
ATOM     67  N   UNL A   1      44.240  28.876  31.610  1.00  0.00    -0.248 NA
ATOM     68  C   UNL A   1      44.537  29.963  33.603  1.00  0.00     0.031 C 
ATOM     69  C   UNL A   1      45.603  27.071  29.318  1.00  0.00     0.029 A 
ATOM     70  C   UNL A   1      45.167  26.519  30.511  1.00  0.00     0.049 A 
ATOM     71  H   UNL A   1      43.989  24.798  30.815  1.00  0.00     0.167 HD
ATOM     72  C   UNL A   1      45.035  28.053  32.360  1.00  0.00     0.074 A 
ATOM     73  C   UNL A   1      45.241  28.814  33.582  1.00  0.00     0.031 C 
ATOM     74  C   UNL A   1      45.424  26.812  31.920  1.00  0.00     0.034 A 
BRANCH  61  75
ATOM     75  C   UNL A   1      43.344  23.422  27.222  1.00  0.00     0.023 A 
ATOM     76  C   UNL A   1      44.157  23.738  26.109  1.00  0.00     0.012 A 
ATOM     77  C   UNL A   1      42.796  22.117  27.246  1.00  0.00     0.148 A 
ATOM     78  C   UNL A   1      44.379  22.850  25.057  1.00  0.00     0.002 A 
ATOM     79  C   UNL A   1      42.985  21.238  26.170  1.00  0.00     0.091 A 
ATOM     80  F   UNL A   1      42.139  21.693  28.331  1.00  0.00    -0.205 F 
ATOM     81  C   UNL A   1      43.777  21.603  25.077  1.00  0.00     0.022 A 
BRANCH  79  82
ATOM     82  S   UNL A   1      42.203  19.616  26.070  1.00  0.00     0.127 S 
ATOM     83  O   UNL A   1      42.624  18.993  27.329  1.00  0.00    -0.237 OA
ATOM     84  O   UNL A   1      40.783  19.951  26.009  1.00  0.00    -0.237 OA
ATOM     85  O   UNL A   1      42.749  18.973  24.882  1.00  0.00    -0.744 OA
ENDBRANCH  79  82
ENDBRANCH  61  75
BRANCH  62  86
ATOM     86  C   UNL A   1      41.823  31.673  32.456  1.00  0.00     0.023 A 
ATOM     87  C   UNL A   1      41.451  32.958  31.983  1.00  0.00     0.012 A 
ATOM     88  C   UNL A   1      40.855  30.891  33.112  1.00  0.00     0.148 A 
ATOM     89  C   UNL A   1      40.110  33.343  31.940  1.00  0.00     0.002 A 
ATOM     90  C   UNL A   1      39.519  31.295  33.087  1.00  0.00     0.091 A 
ATOM     91  F   UNL A   1      41.237  29.740  33.680  1.00  0.00    -0.205 F 
ATOM     92  C   UNL A   1      39.139  32.485  32.441  1.00  0.00     0.022 A 
BRANCH  90  93
ATOM     93  S   UNL A   1      38.208  30.268  33.768  1.00  0.00     0.127 S 
ATOM     94  O   UNL A   1      38.398  30.458  35.202  1.00  0.00    -0.237 OA
ATOM     95  O   UNL A   1      37.000  30.892  33.230  1.00  0.00    -0.237 OA
ATOM     96  O   UNL A   1      38.468  28.930  33.259  1.00  0.00    -0.744 OA
ENDBRANCH  90  93
ENDBRANCH  62  86
BRANCH  74  97
ATOM     97  C   UNL A   1      46.078  25.722  32.760  1.00  0.00     0.023 A 
ATOM     98  C   UNL A   1      47.461  25.680  33.001  1.00  0.00     0.012 A 
ATOM     99  C   UNL A   1      45.287  24.781  33.478  1.00  0.00     0.148 A 
ATOM    100  C   UNL A   1      48.037  24.732  33.856  1.00  0.00     0.002 A 
ATOM    101  C   UNL A   1      45.846  23.945  34.438  1.00  0.00     0.091 A 
ATOM    102  F   UNL A   1      43.976  24.658  33.220  1.00  0.00    -0.205 F 
ATOM    103  C   UNL A   1      47.228  23.887  34.600  1.00  0.00     0.022 A 
BRANCH 101 104
ATOM    104  S   UNL A   1      44.816  23.056  35.615  1.00  0.00     0.127 S 
ATOM    105  O   UNL A   1      44.346  21.928  34.814  1.00  0.00    -0.237 OA
ATOM    106  O   UNL A   1      45.778  22.702  36.661  1.00  0.00    -0.237 OA
ATOM    107  O   UNL A   1      43.804  24.014  36.036  1.00  0.00    -0.744 OA
ENDBRANCH 101 104
ENDBRANCH  74  97
ENDBRANCH  48  49
ENDBRANCH  40  43
ENDBRANCH  38  39
ENDBRANCH  37  38
ENDBRANCH  36  37
ENDBRANCH   3  36
TORSDOF 20
ENDMDL
MODEL 3
REMARK VINA RESULT:     -12.3      5.497     11.128
REMARK SMILES Cc1ccc(S(=O)(=O)n2cc(C(=O)C(=O)NCC(=O)NCC(=O)NCCCNC(=O)c3ccc(-c4c5nc(c(-c6cccc(S(=O)(=O)[O-])c6F)c6ccc([nH]6)c(-c6cccc(S(=O)(=O)[O-])c6F)c6nc(c(-c7cccc(S(=O)(=O)[O-])c7F)c7ccc4[nH]7)C=C6)C=C5)cc3)c3ccccc32)cc1
REMARK SMILES IDX 22 1 23 2 24 3 21 5 20 6 18 7 19 8 17 10 16 11 14 12 15 13
REMARK SMILES IDX 12 15 13 16 11 17 9 18 10 19 99 20 94 21 98 22 95 23 97 24
REMARK SMILES IDX 96 25 6 26 7 27 8 28 5 29 1 30 2 31 3 32 101 33 4 34 100 35
REMARK SMILES IDX 25 36 26 37 27 38 28 39 29 40 30 42 31 43 32 44 93 45 33 46
REMARK SMILES IDX 92 47 34 48 35 49 36 50 86 51 37 52 91 53 85 54 87 55 38 56
REMARK SMILES IDX 90 57 84 58 83 59 39 61 71 62 51 63 70 64 52 65 55 66 69 67
REMARK SMILES IDX 88 68 53 69 54 70 68 72 89 73 56 74 40 75 41 76 49 77 42 78
REMARK SMILES IDX 44 79 50 80 43 81 45 82 46 83 47 84 48 85 72 86 73 87 81 88
REMARK SMILES IDX 74 89 76 90 82 91 75 92 77 93 78 94 79 95 80 96 57 97 58 98
REMARK SMILES IDX 66 99 59 100 61 101 67 102 60 103 62 104 63 105 64 106
REMARK SMILES IDX 65 107
REMARK H PARENT 24 4 20 9 16 14 28 41 87 60 55 71
REMARK Flexibility Score: inf
ROOT
ATOM      1  C   UNL A   1      34.069  31.403  27.827  1.00  0.00     0.239 C 
ATOM      2  O   UNL A   1      35.062  30.699  28.014  1.00  0.00    -0.273 OA
ATOM      3  N   UNL A   1      34.005  32.626  28.437  1.00  0.00    -0.355 N 
ATOM      4  H   UNL A   1      34.652  32.792  29.160  1.00  0.00     0.163 HD
ENDROOT
BRANCH   1   5
ATOM      5  C   UNL A   1      32.980  30.983  26.814  1.00  0.00     0.216 C 
BRANCH   5   6
ATOM      6  N   UNL A   1      33.500  30.278  25.652  1.00  0.00    -0.346 N 
ATOM      7  C   UNL A   1      32.969  29.348  24.816  1.00  0.00     0.239 C 
ATOM      8  O   UNL A   1      33.700  28.930  23.912  1.00  0.00    -0.273 OA
ATOM      9  H   UNL A   1      34.426  30.523  25.427  1.00  0.00     0.164 HD
BRANCH   7  10
ATOM     10  C   UNL A   1      31.515  28.855  24.907  1.00  0.00     0.216 C 
BRANCH  10  11
ATOM     11  N   UNL A   1      31.171  27.956  26.008  1.00  0.00    -0.340 N 
ATOM     12  C   UNL A   1      30.589  26.701  26.021  1.00  0.00     0.292 C 
ATOM     13  O   UNL A   1      30.348  26.162  27.095  1.00  0.00    -0.265 OA
ATOM     14  H   UNL A   1      31.393  28.306  26.901  1.00  0.00     0.164 HD
BRANCH  12  15
ATOM     15  C   UNL A   1      30.224  25.996  24.705  1.00  0.00     0.252 C 
ATOM     16  O   UNL A   1      29.282  26.458  24.066  1.00  0.00    -0.283 OA
BRANCH  15  17
ATOM     17  C   UNL A   1      30.941  24.826  24.184  1.00  0.00     0.054 A 
ATOM     18  N   UNL A   1      31.888  22.823  23.890  1.00  0.00    -0.240 N 
ATOM     19  C   UNL A   1      31.115  23.574  24.748  1.00  0.00     0.117 A 
ATOM     20  C   UNL A   1      32.231  23.545  22.764  1.00  0.00     0.065 A 
ATOM     21  C   UNL A   1      31.640  24.803  22.925  1.00  0.00     0.012 A 
ATOM     22  C   UNL A   1      33.023  23.243  21.642  1.00  0.00     0.028 A 
ATOM     23  C   UNL A   1      31.838  25.774  21.919  1.00  0.00     0.011 A 
ATOM     24  C   UNL A   1      33.223  24.239  20.681  1.00  0.00     0.002 A 
ATOM     25  C   UNL A   1      32.634  25.489  20.811  1.00  0.00     0.001 A 
BRANCH  18  26
ATOM     26  S   UNL A   1      32.458  21.254  24.235  1.00  0.00     0.268 S 
ATOM     27  O   UNL A   1      32.312  20.514  23.002  1.00  0.00    -0.201 OA
ATOM     28  O   UNL A   1      31.795  20.851  25.467  1.00  0.00    -0.201 OA
BRANCH  26  29
ATOM     29  C   UNL A   1      34.197  21.367  24.586  1.00  0.00     0.088 A 
ATOM     30  C   UNL A   1      38.312  21.868  25.742  1.00  0.00     0.044 C 
ATOM     31  C   UNL A   1      36.882  21.690  25.322  1.00  0.00    -0.051 A 
ATOM     32  C   UNL A   1      36.056  22.808  25.160  1.00  0.00     0.005 A 
ATOM     33  C   UNL A   1      36.359  20.413  25.082  1.00  0.00     0.005 A 
ATOM     34  C   UNL A   1      34.716  22.650  24.800  1.00  0.00     0.022 A 
ATOM     35  C   UNL A   1      35.024  20.249  24.703  1.00  0.00     0.022 A 
ENDBRANCH  26  29
ENDBRANCH  18  26
ENDBRANCH  15  17
ENDBRANCH  12  15
ENDBRANCH  10  11
ENDBRANCH   7  10
ENDBRANCH   5   6
ENDBRANCH   1   5
BRANCH   3  36
ATOM     36  C   UNL A   1      33.087  33.698  28.134  1.00  0.00     0.117 C 
BRANCH  36  37
ATOM     37  C   UNL A   1      33.525  35.040  28.692  1.00  0.00     0.042 C 
BRANCH  37  38
ATOM     38  C   UNL A   1      32.912  35.288  30.040  1.00  0.00     0.118 C 
BRANCH  38  39
ATOM     39  N   UNL A   1      33.826  35.894  30.981  1.00  0.00    -0.352 N 
ATOM     40  C   UNL A   1      34.572  35.274  31.965  1.00  0.00     0.251 C 
ATOM     41  H   UNL A   1      33.932  36.871  30.911  1.00  0.00     0.163 HD
ATOM     42  O   UNL A   1      34.983  35.962  32.894  1.00  0.00    -0.269 OA
BRANCH  40  43
ATOM     43  C   UNL A   1      35.027  33.866  31.772  1.00  0.00     0.039 A 
ATOM     44  C   UNL A   1      35.047  33.077  32.927  1.00  0.00     0.014 A 
ATOM     45  C   UNL A   1      35.835  33.521  30.698  1.00  0.00     0.014 A 
ATOM     46  C   UNL A   1      36.114  32.216  33.140  1.00  0.00     0.010 A 
ATOM     47  C   UNL A   1      36.981  32.829  30.963  1.00  0.00     0.010 A 
ATOM     48  C   UNL A   1      37.140  32.238  32.215  1.00  0.00    -0.014 A 
BRANCH  48  49
ATOM     49  C   UNL A   1      38.392  31.538  32.323  1.00  0.00     0.031 A 
ATOM     50  C   UNL A   1      38.475  30.260  31.598  1.00  0.00     0.074 A 
ATOM     51  C   UNL A   1      39.455  32.279  32.707  1.00  0.00     0.049 A 
ATOM     52  N   UNL A   1      39.481  29.472  31.648  1.00  0.00    -0.248 NA
ATOM     53  C   UNL A   1      37.403  29.773  30.725  1.00  0.00     0.031 C 
ATOM     54  C   UNL A   1      40.850  32.122  32.321  1.00  0.00     0.029 A 
ATOM     55  N   UNL A   1      39.510  33.355  33.570  1.00  0.00    -0.354 N 
ATOM     56  C   UNL A   1      39.342  28.574  30.610  1.00  0.00     0.074 A 
ATOM     57  C   UNL A   1      37.995  28.736  30.129  1.00  0.00     0.031 C 
ATOM     58  C   UNL A   1      41.619  32.867  33.138  1.00  0.00     0.029 A 
ATOM     59  C   UNL A   1      40.758  33.377  34.192  1.00  0.00     0.049 A 
ATOM     60  H   UNL A   1      38.786  34.004  33.722  1.00  0.00     0.167 HD
ATOM     61  C   UNL A   1      40.456  27.932  30.169  1.00  0.00     0.034 A 
ATOM     62  C   UNL A   1      40.885  33.040  35.517  1.00  0.00     0.034 A 
ATOM     63  C   UNL A   1      41.612  28.352  30.974  1.00  0.00     0.049 A 
ATOM     64  C   UNL A   1      41.591  31.700  35.719  1.00  0.00     0.074 A 
ATOM     65  C   UNL A   1      42.572  29.334  30.797  1.00  0.00     0.029 A 
ATOM     66  N   UNL A   1      41.643  28.012  32.320  1.00  0.00    -0.354 N 
ATOM     67  N   UNL A   1      41.840  30.852  34.757  1.00  0.00    -0.248 NA
ATOM     68  C   UNL A   1      42.115  31.228  36.998  1.00  0.00     0.031 C 
ATOM     69  C   UNL A   1      43.131  29.634  32.070  1.00  0.00     0.029 A 
ATOM     70  C   UNL A   1      42.527  28.822  33.016  1.00  0.00     0.049 A 
ATOM     71  H   UNL A   1      41.107  27.293  32.727  1.00  0.00     0.167 HD
ATOM     72  C   UNL A   1      42.451  29.729  35.243  1.00  0.00     0.074 A 
ATOM     73  C   UNL A   1      42.656  30.045  36.648  1.00  0.00     0.031 C 
ATOM     74  C   UNL A   1      42.704  28.633  34.454  1.00  0.00     0.034 A 
BRANCH  61  75
ATOM     75  C   UNL A   1      40.582  27.181  28.862  1.00  0.00     0.023 A 
ATOM     76  C   UNL A   1      39.704  26.088  28.677  1.00  0.00     0.012 A 
ATOM     77  C   UNL A   1      41.485  27.443  27.804  1.00  0.00     0.148 A 
ATOM     78  C   UNL A   1      39.741  25.269  27.549  1.00  0.00     0.002 A 
ATOM     79  C   UNL A   1      41.552  26.597  26.688  1.00  0.00     0.091 A 
ATOM     80  F   UNL A   1      42.246  28.542  27.838  1.00  0.00    -0.205 F 
ATOM     81  C   UNL A   1      40.679  25.511  26.560  1.00  0.00     0.022 A 
BRANCH  79  82
ATOM     82  S   UNL A   1      42.769  26.789  25.372  1.00  0.00     0.127 S 
ATOM     83  O   UNL A   1      44.018  26.932  26.126  1.00  0.00    -0.237 OA
ATOM     84  O   UNL A   1      42.646  25.531  24.641  1.00  0.00    -0.237 OA
ATOM     85  O   UNL A   1      42.385  27.986  24.634  1.00  0.00    -0.744 OA
ENDBRANCH  79  82
ENDBRANCH  61  75
BRANCH  62  86
ATOM     86  C   UNL A   1      39.761  33.601  36.338  1.00  0.00     0.023 A 
ATOM     87  C   UNL A   1      38.755  32.670  36.707  1.00  0.00     0.012 A 
ATOM     88  C   UNL A   1      39.938  34.750  37.130  1.00  0.00     0.148 A 
ATOM     89  C   UNL A   1      38.125  32.753  37.950  1.00  0.00     0.002 A 
ATOM     90  C   UNL A   1      39.284  34.838  38.361  1.00  0.00     0.091 A 
ATOM     91  F   UNL A   1      40.788  35.695  36.710  1.00  0.00    -0.205 F 
ATOM     92  C   UNL A   1      38.434  33.808  38.800  1.00  0.00     0.022 A 
BRANCH  90  93
ATOM     93  S   UNL A   1      39.584  36.203  39.494  1.00  0.00     0.127 S 
ATOM     94  O   UNL A   1      39.182  37.351  38.687  1.00  0.00    -0.237 OA
ATOM     95  O   UNL A   1      38.684  35.901  40.606  1.00  0.00    -0.237 OA
ATOM     96  O   UNL A   1      40.997  36.119  39.828  1.00  0.00    -0.744 OA
ENDBRANCH  90  93
ENDBRANCH  62  86
BRANCH  74  97
ATOM     97  C   UNL A   1      43.132  27.254  34.939  1.00  0.00     0.023 A 
ATOM     98  C   UNL A   1      42.240  26.353  35.544  1.00  0.00     0.012 A 
ATOM     99  C   UNL A   1      44.434  26.751  34.653  1.00  0.00     0.148 A 
ATOM    100  C   UNL A   1      42.621  25.053  35.895  1.00  0.00     0.002 A 
ATOM    101  C   UNL A   1      44.758  25.416  34.865  1.00  0.00     0.091 A 
ATOM    102  F   UNL A   1      45.392  27.570  34.196  1.00  0.00    -0.205 F 
ATOM    103  C   UNL A   1      43.868  24.573  35.525  1.00  0.00     0.022 A 
BRANCH 101 104
ATOM    104  S   UNL A   1      46.238  24.690  34.143  1.00  0.00     0.127 S 
ATOM    105  O   UNL A   1      45.953  23.261  34.243  1.00  0.00    -0.237 OA
ATOM    106  O   UNL A   1      46.209  25.223  32.780  1.00  0.00    -0.237 OA
ATOM    107  O   UNL A   1      47.341  25.186  34.953  1.00  0.00    -0.744 OA
ENDBRANCH 101 104
ENDBRANCH  74  97
ENDBRANCH  48  49
ENDBRANCH  40  43
ENDBRANCH  38  39
ENDBRANCH  37  38
ENDBRANCH  36  37
ENDBRANCH   3  36
TORSDOF 20
ENDMDL
