MODEL 1
REMARK VINA RESULT:     -12.2      0.000      0.000
REMARK SMILES Cc1cc(/C=C2\C(=O)N(Cc3ccco3)C(=O)[NH+]=C2NCCCNC(=O)c2ccc(-c3c4nc(c(-c5cccc(S(=O)(=O)[O-])c5F)c5ccc([nH]5)c(-c5cccc(S(=O)(=O)[O-])c5F)c5nc(c(-c6cccc(S(=O)(=O)[O-])c6F)c6ccc3[nH]6)C=C5)C=C4)cc2)c(C)n1-c1ccc(Cl)c(C(=O)[O-])c1
REMARK SMILES IDX 22 1 21 2 20 3 5 4 6 5 7 6 19 7 8 8 9 9 18 10 16 11 17 14
REMARK SMILES IDX 4 15 1 16 2 17 3 18 92 19 90 20 91 21 93 22 94 23 102 24
REMARK SMILES IDX 95 25 98 26 96 27 97 28 99 29 100 30 101 31 10 32 11 33
REMARK SMILES IDX 12 34 15 35 13 36 14 37 23 38 24 39 25 40 26 42 27 43 28 44
REMARK SMILES IDX 89 45 29 46 88 47 30 48 31 49 32 50 82 51 33 52 87 53 81 54
REMARK SMILES IDX 83 55 34 56 86 57 80 58 79 59 35 61 67 62 47 63 66 64 48 65
REMARK SMILES IDX 51 66 65 67 84 68 49 69 50 70 64 72 85 73 52 74 36 75 37 76
REMARK SMILES IDX 45 77 38 78 40 79 46 80 39 81 41 82 42 83 43 84 44 85 68 86
REMARK SMILES IDX 69 87 77 88 70 89 72 90 78 91 71 92 73 93 74 94 75 95 76 96
REMARK SMILES IDX 53 97 54 98 62 99 55 100 57 101 63 102 56 103 58 104 59 105
REMARK SMILES IDX 60 106 61 107
REMARK H PARENT 18 12 20 13 24 41 83 60 51 71
REMARK Flexibility Score: inf
ROOT
ATOM      1  C   UNL A   1      39.274  24.167  26.834  1.00  0.00     0.059 C 
ENDROOT
BRANCH   1   2
ATOM      2  C   UNL A   1      37.851  24.367  26.282  1.00  0.00     0.195 C 
BRANCH   2   3
ATOM      3  N   UNL A   1      37.001  23.251  26.600  1.00  0.00    -0.305 N 
ATOM      4  C   UNL A   1      34.770  24.639  24.767  1.00  0.00     0.032 C 
ATOM      5  C   UNL A   1      34.901  23.334  25.075  1.00  0.00     0.129 C 
ATOM      6  C   UNL A   1      34.067  22.255  24.461  1.00  0.00     0.323 C 
ATOM      7  C   UNL A   1      35.768  22.828  26.182  1.00  0.00     0.236 C 
ATOM      8  O   UNL A   1      33.910  22.140  23.282  1.00  0.00    -0.250 OA
ATOM      9  N   UNL A   1      33.506  21.449  25.447  1.00  0.00    -0.182 N 
ATOM     10  N   UNL A   1      35.358  21.796  26.875  1.00  0.00    -0.210 N 
ATOM     11  C   UNL A   1      34.125  21.243  26.661  1.00  0.00     0.444 C 
ATOM     12  H   UNL A   1      35.948  21.411  27.561  1.00  0.00     0.270 HD
ATOM     13  H   UNL A   1      37.398  22.654  27.275  1.00  0.00     0.256 HD
ATOM     14  O   UNL A   1      33.589  20.562  27.537  1.00  0.00    -0.212 OA
BRANCH   4  15
ATOM     15  C   UNL A   1      33.898  25.336  23.846  1.00  0.00    -0.003 A 
ATOM     16  C   UNL A   1      32.491  25.929  20.436  1.00  0.00     0.065 C 
ATOM     17  C   UNL A   1      32.888  25.859  21.871  1.00  0.00     0.020 A 
ATOM     18  C   UNL A   1      33.805  25.013  22.466  1.00  0.00     0.031 A 
ATOM     19  N   UNL A   1      32.419  26.725  22.844  1.00  0.00    -0.318 N 
ATOM     20  C   UNL A   1      33.084  26.447  24.043  1.00  0.00     0.027 A 
ATOM     21  C   UNL A   1      32.784  27.200  25.292  1.00  0.00     0.065 C 
BRANCH  19  22
ATOM     22  C   UNL A   1      31.361  27.672  22.696  1.00  0.00     0.046 A 
ATOM     23  C   UNL A   1      31.651  29.005  22.405  1.00  0.00     0.028 A 
ATOM     24  C   UNL A   1      30.051  27.297  23.013  1.00  0.00     0.038 A 
ATOM     25  C   UNL A   1      30.667  29.980  22.556  1.00  0.00     0.023 A 
ATOM     26  C   UNL A   1      29.039  28.275  23.144  1.00  0.00     0.018 A 
ATOM     27  C   UNL A   1      29.370  29.626  22.949  1.00  0.00     0.050 A 
ATOM     28  Cl  UNL A   1      28.271  30.940  23.185  1.00  0.00    -0.084 Cl
BRANCH  26  29
ATOM     29  C   UNL A   1      27.665  27.855  23.535  1.00  0.00     0.073 C 
ATOM     30  O   UNL A   1      26.623  28.471  23.424  1.00  0.00    -0.545 OA
ATOM     31  O   UNL A   1      27.643  26.612  24.057  1.00  0.00    -0.545 OA
ENDBRANCH  26  29
ENDBRANCH  19  22
ENDBRANCH   4  15
BRANCH   9  32
ATOM     32  C   UNL A   1      32.214  20.829  25.217  1.00  0.00     0.285 C 
BRANCH  32  33
ATOM     33  C   UNL A   1      32.323  19.466  24.654  1.00  0.00     0.138 A 
ATOM     34  C   UNL A   1      32.556  18.973  23.388  1.00  0.00     0.049 A 
ATOM     35  O   UNL A   1      32.275  18.442  25.553  1.00  0.00    -0.466 OA
ATOM     36  C   UNL A   1      32.643  17.567  23.521  1.00  0.00     0.042 A 
ATOM     37  C   UNL A   1      32.462  17.294  24.856  1.00  0.00     0.195 A 
ENDBRANCH  32  33
ENDBRANCH   9  32
ENDBRANCH   2   3
ENDBRANCH   1   2
BRANCH   1  38
ATOM     38  C   UNL A   1      40.435  24.197  25.809  1.00  0.00     0.119 C 
BRANCH  38  39
ATOM     39  N   UNL A   1      41.584  23.403  26.191  1.00  0.00    -0.352 N 
ATOM     40  C   UNL A   1      42.655  23.743  27.004  1.00  0.00     0.251 C 
ATOM     41  H   UNL A   1      41.609  22.491  25.820  1.00  0.00     0.163 HD
ATOM     42  O   UNL A   1      43.538  22.894  27.130  1.00  0.00    -0.269 OA
BRANCH  40  43
ATOM     43  C   UNL A   1      42.830  25.119  27.599  1.00  0.00     0.039 A 
ATOM     44  C   UNL A   1      42.302  25.350  28.864  1.00  0.00     0.014 A 
ATOM     45  C   UNL A   1      43.234  26.253  26.872  1.00  0.00     0.014 A 
ATOM     46  C   UNL A   1      42.222  26.671  29.395  1.00  0.00     0.010 A 
ATOM     47  C   UNL A   1      43.084  27.605  27.391  1.00  0.00     0.010 A 
ATOM     48  C   UNL A   1      42.545  27.870  28.664  1.00  0.00    -0.014 A 
BRANCH  48  49
ATOM     49  C   UNL A   1      41.715  29.167  29.080  1.00  0.00     0.031 A 
ATOM     50  C   UNL A   1      42.756  30.239  29.049  1.00  0.00     0.074 A 
ATOM     51  C   UNL A   1      40.461  29.587  29.516  1.00  0.00     0.049 A 
ATOM     52  N   UNL A   1      43.895  30.086  29.668  1.00  0.00    -0.248 NA
ATOM     53  C   UNL A   1      42.763  31.309  28.047  1.00  0.00     0.031 C 
ATOM     54  C   UNL A   1      39.292  28.759  29.852  1.00  0.00     0.029 A 
ATOM     55  N   UNL A   1      39.913  30.887  29.762  1.00  0.00    -0.354 N 
ATOM     56  C   UNL A   1      44.579  31.249  29.470  1.00  0.00     0.074 A 
ATOM     57  C   UNL A   1      43.993  31.795  28.255  1.00  0.00     0.031 C 
ATOM     58  C   UNL A   1      38.187  29.522  30.109  1.00  0.00     0.029 A 
ATOM     59  C   UNL A   1      38.498  30.949  30.032  1.00  0.00     0.049 A 
ATOM     60  H   UNL A   1      40.473  31.696  29.749  1.00  0.00     0.167 HD
ATOM     61  C   UNL A   1      44.973  31.905  30.600  1.00  0.00     0.034 A 
ATOM     62  C   UNL A   1      37.654  32.035  30.260  1.00  0.00     0.034 A 
ATOM     63  C   UNL A   1      44.275  33.144  30.796  1.00  0.00     0.049 A 
ATOM     64  C   UNL A   1      38.521  33.131  30.722  1.00  0.00     0.074 A 
ATOM     65  C   UNL A   1      43.888  34.164  29.948  1.00  0.00     0.029 A 
ATOM     66  N   UNL A   1      43.465  33.225  31.907  1.00  0.00    -0.354 N 
ATOM     67  N   UNL A   1      38.932  33.185  31.953  1.00  0.00    -0.248 NA
ATOM     68  C   UNL A   1      38.828  34.302  29.908  1.00  0.00     0.031 C 
ATOM     69  C   UNL A   1      42.561  34.473  30.331  1.00  0.00     0.029 A 
ATOM     70  C   UNL A   1      42.306  33.900  31.570  1.00  0.00     0.049 A 
ATOM     71  H   UNL A   1      43.677  32.862  32.797  1.00  0.00     0.167 HD
ATOM     72  C   UNL A   1      39.946  34.087  31.901  1.00  0.00     0.074 A 
ATOM     73  C   UNL A   1      39.652  34.926  30.755  1.00  0.00     0.031 C 
ATOM     74  C   UNL A   1      41.141  33.692  32.398  1.00  0.00     0.034 A 
BRANCH  61  75
ATOM     75  C   UNL A   1      45.473  31.003  31.706  1.00  0.00     0.023 A 
ATOM     76  C   UNL A   1      44.617  30.787  32.798  1.00  0.00     0.012 A 
ATOM     77  C   UNL A   1      46.816  30.550  31.790  1.00  0.00     0.148 A 
ATOM     78  C   UNL A   1      45.099  30.197  33.969  1.00  0.00     0.002 A 
ATOM     79  C   UNL A   1      47.316  30.073  32.995  1.00  0.00     0.091 A 
ATOM     80  F   UNL A   1      47.589  30.615  30.695  1.00  0.00    -0.205 F 
ATOM     81  C   UNL A   1      46.453  29.880  34.083  1.00  0.00     0.022 A 
BRANCH  79  82
ATOM     82  S   UNL A   1      49.086  29.915  33.308  1.00  0.00     0.127 S 
ATOM     83  O   UNL A   1      49.133  29.723  34.761  1.00  0.00    -0.237 OA
ATOM     84  O   UNL A   1      49.451  28.732  32.537  1.00  0.00    -0.237 OA
ATOM     85  O   UNL A   1      49.698  31.164  32.868  1.00  0.00    -0.744 OA
ENDBRANCH  79  82
ENDBRANCH  61  75
BRANCH  62  86
ATOM     86  C   UNL A   1      36.176  32.502  30.455  1.00  0.00     0.023 A 
ATOM     87  C   UNL A   1      35.676  32.565  31.804  1.00  0.00     0.012 A 
ATOM     88  C   UNL A   1      35.445  33.274  29.522  1.00  0.00     0.148 A 
ATOM     89  C   UNL A   1      34.648  33.424  32.230  1.00  0.00     0.002 A 
ATOM     90  C   UNL A   1      34.369  34.103  29.949  1.00  0.00     0.091 A 
ATOM     91  F   UNL A   1      35.858  33.291  28.249  1.00  0.00    -0.205 F 
ATOM     92  C   UNL A   1      34.000  34.205  31.300  1.00  0.00     0.022 A 
BRANCH  90  93
ATOM     93  S   UNL A   1      33.414  35.159  28.836  1.00  0.00     0.127 S 
ATOM     94  O   UNL A   1      34.455  35.895  28.115  1.00  0.00    -0.237 OA
ATOM     95  O   UNL A   1      32.700  34.174  28.022  1.00  0.00    -0.237 OA
ATOM     96  O   UNL A   1      32.590  35.984  29.707  1.00  0.00    -0.744 OA
ENDBRANCH  90  93
ENDBRANCH  62  86
BRANCH  74  97
ATOM     97  C   UNL A   1      41.134  32.815  33.641  1.00  0.00     0.023 A 
ATOM     98  C   UNL A   1      41.091  33.292  34.972  1.00  0.00     0.012 A 
ATOM     99  C   UNL A   1      41.167  31.424  33.455  1.00  0.00     0.148 A 
ATOM    100  C   UNL A   1      41.120  32.419  36.067  1.00  0.00     0.002 A 
ATOM    101  C   UNL A   1      41.133  30.554  34.542  1.00  0.00     0.091 A 
ATOM    102  F   UNL A   1      41.239  30.961  32.198  1.00  0.00    -0.205 F 
ATOM    103  C   UNL A   1      41.121  31.046  35.853  1.00  0.00     0.022 A 
BRANCH 101 104
ATOM    104  S   UNL A   1      41.061  28.784  34.270  1.00  0.00     0.127 S 
ATOM    105  O   UNL A   1      41.110  28.266  35.635  1.00  0.00    -0.237 OA
ATOM    106  O   UNL A   1      39.780  28.592  33.594  1.00  0.00    -0.237 OA
ATOM    107  O   UNL A   1      42.227  28.484  33.443  1.00  0.00    -0.744 OA
ENDBRANCH 101 104
ENDBRANCH  74  97
ENDBRANCH  48  49
ENDBRANCH  40  43
ENDBRANCH  38  39
ENDBRANCH   1  38
TORSDOF 17
ENDMDL
MODEL 2
REMARK VINA RESULT:     -12.0      3.882      7.987
REMARK SMILES Cc1cc(/C=C2\C(=O)N(Cc3ccco3)C(=O)[NH+]=C2NCCCNC(=O)c2ccc(-c3c4nc(c(-c5cccc(S(=O)(=O)[O-])c5F)c5ccc([nH]5)c(-c5cccc(S(=O)(=O)[O-])c5F)c5nc(c(-c6cccc(S(=O)(=O)[O-])c6F)c6ccc3[nH]6)C=C5)C=C4)cc2)c(C)n1-c1ccc(Cl)c(C(=O)[O-])c1
REMARK SMILES IDX 22 1 21 2 20 3 5 4 6 5 7 6 19 7 8 8 9 9 18 10 16 11 17 14
REMARK SMILES IDX 4 15 1 16 2 17 3 18 92 19 90 20 91 21 93 22 94 23 102 24
REMARK SMILES IDX 95 25 98 26 96 27 97 28 99 29 100 30 101 31 10 32 11 33
REMARK SMILES IDX 12 34 15 35 13 36 14 37 23 38 24 39 25 40 26 42 27 43 28 44
REMARK SMILES IDX 89 45 29 46 88 47 30 48 31 49 32 50 82 51 33 52 87 53 81 54
REMARK SMILES IDX 83 55 34 56 86 57 80 58 79 59 35 61 67 62 47 63 66 64 48 65
REMARK SMILES IDX 51 66 65 67 84 68 49 69 50 70 64 72 85 73 52 74 36 75 37 76
REMARK SMILES IDX 45 77 38 78 40 79 46 80 39 81 41 82 42 83 43 84 44 85 68 86
REMARK SMILES IDX 69 87 77 88 70 89 72 90 78 91 71 92 73 93 74 94 75 95 76 96
REMARK SMILES IDX 53 97 54 98 62 99 55 100 57 101 63 102 56 103 58 104 59 105
REMARK SMILES IDX 60 106 61 107
REMARK H PARENT 18 12 20 13 24 41 83 60 51 71
REMARK Flexibility Score: inf
ROOT
ATOM      1  C   UNL A   1      33.928  28.598  25.274  1.00  0.00     0.059 C 
ENDROOT
BRANCH   1   2
ATOM      2  C   UNL A   1      34.451  27.183  24.968  1.00  0.00     0.195 C 
BRANCH   2   3
ATOM      3  N   UNL A   1      33.428  26.191  25.161  1.00  0.00    -0.305 N 
ATOM      4  C   UNL A   1      35.793  24.050  25.463  1.00  0.00     0.032 C 
ATOM      5  C   UNL A   1      34.541  23.983  25.955  1.00  0.00     0.129 C 
ATOM      6  C   UNL A   1      34.079  22.909  26.889  1.00  0.00     0.323 C 
ATOM      7  C   UNL A   1      33.424  24.864  25.499  1.00  0.00     0.236 C 
ATOM      8  O   UNL A   1      34.672  22.606  27.882  1.00  0.00    -0.250 OA
ATOM      9  N   UNL A   1      32.904  22.328  26.425  1.00  0.00    -0.182 N 
ATOM     10  N   UNL A   1      32.219  24.357  25.425  1.00  0.00    -0.210 N 
ATOM     11  C   UNL A   1      31.991  23.031  25.668  1.00  0.00     0.444 C 
ATOM     12  H   UNL A   1      31.463  24.943  25.191  1.00  0.00     0.270 HD
ATOM     13  H   UNL A   1      32.522  26.549  25.017  1.00  0.00     0.256 HD
ATOM     14  O   UNL A   1      30.978  22.484  25.229  1.00  0.00    -0.212 OA
BRANCH   4  15
ATOM     15  C   UNL A   1      36.960  23.218  25.663  1.00  0.00    -0.003 A 
ATOM     16  C   UNL A   1      38.814  19.991  25.325  1.00  0.00     0.065 C 
ATOM     17  C   UNL A   1      38.284  21.366  25.552  1.00  0.00     0.020 A 
ATOM     18  C   UNL A   1      37.047  21.876  25.206  1.00  0.00     0.031 A 
ATOM     19  N   UNL A   1      38.970  22.352  26.241  1.00  0.00    -0.318 N 
ATOM     20  C   UNL A   1      38.134  23.469  26.365  1.00  0.00     0.027 A 
ATOM     21  C   UNL A   1      38.593  24.711  27.044  1.00  0.00     0.065 C 
BRANCH  19  22
ATOM     22  C   UNL A   1      40.332  22.299  26.664  1.00  0.00     0.046 A 
ATOM     23  C   UNL A   1      40.664  22.578  27.990  1.00  0.00     0.028 A 
ATOM     24  C   UNL A   1      41.343  22.136  25.711  1.00  0.00     0.038 A 
ATOM     25  C   UNL A   1      41.991  22.823  28.337  1.00  0.00     0.023 A 
ATOM     26  C   UNL A   1      42.695  22.358  26.059  1.00  0.00     0.018 A 
ATOM     27  C   UNL A   1      43.005  22.739  27.375  1.00  0.00     0.050 A 
ATOM     28  Cl  UNL A   1      44.593  23.153  27.918  1.00  0.00    -0.084 Cl
BRANCH  26  29
ATOM     29  C   UNL A   1      43.747  22.230  25.013  1.00  0.00     0.073 C 
ATOM     30  O   UNL A   1      43.949  22.943  24.048  1.00  0.00    -0.545 OA
ATOM     31  O   UNL A   1      44.559  21.177  25.235  1.00  0.00    -0.545 OA
ENDBRANCH  26  29
ENDBRANCH  19  22
ENDBRANCH   4  15
BRANCH   9  32
ATOM     32  C   UNL A   1      32.635  20.930  26.707  1.00  0.00     0.285 C 
BRANCH  32  33
ATOM     33  C   UNL A   1      33.028  20.034  25.597  1.00  0.00     0.138 A 
ATOM     34  C   UNL A   1      34.195  19.850  24.888  1.00  0.00     0.049 A 
ATOM     35  O   UNL A   1      32.098  19.113  25.215  1.00  0.00    -0.466 OA
ATOM     36  C   UNL A   1      33.959  18.763  24.014  1.00  0.00     0.042 A 
ATOM     37  C   UNL A   1      32.668  18.352  24.249  1.00  0.00     0.195 A 
ENDBRANCH  32  33
ENDBRANCH   9  32
ENDBRANCH   2   3
ENDBRANCH   1   2
BRANCH   1  38
ATOM     38  C   UNL A   1      34.208  29.159  26.690  1.00  0.00     0.119 C 
BRANCH  38  39
ATOM     39  N   UNL A   1      33.560  30.424  26.966  1.00  0.00    -0.352 N 
ATOM     40  C   UNL A   1      34.072  31.557  27.582  1.00  0.00     0.251 C 
ATOM     41  H   UNL A   1      32.621  30.490  26.675  1.00  0.00     0.163 HD
ATOM     42  O   UNL A   1      33.289  32.494  27.743  1.00  0.00    -0.269 OA
BRANCH  40  43
ATOM     43  C   UNL A   1      35.464  31.618  28.163  1.00  0.00     0.039 A 
ATOM     44  C   UNL A   1      35.851  30.599  29.026  1.00  0.00     0.014 A 
ATOM     45  C   UNL A   1      36.293  32.753  28.122  1.00  0.00     0.014 A 
ATOM     46  C   UNL A   1      37.050  30.702  29.790  1.00  0.00     0.010 A 
ATOM     47  C   UNL A   1      37.478  32.882  28.956  1.00  0.00     0.010 A 
ATOM     48  C   UNL A   1      37.890  31.871  29.846  1.00  0.00    -0.014 A 
BRANCH  48  49
ATOM     49  C   UNL A   1      38.661  32.092  31.225  1.00  0.00     0.031 A 
ATOM     50  C   UNL A   1      40.068  32.322  30.774  1.00  0.00     0.074 A 
ATOM     51  C   UNL A   1      38.492  32.056  32.607  1.00  0.00     0.049 A 
ATOM     52  N   UNL A   1      40.646  31.504  29.938  1.00  0.00    -0.248 NA
ATOM     53  C   UNL A   1      40.735  33.622  30.891  1.00  0.00     0.031 C 
ATOM     54  C   UNL A   1      37.298  31.653  33.365  1.00  0.00     0.029 A 
ATOM     55  N   UNL A   1      39.367  32.385  33.692  1.00  0.00    -0.354 N 
ATOM     56  C   UNL A   1      41.913  31.982  29.775  1.00  0.00     0.074 A 
ATOM     57  C   UNL A   1      41.799  33.392  30.113  1.00  0.00     0.031 C 
ATOM     58  C   UNL A   1      37.449  31.878  34.706  1.00  0.00     0.029 A 
ATOM     59  C   UNL A   1      38.780  32.402  35.009  1.00  0.00     0.049 A 
ATOM     60  H   UNL A   1      40.318  32.589  33.547  1.00  0.00     0.167 HD
ATOM     61  C   UNL A   1      42.919  31.109  30.074  1.00  0.00     0.034 A 
ATOM     62  C   UNL A   1      39.324  32.723  36.251  1.00  0.00     0.034 A 
ATOM     63  C   UNL A   1      43.656  31.489  31.245  1.00  0.00     0.049 A 
ATOM     64  C   UNL A   1      40.778  32.539  36.116  1.00  0.00     0.074 A 
ATOM     65  C   UNL A   1      44.122  32.697  31.728  1.00  0.00     0.029 A 
ATOM     66  N   UNL A   1      43.580  30.636  32.324  1.00  0.00    -0.354 N 
ATOM     67  N   UNL A   1      41.311  31.356  36.182  1.00  0.00    -0.248 NA
ATOM     68  C   UNL A   1      41.722  33.650  36.081  1.00  0.00     0.031 C 
ATOM     69  C   UNL A   1      43.812  32.682  33.108  1.00  0.00     0.029 A 
ATOM     70  C   UNL A   1      43.493  31.384  33.483  1.00  0.00     0.049 A 
ATOM     71  H   UNL A   1      43.586  29.652  32.277  1.00  0.00     0.167 HD
ATOM     72  C   UNL A   1      42.557  31.551  35.677  1.00  0.00     0.074 A 
ATOM     73  C   UNL A   1      42.849  32.952  35.910  1.00  0.00     0.031 C 
ATOM     74  C   UNL A   1      42.933  30.749  34.653  1.00  0.00     0.034 A 
BRANCH  61  75
ATOM     75  C   UNL A   1      42.667  29.687  29.626  1.00  0.00     0.023 A 
ATOM     76  C   UNL A   1      42.681  28.688  30.614  1.00  0.00     0.012 A 
ATOM     77  C   UNL A   1      42.632  29.297  28.261  1.00  0.00     0.148 A 
ATOM     78  C   UNL A   1      42.726  27.339  30.255  1.00  0.00     0.002 A 
ATOM     79  C   UNL A   1      42.796  27.962  27.913  1.00  0.00     0.091 A 
ATOM     80  F   UNL A   1      42.462  30.243  27.324  1.00  0.00    -0.205 F 
ATOM     81  C   UNL A   1      42.826  26.978  28.911  1.00  0.00     0.022 A 
BRANCH  79  82
ATOM     82  S   UNL A   1      43.219  27.449  26.235  1.00  0.00     0.127 S 
ATOM     83  O   UNL A   1      41.962  27.671  25.513  1.00  0.00    -0.237 OA
ATOM     84  O   UNL A   1      44.288  28.372  25.871  1.00  0.00    -0.237 OA
ATOM     85  O   UNL A   1      43.603  26.045  26.315  1.00  0.00    -0.744 OA
ENDBRANCH  79  82
ENDBRANCH  61  75
BRANCH  62  86
ATOM     86  C   UNL A   1      39.028  32.964  37.767  1.00  0.00     0.023 A 
ATOM     87  C   UNL A   1      39.521  34.184  38.351  1.00  0.00     0.012 A 
ATOM     88  C   UNL A   1      37.979  32.351  38.490  1.00  0.00     0.148 A 
ATOM     89  C   UNL A   1      38.939  34.827  39.457  1.00  0.00     0.002 A 
ATOM     90  C   UNL A   1      37.426  32.978  39.642  1.00  0.00     0.091 A 
ATOM     91  F   UNL A   1      37.444  31.224  38.003  1.00  0.00    -0.205 F 
ATOM     92  C   UNL A   1      37.879  34.226  40.098  1.00  0.00     0.022 A 
BRANCH  90  93
ATOM     93  S   UNL A   1      36.053  32.292  40.596  1.00  0.00     0.127 S 
ATOM     94  O   UNL A   1      35.034  32.054  39.572  1.00  0.00    -0.237 OA
ATOM     95  O   UNL A   1      36.647  31.074  41.149  1.00  0.00    -0.237 OA
ATOM     96  O   UNL A   1      35.704  33.326  41.560  1.00  0.00    -0.744 OA
ENDBRANCH  90  93
ENDBRANCH  62  86
BRANCH  74  97
ATOM     97  C   UNL A   1      42.482  29.296  34.693  1.00  0.00     0.023 A 
ATOM     98  C   UNL A   1      41.476  28.734  33.874  1.00  0.00     0.012 A 
ATOM     99  C   UNL A   1      43.117  28.444  35.610  1.00  0.00     0.148 A 
ATOM    100  C   UNL A   1      41.094  27.393  33.993  1.00  0.00     0.002 A 
ATOM    101  C   UNL A   1      42.782  27.095  35.686  1.00  0.00     0.091 A 
ATOM    102  F   UNL A   1      44.053  28.973  36.414  1.00  0.00    -0.205 F 
ATOM    103  C   UNL A   1      41.762  26.564  34.888  1.00  0.00     0.022 A 
BRANCH 101 104
ATOM    104  S   UNL A   1      43.689  26.008  36.785  1.00  0.00     0.127 S 
ATOM    105  O   UNL A   1      43.148  24.698  36.430  1.00  0.00    -0.237 OA
ATOM    106  O   UNL A   1      45.083  26.214  36.399  1.00  0.00    -0.237 OA
ATOM    107  O   UNL A   1      43.364  26.477  38.130  1.00  0.00    -0.744 OA
ENDBRANCH 101 104
ENDBRANCH  74  97
ENDBRANCH  48  49
ENDBRANCH  40  43
ENDBRANCH  38  39
ENDBRANCH   1  38
TORSDOF 17
ENDMDL
MODEL 3
REMARK VINA RESULT:     -11.9      1.658      2.153
REMARK SMILES Cc1cc(/C=C2\C(=O)N(Cc3ccco3)C(=O)[NH+]=C2NCCCNC(=O)c2ccc(-c3c4nc(c(-c5cccc(S(=O)(=O)[O-])c5F)c5ccc([nH]5)c(-c5cccc(S(=O)(=O)[O-])c5F)c5nc(c(-c6cccc(S(=O)(=O)[O-])c6F)c6ccc3[nH]6)C=C5)C=C4)cc2)c(C)n1-c1ccc(Cl)c(C(=O)[O-])c1
REMARK SMILES IDX 22 1 21 2 20 3 5 4 6 5 7 6 19 7 8 8 9 9 18 10 16 11 17 14
REMARK SMILES IDX 4 15 1 16 2 17 3 18 92 19 90 20 91 21 93 22 94 23 102 24
REMARK SMILES IDX 95 25 98 26 96 27 97 28 99 29 100 30 101 31 10 32 11 33
REMARK SMILES IDX 12 34 15 35 13 36 14 37 23 38 24 39 25 40 26 42 27 43 28 44
REMARK SMILES IDX 89 45 29 46 88 47 30 48 31 49 32 50 82 51 33 52 87 53 81 54
REMARK SMILES IDX 83 55 34 56 86 57 80 58 79 59 35 61 67 62 47 63 66 64 48 65
REMARK SMILES IDX 51 66 65 67 84 68 49 69 50 70 64 72 85 73 52 74 36 75 37 76
REMARK SMILES IDX 45 77 38 78 40 79 46 80 39 81 41 82 42 83 43 84 44 85 68 86
REMARK SMILES IDX 69 87 77 88 70 89 72 90 78 91 71 92 73 93 74 94 75 95 76 96
REMARK SMILES IDX 53 97 54 98 62 99 55 100 57 101 63 102 56 103 58 104 59 105
REMARK SMILES IDX 60 106 61 107
REMARK H PARENT 18 12 20 13 24 41 83 60 51 71
REMARK Flexibility Score: inf
ROOT
ATOM      1  C   UNL A   1      39.082  24.108  26.820  1.00  0.00     0.059 C 
ENDROOT
BRANCH   1   2
ATOM      2  C   UNL A   1      37.596  24.388  26.531  1.00  0.00     0.195 C 
BRANCH   2   3
ATOM      3  N   UNL A   1      36.796  23.206  26.701  1.00  0.00    -0.305 N 
ATOM      4  C   UNL A   1      34.607  24.621  24.837  1.00  0.00     0.032 C 
ATOM      5  C   UNL A   1      34.794  23.304  25.048  1.00  0.00     0.129 C 
ATOM      6  C   UNL A   1      34.065  22.237  24.295  1.00  0.00     0.323 C 
ATOM      7  C   UNL A   1      35.618  22.755  26.167  1.00  0.00     0.236 C 
ATOM      8  O   UNL A   1      33.991  22.212  23.102  1.00  0.00    -0.250 OA
ATOM      9  N   UNL A   1      33.492  21.323  25.173  1.00  0.00    -0.182 N 
ATOM     10  N   UNL A   1      35.226  21.648  26.746  1.00  0.00    -0.210 N 
ATOM     11  C   UNL A   1      34.044  21.050  26.406  1.00  0.00     0.444 C 
ATOM     12  H   UNL A   1      35.793  21.239  27.439  1.00  0.00     0.270 HD
ATOM     13  H   UNL A   1      37.183  22.577  27.351  1.00  0.00     0.256 HD
ATOM     14  O   UNL A   1      33.494  20.271  27.187  1.00  0.00    -0.212 OA
BRANCH   4  15
ATOM     15  C   UNL A   1      33.756  25.345  23.917  1.00  0.00    -0.003 A 
ATOM     16  C   UNL A   1      32.445  26.056  20.491  1.00  0.00     0.065 C 
ATOM     17  C   UNL A   1      32.800  25.934  21.934  1.00  0.00     0.020 A 
ATOM     18  C   UNL A   1      33.708  25.075  22.523  1.00  0.00     0.031 A 
ATOM     19  N   UNL A   1      32.293  26.758  22.924  1.00  0.00    -0.318 N 
ATOM     20  C   UNL A   1      32.926  26.440  24.132  1.00  0.00     0.027 A 
ATOM     21  C   UNL A   1      32.581  27.142  25.398  1.00  0.00     0.065 C 
BRANCH  19  22
ATOM     22  C   UNL A   1      31.230  27.701  22.780  1.00  0.00     0.046 A 
ATOM     23  C   UNL A   1      31.515  29.041  22.520  1.00  0.00     0.028 A 
ATOM     24  C   UNL A   1      29.919  27.309  23.071  1.00  0.00     0.038 A 
ATOM     25  C   UNL A   1      30.522  30.006  22.678  1.00  0.00     0.023 A 
ATOM     26  C   UNL A   1      28.899  28.278  23.208  1.00  0.00     0.018 A 
ATOM     27  C   UNL A   1      29.222  29.635  23.045  1.00  0.00     0.050 A 
ATOM     28  Cl  UNL A   1      28.111  30.936  23.292  1.00  0.00    -0.084 Cl
BRANCH  26  29
ATOM     29  C   UNL A   1      27.522  27.840  23.571  1.00  0.00     0.073 C 
ATOM     30  O   UNL A   1      26.478  28.453  23.460  1.00  0.00    -0.545 OA
ATOM     31  O   UNL A   1      27.502  26.585  24.064  1.00  0.00    -0.545 OA
ENDBRANCH  26  29
ENDBRANCH  19  22
ENDBRANCH   4  15
BRANCH   9  32
ATOM     32  C   UNL A   1      32.255  20.656  24.807  1.00  0.00     0.285 C 
BRANCH  32  33
ATOM     33  C   UNL A   1      32.478  19.421  24.025  1.00  0.00     0.138 A 
ATOM     34  C   UNL A   1      32.943  18.164  24.341  1.00  0.00     0.049 A 
ATOM     35  O   UNL A   1      32.069  19.456  22.724  1.00  0.00    -0.466 OA
ATOM     36  C   UNL A   1      32.824  17.390  23.162  1.00  0.00     0.042 A 
ATOM     37  C   UNL A   1      32.290  18.223  22.207  1.00  0.00     0.195 A 
ENDBRANCH  32  33
ENDBRANCH   9  32
ENDBRANCH   2   3
ENDBRANCH   1   2
BRANCH   1  38
ATOM     38  C   UNL A   1      39.891  23.392  25.711  1.00  0.00     0.119 C 
BRANCH  38  39
ATOM     39  N   UNL A   1      40.978  22.572  26.204  1.00  0.00    -0.352 N 
ATOM     40  C   UNL A   1      42.073  22.936  26.974  1.00  0.00     0.251 C 
ATOM     41  H   UNL A   1      40.934  21.620  25.958  1.00  0.00     0.163 HD
ATOM     42  O   UNL A   1      42.889  22.048  27.219  1.00  0.00    -0.269 OA
BRANCH  40  43
ATOM     43  C   UNL A   1      42.351  24.363  27.382  1.00  0.00     0.039 A 
ATOM     44  C   UNL A   1      42.138  24.710  28.711  1.00  0.00     0.014 A 
ATOM     45  C   UNL A   1      42.541  25.425  26.480  1.00  0.00     0.014 A 
ATOM     46  C   UNL A   1      42.154  26.075  29.123  1.00  0.00     0.010 A 
ATOM     47  C   UNL A   1      42.486  26.819  26.895  1.00  0.00     0.010 A 
ATOM     48  C   UNL A   1      42.263  27.201  28.232  1.00  0.00    -0.014 A 
BRANCH  48  49
ATOM     49  C   UNL A   1      41.525  28.530  28.716  1.00  0.00     0.031 A 
ATOM     50  C   UNL A   1      42.628  29.538  28.691  1.00  0.00     0.074 A 
ATOM     51  C   UNL A   1      40.311  29.007  29.203  1.00  0.00     0.049 A 
ATOM     52  N   UNL A   1      43.773  29.295  29.270  1.00  0.00    -0.248 NA
ATOM     53  C   UNL A   1      42.673  30.640  27.726  1.00  0.00     0.031 C 
ATOM     54  C   UNL A   1      39.104  28.239  29.546  1.00  0.00     0.029 A 
ATOM     55  N   UNL A   1      39.851  30.328  29.511  1.00  0.00    -0.354 N 
ATOM     56  C   UNL A   1      44.520  30.421  29.091  1.00  0.00     0.074 A 
ATOM     57  C   UNL A   1      43.934  31.044  27.915  1.00  0.00     0.031 C 
ATOM     58  C   UNL A   1      38.055  29.057  29.862  1.00  0.00     0.029 A 
ATOM     59  C   UNL A   1      38.450  30.465  29.825  1.00  0.00     0.049 A 
ATOM     60  H   UNL A   1      40.458  31.102  29.509  1.00  0.00     0.167 HD
ATOM     61  C   UNL A   1      44.984  31.011  30.232  1.00  0.00     0.034 A 
ATOM     62  C   UNL A   1      37.681  31.590  30.115  1.00  0.00     0.034 A 
ATOM     63  C   UNL A   1      44.369  32.282  30.491  1.00  0.00     0.049 A 
ATOM     64  C   UNL A   1      38.625  32.615  30.588  1.00  0.00     0.074 A 
ATOM     65  C   UNL A   1      44.021  33.353  29.690  1.00  0.00     0.029 A 
ATOM     66  N   UNL A   1      43.596  32.371  31.627  1.00  0.00    -0.354 N 
ATOM     67  N   UNL A   1      39.072  32.600  31.808  1.00  0.00    -0.248 NA
ATOM     68  C   UNL A   1      38.980  33.794  29.807  1.00  0.00     0.031 C 
ATOM     69  C   UNL A   1      42.726  33.726  30.123  1.00  0.00     0.029 A 
ATOM     70  C   UNL A   1      42.472  33.125  31.348  1.00  0.00     0.049 A 
ATOM     71  H   UNL A   1      43.810  31.963  32.498  1.00  0.00     0.167 HD
ATOM     72  C   UNL A   1      40.137  33.442  31.756  1.00  0.00     0.074 A 
ATOM     73  C   UNL A   1      39.863  34.337  30.650  1.00  0.00     0.031 C 
ATOM     74  C   UNL A   1      41.320  32.957  32.203  1.00  0.00     0.034 A 
BRANCH  61  75
ATOM     75  C   UNL A   1      45.459  30.041  31.290  1.00  0.00     0.023 A 
ATOM     76  C   UNL A   1      46.837  29.780  31.353  1.00  0.00     0.012 A 
ATOM     77  C   UNL A   1      44.575  29.239  32.060  1.00  0.00     0.148 A 
ATOM     78  C   UNL A   1      47.321  28.710  32.109  1.00  0.00     0.002 A 
ATOM     79  C   UNL A   1      45.051  28.108  32.712  1.00  0.00     0.091 A 
ATOM     80  F   UNL A   1      43.279  29.582  32.122  1.00  0.00    -0.205 F 
ATOM     81  C   UNL A   1      46.429  27.851  32.751  1.00  0.00     0.022 A 
BRANCH  79  82
ATOM     82  S   UNL A   1      43.952  26.808  33.312  1.00  0.00     0.127 S 
ATOM     83  O   UNL A   1      43.293  27.455  34.451  1.00  0.00    -0.237 OA
ATOM     84  O   UNL A   1      43.075  26.569  32.171  1.00  0.00    -0.237 OA
ATOM     85  O   UNL A   1      44.804  25.688  33.693  1.00  0.00    -0.744 OA
ENDBRANCH  79  82
ENDBRANCH  61  75
BRANCH  62  86
ATOM     86  C   UNL A   1      36.239  32.137  30.370  1.00  0.00     0.023 A 
ATOM     87  C   UNL A   1      35.833  32.316  31.740  1.00  0.00     0.012 A 
ATOM     88  C   UNL A   1      35.480  32.876  29.434  1.00  0.00     0.148 A 
ATOM     89  C   UNL A   1      34.874  33.249  32.169  1.00  0.00     0.002 A 
ATOM     90  C   UNL A   1      34.471  33.781  29.868  1.00  0.00     0.091 A 
ATOM     91  F   UNL A   1      35.807  32.787  28.138  1.00  0.00    -0.205 F 
ATOM     92  C   UNL A   1      34.198  33.993  31.228  1.00  0.00     0.022 A 
BRANCH  90  93
ATOM     93  S   UNL A   1      33.488  34.801  28.745  1.00  0.00     0.127 S 
ATOM     94  O   UNL A   1      32.630  35.557  29.660  1.00  0.00    -0.237 OA
ATOM     95  O   UNL A   1      34.517  35.604  28.084  1.00  0.00    -0.237 OA
ATOM     96  O   UNL A   1      32.774  33.856  27.898  1.00  0.00    -0.744 OA
ENDBRANCH  90  93
ENDBRANCH  62  86
BRANCH  74  97
ATOM     97  C   UNL A   1      41.293  32.038  33.416  1.00  0.00     0.023 A 
ATOM     98  C   UNL A   1      40.925  30.673  33.393  1.00  0.00     0.012 A 
ATOM     99  C   UNL A   1      41.667  32.585  34.653  1.00  0.00     0.148 A 
ATOM    100  C   UNL A   1      40.895  29.900  34.560  1.00  0.00     0.002 A 
ATOM    101  C   UNL A   1      41.697  31.801  35.804  1.00  0.00     0.091 A 
ATOM    102  F   UNL A   1      41.989  33.887  34.692  1.00  0.00    -0.205 F 
ATOM    103  C   UNL A   1      41.301  30.459  35.766  1.00  0.00     0.022 A 
BRANCH 101 104
ATOM    104  S   UNL A   1      42.289  32.497  37.345  1.00  0.00     0.127 S 
ATOM    105  O   UNL A   1      43.553  33.107  36.937  1.00  0.00    -0.237 OA
ATOM    106  O   UNL A   1      41.246  33.451  37.715  1.00  0.00    -0.237 OA
ATOM    107  O   UNL A   1      42.407  31.357  38.252  1.00  0.00    -0.744 OA
ENDBRANCH 101 104
ENDBRANCH  74  97
ENDBRANCH  48  49
ENDBRANCH  40  43
ENDBRANCH  38  39
ENDBRANCH   1  38
TORSDOF 17
ENDMDL
