MODEL 1
REMARK VINA RESULT:     -11.6      0.000      0.000
REMARK SMILES NC(=O)[C@@H]1CCC[N@H+]1[C@H](C(=O)NCCCNC(=O)c1ccc(-c2c3nc(c(-c4cccc(S(=O)(=O)[O-])c4F)c4ccc([nH]4)c(-c4cccc(S(=O)(=O)[O-])c4F)c4nc(c(-c5cccc(S(=O)(=O)[O-])c5F)c5ccc2[nH]5)C=C4)C=C3)cc1)c1c[nH]c2cc(NC(=O)c3ccccc3)ccc12
REMARK SMILES IDX 14 1 13 2 12 3 10 4 11 5 9 7 8 8 4 9 5 10 6 11 7 12 2 14
REMARK SMILES IDX 1 15 3 18 82 19 83 20 99 21 84 22 85 23 98 24 86 26 97 27
REMARK SMILES IDX 87 28 88 29 89 30 90 32 91 33 92 34 96 35 93 36 95 37 94 38
REMARK SMILES IDX 15 39 16 40 17 41 18 43 19 44 20 45 81 46 21 47 80 48 22 49
REMARK SMILES IDX 23 50 24 51 74 52 25 53 79 54 73 55 75 56 26 57 78 58 72 59
REMARK SMILES IDX 71 60 27 62 59 63 39 64 58 65 40 66 43 67 57 68 76 69 41 70
REMARK SMILES IDX 42 71 56 73 77 74 44 75 28 76 29 77 37 78 30 79 32 80 38 81
REMARK SMILES IDX 31 82 33 83 34 84 35 85 36 86 60 87 61 88 69 89 62 90 64 91
REMARK SMILES IDX 70 92 63 93 65 94 66 95 67 96 68 97 45 98 46 99 54 100
REMARK SMILES IDX 47 101 49 102 55 103 48 104 50 105 51 106 52 107 53 108
REMARK H PARENT 12 6 8 13 1 16 1 17 84 25 88 31 16 42 75 61 43 72
REMARK Flexibility Score: inf
ROOT
ATOM      1  C   UNL A   1      33.114  28.025  26.099  1.00  0.00     0.042 C 
ENDROOT
BRANCH   1   2
ATOM      2  C   UNL A   1      32.631  27.909  24.623  1.00  0.00     0.118 C 
BRANCH   2   3
ATOM      3  N   UNL A   1      33.443  27.175  23.649  1.00  0.00    -0.351 N 
ATOM      4  C   UNL A   1      33.505  25.838  23.307  1.00  0.00     0.283 C 
ATOM      5  O   UNL A   1      33.578  25.695  22.070  1.00  0.00    -0.268 OA
ATOM      6  H   UNL A   1      34.065  27.745  23.141  1.00  0.00     0.163 HD
BRANCH   4   7
ATOM      7  C   UNL A   1      33.431  24.532  24.278  1.00  0.00     0.308 C 
BRANCH   7   8
ATOM      8  N   UNL A   1      31.975  24.235  24.572  1.00  0.00    -0.311 N 
ATOM      9  C   UNL A   1      31.374  24.540  25.909  1.00  0.00     0.275 C 
ATOM     10  C   UNL A   1      30.033  25.223  25.639  1.00  0.00     0.081 C 
ATOM     11  C   UNL A   1      30.221  25.808  24.257  1.00  0.00     0.068 C 
ATOM     12  C   UNL A   1      31.042  24.741  23.562  1.00  0.00     0.264 C 
ATOM     13  H   UNL A   1      32.081  23.220  24.560  1.00  0.00     0.349 HD
BRANCH   9  14
ATOM     14  C   UNL A   1      31.187  23.355  26.867  1.00  0.00     0.275 C 
ATOM     15  N   UNL A   1      30.012  22.682  26.833  1.00  0.00    -0.365 N 
ATOM     16  H   UNL A   1      29.865  21.917  27.435  1.00  0.00     0.159 HD
ATOM     17  H   UNL A   1      29.305  22.957  26.204  1.00  0.00     0.159 HD
ATOM     18  O   UNL A   1      32.074  22.961  27.624  1.00  0.00    -0.268 OA
ENDBRANCH   9  14
ENDBRANCH   7   8
BRANCH   7  19
ATOM     19  C   UNL A   1      34.332  23.277  23.883  1.00  0.00     0.044 A 
ATOM     20  C   UNL A   1      34.081  22.076  24.542  1.00  0.00     0.094 A 
ATOM     21  C   UNL A   1      35.754  23.125  24.040  1.00  0.00     0.009 A 
ATOM     22  N   UNL A   1      34.783  22.403  25.734  1.00  0.00    -0.361 N 
ATOM     23  C   UNL A   1      35.755  23.368  25.410  1.00  0.00     0.048 A 
ATOM     24  C   UNL A   1      36.849  22.313  23.619  1.00  0.00     0.013 A 
ATOM     25  H   UNL A   1      34.619  22.023  26.627  1.00  0.00     0.166 HD
ATOM     26  C   UNL A   1      36.927  23.632  26.069  1.00  0.00     0.052 A 
ATOM     27  C   UNL A   1      37.866  22.025  24.588  1.00  0.00     0.027 A 
ATOM     28  C   UNL A   1      37.870  22.655  25.849  1.00  0.00     0.043 A 
BRANCH  28  29
ATOM     29  N   UNL A   1      38.758  22.275  26.876  1.00  0.00    -0.322 N 
ATOM     30  C   UNL A   1      40.029  22.752  27.189  1.00  0.00     0.255 C 
ATOM     31  H   UNL A   1      38.427  21.559  27.465  1.00  0.00     0.170 HD
ATOM     32  O   UNL A   1      40.679  22.267  28.112  1.00  0.00    -0.269 OA
BRANCH  30  33
ATOM     33  C   UNL A   1      40.645  23.902  26.475  1.00  0.00     0.040 A 
ATOM     34  C   UNL A   1      40.098  25.182  26.628  1.00  0.00     0.014 A 
ATOM     35  C   UNL A   1      41.826  23.734  25.739  1.00  0.00     0.014 A 
ATOM     36  C   UNL A   1      40.779  26.295  26.121  1.00  0.00     0.001 A 
ATOM     37  C   UNL A   1      42.494  24.850  25.223  1.00  0.00     0.001 A 
ATOM     38  C   UNL A   1      41.982  26.131  25.432  1.00  0.00     0.000 A 
ENDBRANCH  30  33
ENDBRANCH  28  29
ENDBRANCH   7  19
ENDBRANCH   4   7
ENDBRANCH   2   3
ENDBRANCH   1   2
BRANCH   1  39
ATOM     39  C   UNL A   1      34.401  28.811  26.385  1.00  0.00     0.118 C 
BRANCH  39  40
ATOM     40  N   UNL A   1      34.133  30.220  26.643  1.00  0.00    -0.352 N 
ATOM     41  C   UNL A   1      34.667  31.119  27.541  1.00  0.00     0.251 C 
ATOM     42  H   UNL A   1      33.434  30.605  26.064  1.00  0.00     0.163 HD
ATOM     43  O   UNL A   1      34.130  32.212  27.668  1.00  0.00    -0.269 OA
BRANCH  41  44
ATOM     44  C   UNL A   1      35.855  30.795  28.366  1.00  0.00     0.039 A 
ATOM     45  C   UNL A   1      35.778  29.715  29.253  1.00  0.00     0.014 A 
ATOM     46  C   UNL A   1      36.997  31.596  28.362  1.00  0.00     0.014 A 
ATOM     47  C   UNL A   1      36.857  29.410  30.092  1.00  0.00     0.010 A 
ATOM     48  C   UNL A   1      38.100  31.253  29.156  1.00  0.00     0.010 A 
ATOM     49  C   UNL A   1      38.041  30.163  30.041  1.00  0.00    -0.014 A 
BRANCH  49  50
ATOM     50  C   UNL A   1      39.195  29.837  30.928  1.00  0.00     0.031 A 
ATOM     51  C   UNL A   1      39.327  30.473  32.289  1.00  0.00     0.074 A 
ATOM     52  C   UNL A   1      40.166  29.004  30.500  1.00  0.00     0.049 A 
ATOM     53  N   UNL A   1      40.268  30.321  33.187  1.00  0.00    -0.248 NA
ATOM     54  C   UNL A   1      38.271  31.416  32.685  1.00  0.00     0.031 C 
ATOM     55  C   UNL A   1      40.210  28.364  29.185  1.00  0.00     0.029 A 
ATOM     56  N   UNL A   1      41.318  28.574  31.117  1.00  0.00    -0.354 N 
ATOM     57  C   UNL A   1      39.949  31.189  34.225  1.00  0.00     0.074 A 
ATOM     58  C   UNL A   1      38.737  31.877  33.836  1.00  0.00     0.031 C 
ATOM     59  C   UNL A   1      41.327  27.626  29.093  1.00  0.00     0.029 A 
ATOM     60  C   UNL A   1      42.100  27.765  30.327  1.00  0.00     0.049 A 
ATOM     61  H   UNL A   1      41.560  28.822  32.038  1.00  0.00     0.167 HD
ATOM     62  C   UNL A   1      40.587  31.387  35.406  1.00  0.00     0.034 A 
ATOM     63  C   UNL A   1      43.308  27.209  30.552  1.00  0.00     0.034 A 
ATOM     64  C   UNL A   1      41.771  30.679  35.815  1.00  0.00     0.049 A 
ATOM     65  C   UNL A   1      43.983  27.405  31.882  1.00  0.00     0.074 A 
ATOM     66  C   UNL A   1      42.425  30.731  37.033  1.00  0.00     0.029 A 
ATOM     67  N   UNL A   1      42.493  29.812  35.011  1.00  0.00    -0.354 N 
ATOM     68  N   UNL A   1      43.576  28.097  32.917  1.00  0.00    -0.248 NA
ATOM     69  C   UNL A   1      45.267  26.718  32.092  1.00  0.00     0.031 C 
ATOM     70  C   UNL A   1      43.566  29.926  36.951  1.00  0.00     0.029 A 
ATOM     71  C   UNL A   1      43.597  29.336  35.698  1.00  0.00     0.049 A 
ATOM     72  H   UNL A   1      42.256  29.570  34.086  1.00  0.00     0.167 HD
ATOM     73  C   UNL A   1      44.529  27.902  33.910  1.00  0.00     0.074 A 
ATOM     74  C   UNL A   1      45.532  27.015  33.357  1.00  0.00     0.031 C 
ATOM     75  C   UNL A   1      44.570  28.417  35.164  1.00  0.00     0.034 A 
BRANCH  62  76
ATOM     76  C   UNL A   1      39.995  32.398  36.357  1.00  0.00     0.023 A 
ATOM     77  C   UNL A   1      39.083  31.981  37.349  1.00  0.00     0.012 A 
ATOM     78  C   UNL A   1      40.366  33.756  36.289  1.00  0.00     0.148 A 
ATOM     79  C   UNL A   1      38.506  32.904  38.219  1.00  0.00     0.002 A 
ATOM     80  C   UNL A   1      39.826  34.663  37.195  1.00  0.00     0.091 A 
ATOM     81  F   UNL A   1      41.224  34.140  35.334  1.00  0.00    -0.205 F 
ATOM     82  C   UNL A   1      38.883  34.241  38.146  1.00  0.00     0.022 A 
BRANCH  80  83
ATOM     83  S   UNL A   1      40.320  36.388  37.245  1.00  0.00     0.127 S 
ATOM     84  O   UNL A   1      41.743  36.281  37.557  1.00  0.00    -0.237 OA
ATOM     85  O   UNL A   1      40.028  36.833  35.881  1.00  0.00    -0.237 OA
ATOM     86  O   UNL A   1      39.494  37.012  38.270  1.00  0.00    -0.744 OA
ENDBRANCH  80  83
ENDBRANCH  62  76
BRANCH  63  87
ATOM     87  C   UNL A   1      43.938  26.378  29.487  1.00  0.00     0.023 A 
ATOM     88  C   UNL A   1      43.760  24.982  29.486  1.00  0.00     0.012 A 
ATOM     89  C   UNL A   1      44.662  26.980  28.440  1.00  0.00     0.148 A 
ATOM     90  C   UNL A   1      44.309  24.197  28.469  1.00  0.00     0.002 A 
ATOM     91  C   UNL A   1      45.149  26.202  27.398  1.00  0.00     0.091 A 
ATOM     92  F   UNL A   1      44.827  28.310  28.467  1.00  0.00    -0.205 F 
ATOM     93  C   UNL A   1      44.990  24.808  27.419  1.00  0.00     0.022 A 
BRANCH  91  94
ATOM     94  S   UNL A   1      45.892  26.924  25.930  1.00  0.00     0.127 S 
ATOM     95  O   UNL A   1      47.176  27.392  26.444  1.00  0.00    -0.237 OA
ATOM     96  O   UNL A   1      45.967  25.768  25.036  1.00  0.00    -0.237 OA
ATOM     97  O   UNL A   1      44.966  27.960  25.490  1.00  0.00    -0.744 OA
ENDBRANCH  91  94
ENDBRANCH  63  87
BRANCH  75  98
ATOM     98  C   UNL A   1      45.708  28.009  36.065  1.00  0.00     0.023 A 
ATOM     99  C   UNL A   1      46.892  28.771  36.100  1.00  0.00     0.012 A 
ATOM    100  C   UNL A   1      45.560  26.922  36.951  1.00  0.00     0.148 A 
ATOM    101  C   UNL A   1      47.920  28.443  36.985  1.00  0.00     0.002 A 
ATOM    102  C   UNL A   1      46.566  26.634  37.865  1.00  0.00     0.091 A 
ATOM    103  F   UNL A   1      44.434  26.197  36.888  1.00  0.00    -0.205 F 
ATOM    104  C   UNL A   1      47.751  27.386  37.876  1.00  0.00     0.022 A 
BRANCH 102 105
ATOM    105  S   UNL A   1      46.394  25.355  39.116  1.00  0.00     0.127 S 
ATOM    106  O   UNL A   1      46.312  24.147  38.296  1.00  0.00    -0.237 OA
ATOM    107  O   UNL A   1      47.637  25.493  39.873  1.00  0.00    -0.237 OA
ATOM    108  O   UNL A   1      45.188  25.682  39.864  1.00  0.00    -0.744 OA
ENDBRANCH 102 105
ENDBRANCH  75  98
ENDBRANCH  49  50
ENDBRANCH  41  44
ENDBRANCH  39  40
ENDBRANCH   1  39
TORSDOF 18
ENDMDL
MODEL 2
REMARK VINA RESULT:     -11.4      5.822      8.790
REMARK SMILES NC(=O)[C@@H]1CCC[N@H+]1[C@H](C(=O)NCCCNC(=O)c1ccc(-c2c3nc(c(-c4cccc(S(=O)(=O)[O-])c4F)c4ccc([nH]4)c(-c4cccc(S(=O)(=O)[O-])c4F)c4nc(c(-c5cccc(S(=O)(=O)[O-])c5F)c5ccc2[nH]5)C=C4)C=C3)cc1)c1c[nH]c2cc(NC(=O)c3ccccc3)ccc12
REMARK SMILES IDX 14 1 13 2 12 3 10 4 11 5 9 7 8 8 4 9 5 10 6 11 7 12 2 14
REMARK SMILES IDX 1 15 3 18 82 19 83 20 99 21 84 22 85 23 98 24 86 26 97 27
REMARK SMILES IDX 87 28 88 29 89 30 90 32 91 33 92 34 96 35 93 36 95 37 94 38
REMARK SMILES IDX 15 39 16 40 17 41 18 43 19 44 20 45 81 46 21 47 80 48 22 49
REMARK SMILES IDX 23 50 24 51 74 52 25 53 79 54 73 55 75 56 26 57 78 58 72 59
REMARK SMILES IDX 71 60 27 62 59 63 39 64 58 65 40 66 43 67 57 68 76 69 41 70
REMARK SMILES IDX 42 71 56 73 77 74 44 75 28 76 29 77 37 78 30 79 32 80 38 81
REMARK SMILES IDX 31 82 33 83 34 84 35 85 36 86 60 87 61 88 69 89 62 90 64 91
REMARK SMILES IDX 70 92 63 93 65 94 66 95 67 96 68 97 45 98 46 99 54 100
REMARK SMILES IDX 47 101 49 102 55 103 48 104 50 105 51 106 52 107 53 108
REMARK H PARENT 12 6 8 13 1 16 1 17 84 25 88 31 16 42 75 61 43 72
REMARK Flexibility Score: inf
ROOT
ATOM      1  C   UNL A   1      37.911  19.572  24.684  1.00  0.00     0.042 C 
ENDROOT
BRANCH   1   2
ATOM      2  C   UNL A   1      36.362  19.722  24.759  1.00  0.00     0.118 C 
BRANCH   2   3
ATOM      3  N   UNL A   1      35.773  20.712  25.665  1.00  0.00    -0.351 N 
ATOM      4  C   UNL A   1      34.464  21.049  25.950  1.00  0.00     0.283 C 
ATOM      5  O   UNL A   1      34.301  21.213  27.176  1.00  0.00    -0.268 OA
ATOM      6  H   UNL A   1      36.437  21.236  26.167  1.00  0.00     0.163 HD
BRANCH   4   7
ATOM      7  C   UNL A   1      33.199  21.180  24.932  1.00  0.00     0.308 C 
BRANCH   7   8
ATOM      8  N   UNL A   1      32.647  19.793  24.673  1.00  0.00    -0.311 N 
ATOM      9  C   UNL A   1      33.178  18.940  23.562  1.00  0.00     0.275 C 
ATOM     10  C   UNL A   1      33.388  17.543  24.148  1.00  0.00     0.081 C 
ATOM     11  C   UNL A   1      33.557  17.815  25.625  1.00  0.00     0.068 C 
ATOM     12  C   UNL A   1      32.574  18.942  25.863  1.00  0.00     0.264 C 
ATOM     13  H   UNL A   1      31.736  20.113  24.342  1.00  0.00     0.349 HD
BRANCH   9  14
ATOM     14  C   UNL A   1      32.328  18.863  22.286  1.00  0.00     0.275 C 
ATOM     15  N   UNL A   1      31.846  20.016  21.765  1.00  0.00    -0.365 N 
ATOM     16  H   UNL A   1      31.300  19.997  20.947  1.00  0.00     0.159 HD
ATOM     17  H   UNL A   1      32.044  20.875  22.205  1.00  0.00     0.159 HD
ATOM     18  O   UNL A   1      32.112  17.807  21.690  1.00  0.00    -0.268 OA
ENDBRANCH   9  14
ENDBRANCH   7   8
BRANCH   7  19
ATOM     19  C   UNL A   1      32.119  22.310  25.250  1.00  0.00     0.044 A 
ATOM     20  C   UNL A   1      31.559  22.983  24.167  1.00  0.00     0.094 A 
ATOM     21  C   UNL A   1      32.313  23.537  25.977  1.00  0.00     0.009 A 
ATOM     22  N   UNL A   1      32.652  23.866  23.950  1.00  0.00    -0.361 N 
ATOM     23  C   UNL A   1      33.344  24.001  25.168  1.00  0.00     0.048 A 
ATOM     24  C   UNL A   1      31.589  24.588  26.615  1.00  0.00     0.013 A 
ATOM     25  H   UNL A   1      32.883  24.306  23.100  1.00  0.00     0.166 HD
ATOM     26  C   UNL A   1      34.129  25.047  25.575  1.00  0.00     0.052 A 
ATOM     27  C   UNL A   1      32.116  25.917  26.494  1.00  0.00     0.027 A 
ATOM     28  C   UNL A   1      33.381  26.149  25.916  1.00  0.00     0.043 A 
BRANCH  28  29
ATOM     29  N   UNL A   1      33.853  27.448  25.639  1.00  0.00    -0.322 N 
ATOM     30  C   UNL A   1      33.341  28.430  24.793  1.00  0.00     0.255 C 
ATOM     31  H   UNL A   1      34.675  27.701  26.118  1.00  0.00     0.170 HD
ATOM     32  O   UNL A   1      33.917  29.505  24.648  1.00  0.00    -0.269 OA
BRANCH  30  33
ATOM     33  C   UNL A   1      32.051  28.264  24.071  1.00  0.00     0.040 A 
ATOM     34  C   UNL A   1      30.965  29.084  24.402  1.00  0.00     0.014 A 
ATOM     35  C   UNL A   1      31.946  27.371  22.996  1.00  0.00     0.014 A 
ATOM     36  C   UNL A   1      29.815  29.071  23.604  1.00  0.00     0.001 A 
ATOM     37  C   UNL A   1      30.788  27.353  22.211  1.00  0.00     0.001 A 
ATOM     38  C   UNL A   1      29.732  28.217  22.502  1.00  0.00     0.000 A 
ENDBRANCH  30  33
ENDBRANCH  28  29
ENDBRANCH   7  19
ENDBRANCH   4   7
ENDBRANCH   2   3
ENDBRANCH   1   2
BRANCH   1  39
ATOM     39  C   UNL A   1      38.749  20.060  25.873  1.00  0.00     0.118 C 
BRANCH  39  40
ATOM     40  N   UNL A   1      39.953  19.260  26.056  1.00  0.00    -0.352 N 
ATOM     41  C   UNL A   1      41.265  19.597  26.308  1.00  0.00     0.251 C 
ATOM     42  H   UNL A   1      39.800  18.289  25.986  1.00  0.00     0.163 HD
ATOM     43  O   UNL A   1      42.121  18.724  26.241  1.00  0.00    -0.269 OA
BRANCH  41  44
ATOM     44  C   UNL A   1      41.671  20.986  26.636  1.00  0.00     0.039 A 
ATOM     45  C   UNL A   1      41.578  21.963  25.639  1.00  0.00     0.014 A 
ATOM     46  C   UNL A   1      42.240  21.316  27.866  1.00  0.00     0.014 A 
ATOM     47  C   UNL A   1      42.004  23.273  25.890  1.00  0.00     0.010 A 
ATOM     48  C   UNL A   1      42.608  22.641  28.138  1.00  0.00     0.010 A 
ATOM     49  C   UNL A   1      42.507  23.634  27.150  1.00  0.00    -0.014 A 
BRANCH  49  50
ATOM     50  C   UNL A   1      42.956  25.031  27.423  1.00  0.00     0.031 A 
ATOM     51  C   UNL A   1      42.017  26.036  28.042  1.00  0.00     0.074 A 
ATOM     52  C   UNL A   1      44.196  25.427  27.070  1.00  0.00     0.049 A 
ATOM     53  N   UNL A   1      42.228  27.295  28.336  1.00  0.00    -0.248 NA
ATOM     54  C   UNL A   1      40.659  25.569  28.356  1.00  0.00     0.031 C 
ATOM     55  C   UNL A   1      45.192  24.588  26.405  1.00  0.00     0.029 A 
ATOM     56  N   UNL A   1      44.821  26.646  27.199  1.00  0.00    -0.354 N 
ATOM     57  C   UNL A   1      41.017  27.783  28.814  1.00  0.00     0.074 A 
ATOM     58  C   UNL A   1      40.072  26.688  28.753  1.00  0.00     0.031 C 
ATOM     59  C   UNL A   1      46.300  25.313  26.183  1.00  0.00     0.029 A 
ATOM     60  C   UNL A   1      46.084  26.680  26.657  1.00  0.00     0.049 A 
ATOM     61  H   UNL A   1      44.403  27.421  27.637  1.00  0.00     0.167 HD
ATOM     62  C   UNL A   1      40.715  29.019  29.283  1.00  0.00     0.034 A 
ATOM     63  C   UNL A   1      46.968  27.692  26.535  1.00  0.00     0.034 A 
ATOM     64  C   UNL A   1      41.658  30.101  29.382  1.00  0.00     0.049 A 
ATOM     65  C   UNL A   1      46.632  29.046  27.097  1.00  0.00     0.074 A 
ATOM     66  C   UNL A   1      41.475  31.353  29.943  1.00  0.00     0.029 A 
ATOM     67  N   UNL A   1      42.952  30.071  28.887  1.00  0.00    -0.354 N 
ATOM     68  N   UNL A   1      45.538  29.439  27.701  1.00  0.00    -0.248 NA
ATOM     69  C   UNL A   1      47.664  30.091  26.993  1.00  0.00     0.031 C 
ATOM     70  C   UNL A   1      42.646  32.093  29.751  1.00  0.00     0.029 A 
ATOM     71  C   UNL A   1      43.574  31.288  29.112  1.00  0.00     0.049 A 
ATOM     72  H   UNL A   1      43.369  29.298  28.441  1.00  0.00     0.167 HD
ATOM     73  C   UNL A   1      45.760  30.758  28.080  1.00  0.00     0.074 A 
ATOM     74  C   UNL A   1      47.100  31.096  27.648  1.00  0.00     0.031 C 
ATOM     75  C   UNL A   1      44.924  31.610  28.723  1.00  0.00     0.034 A 
BRANCH  62  76
ATOM     76  C   UNL A   1      39.301  29.260  29.754  1.00  0.00     0.023 A 
ATOM     77  C   UNL A   1      38.948  28.983  31.091  1.00  0.00     0.012 A 
ATOM     78  C   UNL A   1      38.330  29.790  28.881  1.00  0.00     0.148 A 
ATOM     79  C   UNL A   1      37.641  29.174  31.537  1.00  0.00     0.002 A 
ATOM     80  C   UNL A   1      37.042  30.027  29.346  1.00  0.00     0.091 A 
ATOM     81  F   UNL A   1      38.676  30.037  27.610  1.00  0.00    -0.205 F 
ATOM     82  C   UNL A   1      36.692  29.702  30.667  1.00  0.00     0.022 A 
BRANCH  80  83
ATOM     83  S   UNL A   1      35.773  30.794  28.332  1.00  0.00     0.127 S 
ATOM     84  O   UNL A   1      36.465  31.983  27.840  1.00  0.00    -0.237 OA
ATOM     85  O   UNL A   1      35.529  29.769  27.316  1.00  0.00    -0.237 OA
ATOM     86  O   UNL A   1      34.646  31.042  29.221  1.00  0.00    -0.744 OA
ENDBRANCH  80  83
ENDBRANCH  62  76
BRANCH  63  87
ATOM     87  C   UNL A   1      48.280  27.438  25.874  1.00  0.00     0.023 A 
ATOM     88  C   UNL A   1      49.367  26.960  26.629  1.00  0.00     0.012 A 
ATOM     89  C   UNL A   1      48.429  27.612  24.485  1.00  0.00     0.148 A 
ATOM     90  C   UNL A   1      50.588  26.677  26.012  1.00  0.00     0.002 A 
ATOM     91  C   UNL A   1      49.625  27.268  23.868  1.00  0.00     0.091 A 
ATOM     92  F   UNL A   1      47.383  28.079  23.788  1.00  0.00    -0.205 F 
ATOM     93  C   UNL A   1      50.713  26.818  24.633  1.00  0.00     0.022 A 
BRANCH  91  94
ATOM     94  S   UNL A   1      49.815  27.262  22.082  1.00  0.00     0.127 S 
ATOM     95  O   UNL A   1      48.766  26.332  21.673  1.00  0.00    -0.237 OA
ATOM     96  O   UNL A   1      49.564  28.664  21.751  1.00  0.00    -0.237 OA
ATOM     97  O   UNL A   1      51.184  26.826  21.834  1.00  0.00    -0.744 OA
ENDBRANCH  91  94
ENDBRANCH  63  87
BRANCH  75  98
ATOM     98  C   UNL A   1      45.432  32.991  29.055  1.00  0.00     0.023 A 
ATOM     99  C   UNL A   1      46.138  33.218  30.252  1.00  0.00     0.012 A 
ATOM    100  C   UNL A   1      45.293  34.042  28.125  1.00  0.00     0.148 A 
ATOM    101  C   UNL A   1      46.676  34.475  30.530  1.00  0.00     0.002 A 
ATOM    102  C   UNL A   1      45.876  35.276  28.386  1.00  0.00     0.091 A 
ATOM    103  F   UNL A   1      44.600  33.812  27.000  1.00  0.00    -0.205 F 
ATOM    104  C   UNL A   1      46.558  35.498  29.593  1.00  0.00     0.022 A 
BRANCH 102 105
ATOM    105  S   UNL A   1      45.860  36.620  27.194  1.00  0.00     0.127 S 
ATOM    106  O   UNL A   1      46.497  35.996  26.035  1.00  0.00    -0.237 OA
ATOM    107  O   UNL A   1      44.429  36.878  27.036  1.00  0.00    -0.237 OA
ATOM    108  O   UNL A   1      46.609  37.710  27.803  1.00  0.00    -0.744 OA
ENDBRANCH 102 105
ENDBRANCH  75  98
ENDBRANCH  49  50
ENDBRANCH  41  44
ENDBRANCH  39  40
ENDBRANCH   1  39
TORSDOF 18
ENDMDL
MODEL 3
REMARK VINA RESULT:     -11.2      2.762      8.249
REMARK SMILES NC(=O)[C@@H]1CCC[N@H+]1[C@H](C(=O)NCCCNC(=O)c1ccc(-c2c3nc(c(-c4cccc(S(=O)(=O)[O-])c4F)c4ccc([nH]4)c(-c4cccc(S(=O)(=O)[O-])c4F)c4nc(c(-c5cccc(S(=O)(=O)[O-])c5F)c5ccc2[nH]5)C=C4)C=C3)cc1)c1c[nH]c2cc(NC(=O)c3ccccc3)ccc12
REMARK SMILES IDX 14 1 13 2 12 3 10 4 11 5 9 7 8 8 4 9 5 10 6 11 7 12 2 14
REMARK SMILES IDX 1 15 3 18 82 19 83 20 99 21 84 22 85 23 98 24 86 26 97 27
REMARK SMILES IDX 87 28 88 29 89 30 90 32 91 33 92 34 96 35 93 36 95 37 94 38
REMARK SMILES IDX 15 39 16 40 17 41 18 43 19 44 20 45 81 46 21 47 80 48 22 49
REMARK SMILES IDX 23 50 24 51 74 52 25 53 79 54 73 55 75 56 26 57 78 58 72 59
REMARK SMILES IDX 71 60 27 62 59 63 39 64 58 65 40 66 43 67 57 68 76 69 41 70
REMARK SMILES IDX 42 71 56 73 77 74 44 75 28 76 29 77 37 78 30 79 32 80 38 81
REMARK SMILES IDX 31 82 33 83 34 84 35 85 36 86 60 87 61 88 69 89 62 90 64 91
REMARK SMILES IDX 70 92 63 93 65 94 66 95 67 96 68 97 45 98 46 99 54 100
REMARK SMILES IDX 47 101 49 102 55 103 48 104 50 105 51 106 52 107 53 108
REMARK H PARENT 12 6 8 13 1 16 1 17 84 25 88 31 16 42 75 61 43 72
REMARK Flexibility Score: inf
ROOT
ATOM      1  C   UNL A   1      30.929  31.953  26.421  1.00  0.00     0.042 C 
ENDROOT
BRANCH   1   2
ATOM      2  C   UNL A   1      30.762  30.792  25.396  1.00  0.00     0.118 C 
BRANCH   2   3
ATOM      3  N   UNL A   1      31.948  30.100  24.884  1.00  0.00    -0.351 N 
ATOM      4  C   UNL A   1      32.114  29.126  23.919  1.00  0.00     0.283 C 
ATOM      5  O   UNL A   1      33.101  29.373  23.198  1.00  0.00    -0.268 OA
ATOM      6  H   UNL A   1      32.789  30.385  25.310  1.00  0.00     0.163 HD
BRANCH   4   7
ATOM      7  C   UNL A   1      31.184  27.824  23.613  1.00  0.00     0.308 C 
BRANCH   7   8
ATOM      8  N   UNL A   1      29.988  28.270  22.796  1.00  0.00    -0.311 N 
ATOM      9  C   UNL A   1      28.749  28.794  23.453  1.00  0.00     0.275 C 
ATOM     10  C   UNL A   1      28.348  30.054  22.685  1.00  0.00     0.081 C 
ATOM     11  C   UNL A   1      29.651  30.509  22.072  1.00  0.00     0.068 C 
ATOM     12  C   UNL A   1      30.315  29.196  21.708  1.00  0.00     0.264 C 
ATOM     13  H   UNL A   1      29.738  27.334  22.475  1.00  0.00     0.349 HD
BRANCH   9  14
ATOM     14  C   UNL A   1      27.561  27.827  23.553  1.00  0.00     0.275 C 
ATOM     15  N   UNL A   1      27.814  26.526  23.836  1.00  0.00    -0.365 N 
ATOM     16  H   UNL A   1      27.071  25.885  23.907  1.00  0.00     0.159 HD
ATOM     17  H   UNL A   1      28.742  26.224  23.973  1.00  0.00     0.159 HD
ATOM     18  O   UNL A   1      26.391  28.191  23.438  1.00  0.00    -0.268 OA
ENDBRANCH   9  14
ENDBRANCH   7   8
BRANCH   7  19
ATOM     19  C   UNL A   1      31.920  26.503  23.105  1.00  0.00     0.044 A 
ATOM     20  C   UNL A   1      31.208  25.308  23.171  1.00  0.00     0.094 A 
ATOM     21  C   UNL A   1      33.103  25.888  23.647  1.00  0.00     0.009 A 
ATOM     22  N   UNL A   1      31.415  25.079  24.559  1.00  0.00    -0.361 N 
ATOM     23  C   UNL A   1      32.594  25.750  24.933  1.00  0.00     0.048 A 
ATOM     24  C   UNL A   1      34.105  24.920  23.338  1.00  0.00     0.013 A 
ATOM     25  H   UNL A   1      30.837  24.547  25.151  1.00  0.00     0.166 HD
ATOM     26  C   UNL A   1      33.426  25.459  25.982  1.00  0.00     0.052 A 
ATOM     27  C   UNL A   1      34.571  24.090  24.410  1.00  0.00     0.027 A 
ATOM     28  C   UNL A   1      34.181  24.334  25.743  1.00  0.00     0.043 A 
BRANCH  28  29
ATOM     29  N   UNL A   1      34.491  23.445  26.792  1.00  0.00    -0.322 N 
ATOM     30  C   UNL A   1      34.294  22.069  26.894  1.00  0.00     0.255 C 
ATOM     31  H   UNL A   1      34.915  23.862  27.576  1.00  0.00     0.170 HD
ATOM     32  O   UNL A   1      34.599  21.459  27.915  1.00  0.00    -0.269 OA
BRANCH  30  33
ATOM     33  C   UNL A   1      33.765  21.257  25.766  1.00  0.00     0.040 A 
ATOM     34  C   UNL A   1      34.564  20.251  25.207  1.00  0.00     0.014 A 
ATOM     35  C   UNL A   1      32.443  21.417  25.330  1.00  0.00     0.014 A 
ATOM     36  C   UNL A   1      34.011  19.356  24.283  1.00  0.00     0.001 A 
ATOM     37  C   UNL A   1      31.901  20.528  24.395  1.00  0.00     0.001 A 
ATOM     38  C   UNL A   1      32.678  19.487  23.888  1.00  0.00     0.000 A 
ENDBRANCH  30  33
ENDBRANCH  28  29
ENDBRANCH   7  19
ENDBRANCH   4   7
ENDBRANCH   2   3
ENDBRANCH   1   2
BRANCH   1  39
ATOM     39  C   UNL A   1      32.348  32.350  26.848  1.00  0.00     0.118 C 
BRANCH  39  40
ATOM     40  N   UNL A   1      32.413  33.734  27.299  1.00  0.00    -0.352 N 
ATOM     41  C   UNL A   1      33.227  34.380  28.205  1.00  0.00     0.251 C 
ATOM     42  H   UNL A   1      31.746  34.323  26.876  1.00  0.00     0.163 HD
ATOM     43  O   UNL A   1      32.950  35.527  28.532  1.00  0.00    -0.269 OA
BRANCH  41  44
ATOM     44  C   UNL A   1      34.411  33.721  28.807  1.00  0.00     0.039 A 
ATOM     45  C   UNL A   1      34.209  32.615  29.641  1.00  0.00     0.014 A 
ATOM     46  C   UNL A   1      35.699  34.236  28.653  1.00  0.00     0.014 A 
ATOM     47  C   UNL A   1      35.296  32.000  30.275  1.00  0.00     0.010 A 
ATOM     48  C   UNL A   1      36.792  33.582  29.237  1.00  0.00     0.010 A 
ATOM     49  C   UNL A   1      36.604  32.462  30.066  1.00  0.00    -0.014 A 
BRANCH  49  50
ATOM     50  C   UNL A   1      37.765  31.804  30.734  1.00  0.00     0.031 A 
ATOM     51  C   UNL A   1      38.560  30.736  30.025  1.00  0.00     0.074 A 
ATOM     52  C   UNL A   1      38.087  32.122  32.004  1.00  0.00     0.049 A 
ATOM     53  N   UNL A   1      39.586  30.045  30.454  1.00  0.00    -0.248 NA
ATOM     54  C   UNL A   1      38.133  30.386  28.662  1.00  0.00     0.031 C 
ATOM     55  C   UNL A   1      37.373  33.088  32.839  1.00  0.00     0.029 A 
ATOM     56  N   UNL A   1      39.084  31.647  32.825  1.00  0.00    -0.354 N 
ATOM     57  C   UNL A   1      39.890  29.143  29.441  1.00  0.00     0.074 A 
ATOM     58  C   UNL A   1      38.927  29.364  28.383  1.00  0.00     0.031 C 
ATOM     59  C   UNL A   1      37.950  33.134  34.050  1.00  0.00     0.029 A 
ATOM     60  C   UNL A   1      39.055  32.177  34.094  1.00  0.00     0.049 A 
ATOM     61  H   UNL A   1      39.754  30.989  32.532  1.00  0.00     0.167 HD
ATOM     62  C   UNL A   1      40.890  28.228  29.377  1.00  0.00     0.034 A 
ATOM     63  C   UNL A   1      39.814  31.917  35.178  1.00  0.00     0.034 A 
ATOM     64  C   UNL A   1      41.873  28.030  30.408  1.00  0.00     0.049 A 
ATOM     65  C   UNL A   1      40.944  30.928  35.078  1.00  0.00     0.074 A 
ATOM     66  C   UNL A   1      42.985  27.206  30.388  1.00  0.00     0.029 A 
ATOM     67  N   UNL A   1      41.851  28.641  31.651  1.00  0.00    -0.354 N 
ATOM     68  N   UNL A   1      41.320  30.210  34.050  1.00  0.00    -0.248 NA
ATOM     69  C   UNL A   1      41.778  30.738  36.276  1.00  0.00     0.031 C 
ATOM     70  C   UNL A   1      43.612  27.288  31.635  1.00  0.00     0.029 A 
ATOM     71  C   UNL A   1      42.918  28.199  32.416  1.00  0.00     0.049 A 
ATOM     72  H   UNL A   1      41.176  29.293  31.949  1.00  0.00     0.167 HD
ATOM     73  C   UNL A   1      42.450  29.512  34.460  1.00  0.00     0.074 A 
ATOM     74  C   UNL A   1      42.706  29.903  35.831  1.00  0.00     0.031 C 
ATOM     75  C   UNL A   1      43.201  28.623  33.764  1.00  0.00     0.034 A 
BRANCH  62  76
ATOM     76  C   UNL A   1      40.984  27.385  28.129  1.00  0.00     0.023 A 
ATOM     77  C   UNL A   1      41.614  27.901  26.977  1.00  0.00     0.012 A 
ATOM     78  C   UNL A   1      40.477  26.070  28.106  1.00  0.00     0.148 A 
ATOM     79  C   UNL A   1      41.686  27.147  25.807  1.00  0.00     0.002 A 
ATOM     80  C   UNL A   1      40.600  25.305  26.952  1.00  0.00     0.091 A 
ATOM     81  F   UNL A   1      39.871  25.597  29.203  1.00  0.00    -0.205 F 
ATOM     82  C   UNL A   1      41.187  25.849  25.797  1.00  0.00     0.022 A 
BRANCH  80  83
ATOM     83  S   UNL A   1      40.075  23.590  26.869  1.00  0.00     0.127 S 
ATOM     84  O   UNL A   1      40.448  23.101  28.194  1.00  0.00    -0.237 OA
ATOM     85  O   UNL A   1      38.633  23.719  26.651  1.00  0.00    -0.237 OA
ATOM     86  O   UNL A   1      40.803  23.002  25.752  1.00  0.00    -0.744 OA
ENDBRANCH  80  83
ENDBRANCH  62  76
BRANCH  63  87
ATOM     87  C   UNL A   1      39.540  32.643  36.450  1.00  0.00     0.023 A 
ATOM     88  C   UNL A   1      40.182  33.867  36.715  1.00  0.00     0.012 A 
ATOM     89  C   UNL A   1      38.594  32.149  37.370  1.00  0.00     0.148 A 
ATOM     90  C   UNL A   1      39.900  34.578  37.884  1.00  0.00     0.002 A 
ATOM     91  C   UNL A   1      38.271  32.892  38.497  1.00  0.00     0.091 A 
ATOM     92  F   UNL A   1      38.003  30.976  37.102  1.00  0.00    -0.205 F 
ATOM     93  C   UNL A   1      38.936  34.098  38.767  1.00  0.00     0.022 A 
BRANCH  91  94
ATOM     94  S   UNL A   1      36.927  32.430  39.596  1.00  0.00     0.127 S 
ATOM     95  O   UNL A   1      37.275  31.052  39.930  1.00  0.00    -0.237 OA
ATOM     96  O   UNL A   1      37.090  33.391  40.687  1.00  0.00    -0.237 OA
ATOM     97  O   UNL A   1      35.706  32.608  38.821  1.00  0.00    -0.744 OA
ENDBRANCH  91  94
ENDBRANCH  63  87
BRANCH  75  98
ATOM     98  C   UNL A   1      44.413  28.032  34.439  1.00  0.00     0.023 A 
ATOM     99  C   UNL A   1      45.649  28.704  34.391  1.00  0.00     0.012 A 
ATOM    100  C   UNL A   1      44.296  26.855  35.207  1.00  0.00     0.148 A 
ATOM    101  C   UNL A   1      46.756  28.202  35.076  1.00  0.00     0.002 A 
ATOM    102  C   UNL A   1      45.389  26.389  35.927  1.00  0.00     0.091 A 
ATOM    103  F   UNL A   1      43.116  26.218  35.224  1.00  0.00    -0.205 F 
ATOM    104  C   UNL A   1      46.623  27.055  35.854  1.00  0.00     0.022 A 
BRANCH 102 105
ATOM    105  S   UNL A   1      45.282  24.978  37.035  1.00  0.00     0.127 S 
ATOM    106  O   UNL A   1      44.263  25.423  37.985  1.00  0.00    -0.237 OA
ATOM    107  O   UNL A   1      44.850  23.909  36.135  1.00  0.00    -0.237 OA
ATOM    108  O   UNL A   1      46.616  24.799  37.592  1.00  0.00    -0.744 OA
ENDBRANCH 102 105
ENDBRANCH  75  98
ENDBRANCH  49  50
ENDBRANCH  41  44
ENDBRANCH  39  40
ENDBRANCH   1  39
TORSDOF 18
ENDMDL
