MODEL 1
REMARK VINA RESULT:     -13.0      0.000      0.000
REMARK SMILES CC(C)c1noc(C[N@@H+]2[C@@H](C(=O)NCCCNC(=O)c3ccc(-c4c5nc(c(-c6cccc(S(=O)(=O)[O-])c6F)c6ccc([nH]6)c(-c6cccc(S(=O)(=O)[O-])c6F)c6nc(c(-c7cccc(S(=O)(=O)[O-])c7F)c7ccc4[nH]7)C=C6)C=C5)cc3)C[C@H]3CCCC[C@@H]32)n1
REMARK SMILES IDX 15 1 14 2 13 3 11 4 12 5 10 7 9 8 89 9 83 11 84 12 88 13
REMARK SMILES IDX 85 14 87 15 86 16 8 17 7 18 4 19 5 20 90 21 6 22 2 23 1 24
REMARK SMILES IDX 3 25 16 26 17 27 18 28 19 30 20 31 21 32 82 33 22 34 81 35
REMARK SMILES IDX 23 36 24 37 25 38 75 39 26 40 80 41 74 42 76 43 27 44 79 45
REMARK SMILES IDX 73 46 72 47 28 49 60 50 40 51 59 52 41 53 44 54 58 55 77 56
REMARK SMILES IDX 42 57 43 58 57 60 78 61 45 62 29 63 30 64 38 65 31 66 33 67
REMARK SMILES IDX 39 68 32 69 34 70 35 71 36 72 37 73 61 74 62 75 70 76 63 77
REMARK SMILES IDX 65 78 71 79 64 80 66 81 67 82 68 83 69 84 46 85 47 86 55 87
REMARK SMILES IDX 48 88 50 89 56 90 49 91 51 92 52 93 53 94 54 95
REMARK H PARENT 13 6 9 10 17 29 76 48 44 59
REMARK Flexibility Score: inf
ROOT
ATOM      1  C   UNL A   1      31.732  31.584  26.831  1.00  0.00     0.042 C 
ENDROOT
BRANCH   1   2
ATOM      2  C   UNL A   1      32.156  30.345  26.053  1.00  0.00     0.118 C 
BRANCH   2   3
ATOM      3  N   UNL A   1      31.787  29.116  26.737  1.00  0.00    -0.351 N 
ATOM      4  C   UNL A   1      31.850  27.825  26.281  1.00  0.00     0.278 C 
ATOM      5  O   UNL A   1      31.489  26.926  27.043  1.00  0.00    -0.268 OA
ATOM      6  H   UNL A   1      31.444  29.227  27.653  1.00  0.00     0.163 HD
BRANCH   4   7
ATOM      7  C   UNL A   1      32.429  27.587  24.871  1.00  0.00     0.275 C 
ATOM      8  N   UNL A   1      31.557  26.676  24.072  1.00  0.00    -0.314 N 
ATOM      9  C   UNL A   1      32.199  25.356  24.139  1.00  0.00     0.188 C 
ATOM     10  H   UNL A   1      30.616  26.584  24.454  1.00  0.00     0.349 HD
ATOM     11  C   UNL A   1      33.796  26.887  25.015  1.00  0.00     0.085 C 
ATOM     12  C   UNL A   1      33.690  25.673  24.117  1.00  0.00     0.054 C 
ATOM     13  C   UNL A   1      31.847  24.249  23.144  1.00  0.00     0.065 C 
ATOM     14  C   UNL A   1      34.516  24.456  24.488  1.00  0.00     0.010 C 
ATOM     15  C   UNL A   1      32.747  23.019  23.352  1.00  0.00     0.006 C 
ATOM     16  C   UNL A   1      34.239  23.356  23.460  1.00  0.00     0.001 C 
BRANCH   8  17
ATOM     17  C   UNL A   1      31.220  27.218  22.738  1.00  0.00     0.364 C 
BRANCH  17  18
ATOM     18  C   UNL A   1      29.914  27.938  22.608  1.00  0.00     0.281 A 
ATOM     19  C   UNL A   1      28.372  29.344  22.466  1.00  0.00     0.174 A 
ATOM     20  N   UNL A   1      27.812  28.350  23.169  1.00  0.00    -0.062 NA
ATOM     21  N   UNL A   1      29.664  29.114  22.073  1.00  0.00    -0.191 NA
ATOM     22  O   UNL A   1      28.835  27.400  23.249  1.00  0.00    -0.333 OA
BRANCH  19  23
ATOM     23  C   UNL A   1      27.694  30.639  22.180  1.00  0.00     0.055 C 
ATOM     24  C   UNL A   1      27.673  31.544  23.409  1.00  0.00     0.016 C 
ATOM     25  C   UNL A   1      28.307  31.360  20.978  1.00  0.00     0.016 C 
ENDBRANCH  19  23
ENDBRANCH  17  18
ENDBRANCH   8  17
ENDBRANCH   4   7
ENDBRANCH   2   3
ENDBRANCH   1   2
BRANCH   1  26
ATOM     26  C   UNL A   1      32.897  32.371  27.422  1.00  0.00     0.118 C 
BRANCH  26  27
ATOM     27  N   UNL A   1      32.570  33.774  27.655  1.00  0.00    -0.352 N 
ATOM     28  C   UNL A   1      33.106  34.671  28.546  1.00  0.00     0.251 C 
ATOM     29  H   UNL A   1      31.853  34.134  27.085  1.00  0.00     0.163 HD
ATOM     30  O   UNL A   1      32.565  35.764  28.704  1.00  0.00    -0.269 OA
BRANCH  28  31
ATOM     31  C   UNL A   1      34.309  34.321  29.332  1.00  0.00     0.039 A 
ATOM     32  C   UNL A   1      34.145  33.743  30.594  1.00  0.00     0.014 A 
ATOM     33  C   UNL A   1      35.591  34.555  28.830  1.00  0.00     0.014 A 
ATOM     34  C   UNL A   1      35.266  33.311  31.309  1.00  0.00     0.010 A 
ATOM     35  C   UNL A   1      36.701  34.058  29.508  1.00  0.00     0.010 A 
ATOM     36  C   UNL A   1      36.549  33.417  30.746  1.00  0.00    -0.014 A 
BRANCH  36  37
ATOM     37  C   UNL A   1      37.733  32.800  31.401  1.00  0.00     0.031 A 
ATOM     38  C   UNL A   1      38.418  31.611  30.785  1.00  0.00     0.074 A 
ATOM     39  C   UNL A   1      38.120  33.248  32.613  1.00  0.00     0.049 A 
ATOM     40  N   UNL A   1      39.393  30.884  31.267  1.00  0.00    -0.248 NA
ATOM     41  C   UNL A   1      37.933  31.170  29.467  1.00  0.00     0.031 C 
ATOM     42  C   UNL A   1      37.490  34.346  33.349  1.00  0.00     0.029 A 
ATOM     43  N   UNL A   1      39.111  32.811  33.458  1.00  0.00    -0.354 N 
ATOM     44  C   UNL A   1      39.622  29.885  30.327  1.00  0.00     0.074 A 
ATOM     45  C   UNL A   1      38.665  30.082  29.261  1.00  0.00     0.031 C 
ATOM     46  C   UNL A   1      38.098  34.489  34.536  1.00  0.00     0.029 A 
ATOM     47  C   UNL A   1      39.133  33.470  34.666  1.00  0.00     0.049 A 
ATOM     48  H   UNL A   1      39.745  32.096  33.221  1.00  0.00     0.167 HD
ATOM     49  C   UNL A   1      40.561  28.908  30.340  1.00  0.00     0.034 A 
ATOM     50  C   UNL A   1      39.881  33.260  35.767  1.00  0.00     0.034 A 
ATOM     51  C   UNL A   1      41.527  28.728  31.392  1.00  0.00     0.049 A 
ATOM     52  C   UNL A   1      40.915  32.168  35.753  1.00  0.00     0.074 A 
ATOM     53  C   UNL A   1      42.565  27.815  31.457  1.00  0.00     0.029 A 
ATOM     54  N   UNL A   1      41.569  29.463  32.566  1.00  0.00    -0.354 N 
ATOM     55  N   UNL A   1      41.222  31.335  34.788  1.00  0.00    -0.248 NA
ATOM     56  C   UNL A   1      41.729  32.006  36.966  1.00  0.00     0.031 C 
ATOM     57  C   UNL A   1      43.216  27.977  32.684  1.00  0.00     0.029 A 
ATOM     58  C   UNL A   1      42.603  29.013  33.370  1.00  0.00     0.049 A 
ATOM     59  H   UNL A   1      40.954  30.198  32.795  1.00  0.00     0.167 HD
ATOM     60  C   UNL A   1      42.277  30.568  35.268  1.00  0.00     0.074 A 
ATOM     61  C   UNL A   1      42.580  31.059  36.596  1.00  0.00     0.031 C 
ATOM     62  C   UNL A   1      42.925  29.538  34.673  1.00  0.00     0.034 A 
BRANCH  49  63
ATOM     63  C   UNL A   1      40.630  27.983  29.154  1.00  0.00     0.023 A 
ATOM     64  C   UNL A   1      39.716  26.913  29.058  1.00  0.00     0.012 A 
ATOM     65  C   UNL A   1      41.533  28.217  28.098  1.00  0.00     0.148 A 
ATOM     66  C   UNL A   1      39.718  26.074  27.944  1.00  0.00     0.002 A 
ATOM     67  C   UNL A   1      41.500  27.403  26.972  1.00  0.00     0.091 A 
ATOM     68  F   UNL A   1      42.404  29.228  28.215  1.00  0.00    -0.205 F 
ATOM     69  C   UNL A   1      40.600  26.326  26.897  1.00  0.00     0.022 A 
BRANCH  67  70
ATOM     70  S   UNL A   1      42.538  27.687  25.534  1.00  0.00     0.127 S 
ATOM     71  O   UNL A   1      42.286  26.482  24.746  1.00  0.00    -0.237 OA
ATOM     72  O   UNL A   1      41.963  28.911  24.978  1.00  0.00    -0.237 OA
ATOM     73  O   UNL A   1      43.897  27.825  26.039  1.00  0.00    -0.744 OA
ENDBRANCH  67  70
ENDBRANCH  49  63
BRANCH  50  74
ATOM     74  C   UNL A   1      39.694  34.117  36.973  1.00  0.00     0.023 A 
ATOM     75  C   UNL A   1      40.132  35.456  36.949  1.00  0.00     0.012 A 
ATOM     76  C   UNL A   1      39.081  33.617  38.138  1.00  0.00     0.148 A 
ATOM     77  C   UNL A   1      39.998  36.268  38.076  1.00  0.00     0.002 A 
ATOM     78  C   UNL A   1      38.896  34.449  39.235  1.00  0.00     0.091 A 
ATOM     79  F   UNL A   1      38.684  32.336  38.147  1.00  0.00    -0.205 F 
ATOM     80  C   UNL A   1      39.371  35.768  39.215  1.00  0.00     0.022 A 
BRANCH  78  81
ATOM     81  S   UNL A   1      37.976  33.928  40.688  1.00  0.00     0.127 S 
ATOM     82  O   UNL A   1      38.958  33.099  41.382  1.00  0.00    -0.237 OA
ATOM     83  O   UNL A   1      37.680  35.207  41.334  1.00  0.00    -0.237 OA
ATOM     84  O   UNL A   1      36.802  33.231  40.178  1.00  0.00    -0.744 OA
ENDBRANCH  78  81
ENDBRANCH  50  74
BRANCH  62  85
ATOM     85  C   UNL A   1      44.043  28.879  35.438  1.00  0.00     0.023 A 
ATOM     86  C   UNL A   1      45.351  29.395  35.345  1.00  0.00     0.012 A 
ATOM     87  C   UNL A   1      43.788  27.794  36.299  1.00  0.00     0.148 A 
ATOM     88  C   UNL A   1      46.395  28.819  36.069  1.00  0.00     0.002 A 
ATOM     89  C   UNL A   1      44.822  27.258  37.057  1.00  0.00     0.091 A 
ATOM     90  F   UNL A   1      42.539  27.308  36.363  1.00  0.00    -0.205 F 
ATOM     91  C   UNL A   1      46.127  27.760  36.933  1.00  0.00     0.022 A 
BRANCH  89  92
ATOM     92  S   UNL A   1      44.561  25.953  38.264  1.00  0.00     0.127 S 
ATOM     93  O   UNL A   1      44.052  24.869  37.426  1.00  0.00    -0.237 OA
ATOM     94  O   UNL A   1      45.912  25.739  38.784  1.00  0.00    -0.237 OA
ATOM     95  O   UNL A   1      43.615  26.485  39.236  1.00  0.00    -0.744 OA
ENDBRANCH  89  92
ENDBRANCH  62  85
ENDBRANCH  36  37
ENDBRANCH  28  31
ENDBRANCH  26  27
ENDBRANCH   1  26
TORSDOF 16
ENDMDL
MODEL 2
REMARK VINA RESULT:     -12.9      1.928      7.899
REMARK SMILES CC(C)c1noc(C[N@@H+]2[C@@H](C(=O)NCCCNC(=O)c3ccc(-c4c5nc(c(-c6cccc(S(=O)(=O)[O-])c6F)c6ccc([nH]6)c(-c6cccc(S(=O)(=O)[O-])c6F)c6nc(c(-c7cccc(S(=O)(=O)[O-])c7F)c7ccc4[nH]7)C=C6)C=C5)cc3)C[C@H]3CCCC[C@@H]32)n1
REMARK SMILES IDX 15 1 14 2 13 3 11 4 12 5 10 7 9 8 89 9 83 11 84 12 88 13
REMARK SMILES IDX 85 14 87 15 86 16 8 17 7 18 4 19 5 20 90 21 6 22 2 23 1 24
REMARK SMILES IDX 3 25 16 26 17 27 18 28 19 30 20 31 21 32 82 33 22 34 81 35
REMARK SMILES IDX 23 36 24 37 25 38 75 39 26 40 80 41 74 42 76 43 27 44 79 45
REMARK SMILES IDX 73 46 72 47 28 49 60 50 40 51 59 52 41 53 44 54 58 55 77 56
REMARK SMILES IDX 42 57 43 58 57 60 78 61 45 62 29 63 30 64 38 65 31 66 33 67
REMARK SMILES IDX 39 68 32 69 34 70 35 71 36 72 37 73 61 74 62 75 70 76 63 77
REMARK SMILES IDX 65 78 71 79 64 80 66 81 67 82 68 83 69 84 46 85 47 86 55 87
REMARK SMILES IDX 48 88 50 89 56 90 49 91 51 92 52 93 53 94 54 95
REMARK H PARENT 13 6 9 10 17 29 76 48 44 59
REMARK Flexibility Score: inf
ROOT
ATOM      1  C   UNL A   1      31.200  32.264  26.385  1.00  0.00     0.042 C 
ENDROOT
BRANCH   1   2
ATOM      2  C   UNL A   1      31.066  30.934  25.657  1.00  0.00     0.118 C 
BRANCH   2   3
ATOM      3  N   UNL A   1      31.776  29.862  26.337  1.00  0.00    -0.351 N 
ATOM      4  C   UNL A   1      32.063  28.599  25.890  1.00  0.00     0.278 C 
ATOM      5  O   UNL A   1      32.691  27.851  26.640  1.00  0.00    -0.268 OA
ATOM      6  H   UNL A   1      32.095  30.075  27.245  1.00  0.00     0.163 HD
BRANCH   4   7
ATOM      7  C   UNL A   1      31.635  28.229  24.454  1.00  0.00     0.275 C 
ATOM      8  N   UNL A   1      30.642  27.115  24.455  1.00  0.00    -0.314 N 
ATOM      9  C   UNL A   1      31.409  25.905  24.125  1.00  0.00     0.188 C 
ATOM     10  H   UNL A   1      30.204  26.967  25.363  1.00  0.00     0.349 HD
ATOM     11  C   UNL A   1      32.875  27.727  23.687  1.00  0.00     0.085 C 
ATOM     12  C   UNL A   1      32.445  26.392  23.119  1.00  0.00     0.054 C 
ATOM     13  C   UNL A   1      30.715  24.631  23.641  1.00  0.00     0.065 C 
ATOM     14  C   UNL A   1      33.525  25.349  22.894  1.00  0.00     0.010 C 
ATOM     15  C   UNL A   1      31.746  23.561  23.245  1.00  0.00     0.006 C 
ATOM     16  C   UNL A   1      32.864  24.087  22.336  1.00  0.00     0.001 C 
BRANCH   8  17
ATOM     17  C   UNL A   1      29.435  27.412  23.653  1.00  0.00     0.364 C 
BRANCH  17  18
ATOM     18  C   UNL A   1      29.379  28.749  22.982  1.00  0.00     0.281 A 
ATOM     19  C   UNL A   1      28.848  30.627  22.230  1.00  0.00     0.174 A 
ATOM     20  N   UNL A   1      29.593  30.106  21.245  1.00  0.00    -0.062 NA
ATOM     21  N   UNL A   1      28.717  29.829  23.336  1.00  0.00    -0.191 NA
ATOM     22  O   UNL A   1      29.966  28.858  21.753  1.00  0.00    -0.333 OA
BRANCH  19  23
ATOM     23  C   UNL A   1      28.145  31.937  22.132  1.00  0.00     0.055 C 
ATOM     24  C   UNL A   1      28.863  33.020  22.933  1.00  0.00     0.016 C 
ATOM     25  C   UNL A   1      27.939  32.374  20.680  1.00  0.00     0.016 C 
ENDBRANCH  19  23
ENDBRANCH  17  18
ENDBRANCH   8  17
ENDBRANCH   4   7
ENDBRANCH   2   3
ENDBRANCH   1   2
BRANCH   1  26
ATOM     26  C   UNL A   1      32.445  32.367  27.260  1.00  0.00     0.118 C 
BRANCH  26  27
ATOM     27  N   UNL A   1      32.872  33.745  27.475  1.00  0.00    -0.352 N 
ATOM     28  C   UNL A   1      33.981  34.238  28.117  1.00  0.00     0.251 C 
ATOM     29  H   UNL A   1      32.271  34.430  27.101  1.00  0.00     0.163 HD
ATOM     30  O   UNL A   1      34.065  35.445  28.341  1.00  0.00    -0.269 OA
BRANCH  28  31
ATOM     31  C   UNL A   1      35.057  33.327  28.564  1.00  0.00     0.039 A 
ATOM     32  C   UNL A   1      36.387  33.706  28.367  1.00  0.00     0.014 A 
ATOM     33  C   UNL A   1      34.759  32.108  29.177  1.00  0.00     0.014 A 
ATOM     34  C   UNL A   1      37.417  32.908  28.872  1.00  0.00     0.010 A 
ATOM     35  C   UNL A   1      35.782  31.351  29.744  1.00  0.00     0.010 A 
ATOM     36  C   UNL A   1      37.120  31.752  29.612  1.00  0.00    -0.014 A 
BRANCH  36  37
ATOM     37  C   UNL A   1      38.185  30.989  30.316  1.00  0.00     0.031 A 
ATOM     38  C   UNL A   1      38.581  31.344  31.722  1.00  0.00     0.074 A 
ATOM     39  C   UNL A   1      38.871  30.045  29.640  1.00  0.00     0.049 A 
ATOM     40  N   UNL A   1      39.554  30.860  32.449  1.00  0.00    -0.248 NA
ATOM     41  C   UNL A   1      37.795  32.393  32.393  1.00  0.00     0.031 C 
ATOM     42  C   UNL A   1      38.632  29.661  28.247  1.00  0.00     0.029 A 
ATOM     43  N   UNL A   1      39.936  29.265  30.019  1.00  0.00    -0.354 N 
ATOM     44  C   UNL A   1      39.517  31.558  33.651  1.00  0.00     0.074 A 
ATOM     45  C   UNL A   1      38.443  32.521  33.544  1.00  0.00     0.031 C 
ATOM     46  C   UNL A   1      39.528  28.730  27.885  1.00  0.00     0.029 A 
ATOM     47  C   UNL A   1      40.431  28.480  29.002  1.00  0.00     0.049 A 
ATOM     48  H   UNL A   1      40.308  29.267  30.930  1.00  0.00     0.167 HD
ATOM     49  C   UNL A   1      40.290  31.395  34.751  1.00  0.00     0.034 A 
ATOM     50  C   UNL A   1      41.509  27.671  28.963  1.00  0.00     0.034 A 
ATOM     51  C   UNL A   1      41.344  30.421  34.863  1.00  0.00     0.049 A 
ATOM     52  C   UNL A   1      42.349  27.510  30.199  1.00  0.00     0.074 A 
ATOM     53  C   UNL A   1      42.132  30.129  35.963  1.00  0.00     0.029 A 
ATOM     54  N   UNL A   1      41.767  29.588  33.838  1.00  0.00    -0.354 N 
ATOM     55  N   UNL A   1      42.198  28.064  31.378  1.00  0.00    -0.248 NA
ATOM     56  C   UNL A   1      43.490  26.587  30.112  1.00  0.00     0.031 C 
ATOM     57  C   UNL A   1      43.051  29.143  35.595  1.00  0.00     0.029 A 
ATOM     58  C   UNL A   1      42.816  28.796  34.275  1.00  0.00     0.049 A 
ATOM     59  H   UNL A   1      41.380  29.564  32.933  1.00  0.00     0.167 HD
ATOM     60  C   UNL A   1      43.208  27.541  32.177  1.00  0.00     0.074 A 
ATOM     61  C   UNL A   1      43.943  26.599  31.359  1.00  0.00     0.031 C 
ATOM     62  C   UNL A   1      43.513  27.829  33.466  1.00  0.00     0.034 A 
BRANCH  49  63
ATOM     63  C   UNL A   1      39.996  32.255  35.952  1.00  0.00     0.023 A 
ATOM     64  C   UNL A   1      40.703  33.462  36.128  1.00  0.00     0.012 A 
ATOM     65  C   UNL A   1      38.968  31.919  36.855  1.00  0.00     0.148 A 
ATOM     66  C   UNL A   1      40.413  34.307  37.198  1.00  0.00     0.002 A 
ATOM     67  C   UNL A   1      38.655  32.787  37.894  1.00  0.00     0.091 A 
ATOM     68  F   UNL A   1      38.318  30.760  36.680  1.00  0.00    -0.205 F 
ATOM     69  C   UNL A   1      39.382  33.976  38.074  1.00  0.00     0.022 A 
BRANCH  67  70
ATOM     70  S   UNL A   1      37.295  32.494  39.031  1.00  0.00     0.127 S 
ATOM     71  O   UNL A   1      37.528  33.526  40.040  1.00  0.00    -0.237 OA
ATOM     72  O   UNL A   1      36.129  32.727  38.180  1.00  0.00    -0.237 OA
ATOM     73  O   UNL A   1      37.447  31.123  39.497  1.00  0.00    -0.744 OA
ENDBRANCH  67  70
ENDBRANCH  49  63
BRANCH  50  74
ATOM     74  C   UNL A   1      41.844  26.932  27.712  1.00  0.00     0.023 A 
ATOM     75  C   UNL A   1      42.365  27.635  26.608  1.00  0.00     0.012 A 
ATOM     76  C   UNL A   1      41.656  25.540  27.612  1.00  0.00     0.148 A 
ATOM     77  C   UNL A   1      42.655  26.971  25.415  1.00  0.00     0.002 A 
ATOM     78  C   UNL A   1      42.004  24.876  26.442  1.00  0.00     0.091 A 
ATOM     79  F   UNL A   1      41.145  24.890  28.668  1.00  0.00    -0.205 F 
ATOM     80  C   UNL A   1      42.484  25.591  25.335  1.00  0.00     0.022 A 
BRANCH  78  81
ATOM     81  S   UNL A   1      41.947  23.086  26.303  1.00  0.00     0.127 S 
ATOM     82  O   UNL A   1      40.511  22.827  26.359  1.00  0.00    -0.237 OA
ATOM     83  O   UNL A   1      42.564  22.863  24.996  1.00  0.00    -0.237 OA
ATOM     84  O   UNL A   1      42.728  22.582  27.425  1.00  0.00    -0.744 OA
ENDBRANCH  78  81
ENDBRANCH  50  74
BRANCH  62  85
ATOM     85  C   UNL A   1      44.678  27.103  34.086  1.00  0.00     0.023 A 
ATOM     86  C   UNL A   1      45.978  27.633  33.959  1.00  0.00     0.012 A 
ATOM     87  C   UNL A   1      44.480  25.935  34.848  1.00  0.00     0.148 A 
ATOM     88  C   UNL A   1      47.067  26.994  34.551  1.00  0.00     0.002 A 
ATOM     89  C   UNL A   1      45.561  25.332  35.479  1.00  0.00     0.091 A 
ATOM     90  F   UNL A   1      43.238  25.439  34.945  1.00  0.00    -0.205 F 
ATOM     91  C   UNL A   1      46.856  25.851  35.320  1.00  0.00     0.022 A 
BRANCH  89  92
ATOM     92  S   UNL A   1      45.380  23.911  36.563  1.00  0.00     0.127 S 
ATOM     93  O   UNL A   1      44.567  24.465  37.645  1.00  0.00    -0.237 OA
ATOM     94  O   UNL A   1      44.681  22.955  35.704  1.00  0.00    -0.237 OA
ATOM     95  O   UNL A   1      46.730  23.515  36.939  1.00  0.00    -0.744 OA
ENDBRANCH  89  92
ENDBRANCH  62  85
ENDBRANCH  36  37
ENDBRANCH  28  31
ENDBRANCH  26  27
ENDBRANCH   1  26
TORSDOF 16
ENDMDL
MODEL 3
REMARK VINA RESULT:     -12.8      6.509     11.747
REMARK SMILES CC(C)c1noc(C[N@@H+]2[C@@H](C(=O)NCCCNC(=O)c3ccc(-c4c5nc(c(-c6cccc(S(=O)(=O)[O-])c6F)c6ccc([nH]6)c(-c6cccc(S(=O)(=O)[O-])c6F)c6nc(c(-c7cccc(S(=O)(=O)[O-])c7F)c7ccc4[nH]7)C=C6)C=C5)cc3)C[C@H]3CCCC[C@@H]32)n1
REMARK SMILES IDX 15 1 14 2 13 3 11 4 12 5 10 7 9 8 89 9 83 11 84 12 88 13
REMARK SMILES IDX 85 14 87 15 86 16 8 17 7 18 4 19 5 20 90 21 6 22 2 23 1 24
REMARK SMILES IDX 3 25 16 26 17 27 18 28 19 30 20 31 21 32 82 33 22 34 81 35
REMARK SMILES IDX 23 36 24 37 25 38 75 39 26 40 80 41 74 42 76 43 27 44 79 45
REMARK SMILES IDX 73 46 72 47 28 49 60 50 40 51 59 52 41 53 44 54 58 55 77 56
REMARK SMILES IDX 42 57 43 58 57 60 78 61 45 62 29 63 30 64 38 65 31 66 33 67
REMARK SMILES IDX 39 68 32 69 34 70 35 71 36 72 37 73 61 74 62 75 70 76 63 77
REMARK SMILES IDX 65 78 71 79 64 80 66 81 67 82 68 83 69 84 46 85 47 86 55 87
REMARK SMILES IDX 48 88 50 89 56 90 49 91 51 92 52 93 53 94 54 95
REMARK H PARENT 13 6 9 10 17 29 76 48 44 59
REMARK Flexibility Score: inf
ROOT
ATOM      1  C   UNL A   1      37.343  19.378  25.001  1.00  0.00     0.042 C 
ENDROOT
BRANCH   1   2
ATOM      2  C   UNL A   1      36.037  20.162  24.996  1.00  0.00     0.118 C 
BRANCH   2   3
ATOM      3  N   UNL A   1      36.233  21.549  24.602  1.00  0.00    -0.351 N 
ATOM      4  C   UNL A   1      35.320  22.570  24.564  1.00  0.00     0.278 C 
ATOM      5  O   UNL A   1      35.711  23.680  24.201  1.00  0.00    -0.268 OA
ATOM      6  H   UNL A   1      37.148  21.786  24.325  1.00  0.00     0.163 HD
BRANCH   4   7
ATOM      7  C   UNL A   1      33.883  22.269  25.040  1.00  0.00     0.275 C 
ATOM      8  N   UNL A   1      32.888  22.529  23.958  1.00  0.00    -0.314 N 
ATOM      9  C   UNL A   1      32.303  23.842  24.268  1.00  0.00     0.188 C 
ATOM     10  H   UNL A   1      33.308  22.587  23.031  1.00  0.00     0.349 HD
ATOM     11  C   UNL A   1      33.543  23.223  26.203  1.00  0.00     0.085 C 
ATOM     12  C   UNL A   1      32.232  23.860  25.791  1.00  0.00     0.054 C 
ATOM     13  C   UNL A   1      30.983  24.292  23.642  1.00  0.00     0.065 C 
ATOM     14  C   UNL A   1      31.942  25.255  26.310  1.00  0.00     0.010 C 
ATOM     15  C   UNL A   1      30.531  25.641  24.226  1.00  0.00     0.006 C 
ATOM     16  C   UNL A   1      30.585  25.700  25.758  1.00  0.00     0.001 C 
BRANCH   8  17
ATOM     17  C   UNL A   1      31.966  21.394  23.732  1.00  0.00     0.364 C 
BRANCH  17  18
ATOM     18  C   UNL A   1      32.411  20.052  24.222  1.00  0.00     0.281 A 
ATOM     19  C   UNL A   1      32.904  18.033  24.455  1.00  0.00     0.174 A 
ATOM     20  N   UNL A   1      32.417  18.367  25.658  1.00  0.00    -0.062 NA
ATOM     21  N   UNL A   1      32.946  19.057  23.547  1.00  0.00    -0.191 NA
ATOM     22  O   UNL A   1      32.105  19.722  25.511  1.00  0.00    -0.333 OA
BRANCH  19  23
ATOM     23  C   UNL A   1      33.309  16.648  24.082  1.00  0.00     0.055 C 
ATOM     24  C   UNL A   1      34.266  16.646  22.893  1.00  0.00     0.016 C 
ATOM     25  C   UNL A   1      33.901  15.880  25.265  1.00  0.00     0.016 C 
ENDBRANCH  19  23
ENDBRANCH  17  18
ENDBRANCH   8  17
ENDBRANCH   4   7
ENDBRANCH   2   3
ENDBRANCH   1   2
BRANCH   1  26
ATOM     26  C   UNL A   1      38.563  20.212  25.379  1.00  0.00     0.118 C 
BRANCH  26  27
ATOM     27  N   UNL A   1      39.700  19.394  25.790  1.00  0.00    -0.352 N 
ATOM     28  C   UNL A   1      40.911  19.765  26.319  1.00  0.00     0.251 C 
ATOM     29  H   UNL A   1      39.579  18.424  25.670  1.00  0.00     0.163 HD
ATOM     30  O   UNL A   1      41.804  18.927  26.435  1.00  0.00    -0.269 OA
BRANCH  28  31
ATOM     31  C   UNL A   1      41.156  21.167  26.723  1.00  0.00     0.039 A 
ATOM     32  C   UNL A   1      41.528  21.433  28.044  1.00  0.00     0.014 A 
ATOM     33  C   UNL A   1      41.025  22.214  25.808  1.00  0.00     0.014 A 
ATOM     34  C   UNL A   1      41.863  22.736  28.420  1.00  0.00     0.010 A 
ATOM     35  C   UNL A   1      41.429  23.498  26.163  1.00  0.00     0.010 A 
ATOM     36  C   UNL A   1      41.868  23.770  27.468  1.00  0.00    -0.014 A 
BRANCH  36  37
ATOM     37  C   UNL A   1      42.396  25.120  27.796  1.00  0.00     0.031 A 
ATOM     38  C   UNL A   1      41.500  26.172  28.390  1.00  0.00     0.074 A 
ATOM     39  C   UNL A   1      43.662  25.431  27.451  1.00  0.00     0.049 A 
ATOM     40  N   UNL A   1      41.760  27.428  28.640  1.00  0.00    -0.248 NA
ATOM     41  C   UNL A   1      40.126  25.764  28.729  1.00  0.00     0.031 C 
ATOM     42  C   UNL A   1      44.608  24.521  26.800  1.00  0.00     0.029 A 
ATOM     43  N   UNL A   1      44.360  26.609  27.562  1.00  0.00    -0.354 N 
ATOM     44  C   UNL A   1      40.582  27.970  29.141  1.00  0.00     0.074 A 
ATOM     45  C   UNL A   1      39.595  26.912  29.131  1.00  0.00     0.031 C 
ATOM     46  C   UNL A   1      45.755  25.175  26.560  1.00  0.00     0.029 A 
ATOM     47  C   UNL A   1      45.615  26.558  26.999  1.00  0.00     0.049 A 
ATOM     48  H   UNL A   1      43.998  27.410  28.003  1.00  0.00     0.167 HD
ATOM     49  C   UNL A   1      40.349  29.226  29.591  1.00  0.00     0.034 A 
ATOM     50  C   UNL A   1      46.540  27.524  26.828  1.00  0.00     0.034 A 
ATOM     51  C   UNL A   1      41.339  30.271  29.620  1.00  0.00     0.049 A 
ATOM     52  C   UNL A   1      46.255  28.910  27.337  1.00  0.00     0.074 A 
ATOM     53  C   UNL A   1      41.220  31.553  30.127  1.00  0.00     0.029 A 
ATOM     54  N   UNL A   1      42.624  30.162  29.112  1.00  0.00    -0.354 N 
ATOM     55  N   UNL A   1      45.188  29.360  27.952  1.00  0.00    -0.248 NA
ATOM     56  C   UNL A   1      47.312  29.915  27.157  1.00  0.00     0.031 C 
ATOM     57  C   UNL A   1      42.422  32.229  29.899  1.00  0.00     0.029 A 
ATOM     58  C   UNL A   1      43.302  31.359  29.278  1.00  0.00     0.049 A 
ATOM     59  H   UNL A   1      43.000  29.353  28.695  1.00  0.00     0.167 HD
ATOM     60  C   UNL A   1      45.455  30.690  28.254  1.00  0.00     0.074 A 
ATOM     61  C   UNL A   1      46.797  30.964  27.785  1.00  0.00     0.031 C 
ATOM     62  C   UNL A   1      44.654  31.608  28.847  1.00  0.00     0.034 A 
BRANCH  49  63
ATOM     63  C   UNL A   1      38.982  29.535  30.141  1.00  0.00     0.023 A 
ATOM     64  C   UNL A   1      38.679  29.189  31.474  1.00  0.00     0.012 A 
ATOM     65  C   UNL A   1      38.031  30.240  29.377  1.00  0.00     0.148 A 
ATOM     66  C   UNL A   1      37.442  29.513  32.029  1.00  0.00     0.002 A 
ATOM     67  C   UNL A   1      36.817  30.598  29.951  1.00  0.00     0.091 A 
ATOM     68  F   UNL A   1      38.332  30.547  28.108  1.00  0.00    -0.205 F 
ATOM     69  C   UNL A   1      36.516  30.227  31.273  1.00  0.00     0.022 A 
BRANCH  67  70
ATOM     70  S   UNL A   1      35.587  31.585  29.092  1.00  0.00     0.127 S 
ATOM     71  O   UNL A   1      36.413  32.637  28.502  1.00  0.00    -0.237 OA
ATOM     72  O   UNL A   1      35.043  30.627  28.130  1.00  0.00    -0.237 OA
ATOM     73  O   UNL A   1      34.645  32.031  30.108  1.00  0.00    -0.744 OA
ENDBRANCH  67  70
ENDBRANCH  49  63
BRANCH  50  74
ATOM     74  C   UNL A   1      47.836  27.209  26.160  1.00  0.00     0.023 A 
ATOM     75  C   UNL A   1      48.895  26.670  26.916  1.00  0.00     0.012 A 
ATOM     76  C   UNL A   1      48.021  27.433  24.782  1.00  0.00     0.148 A 
ATOM     77  C   UNL A   1      50.127  26.398  26.320  1.00  0.00     0.002 A 
ATOM     78  C   UNL A   1      49.230  27.102  24.183  1.00  0.00     0.091 A 
ATOM     79  F   UNL A   1      47.006  27.959  24.081  1.00  0.00    -0.205 F 
ATOM     80  C   UNL A   1      50.292  26.604  24.953  1.00  0.00     0.022 A 
BRANCH  78  81
ATOM     81  S   UNL A   1      49.480  27.206  22.407  1.00  0.00     0.127 S 
ATOM     82  O   UNL A   1      50.904  26.904  22.286  1.00  0.00    -0.237 OA
ATOM     83  O   UNL A   1      48.583  26.160  21.913  1.00  0.00    -0.237 OA
ATOM     84  O   UNL A   1      49.082  28.557  22.035  1.00  0.00    -0.744 OA
ENDBRANCH  78  81
ENDBRANCH  50  74
BRANCH  62  85
ATOM     85  C   UNL A   1      45.210  32.994  29.047  1.00  0.00     0.023 A 
ATOM     86  C   UNL A   1      45.935  33.294  30.218  1.00  0.00     0.012 A 
ATOM     87  C   UNL A   1      45.072  33.979  28.049  1.00  0.00     0.148 A 
ATOM     88  C   UNL A   1      46.484  34.561  30.409  1.00  0.00     0.002 A 
ATOM     89  C   UNL A   1      45.666  35.223  28.222  1.00  0.00     0.091 A 
ATOM     90  F   UNL A   1      44.366  33.679  26.949  1.00  0.00    -0.205 F 
ATOM     91  C   UNL A   1      46.360  35.521  29.406  1.00  0.00     0.022 A 
BRANCH  89  92
ATOM     92  S   UNL A   1      45.639  36.493  26.952  1.00  0.00     0.127 S 
ATOM     93  O   UNL A   1      44.209  36.780  26.848  1.00  0.00    -0.237 OA
ATOM     94  O   UNL A   1      46.432  37.560  27.565  1.00  0.00    -0.237 OA
ATOM     95  O   UNL A   1      46.241  35.894  25.769  1.00  0.00    -0.744 OA
ENDBRANCH  89  92
ENDBRANCH  62  85
ENDBRANCH  36  37
ENDBRANCH  28  31
ENDBRANCH  26  27
ENDBRANCH   1  26
TORSDOF 16
ENDMDL
