MODEL 1
REMARK VINA RESULT:     -10.9      0.000      0.000
REMARK SMILES CCOc1cccc(OCC)c1-c1ccc([C@@H](C)C(=O)NCCCNC(=O)c2ccc(-c3c4nc(c(-c5cccc(S(=O)(=O)[O-])c5F)c5ccc([nH]5)c(-c5cccc(S(=O)(=O)[O-])c5F)c5nc(c(-c6cccc(S(=O)(=O)[O-])c6F)c6ccc3[nH]6)C=C5)C=C4)cc2)cc1F
REMARK SMILES IDX 22 1 21 2 19 3 20 4 17 6 18 7 16 8 13 9 14 10 92 11 15 12
REMARK SMILES IDX 91 13 93 14 12 15 4 16 5 17 6 18 8 19 7 20 3 21 2 22 1 23
REMARK SMILES IDX 9 24 10 25 11 26 23 27 24 28 25 29 26 30 27 32 28 33 29 34
REMARK SMILES IDX 90 35 30 36 89 37 31 38 32 39 33 40 83 41 34 42 88 43 82 44
REMARK SMILES IDX 84 45 35 46 87 47 81 48 80 49 36 51 68 52 48 53 67 54 49 55
REMARK SMILES IDX 52 56 66 57 85 58 50 59 51 60 65 62 86 63 53 64 37 65 38 66
REMARK SMILES IDX 46 67 39 68 41 69 47 70 40 71 42 72 43 73 44 74 45 75 69 76
REMARK SMILES IDX 70 77 78 78 71 79 73 80 79 81 72 82 74 83 75 84 76 85 77 86
REMARK SMILES IDX 54 87 55 88 63 89 56 90 58 91 64 92 57 93 59 94 60 95 61 96
REMARK SMILES IDX 62 97
REMARK H PARENT 21 5 25 31 84 50 52 61
REMARK Flexibility Score: inf
ROOT
ATOM      1  C   UNL A   1      36.021  20.950  25.167  1.00  0.00     0.117 C 
ENDROOT
BRANCH   1   2
ATOM      2  N   UNL A   1      34.570  20.790  25.143  1.00  0.00    -0.356 N 
ATOM      3  C   UNL A   1      33.518  21.392  25.768  1.00  0.00     0.227 C 
ATOM      4  O   UNL A   1      32.405  20.940  25.463  1.00  0.00    -0.274 OA
ATOM      5  H   UNL A   1      34.283  20.076  24.529  1.00  0.00     0.163 HD
BRANCH   3   6
ATOM      6  C   UNL A   1      33.596  22.558  26.785  1.00  0.00     0.105 C 
ATOM      7  C   UNL A   1      32.986  22.258  28.149  1.00  0.00     0.023 C 
BRANCH   6   8
ATOM      8  C   UNL A   1      33.159  23.899  26.227  1.00  0.00    -0.033 A 
ATOM      9  C   UNL A   1      32.160  26.305  25.101  1.00  0.00     0.025 A 
ATOM     10  C   UNL A   1      31.321  25.391  25.725  1.00  0.00     0.012 A 
ATOM     11  C   UNL A   1      33.518  25.979  25.016  1.00  0.00     0.131 A 
ATOM     12  C   UNL A   1      31.844  24.302  26.389  1.00  0.00     0.005 A 
ATOM     13  C   UNL A   1      34.010  24.770  25.536  1.00  0.00     0.044 A 
ATOM     14  F   UNL A   1      34.381  26.806  24.408  1.00  0.00    -0.206 F 
BRANCH   9  15
ATOM     15  C   UNL A   1      31.533  27.492  24.521  1.00  0.00     0.069 A 
ATOM     16  C   UNL A   1      30.843  27.322  23.289  1.00  0.00     0.130 A 
ATOM     17  C   UNL A   1      30.118  28.351  22.697  1.00  0.00     0.047 A 
ATOM     18  C   UNL A   1      30.044  29.575  23.341  1.00  0.00     0.008 A 
ATOM     19  C   UNL A   1      31.438  28.746  25.173  1.00  0.00     0.130 A 
ATOM     20  C   UNL A   1      30.694  29.767  24.560  1.00  0.00     0.047 A 
BRANCH  16  21
ATOM     21  O   UNL A   1      30.937  26.123  22.616  1.00  0.00    -0.493 OA
BRANCH  21  22
ATOM     22  C   UNL A   1      31.903  26.153  21.557  1.00  0.00     0.226 C 
ATOM     23  C   UNL A   1      32.754  24.893  21.635  1.00  0.00     0.049 C 
ENDBRANCH  21  22
ENDBRANCH  16  21
BRANCH  19  24
ATOM     24  O   UNL A   1      31.986  29.205  26.344  1.00  0.00    -0.493 OA
BRANCH  24  25
ATOM     25  C   UNL A   1      32.936  30.250  26.456  1.00  0.00     0.226 C 
ATOM     26  C   UNL A   1      34.288  29.742  26.948  1.00  0.00     0.049 C 
ENDBRANCH  24  25
ENDBRANCH  19  24
ENDBRANCH   9  15
ENDBRANCH   6   8
ENDBRANCH   3   6
ENDBRANCH   1   2
BRANCH   1  27
ATOM     27  C   UNL A   1      36.483  22.270  24.525  1.00  0.00     0.042 C 
BRANCH  27  28
ATOM     28  C   UNL A   1      37.474  23.088  25.336  1.00  0.00     0.118 C 
BRANCH  28  29
ATOM     29  N   UNL A   1      38.512  22.265  25.932  1.00  0.00    -0.352 N 
ATOM     30  C   UNL A   1      39.683  22.617  26.563  1.00  0.00     0.251 C 
ATOM     31  H   UNL A   1      38.352  21.296  25.874  1.00  0.00     0.163 HD
ATOM     32  O   UNL A   1      40.509  21.735  26.794  1.00  0.00    -0.269 OA
BRANCH  30  33
ATOM     33  C   UNL A   1      39.977  24.019  26.951  1.00  0.00     0.039 A 
ATOM     34  C   UNL A   1      39.883  24.372  28.302  1.00  0.00     0.014 A 
ATOM     35  C   UNL A   1      40.285  25.003  26.008  1.00  0.00     0.014 A 
ATOM     36  C   UNL A   1      40.161  25.681  28.709  1.00  0.00     0.010 A 
ATOM     37  C   UNL A   1      40.639  26.288  26.423  1.00  0.00     0.010 A 
ATOM     38  C   UNL A   1      40.581  26.644  27.778  1.00  0.00    -0.014 A 
BRANCH  38  39
ATOM     39  C   UNL A   1      40.981  28.014  28.203  1.00  0.00     0.031 A 
ATOM     40  C   UNL A   1      42.436  28.402  28.274  1.00  0.00     0.074 A 
ATOM     41  C   UNL A   1      40.035  28.889  28.600  1.00  0.00     0.049 A 
ATOM     42  N   UNL A   1      42.972  29.511  28.718  1.00  0.00    -0.248 NA
ATOM     43  C   UNL A   1      43.416  27.411  27.802  1.00  0.00     0.031 C 
ATOM     44  C   UNL A   1      38.594  28.625  28.629  1.00  0.00     0.029 A 
ATOM     45  N   UNL A   1      40.143  30.171  29.082  1.00  0.00    -0.354 N 
ATOM     46  C   UNL A   1      44.347  29.342  28.606  1.00  0.00     0.074 A 
ATOM     47  C   UNL A   1      44.565  28.012  28.078  1.00  0.00     0.031 C 
ATOM     48  C   UNL A   1      37.955  29.710  29.097  1.00  0.00     0.029 A 
ATOM     49  C   UNL A   1      38.940  30.728  29.447  1.00  0.00     0.049 A 
ATOM     50  H   UNL A   1      41.002  30.647  29.158  1.00  0.00     0.167 HD
ATOM     51  C   UNL A   1      45.339  30.221  28.891  1.00  0.00     0.034 A 
ATOM     52  C   UNL A   1      38.660  31.911  30.029  1.00  0.00     0.034 A 
ATOM     53  C   UNL A   1      45.122  31.554  29.386  1.00  0.00     0.049 A 
ATOM     54  C   UNL A   1      39.785  32.846  30.375  1.00  0.00     0.074 A 
ATOM     55  C   UNL A   1      46.061  32.540  29.637  1.00  0.00     0.029 A 
ATOM     56  N   UNL A   1      43.887  32.088  29.715  1.00  0.00    -0.354 N 
ATOM     57  N   UNL A   1      41.068  32.715  30.145  1.00  0.00    -0.248 NA
ATOM     58  C   UNL A   1      39.420  34.101  31.048  1.00  0.00     0.031 C 
ATOM     59  C   UNL A   1      45.397  33.659  30.148  1.00  0.00     0.029 A 
ATOM     60  C   UNL A   1      44.040  33.382  30.183  1.00  0.00     0.049 A 
ATOM     61  H   UNL A   1      43.027  31.617  29.628  1.00  0.00     0.167 HD
ATOM     62  C   UNL A   1      41.656  33.885  30.610  1.00  0.00     0.074 A 
ATOM     63  C   UNL A   1      40.588  34.722  31.113  1.00  0.00     0.031 C 
ATOM     64  C   UNL A   1      42.967  34.228  30.632  1.00  0.00     0.034 A 
BRANCH  51  65
ATOM     65  C   UNL A   1      46.760  29.793  28.628  1.00  0.00     0.023 A 
ATOM     66  C   UNL A   1      47.372  30.132  27.405  1.00  0.00     0.012 A 
ATOM     67  C   UNL A   1      47.517  29.142  29.623  1.00  0.00     0.148 A 
ATOM     68  C   UNL A   1      48.707  29.809  27.163  1.00  0.00     0.002 A 
ATOM     69  C   UNL A   1      48.860  28.862  29.392  1.00  0.00     0.091 A 
ATOM     70  F   UNL A   1      46.914  28.815  30.774  1.00  0.00    -0.205 F 
ATOM     71  C   UNL A   1      49.453  29.186  28.160  1.00  0.00     0.022 A 
BRANCH  69  72
ATOM     72  S   UNL A   1      49.931  28.134  30.636  1.00  0.00     0.127 S 
ATOM     73  O   UNL A   1      49.248  26.870  30.908  1.00  0.00    -0.237 OA
ATOM     74  O   UNL A   1      51.194  28.000  29.912  1.00  0.00    -0.237 OA
ATOM     75  O   UNL A   1      49.959  29.074  31.748  1.00  0.00    -0.744 OA
ENDBRANCH  69  72
ENDBRANCH  51  65
BRANCH  52  76
ATOM     76  C   UNL A   1      37.254  32.288  30.346  1.00  0.00     0.023 A 
ATOM     77  C   UNL A   1      36.679  31.901  31.571  1.00  0.00     0.012 A 
ATOM     78  C   UNL A   1      36.471  32.992  29.414  1.00  0.00     0.148 A 
ATOM     79  C   UNL A   1      35.339  32.175  31.847  1.00  0.00     0.002 A 
ATOM     80  C   UNL A   1      35.153  33.305  29.716  1.00  0.00     0.091 A 
ATOM     81  F   UNL A   1      37.041  33.348  28.253  1.00  0.00    -0.205 F 
ATOM     82  C   UNL A   1      34.577  32.882  30.921  1.00  0.00     0.022 A 
BRANCH  80  83
ATOM     83  S   UNL A   1      34.130  34.277  28.613  1.00  0.00     0.127 S 
ATOM     84  O   UNL A   1      34.025  33.405  27.443  1.00  0.00    -0.237 OA
ATOM     85  O   UNL A   1      32.898  34.415  29.391  1.00  0.00    -0.237 OA
ATOM     86  O   UNL A   1      34.863  35.508  28.397  1.00  0.00    -0.744 OA
ENDBRANCH  80  83
ENDBRANCH  52  76
BRANCH  64  87
ATOM     87  C   UNL A   1      43.319  35.589  31.172  1.00  0.00     0.023 A 
ATOM     88  C   UNL A   1      43.539  35.763  32.553  1.00  0.00     0.012 A 
ATOM     89  C   UNL A   1      43.486  36.683  30.301  1.00  0.00     0.148 A 
ATOM     90  C   UNL A   1      43.886  37.014  33.063  1.00  0.00     0.002 A 
ATOM     91  C   UNL A   1      43.882  37.914  30.809  1.00  0.00     0.091 A 
ATOM     92  F   UNL A   1      43.254  36.499  28.993  1.00  0.00    -0.205 F 
ATOM     93  C   UNL A   1      44.068  38.085  32.190  1.00  0.00     0.022 A 
BRANCH  91  94
ATOM     94  S   UNL A   1      44.233  39.326  29.755  1.00  0.00     0.127 S 
ATOM     95  O   UNL A   1      45.288  38.797  28.891  1.00  0.00    -0.237 OA
ATOM     96  O   UNL A   1      42.948  39.539  29.089  1.00  0.00    -0.237 OA
ATOM     97  O   UNL A   1      44.641  40.403  30.646  1.00  0.00    -0.744 OA
ENDBRANCH  91  94
ENDBRANCH  64  87
ENDBRANCH  38  39
ENDBRANCH  30  33
ENDBRANCH  28  29
ENDBRANCH  27  28
ENDBRANCH   1  27
TORSDOF 19
ENDMDL
MODEL 2
REMARK VINA RESULT:      -9.5      3.863      7.287
REMARK SMILES CCOc1cccc(OCC)c1-c1ccc([C@@H](C)C(=O)NCCCNC(=O)c2ccc(-c3c4nc(c(-c5cccc(S(=O)(=O)[O-])c5F)c5ccc([nH]5)c(-c5cccc(S(=O)(=O)[O-])c5F)c5nc(c(-c6cccc(S(=O)(=O)[O-])c6F)c6ccc3[nH]6)C=C5)C=C4)cc2)cc1F
REMARK SMILES IDX 22 1 21 2 19 3 20 4 17 6 18 7 16 8 13 9 14 10 92 11 15 12
REMARK SMILES IDX 91 13 93 14 12 15 4 16 5 17 6 18 8 19 7 20 3 21 2 22 1 23
REMARK SMILES IDX 9 24 10 25 11 26 23 27 24 28 25 29 26 30 27 32 28 33 29 34
REMARK SMILES IDX 90 35 30 36 89 37 31 38 32 39 33 40 83 41 34 42 88 43 82 44
REMARK SMILES IDX 84 45 35 46 87 47 81 48 80 49 36 51 68 52 48 53 67 54 49 55
REMARK SMILES IDX 52 56 66 57 85 58 50 59 51 60 65 62 86 63 53 64 37 65 38 66
REMARK SMILES IDX 46 67 39 68 41 69 47 70 40 71 42 72 43 73 44 74 45 75 69 76
REMARK SMILES IDX 70 77 78 78 71 79 73 80 79 81 72 82 74 83 75 84 76 85 77 86
REMARK SMILES IDX 54 87 55 88 63 89 56 90 58 91 64 92 57 93 59 94 60 95 61 96
REMARK SMILES IDX 62 97
REMARK H PARENT 21 5 25 31 84 50 52 61
REMARK Flexibility Score: inf
ROOT
ATOM      1  C   UNL A   1      35.035  32.054  31.055  1.00  0.00     0.117 C 
ENDROOT
BRANCH   1   2
ATOM      2  N   UNL A   1      34.811  32.507  29.686  1.00  0.00    -0.356 N 
ATOM      3  C   UNL A   1      34.859  31.926  28.453  1.00  0.00     0.227 C 
ATOM      4  O   UNL A   1      34.597  32.687  27.511  1.00  0.00    -0.274 OA
ATOM      5  H   UNL A   1      34.567  33.460  29.642  1.00  0.00     0.163 HD
BRANCH   3   6
ATOM      6  C   UNL A   1      35.194  30.445  28.145  1.00  0.00     0.105 C 
ATOM      7  C   UNL A   1      36.647  30.184  27.767  1.00  0.00     0.023 C 
BRANCH   6   8
ATOM      8  C   UNL A   1      34.211  29.768  27.209  1.00  0.00    -0.033 A 
ATOM      9  C   UNL A   1      32.258  28.434  25.641  1.00  0.00     0.025 A 
ATOM     10  C   UNL A   1      31.909  29.173  26.762  1.00  0.00     0.012 A 
ATOM     11  C   UNL A   1      33.619  28.340  25.330  1.00  0.00     0.131 A 
ATOM     12  C   UNL A   1      32.853  29.928  27.424  1.00  0.00     0.005 A 
ATOM     13  C   UNL A   1      34.593  28.965  26.128  1.00  0.00     0.044 A 
ATOM     14  F   UNL A   1      34.029  27.623  24.273  1.00  0.00    -0.206 F 
BRANCH   9  15
ATOM     15  C   UNL A   1      31.175  27.755  24.930  1.00  0.00     0.069 A 
ATOM     16  C   UNL A   1      30.906  26.408  25.296  1.00  0.00     0.130 A 
ATOM     17  C   UNL A   1      29.834  25.696  24.768  1.00  0.00     0.047 A 
ATOM     18  C   UNL A   1      28.985  26.328  23.874  1.00  0.00     0.008 A 
ATOM     19  C   UNL A   1      30.292  28.392  24.024  1.00  0.00     0.130 A 
ATOM     20  C   UNL A   1      29.211  27.655  23.510  1.00  0.00     0.047 A 
BRANCH  16  21
ATOM     21  O   UNL A   1      31.761  25.751  26.154  1.00  0.00    -0.493 OA
BRANCH  21  22
ATOM     22  C   UNL A   1      31.322  24.424  26.470  1.00  0.00     0.226 C 
ATOM     23  C   UNL A   1      32.403  23.438  26.053  1.00  0.00     0.049 C 
ENDBRANCH  21  22
ENDBRANCH  16  21
BRANCH  19  24
ATOM     24  O   UNL A   1      30.294  29.654  23.488  1.00  0.00    -0.493 OA
BRANCH  24  25
ATOM     25  C   UNL A   1      29.706  30.801  24.077  1.00  0.00     0.226 C 
ATOM     26  C   UNL A   1      28.671  31.446  23.160  1.00  0.00     0.049 C 
ENDBRANCH  24  25
ENDBRANCH  19  24
ENDBRANCH   9  15
ENDBRANCH   6   8
ENDBRANCH   3   6
ENDBRANCH   1   2
BRANCH   1  27
ATOM     27  C   UNL A   1      36.184  32.806  31.748  1.00  0.00     0.042 C 
BRANCH  27  28
ATOM     28  C   UNL A   1      36.547  32.320  33.142  1.00  0.00     0.118 C 
BRANCH  28  29
ATOM     29  N   UNL A   1      36.634  30.872  33.217  1.00  0.00    -0.352 N 
ATOM     30  C   UNL A   1      37.518  29.996  32.631  1.00  0.00     0.251 C 
ATOM     31  H   UNL A   1      35.946  30.448  33.779  1.00  0.00     0.163 HD
ATOM     32  O   UNL A   1      37.259  28.793  32.668  1.00  0.00    -0.269 OA
BRANCH  30  33
ATOM     33  C   UNL A   1      38.752  30.461  31.949  1.00  0.00     0.039 A 
ATOM     34  C   UNL A   1      38.781  30.461  30.550  1.00  0.00     0.014 A 
ATOM     35  C   UNL A   1      39.895  30.839  32.656  1.00  0.00     0.014 A 
ATOM     36  C   UNL A   1      39.923  30.899  29.869  1.00  0.00     0.010 A 
ATOM     37  C   UNL A   1      41.004  31.351  31.980  1.00  0.00     0.010 A 
ATOM     38  C   UNL A   1      41.032  31.388  30.578  1.00  0.00    -0.014 A 
BRANCH  38  39
ATOM     39  C   UNL A   1      42.215  31.955  29.874  1.00  0.00     0.031 A 
ATOM     40  C   UNL A   1      43.402  31.087  29.545  1.00  0.00     0.074 A 
ATOM     41  C   UNL A   1      42.254  33.275  29.597  1.00  0.00     0.049 A 
ATOM     42  N   UNL A   1      44.556  31.429  29.030  1.00  0.00    -0.248 NA
ATOM     43  C   UNL A   1      43.286  29.652  29.849  1.00  0.00     0.031 C 
ATOM     44  C   UNL A   1      41.194  34.237  29.907  1.00  0.00     0.029 A 
ATOM     45  N   UNL A   1      43.234  34.041  29.015  1.00  0.00    -0.354 N 
ATOM     46  C   UNL A   1      45.312  30.263  28.975  1.00  0.00     0.074 A 
ATOM     47  C   UNL A   1      44.495  29.207  29.535  1.00  0.00     0.031 C 
ATOM     48  C   UNL A   1      41.578  35.461  29.509  1.00  0.00     0.029 A 
ATOM     49  C   UNL A   1      42.928  35.381  28.961  1.00  0.00     0.049 A 
ATOM     50  H   UNL A   1      44.077  33.667  28.671  1.00  0.00     0.167 HD
ATOM     51  C   UNL A   1      46.560  30.081  28.480  1.00  0.00     0.034 A 
ATOM     52  C   UNL A   1      43.661  36.433  28.548  1.00  0.00     0.034 A 
ATOM     53  C   UNL A   1      47.360  31.123  27.894  1.00  0.00     0.049 A 
ATOM     54  C   UNL A   1      45.060  36.204  28.046  1.00  0.00     0.074 A 
ATOM     55  C   UNL A   1      48.608  31.019  27.304  1.00  0.00     0.029 A 
ATOM     56  N   UNL A   1      47.001  32.460  27.833  1.00  0.00    -0.354 N 
ATOM     57  N   UNL A   1      45.706  35.076  27.887  1.00  0.00    -0.248 NA
ATOM     58  C   UNL A   1      45.825  37.396  27.652  1.00  0.00     0.031 C 
ATOM     59  C   UNL A   1      49.017  32.297  26.913  1.00  0.00     0.029 A 
ATOM     60  C   UNL A   1      48.009  33.193  27.230  1.00  0.00     0.049 A 
ATOM     61  H   UNL A   1      46.154  32.833  28.167  1.00  0.00     0.167 HD
ATOM     62  C   UNL A   1      46.936  35.419  27.340  1.00  0.00     0.074 A 
ATOM     63  C   UNL A   1      46.937  36.857  27.173  1.00  0.00     0.031 C 
ATOM     64  C   UNL A   1      47.980  34.616  27.019  1.00  0.00     0.034 A 
BRANCH  51  65
ATOM     65  C   UNL A   1      47.131  28.686  28.500  1.00  0.00     0.023 A 
ATOM     66  C   UNL A   1      47.886  28.260  29.611  1.00  0.00     0.012 A 
ATOM     67  C   UNL A   1      46.842  27.770  27.468  1.00  0.00     0.148 A 
ATOM     68  C   UNL A   1      48.367  26.954  29.685  1.00  0.00     0.002 A 
ATOM     69  C   UNL A   1      47.288  26.456  27.570  1.00  0.00     0.091 A 
ATOM     70  F   UNL A   1      46.135  28.197  26.413  1.00  0.00    -0.205 F 
ATOM     71  C   UNL A   1      48.058  26.050  28.673  1.00  0.00     0.022 A 
BRANCH  69  72
ATOM     72  S   UNL A   1      46.879  25.193  26.361  1.00  0.00     0.127 S 
ATOM     73  O   UNL A   1      45.758  24.516  27.012  1.00  0.00    -0.237 OA
ATOM     74  O   UNL A   1      46.513  25.994  25.193  1.00  0.00    -0.237 OA
ATOM     75  O   UNL A   1      48.079  24.385  26.197  1.00  0.00    -0.744 OA
ENDBRANCH  69  72
ENDBRANCH  51  65
BRANCH  52  76
ATOM     76  C   UNL A   1      43.106  37.814  28.601  1.00  0.00     0.023 A 
ATOM     77  C   UNL A   1      42.335  38.306  27.530  1.00  0.00     0.012 A 
ATOM     78  C   UNL A   1      43.378  38.657  29.693  1.00  0.00     0.148 A 
ATOM     79  C   UNL A   1      41.878  39.625  27.529  1.00  0.00     0.002 A 
ATOM     80  C   UNL A   1      42.878  39.952  29.707  1.00  0.00     0.091 A 
ATOM     81  F   UNL A   1      44.116  38.166  30.699  1.00  0.00    -0.205 F 
ATOM     82  C   UNL A   1      42.145  40.447  28.620  1.00  0.00     0.022 A 
BRANCH  80  83
ATOM     83  S   UNL A   1      43.111  41.046  31.105  1.00  0.00     0.127 S 
ATOM     84  O   UNL A   1      44.566  41.203  31.133  1.00  0.00    -0.237 OA
ATOM     85  O   UNL A   1      42.371  42.236  30.683  1.00  0.00    -0.237 OA
ATOM     86  O   UNL A   1      42.549  40.341  32.241  1.00  0.00    -0.744 OA
ENDBRANCH  80  83
ENDBRANCH  52  76
BRANCH  64  87
ATOM     87  C   UNL A   1      49.192  35.264  26.405  1.00  0.00     0.023 A 
ATOM     88  C   UNL A   1      49.304  35.364  25.004  1.00  0.00     0.012 A 
ATOM     89  C   UNL A   1      50.195  35.823  27.221  1.00  0.00     0.148 A 
ATOM     90  C   UNL A   1      50.412  35.979  24.424  1.00  0.00     0.002 A 
ATOM     91  C   UNL A   1      51.270  36.480  26.638  1.00  0.00     0.091 A 
ATOM     92  F   UNL A   1      50.078  35.700  28.552  1.00  0.00    -0.205 F 
ATOM     93  C   UNL A   1      51.388  36.547  25.241  1.00  0.00     0.022 A 
BRANCH  91  94
ATOM     94  S   UNL A   1      52.527  37.323  27.606  1.00  0.00     0.127 S 
ATOM     95  O   UNL A   1      53.547  37.599  26.595  1.00  0.00    -0.237 OA
ATOM     96  O   UNL A   1      51.806  38.504  28.084  1.00  0.00    -0.237 OA
ATOM     97  O   UNL A   1      52.925  36.391  28.652  1.00  0.00    -0.744 OA
ENDBRANCH  91  94
ENDBRANCH  64  87
ENDBRANCH  38  39
ENDBRANCH  30  33
ENDBRANCH  28  29
ENDBRANCH  27  28
ENDBRANCH   1  27
TORSDOF 19
ENDMDL
MODEL 3
REMARK VINA RESULT:      -9.4      3.936      8.076
REMARK SMILES CCOc1cccc(OCC)c1-c1ccc([C@@H](C)C(=O)NCCCNC(=O)c2ccc(-c3c4nc(c(-c5cccc(S(=O)(=O)[O-])c5F)c5ccc([nH]5)c(-c5cccc(S(=O)(=O)[O-])c5F)c5nc(c(-c6cccc(S(=O)(=O)[O-])c6F)c6ccc3[nH]6)C=C5)C=C4)cc2)cc1F
REMARK SMILES IDX 22 1 21 2 19 3 20 4 17 6 18 7 16 8 13 9 14 10 92 11 15 12
REMARK SMILES IDX 91 13 93 14 12 15 4 16 5 17 6 18 8 19 7 20 3 21 2 22 1 23
REMARK SMILES IDX 9 24 10 25 11 26 23 27 24 28 25 29 26 30 27 32 28 33 29 34
REMARK SMILES IDX 90 35 30 36 89 37 31 38 32 39 33 40 83 41 34 42 88 43 82 44
REMARK SMILES IDX 84 45 35 46 87 47 81 48 80 49 36 51 68 52 48 53 67 54 49 55
REMARK SMILES IDX 52 56 66 57 85 58 50 59 51 60 65 62 86 63 53 64 37 65 38 66
REMARK SMILES IDX 46 67 39 68 41 69 47 70 40 71 42 72 43 73 44 74 45 75 69 76
REMARK SMILES IDX 70 77 78 78 71 79 73 80 79 81 72 82 74 83 75 84 76 85 77 86
REMARK SMILES IDX 54 87 55 88 63 89 56 90 58 91 64 92 57 93 59 94 60 95 61 96
REMARK SMILES IDX 62 97
REMARK H PARENT 21 5 25 31 84 50 52 61
REMARK Flexibility Score: inf
ROOT
ATOM      1  C   UNL A   1      42.923  22.926  27.092  1.00  0.00     0.117 C 
ENDROOT
BRANCH   1   2
ATOM      2  N   UNL A   1      44.359  22.747  26.907  1.00  0.00    -0.356 N 
ATOM      3  C   UNL A   1      45.474  23.464  27.226  1.00  0.00     0.227 C 
ATOM      4  O   UNL A   1      46.543  22.945  26.873  1.00  0.00    -0.274 OA
ATOM      5  H   UNL A   1      44.574  21.908  26.439  1.00  0.00     0.163 HD
BRANCH   3   6
ATOM      6  C   UNL A   1      45.515  24.820  27.973  1.00  0.00     0.105 C 
ATOM      7  C   UNL A   1      46.662  25.738  27.570  1.00  0.00     0.023 C 
BRANCH   6   8
ATOM      8  C   UNL A   1      45.353  24.706  29.477  1.00  0.00    -0.033 A 
ATOM      9  C   UNL A   1      44.830  24.524  32.260  1.00  0.00     0.025 A 
ATOM     10  C   UNL A   1      43.990  23.939  31.323  1.00  0.00     0.012 A 
ATOM     11  C   UNL A   1      45.931  25.241  31.779  1.00  0.00     0.131 A 
ATOM     12  C   UNL A   1      44.338  23.917  29.989  1.00  0.00     0.005 A 
ATOM     13  C   UNL A   1      46.171  25.368  30.400  1.00  0.00     0.044 A 
ATOM     14  F   UNL A   1      46.773  25.850  32.629  1.00  0.00    -0.206 F 
BRANCH   9  15
ATOM     15  C   UNL A   1      44.444  24.402  33.665  1.00  0.00     0.069 A 
ATOM     16  C   UNL A   1      44.911  23.257  34.367  1.00  0.00     0.130 A 
ATOM     17  C   UNL A   1      44.700  23.086  35.732  1.00  0.00     0.047 A 
ATOM     18  C   UNL A   1      44.034  24.075  36.436  1.00  0.00     0.008 A 
ATOM     19  C   UNL A   1      43.774  25.410  34.401  1.00  0.00     0.130 A 
ATOM     20  C   UNL A   1      43.580  25.219  35.779  1.00  0.00     0.047 A 
BRANCH  16  21
ATOM     21  O   UNL A   1      45.542  22.244  33.676  1.00  0.00    -0.493 OA
BRANCH  21  22
ATOM     22  C   UNL A   1      46.063  21.224  34.537  1.00  0.00     0.226 C 
ATOM     23  C   UNL A   1      47.571  21.401  34.650  1.00  0.00     0.049 C 
ENDBRANCH  21  22
ENDBRANCH  16  21
BRANCH  19  24
ATOM     24  O   UNL A   1      43.215  26.600  34.011  1.00  0.00    -0.493 OA
BRANCH  24  25
ATOM     25  C   UNL A   1      43.358  27.199  32.735  1.00  0.00     0.226 C 
ATOM     26  C   UNL A   1      43.680  28.687  32.837  1.00  0.00     0.049 C 
ENDBRANCH  24  25
ENDBRANCH  19  24
ENDBRANCH   9  15
ENDBRANCH   6   8
ENDBRANCH   3   6
ENDBRANCH   1   2
BRANCH   1  27
ATOM     27  C   UNL A   1      42.183  21.597  27.321  1.00  0.00     0.042 C 
BRANCH  27  28
ATOM     28  C   UNL A   1      40.779  21.710  27.891  1.00  0.00     0.118 C 
BRANCH  28  29
ATOM     29  N   UNL A   1      39.776  21.894  26.856  1.00  0.00    -0.352 N 
ATOM     30  C   UNL A   1      39.078  23.015  26.474  1.00  0.00     0.251 C 
ATOM     31  H   UNL A   1      39.560  21.081  26.346  1.00  0.00     0.163 HD
ATOM     32  O   UNL A   1      38.120  22.876  25.714  1.00  0.00    -0.269 OA
BRANCH  30  33
ATOM     33  C   UNL A   1      39.436  24.370  26.964  1.00  0.00     0.039 A 
ATOM     34  C   UNL A   1      39.048  24.737  28.258  1.00  0.00     0.014 A 
ATOM     35  C   UNL A   1      40.091  25.304  26.157  1.00  0.00     0.014 A 
ATOM     36  C   UNL A   1      39.372  26.002  28.759  1.00  0.00     0.010 A 
ATOM     37  C   UNL A   1      40.485  26.535  26.684  1.00  0.00     0.010 A 
ATOM     38  C   UNL A   1      40.131  26.901  27.991  1.00  0.00    -0.014 A 
BRANCH  38  39
ATOM     39  C   UNL A   1      40.576  28.210  28.542  1.00  0.00     0.031 A 
ATOM     40  C   UNL A   1      42.039  28.487  28.777  1.00  0.00     0.074 A 
ATOM     41  C   UNL A   1      39.655  29.127  28.904  1.00  0.00     0.049 A 
ATOM     42  N   UNL A   1      42.601  29.525  29.342  1.00  0.00    -0.248 NA
ATOM     43  C   UNL A   1      42.993  27.457  28.336  1.00  0.00     0.031 C 
ATOM     44  C   UNL A   1      38.205  28.966  28.778  1.00  0.00     0.029 A 
ATOM     45  N   UNL A   1      39.800  30.366  29.478  1.00  0.00    -0.354 N 
ATOM     46  C   UNL A   1      43.966  29.263  29.352  1.00  0.00     0.074 A 
ATOM     47  C   UNL A   1      44.147  27.955  28.761  1.00  0.00     0.031 C 
ATOM     48  C   UNL A   1      37.595  30.065  29.253  1.00  0.00     0.029 A 
ATOM     49  C   UNL A   1      38.605  30.986  29.762  1.00  0.00     0.049 A 
ATOM     50  H   UNL A   1      40.676  30.773  29.667  1.00  0.00     0.167 HD
ATOM     51  C   UNL A   1      44.980  30.050  29.788  1.00  0.00     0.034 A 
ATOM     52  C   UNL A   1      38.348  32.150  30.392  1.00  0.00     0.034 A 
ATOM     53  C   UNL A   1      44.804  31.364  30.347  1.00  0.00     0.049 A 
ATOM     54  C   UNL A   1      39.493  32.979  30.904  1.00  0.00     0.074 A 
ATOM     55  C   UNL A   1      45.777  32.262  30.751  1.00  0.00     0.029 A 
ATOM     56  N   UNL A   1      43.581  31.965  30.591  1.00  0.00    -0.354 N 
ATOM     57  N   UNL A   1      40.781  32.769  30.790  1.00  0.00    -0.248 NA
ATOM     58  C   UNL A   1      39.146  34.214  31.622  1.00  0.00     0.031 C 
ATOM     59  C   UNL A   1      45.141  33.394  31.269  1.00  0.00     0.029 A 
ATOM     60  C   UNL A   1      43.772  33.215  31.156  1.00  0.00     0.049 A 
ATOM     61  H   UNL A   1      42.704  31.564  30.391  1.00  0.00     0.167 HD
ATOM     62  C   UNL A   1      41.396  33.863  31.385  1.00  0.00     0.074 A 
ATOM     63  C   UNL A   1      40.341  34.744  31.839  1.00  0.00     0.031 C 
ATOM     64  C   UNL A   1      42.718  34.109  31.556  1.00  0.00     0.034 A 
BRANCH  51  65
ATOM     65  C   UNL A   1      46.389  29.536  29.634  1.00  0.00     0.023 A 
ATOM     66  C   UNL A   1      46.984  28.814  30.688  1.00  0.00     0.012 A 
ATOM     67  C   UNL A   1      47.086  29.684  28.418  1.00  0.00     0.148 A 
ATOM     68  C   UNL A   1      48.259  28.269  30.546  1.00  0.00     0.002 A 
ATOM     69  C   UNL A   1      48.339  29.101  28.268  1.00  0.00     0.091 A 
ATOM     70  F   UNL A   1      46.510  30.386  27.432  1.00  0.00    -0.205 F 
ATOM     71  C   UNL A   1      48.931  28.402  29.334  1.00  0.00     0.022 A 
BRANCH  69  72
ATOM     72  S   UNL A   1      49.255  29.144  26.724  1.00  0.00     0.127 S 
ATOM     73  O   UNL A   1      49.470  30.580  26.550  1.00  0.00    -0.237 OA
ATOM     74  O   UNL A   1      50.459  28.384  27.061  1.00  0.00    -0.237 OA
ATOM     75  O   UNL A   1      48.397  28.520  25.726  1.00  0.00    -0.744 OA
ENDBRANCH  69  72
ENDBRANCH  51  65
BRANCH  52  76
ATOM     76  C   UNL A   1      36.946  32.609  30.597  1.00  0.00     0.023 A 
ATOM     77  C   UNL A   1      36.278  32.316  31.801  1.00  0.00     0.012 A 
ATOM     78  C   UNL A   1      36.259  33.297  29.582  1.00  0.00     0.148 A 
ATOM     79  C   UNL A   1      34.938  32.667  31.975  1.00  0.00     0.002 A 
ATOM     80  C   UNL A   1      34.941  33.687  29.781  1.00  0.00     0.091 A 
ATOM     81  F   UNL A   1      36.917  33.561  28.444  1.00  0.00    -0.205 F 
ATOM     82  C   UNL A   1      34.271  33.357  30.967  1.00  0.00     0.022 A 
BRANCH  80  83
ATOM     83  S   UNL A   1      34.038  34.643  28.566  1.00  0.00     0.127 S 
ATOM     84  O   UNL A   1      32.649  34.319  28.890  1.00  0.00    -0.237 OA
ATOM     85  O   UNL A   1      34.446  36.009  28.896  1.00  0.00    -0.237 OA
ATOM     86  O   UNL A   1      34.497  34.157  27.279  1.00  0.00    -0.744 OA
ENDBRANCH  80  83
ENDBRANCH  52  76
BRANCH  64  87
ATOM     87  C   UNL A   1      43.104  35.406  32.215  1.00  0.00     0.023 A 
ATOM     88  C   UNL A   1      43.122  35.503  33.621  1.00  0.00     0.012 A 
ATOM     89  C   UNL A   1      43.503  36.512  31.440  1.00  0.00     0.148 A 
ATOM     90  C   UNL A   1      43.497  36.692  34.244  1.00  0.00     0.002 A 
ATOM     91  C   UNL A   1      43.926  37.676  32.068  1.00  0.00     0.091 A 
ATOM     92  F   UNL A   1      43.461  36.404  30.104  1.00  0.00    -0.205 F 
ATOM     93  C   UNL A   1      43.909  37.773  33.469  1.00  0.00     0.022 A 
BRANCH  91  94
ATOM     94  S   UNL A   1      44.563  39.088  31.158  1.00  0.00     0.127 S 
ATOM     95  O   UNL A   1      43.334  39.694  30.648  1.00  0.00    -0.237 OA
ATOM     96  O   UNL A   1      45.231  39.855  32.210  1.00  0.00    -0.237 OA
ATOM     97  O   UNL A   1      45.456  38.545  30.144  1.00  0.00    -0.744 OA
ENDBRANCH  91  94
ENDBRANCH  64  87
ENDBRANCH  38  39
ENDBRANCH  30  33
ENDBRANCH  28  29
ENDBRANCH  27  28
ENDBRANCH   1  27
TORSDOF 19
ENDMDL
