MODEL 1
REMARK VINA RESULT:     -12.5      0.000      0.000
REMARK SMILES N#C/C(=C/c1cccc(OCC(=O)NCCCNC(=O)c2ccc(-c3c4nc(c(-c5cccc(S(=O)(=O)[O-])c5F)c5ccc([nH]5)c(-c5cccc(S(=O)(=O)[O-])c5F)c5nc(c(-c6cccc(S(=O)(=O)[O-])c6F)c6ccc3[nH]6)C=C5)C=C4)cc2)c1)c1nc2ccccc2[nH]1
REMARK SMILES IDX 15 1 14 2 12 3 13 4 11 6 10 7 9 8 5 9 6 10 84 11 7 12 8 13
REMARK SMILES IDX 4 14 3 15 2 16 1 17 85 18 86 19 93 20 87 21 92 22 88 24
REMARK SMILES IDX 91 25 89 26 90 27 16 28 17 29 18 30 19 31 20 33 21 34 22 35
REMARK SMILES IDX 83 36 23 37 82 38 24 39 25 40 26 41 76 42 27 43 81 44 75 45
REMARK SMILES IDX 77 46 28 47 80 48 74 49 73 50 29 52 61 53 41 54 60 55 42 56
REMARK SMILES IDX 45 57 59 58 78 59 43 60 44 61 58 63 79 64 46 65 30 66 31 67
REMARK SMILES IDX 39 68 32 69 34 70 40 71 33 72 35 73 36 74 37 75 38 76 62 77
REMARK SMILES IDX 63 78 71 79 64 80 66 81 72 82 65 83 67 84 68 85 69 86 70 87
REMARK SMILES IDX 47 88 48 89 56 90 49 91 51 92 57 93 50 94 52 95 53 96 54 97
REMARK SMILES IDX 55 98
REMARK H PARENT 14 5 93 23 18 32 77 51 45 62
REMARK Flexibility Score: inf
ROOT
ATOM      1  C   UNL A   1      30.670  29.981  24.690  1.00  0.00     0.117 C 
ENDROOT
BRANCH   1   2
ATOM      2  N   UNL A   1      30.424  30.203  23.278  1.00  0.00    -0.353 N 
ATOM      3  C   UNL A   1      29.849  29.336  22.387  1.00  0.00     0.257 C 
ATOM      4  O   UNL A   1      29.437  29.750  21.300  1.00  0.00    -0.271 OA
ATOM      5  H   UNL A   1      30.701  31.077  22.919  1.00  0.00     0.163 HD
BRANCH   3   6
ATOM      6  C   UNL A   1      29.675  27.861  22.771  1.00  0.00     0.329 C 
BRANCH   6   7
ATOM      7  O   UNL A   1      30.821  27.037  22.628  1.00  0.00    -0.484 OA
BRANCH   7   8
ATOM      8  C   UNL A   1      31.290  26.396  23.743  1.00  0.00     0.120 A 
ATOM      9  C   UNL A   1      32.982  25.492  25.241  1.00  0.00    -0.021 A 
ATOM     10  C   UNL A   1      31.983  25.133  26.150  1.00  0.00     0.008 A 
ATOM     11  C   UNL A   1      32.626  26.100  24.026  1.00  0.00     0.054 A 
ATOM     12  C   UNL A   1      30.646  25.401  25.859  1.00  0.00     0.004 A 
ATOM     13  C   UNL A   1      30.304  26.031  24.661  1.00  0.00     0.046 A 
BRANCH   9  14
ATOM     14  C   UNL A   1      34.395  25.237  25.573  1.00  0.00     0.031 C 
ATOM     15  C   UNL A   1      35.033  24.056  25.437  1.00  0.00     0.095 C 
BRANCH  15  16
ATOM     16  C   UNL A   1      36.501  23.950  25.816  1.00  0.00     0.103 C 
ATOM     17  N   UNL A   1      37.719  23.862  26.131  1.00  0.00    -0.192 NA
ENDBRANCH  15  16
BRANCH  15  18
ATOM     18  C   UNL A   1      34.403  22.918  24.859  1.00  0.00     0.149 A 
ATOM     19  N   UNL A   1      33.599  22.823  23.818  1.00  0.00    -0.228 NA
ATOM     20  N   UNL A   1      34.592  21.679  25.432  1.00  0.00    -0.337 N 
ATOM     21  C   UNL A   1      33.219  21.509  23.752  1.00  0.00     0.089 A 
ATOM     22  C   UNL A   1      33.818  20.766  24.760  1.00  0.00     0.066 A 
ATOM     23  H   UNL A   1      35.182  21.482  26.195  1.00  0.00     0.168 HD
ATOM     24  C   UNL A   1      32.344  20.874  22.863  1.00  0.00     0.030 A 
ATOM     25  C   UNL A   1      33.572  19.406  24.959  1.00  0.00     0.028 A 
ATOM     26  C   UNL A   1      32.061  19.515  23.050  1.00  0.00     0.002 A 
ATOM     27  C   UNL A   1      32.663  18.796  24.086  1.00  0.00     0.002 A 
ENDBRANCH  15  18
ENDBRANCH   9  14
ENDBRANCH   7   8
ENDBRANCH   6   7
ENDBRANCH   3   6
ENDBRANCH   1   2
BRANCH   1  28
ATOM     28  C   UNL A   1      32.120  29.692  25.071  1.00  0.00     0.042 C 
BRANCH  28  29
ATOM     29  C   UNL A   1      32.586  30.055  26.483  1.00  0.00     0.118 C 
BRANCH  29  30
ATOM     30  N   UNL A   1      32.493  31.458  26.851  1.00  0.00    -0.352 N 
ATOM     31  C   UNL A   1      33.400  32.236  27.534  1.00  0.00     0.251 C 
ATOM     32  H   UNL A   1      31.667  31.916  26.574  1.00  0.00     0.163 HD
ATOM     33  O   UNL A   1      33.131  33.417  27.755  1.00  0.00    -0.269 OA
BRANCH  31  34
ATOM     34  C   UNL A   1      34.671  31.666  28.037  1.00  0.00     0.039 A 
ATOM     35  C   UNL A   1      35.784  32.508  28.123  1.00  0.00     0.014 A 
ATOM     36  C   UNL A   1      34.789  30.322  28.401  1.00  0.00     0.014 A 
ATOM     37  C   UNL A   1      36.989  32.023  28.640  1.00  0.00     0.010 A 
ATOM     38  C   UNL A   1      35.982  29.850  28.959  1.00  0.00     0.010 A 
ATOM     39  C   UNL A   1      37.091  30.697  29.097  1.00  0.00    -0.014 A 
BRANCH  39  40
ATOM     40  C   UNL A   1      38.323  30.236  29.791  1.00  0.00     0.031 A 
ATOM     41  C   UNL A   1      38.707  30.754  31.150  1.00  0.00     0.074 A 
ATOM     42  C   UNL A   1      39.141  29.371  29.156  1.00  0.00     0.049 A 
ATOM     43  N   UNL A   1      39.712  30.399  31.910  1.00  0.00    -0.248 NA
ATOM     44  C   UNL A   1      37.870  31.819  31.722  1.00  0.00     0.031 C 
ATOM     45  C   UNL A   1      38.941  28.869  27.793  1.00  0.00     0.029 A 
ATOM     46  N   UNL A   1      40.308  28.771  29.560  1.00  0.00    -0.354 N 
ATOM     47  C   UNL A   1      39.644  31.206  33.039  1.00  0.00     0.074 A 
ATOM     48  C   UNL A   1      38.515  32.092  32.850  1.00  0.00     0.031 C 
ATOM     49  C   UNL A   1      39.939  28.029  27.482  1.00  0.00     0.029 A 
ATOM     50  C   UNL A   1      40.858  27.940  28.613  1.00  0.00     0.049 A 
ATOM     51  H   UNL A   1      40.711  28.922  30.445  1.00  0.00     0.167 HD
ATOM     52  C   UNL A   1      40.430  31.193  34.145  1.00  0.00     0.034 A 
ATOM     53  C   UNL A   1      41.970  27.179  28.650  1.00  0.00     0.034 A 
ATOM     54  C   UNL A   1      41.536  30.293  34.344  1.00  0.00     0.049 A 
ATOM     55  C   UNL A   1      42.781  27.129  29.916  1.00  0.00     0.074 A 
ATOM     56  C   UNL A   1      42.339  30.147  35.463  1.00  0.00     0.029 A 
ATOM     57  N   UNL A   1      42.008  29.393  33.400  1.00  0.00    -0.354 N 
ATOM     58  N   UNL A   1      42.586  27.761  31.048  1.00  0.00    -0.248 NA
ATOM     59  C   UNL A   1      43.937  26.221  29.928  1.00  0.00     0.031 C 
ATOM     60  C   UNL A   1      43.304  29.171  35.189  1.00  0.00     0.029 A 
ATOM     61  C   UNL A   1      43.090  28.692  33.907  1.00  0.00     0.049 A 
ATOM     62  H   UNL A   1      41.629  29.271  32.499  1.00  0.00     0.167 HD
ATOM     63  C   UNL A   1      43.571  27.303  31.915  1.00  0.00     0.074 A 
ATOM     64  C   UNL A   1      44.343  26.318  31.187  1.00  0.00     0.031 C 
ATOM     65  C   UNL A   1      43.823  27.677  33.195  1.00  0.00     0.034 A 
BRANCH  52  66
ATOM     66  C   UNL A   1      40.081  32.145  35.263  1.00  0.00     0.023 A 
ATOM     67  C   UNL A   1      40.695  33.414  35.305  1.00  0.00     0.012 A 
ATOM     68  C   UNL A   1      39.106  31.820  36.226  1.00  0.00     0.148 A 
ATOM     69  C   UNL A   1      40.372  34.329  36.305  1.00  0.00     0.002 A 
ATOM     70  C   UNL A   1      38.758  32.754  37.196  1.00  0.00     0.091 A 
ATOM     71  F   UNL A   1      38.543  30.604  36.182  1.00  0.00    -0.205 F 
ATOM     72  C   UNL A   1      39.398  34.004  37.243  1.00  0.00     0.022 A 
BRANCH  70  73
ATOM     73  S   UNL A   1      37.458  32.464  38.402  1.00  0.00     0.127 S 
ATOM     74  O   UNL A   1      37.901  33.296  39.520  1.00  0.00    -0.237 OA
ATOM     75  O   UNL A   1      36.272  32.963  37.705  1.00  0.00    -0.237 OA
ATOM     76  O   UNL A   1      37.455  31.030  38.651  1.00  0.00    -0.744 OA
ENDBRANCH  70  73
ENDBRANCH  52  66
BRANCH  53  77
ATOM     77  C   UNL A   1      42.325  26.327  27.481  1.00  0.00     0.023 A 
ATOM     78  C   UNL A   1      43.031  26.894  26.401  1.00  0.00     0.012 A 
ATOM     79  C   UNL A   1      41.998  24.958  27.444  1.00  0.00     0.148 A 
ATOM     80  C   UNL A   1      43.374  26.122  25.291  1.00  0.00     0.002 A 
ATOM     81  C   UNL A   1      42.392  24.181  26.360  1.00  0.00     0.091 A 
ATOM     82  F   UNL A   1      41.315  24.439  28.475  1.00  0.00    -0.205 F 
ATOM     83  C   UNL A   1      43.064  24.764  25.275  1.00  0.00     0.022 A 
BRANCH  81  84
ATOM     84  S   UNL A   1      42.158  22.400  26.321  1.00  0.00     0.127 S 
ATOM     85  O   UNL A   1      42.776  21.989  27.580  1.00  0.00    -0.237 OA
ATOM     86  O   UNL A   1      40.700  22.287  26.283  1.00  0.00    -0.237 OA
ATOM     87  O   UNL A   1      42.824  21.946  25.107  1.00  0.00    -0.744 OA
ENDBRANCH  81  84
ENDBRANCH  53  77
BRANCH  65  88
ATOM     88  C   UNL A   1      44.967  26.998  33.904  1.00  0.00     0.023 A 
ATOM     89  C   UNL A   1      46.276  27.500  33.765  1.00  0.00     0.012 A 
ATOM     90  C   UNL A   1      44.741  25.888  34.742  1.00  0.00     0.148 A 
ATOM     91  C   UNL A   1      47.347  26.882  34.411  1.00  0.00     0.002 A 
ATOM     92  C   UNL A   1      45.806  25.306  35.421  1.00  0.00     0.091 A 
ATOM     93  F   UNL A   1      43.493  25.405  34.846  1.00  0.00    -0.205 F 
ATOM     94  C   UNL A   1      47.111  25.794  35.247  1.00  0.00     0.022 A 
BRANCH  92  95
ATOM     95  S   UNL A   1      45.571  23.961  36.588  1.00  0.00     0.127 S 
ATOM     96  O   UNL A   1      45.026  22.911  35.729  1.00  0.00    -0.237 OA
ATOM     97  O   UNL A   1      46.933  23.713  37.062  1.00  0.00    -0.237 OA
ATOM     98  O   UNL A   1      44.667  24.476  37.607  1.00  0.00    -0.744 OA
ENDBRANCH  92  95
ENDBRANCH  65  88
ENDBRANCH  39  40
ENDBRANCH  31  34
ENDBRANCH  29  30
ENDBRANCH  28  29
ENDBRANCH   1  28
TORSDOF 18
ENDMDL
MODEL 2
REMARK VINA RESULT:     -12.2      2.243      2.673
REMARK SMILES N#C/C(=C/c1cccc(OCC(=O)NCCCNC(=O)c2ccc(-c3c4nc(c(-c5cccc(S(=O)(=O)[O-])c5F)c5ccc([nH]5)c(-c5cccc(S(=O)(=O)[O-])c5F)c5nc(c(-c6cccc(S(=O)(=O)[O-])c6F)c6ccc3[nH]6)C=C5)C=C4)cc2)c1)c1nc2ccccc2[nH]1
REMARK SMILES IDX 15 1 14 2 12 3 13 4 11 6 10 7 9 8 5 9 6 10 84 11 7 12 8 13
REMARK SMILES IDX 4 14 3 15 2 16 1 17 85 18 86 19 93 20 87 21 92 22 88 24
REMARK SMILES IDX 91 25 89 26 90 27 16 28 17 29 18 30 19 31 20 33 21 34 22 35
REMARK SMILES IDX 83 36 23 37 82 38 24 39 25 40 26 41 76 42 27 43 81 44 75 45
REMARK SMILES IDX 77 46 28 47 80 48 74 49 73 50 29 52 61 53 41 54 60 55 42 56
REMARK SMILES IDX 45 57 59 58 78 59 43 60 44 61 58 63 79 64 46 65 30 66 31 67
REMARK SMILES IDX 39 68 32 69 34 70 40 71 33 72 35 73 36 74 37 75 38 76 62 77
REMARK SMILES IDX 63 78 71 79 64 80 66 81 72 82 65 83 67 84 68 85 69 86 70 87
REMARK SMILES IDX 47 88 48 89 56 90 49 91 51 92 57 93 50 94 52 95 53 96 54 97
REMARK SMILES IDX 55 98
REMARK H PARENT 14 5 93 23 18 32 77 51 45 62
REMARK Flexibility Score: inf
ROOT
ATOM      1  C   UNL A   1      31.657  29.365  24.713  1.00  0.00     0.117 C 
ENDROOT
BRANCH   1   2
ATOM      2  N   UNL A   1      31.214  29.649  23.361  1.00  0.00    -0.353 N 
ATOM      3  C   UNL A   1      30.298  28.948  22.621  1.00  0.00     0.257 C 
ATOM      4  O   UNL A   1      29.801  29.456  21.612  1.00  0.00    -0.271 OA
ATOM      5  H   UNL A   1      31.615  30.436  22.927  1.00  0.00     0.163 HD
BRANCH   3   6
ATOM      6  C   UNL A   1      29.860  27.553  23.082  1.00  0.00     0.329 C 
BRANCH   6   7
ATOM      7  O   UNL A   1      30.794  26.504  22.882  1.00  0.00    -0.484 OA
BRANCH   7   8
ATOM      8  C   UNL A   1      31.363  25.934  23.988  1.00  0.00     0.120 A 
ATOM      9  C   UNL A   1      33.188  25.162  25.403  1.00  0.00    -0.021 A 
ATOM     10  C   UNL A   1      32.268  24.814  26.396  1.00  0.00     0.008 A 
ATOM     11  C   UNL A   1      32.725  25.698  24.189  1.00  0.00     0.054 A 
ATOM     12  C   UNL A   1      30.905  25.022  26.188  1.00  0.00     0.004 A 
ATOM     13  C   UNL A   1      30.457  25.581  24.990  1.00  0.00     0.046 A 
BRANCH   9  14
ATOM     14  C   UNL A   1      34.629  24.972  25.644  1.00  0.00     0.031 C 
ATOM     15  C   UNL A   1      35.305  23.814  25.494  1.00  0.00     0.095 C 
BRANCH  15  16
ATOM     16  C   UNL A   1      36.798  23.776  25.776  1.00  0.00     0.103 C 
ATOM     17  N   UNL A   1      38.037  23.744  26.011  1.00  0.00    -0.192 NA
ENDBRANCH  15  16
BRANCH  15  18
ATOM     18  C   UNL A   1      34.684  22.637  24.988  1.00  0.00     0.149 A 
ATOM     19  N   UNL A   1      33.553  22.484  24.329  1.00  0.00    -0.228 NA
ATOM     20  N   UNL A   1      35.286  21.415  25.196  1.00  0.00    -0.337 N 
ATOM     21  C   UNL A   1      33.394  21.134  24.157  1.00  0.00     0.089 A 
ATOM     22  C   UNL A   1      34.462  20.435  24.702  1.00  0.00     0.066 A 
ATOM     23  H   UNL A   1      36.160  21.269  25.627  1.00  0.00     0.168 HD
ATOM     24  C   UNL A   1      32.347  20.425  23.558  1.00  0.00     0.030 A 
ATOM     25  C   UNL A   1      34.540  19.040  24.712  1.00  0.00     0.028 A 
ATOM     26  C   UNL A   1      32.386  19.024  23.572  1.00  0.00     0.002 A 
ATOM     27  C   UNL A   1      33.464  18.346  24.145  1.00  0.00     0.002 A 
ENDBRANCH  15  18
ENDBRANCH   9  14
ENDBRANCH   7   8
ENDBRANCH   6   7
ENDBRANCH   3   6
ENDBRANCH   1   2
BRANCH   1  28
ATOM     28  C   UNL A   1      33.148  29.080  24.873  1.00  0.00     0.042 C 
BRANCH  28  29
ATOM     29  C   UNL A   1      33.772  29.241  26.261  1.00  0.00     0.118 C 
BRANCH  29  30
ATOM     30  N   UNL A   1      33.714  30.571  26.844  1.00  0.00    -0.352 N 
ATOM     31  C   UNL A   1      34.602  31.180  27.702  1.00  0.00     0.251 C 
ATOM     32  H   UNL A   1      32.932  31.112  26.591  1.00  0.00     0.163 HD
ATOM     33  O   UNL A   1      34.370  32.324  28.092  1.00  0.00    -0.269 OA
BRANCH  31  34
ATOM     34  C   UNL A   1      35.805  30.467  28.189  1.00  0.00     0.039 A 
ATOM     35  C   UNL A   1      36.976  30.554  27.428  1.00  0.00     0.014 A 
ATOM     36  C   UNL A   1      35.794  29.704  29.359  1.00  0.00     0.014 A 
ATOM     37  C   UNL A   1      38.149  29.938  27.878  1.00  0.00     0.010 A 
ATOM     38  C   UNL A   1      36.978  29.126  29.830  1.00  0.00     0.010 A 
ATOM     39  C   UNL A   1      38.171  29.247  29.102  1.00  0.00    -0.014 A 
BRANCH  39  40
ATOM     40  C   UNL A   1      39.455  28.734  29.650  1.00  0.00     0.031 A 
ATOM     41  C   UNL A   1      40.101  29.347  30.862  1.00  0.00     0.074 A 
ATOM     42  C   UNL A   1      40.079  27.726  29.005  1.00  0.00     0.049 A 
ATOM     43  N   UNL A   1      41.181  28.970  31.497  1.00  0.00    -0.248 NA
ATOM     44  C   UNL A   1      39.465  30.549  31.424  1.00  0.00     0.031 C 
ATOM     45  C   UNL A   1      39.616  27.109  27.759  1.00  0.00     0.029 A 
ATOM     46  N   UNL A   1      41.240  27.052  29.296  1.00  0.00    -0.354 N 
ATOM     47  C   UNL A   1      41.369  29.893  32.518  1.00  0.00     0.074 A 
ATOM     48  C   UNL A   1      40.306  30.869  32.399  1.00  0.00     0.031 C 
ATOM     49  C   UNL A   1      40.473  26.140  27.402  1.00  0.00     0.029 A 
ATOM     50  C   UNL A   1      41.553  26.073  28.382  1.00  0.00     0.049 A 
ATOM     51  H   UNL A   1      41.794  27.251  30.084  1.00  0.00     0.167 HD
ATOM     52  C   UNL A   1      42.321  29.913  33.485  1.00  0.00     0.034 A 
ATOM     53  C   UNL A   1      42.585  25.208  28.340  1.00  0.00     0.034 A 
ATOM     54  C   UNL A   1      43.363  28.927  33.618  1.00  0.00     0.049 A 
ATOM     55  C   UNL A   1      43.584  25.205  29.464  1.00  0.00     0.074 A 
ATOM     56  C   UNL A   1      44.322  28.815  34.612  1.00  0.00     0.029 A 
ATOM     57  N   UNL A   1      43.593  27.889  32.728  1.00  0.00    -0.354 N 
ATOM     58  N   UNL A   1      43.633  25.968  30.528  1.00  0.00    -0.248 NA
ATOM     59  C   UNL A   1      44.643  24.186  29.408  1.00  0.00     0.031 C 
ATOM     60  C   UNL A   1      45.141  27.720  34.312  1.00  0.00     0.029 A 
ATOM     61  C   UNL A   1      44.678  27.135  33.145  1.00  0.00     0.049 A 
ATOM     62  H   UNL A   1      43.062  27.714  31.917  1.00  0.00     0.167 HD
ATOM     63  C   UNL A   1      44.703  25.502  31.284  1.00  0.00     0.074 A 
ATOM     64  C   UNL A   1      45.257  24.371  30.569  1.00  0.00     0.031 C 
ATOM     65  C   UNL A   1      45.193  25.979  32.456  1.00  0.00     0.034 A 
BRANCH  52  66
ATOM     66  C   UNL A   1      42.245  31.007  34.520  1.00  0.00     0.023 A 
ATOM     67  C   UNL A   1      41.514  30.786  35.707  1.00  0.00     0.012 A 
ATOM     68  C   UNL A   1      42.944  32.220  34.359  1.00  0.00     0.148 A 
ATOM     69  C   UNL A   1      41.450  31.764  36.697  1.00  0.00     0.002 A 
ATOM     70  C   UNL A   1      42.910  33.174  35.371  1.00  0.00     0.091 A 
ATOM     71  F   UNL A   1      43.621  32.422  33.220  1.00  0.00    -0.205 F 
ATOM     72  C   UNL A   1      42.155  32.952  36.535  1.00  0.00     0.022 A 
BRANCH  70  73
ATOM     73  S   UNL A   1      43.848  34.705  35.294  1.00  0.00     0.127 S 
ATOM     74  O   UNL A   1      43.760  35.034  33.872  1.00  0.00    -0.237 OA
ATOM     75  O   UNL A   1      43.076  35.585  36.172  1.00  0.00    -0.237 OA
ATOM     76  O   UNL A   1      45.182  34.382  35.781  1.00  0.00    -0.744 OA
ENDBRANCH  70  73
ENDBRANCH  52  66
BRANCH  53  77
ATOM     77  C   UNL A   1      42.668  24.205  27.241  1.00  0.00     0.023 A 
ATOM     78  C   UNL A   1      43.479  24.473  26.120  1.00  0.00     0.012 A 
ATOM     79  C   UNL A   1      41.978  22.980  27.311  1.00  0.00     0.148 A 
ATOM     80  C   UNL A   1      43.574  23.556  25.074  1.00  0.00     0.002 A 
ATOM     81  C   UNL A   1      42.121  22.046  26.291  1.00  0.00     0.091 A 
ATOM     82  F   UNL A   1      41.201  22.748  28.379  1.00  0.00    -0.205 F 
ATOM     83  C   UNL A   1      42.904  22.339  25.164  1.00  0.00     0.022 A 
BRANCH  81  84
ATOM     84  S   UNL A   1      41.407  20.400  26.390  1.00  0.00     0.127 S 
ATOM     85  O   UNL A   1      41.785  19.991  27.741  1.00  0.00    -0.237 OA
ATOM     86  O   UNL A   1      39.982  20.676  26.206  1.00  0.00    -0.237 OA
ATOM     87  O   UNL A   1      42.015  19.645  25.303  1.00  0.00    -0.744 OA
ENDBRANCH  81  84
ENDBRANCH  53  77
BRANCH  65  88
ATOM     88  C   UNL A   1      46.374  25.261  33.058  1.00  0.00     0.023 A 
ATOM     89  C   UNL A   1      47.683  25.674  32.740  1.00  0.00     0.012 A 
ATOM     90  C   UNL A   1      46.188  24.204  33.971  1.00  0.00     0.148 A 
ATOM     91  C   UNL A   1      48.787  25.019  33.285  1.00  0.00     0.002 A 
ATOM     92  C   UNL A   1      47.292  23.587  34.548  1.00  0.00     0.091 A 
ATOM     93  F   UNL A   1      44.937  23.806  34.247  1.00  0.00    -0.205 F 
ATOM     94  C   UNL A   1      48.592  23.984  34.197  1.00  0.00     0.022 A 
BRANCH  92  95
ATOM     95  S   UNL A   1      47.124  22.311  35.801  1.00  0.00     0.127 S 
ATOM     96  O   UNL A   1      46.496  23.047  36.897  1.00  0.00    -0.237 OA
ATOM     97  O   UNL A   1      46.252  21.336  35.143  1.00  0.00    -0.237 OA
ATOM     98  O   UNL A   1      48.474  21.828  36.055  1.00  0.00    -0.744 OA
ENDBRANCH  92  95
ENDBRANCH  65  88
ENDBRANCH  39  40
ENDBRANCH  31  34
ENDBRANCH  29  30
ENDBRANCH  28  29
ENDBRANCH   1  28
TORSDOF 18
ENDMDL
MODEL 3
REMARK VINA RESULT:     -12.1      2.194      7.867
REMARK SMILES N#C/C(=C/c1cccc(OCC(=O)NCCCNC(=O)c2ccc(-c3c4nc(c(-c5cccc(S(=O)(=O)[O-])c5F)c5ccc([nH]5)c(-c5cccc(S(=O)(=O)[O-])c5F)c5nc(c(-c6cccc(S(=O)(=O)[O-])c6F)c6ccc3[nH]6)C=C5)C=C4)cc2)c1)c1nc2ccccc2[nH]1
REMARK SMILES IDX 15 1 14 2 12 3 13 4 11 6 10 7 9 8 5 9 6 10 84 11 7 12 8 13
REMARK SMILES IDX 4 14 3 15 2 16 1 17 85 18 86 19 93 20 87 21 92 22 88 24
REMARK SMILES IDX 91 25 89 26 90 27 16 28 17 29 18 30 19 31 20 33 21 34 22 35
REMARK SMILES IDX 83 36 23 37 82 38 24 39 25 40 26 41 76 42 27 43 81 44 75 45
REMARK SMILES IDX 77 46 28 47 80 48 74 49 73 50 29 52 61 53 41 54 60 55 42 56
REMARK SMILES IDX 45 57 59 58 78 59 43 60 44 61 58 63 79 64 46 65 30 66 31 67
REMARK SMILES IDX 39 68 32 69 34 70 40 71 33 72 35 73 36 74 37 75 38 76 62 77
REMARK SMILES IDX 63 78 71 79 64 80 66 81 72 82 65 83 67 84 68 85 69 86 70 87
REMARK SMILES IDX 47 88 48 89 56 90 49 91 51 92 57 93 50 94 52 95 53 96 54 97
REMARK SMILES IDX 55 98
REMARK H PARENT 14 5 93 23 18 32 77 51 45 62
REMARK Flexibility Score: inf
ROOT
ATOM      1  C   UNL A   1      31.860  30.343  25.990  1.00  0.00     0.117 C 
ENDROOT
BRANCH   1   2
ATOM      2  N   UNL A   1      31.362  30.037  24.662  1.00  0.00    -0.353 N 
ATOM      3  C   UNL A   1      30.900  28.831  24.205  1.00  0.00     0.257 C 
ATOM      4  O   UNL A   1      30.243  28.776  23.162  1.00  0.00    -0.271 OA
ATOM      5  H   UNL A   1      31.353  30.780  24.017  1.00  0.00     0.163 HD
BRANCH   3   6
ATOM      6  C   UNL A   1      31.163  27.560  25.022  1.00  0.00     0.329 C 
BRANCH   6   7
ATOM      7  O   UNL A   1      31.859  26.518  24.356  1.00  0.00    -0.484 OA
BRANCH   7   8
ATOM      8  C   UNL A   1      32.379  25.508  25.119  1.00  0.00     0.120 A 
ATOM      9  C   UNL A   1      34.123  24.045  25.983  1.00  0.00    -0.021 A 
ATOM     10  C   UNL A   1      33.198  23.458  26.850  1.00  0.00     0.008 A 
ATOM     11  C   UNL A   1      33.700  25.053  25.100  1.00  0.00     0.054 A 
ATOM     12  C   UNL A   1      31.871  23.889  26.852  1.00  0.00     0.004 A 
ATOM     13  C   UNL A   1      31.467  24.910  25.991  1.00  0.00     0.046 A 
BRANCH   9  14
ATOM     14  C   UNL A   1      35.530  23.608  26.012  1.00  0.00     0.031 C 
ATOM     15  C   UNL A   1      35.986  22.402  25.614  1.00  0.00     0.095 C 
BRANCH  15  16
ATOM     16  C   UNL A   1      37.473  22.099  25.699  1.00  0.00     0.103 C 
ATOM     17  N   UNL A   1      38.707  21.848  25.769  1.00  0.00    -0.192 NA
ENDBRANCH  15  16
BRANCH  15  18
ATOM     18  C   UNL A   1      35.132  21.426  25.028  1.00  0.00     0.149 A 
ATOM     19  N   UNL A   1      34.031  21.572  24.317  1.00  0.00    -0.228 NA
ATOM     20  N   UNL A   1      35.416  20.090  25.201  1.00  0.00    -0.337 N 
ATOM     21  C   UNL A   1      33.567  20.306  24.074  1.00  0.00     0.089 A 
ATOM     22  C   UNL A   1      34.410  19.353  24.627  1.00  0.00     0.066 A 
ATOM     23  H   UNL A   1      36.207  19.724  25.660  1.00  0.00     0.168 HD
ATOM     24  C   UNL A   1      32.414  19.890  23.399  1.00  0.00     0.030 A 
ATOM     25  C   UNL A   1      34.156  17.980  24.573  1.00  0.00     0.028 A 
ATOM     26  C   UNL A   1      32.120  18.521  23.347  1.00  0.00     0.002 A 
ATOM     27  C   UNL A   1      32.977  17.584  23.930  1.00  0.00     0.002 A 
ENDBRANCH  15  18
ENDBRANCH   9  14
ENDBRANCH   7   8
ENDBRANCH   6   7
ENDBRANCH   3   6
ENDBRANCH   1   2
BRANCH   1  28
ATOM     28  C   UNL A   1      31.582  31.758  26.490  1.00  0.00     0.042 C 
BRANCH  28  29
ATOM     29  C   UNL A   1      32.645  32.446  27.351  1.00  0.00     0.118 C 
BRANCH  29  30
ATOM     30  N   UNL A   1      32.428  33.854  27.639  1.00  0.00    -0.352 N 
ATOM     31  C   UNL A   1      33.135  34.685  28.478  1.00  0.00     0.251 C 
ATOM     32  H   UNL A   1      31.672  34.272  27.169  1.00  0.00     0.163 HD
ATOM     33  O   UNL A   1      32.788  35.860  28.591  1.00  0.00    -0.269 OA
BRANCH  31  34
ATOM     34  C   UNL A   1      34.278  34.177  29.272  1.00  0.00     0.039 A 
ATOM     35  C   UNL A   1      34.002  33.439  30.427  1.00  0.00     0.014 A 
ATOM     36  C   UNL A   1      35.604  34.432  28.912  1.00  0.00     0.014 A 
ATOM     37  C   UNL A   1      35.051  32.898  31.178  1.00  0.00     0.010 A 
ATOM     38  C   UNL A   1      36.650  33.854  29.639  1.00  0.00     0.010 A 
ATOM     39  C   UNL A   1      36.386  33.069  30.771  1.00  0.00    -0.014 A 
BRANCH  39  40
ATOM     40  C   UNL A   1      37.483  32.360  31.482  1.00  0.00     0.031 A 
ATOM     41  C   UNL A   1      38.233  31.222  30.844  1.00  0.00     0.074 A 
ATOM     42  C   UNL A   1      37.772  32.715  32.750  1.00  0.00     0.049 A 
ATOM     43  N   UNL A   1      39.256  30.550  31.308  1.00  0.00    -0.248 NA
ATOM     44  C   UNL A   1      37.766  30.766  29.526  1.00  0.00     0.031 C 
ATOM     45  C   UNL A   1      37.053  33.731  33.525  1.00  0.00     0.029 A 
ATOM     46  N   UNL A   1      38.732  32.257  33.619  1.00  0.00    -0.354 N 
ATOM     47  C   UNL A   1      39.544  29.581  30.355  1.00  0.00     0.074 A 
ATOM     48  C   UNL A   1      38.566  29.733  29.298  1.00  0.00     0.031 C 
ATOM     49  C   UNL A   1      37.605  33.829  34.743  1.00  0.00     0.029 A 
ATOM     50  C   UNL A   1      38.707  32.877  34.846  1.00  0.00     0.049 A 
ATOM     51  H   UNL A   1      39.376  31.551  33.384  1.00  0.00     0.167 HD
ATOM     52  C   UNL A   1      40.547  28.667  30.345  1.00  0.00     0.034 A 
ATOM     53  C   UNL A   1      39.489  32.711  35.931  1.00  0.00     0.034 A 
ATOM     54  C   UNL A   1      41.535  28.535  31.384  1.00  0.00     0.049 A 
ATOM     55  C   UNL A   1      40.638  31.743  35.863  1.00  0.00     0.074 A 
ATOM     56  C   UNL A   1      42.637  27.696  31.425  1.00  0.00     0.029 A 
ATOM     57  N   UNL A   1      41.537  29.248  32.573  1.00  0.00    -0.354 N 
ATOM     58  N   UNL A   1      41.010  30.970  34.873  1.00  0.00    -0.248 NA
ATOM     59  C   UNL A   1      41.507  31.661  37.046  1.00  0.00     0.031 C 
ATOM     60  C   UNL A   1      43.295  27.892  32.644  1.00  0.00     0.029 A 
ATOM     61  C   UNL A   1      42.617  28.869  33.355  1.00  0.00     0.049 A 
ATOM     62  H   UNL A   1      40.869  29.926  32.825  1.00  0.00     0.167 HD
ATOM     63  C   UNL A   1      42.173  30.337  35.298  1.00  0.00     0.074 A 
ATOM     64  C   UNL A   1      42.459  30.840  36.626  1.00  0.00     0.031 C 
ATOM     65  C   UNL A   1      42.926  29.410  34.654  1.00  0.00     0.034 A 
BRANCH  52  66
ATOM     66  C   UNL A   1      40.667  27.773  29.136  1.00  0.00     0.023 A 
ATOM     67  C   UNL A   1      39.839  26.635  29.034  1.00  0.00     0.012 A 
ATOM     68  C   UNL A   1      41.538  28.087  28.074  1.00  0.00     0.148 A 
ATOM     69  C   UNL A   1      39.901  25.806  27.915  1.00  0.00     0.002 A 
ATOM     70  C   UNL A   1      41.564  27.279  26.942  1.00  0.00     0.091 A 
ATOM     71  F   UNL A   1      42.330  29.163  28.192  1.00  0.00    -0.205 F 
ATOM     72  C   UNL A   1      40.756  26.132  26.867  1.00  0.00     0.022 A 
BRANCH  70  73
ATOM     73  S   UNL A   1      42.571  27.656  25.502  1.00  0.00     0.127 S 
ATOM     74  O   UNL A   1      42.311  26.497  24.649  1.00  0.00    -0.237 OA
ATOM     75  O   UNL A   1      41.977  28.907  25.028  1.00  0.00    -0.237 OA
ATOM     76  O   UNL A   1      43.937  27.782  25.990  1.00  0.00    -0.744 OA
ENDBRANCH  70  73
ENDBRANCH  52  66
BRANCH  53  77
ATOM     77  C   UNL A   1      39.270  33.555  37.140  1.00  0.00     0.023 A 
ATOM     78  C   UNL A   1      39.732  34.886  37.147  1.00  0.00     0.012 A 
ATOM     79  C   UNL A   1      38.582  33.061  38.264  1.00  0.00     0.148 A 
ATOM     80  C   UNL A   1      39.545  35.698  38.265  1.00  0.00     0.002 A 
ATOM     81  C   UNL A   1      38.348  33.894  39.353  1.00  0.00     0.091 A 
ATOM     82  F   UNL A   1      38.160  31.788  38.243  1.00  0.00    -0.205 F 
ATOM     83  C   UNL A   1      38.844  35.206  39.363  1.00  0.00     0.022 A 
BRANCH  81  84
ATOM     84  S   UNL A   1      37.336  33.387  40.748  1.00  0.00     0.127 S 
ATOM     85  O   UNL A   1      37.259  34.622  41.526  1.00  0.00    -0.237 OA
ATOM     86  O   UNL A   1      36.089  32.994  40.091  1.00  0.00    -0.237 OA
ATOM     87  O   UNL A   1      38.055  32.285  41.373  1.00  0.00    -0.744 OA
ENDBRANCH  81  84
ENDBRANCH  53  77
BRANCH  65  88
ATOM     88  C   UNL A   1      44.153  28.897  35.364  1.00  0.00     0.023 A 
ATOM     89  C   UNL A   1      45.408  29.486  35.110  1.00  0.00     0.012 A 
ATOM     90  C   UNL A   1      44.057  27.861  36.313  1.00  0.00     0.148 A 
ATOM     91  C   UNL A   1      46.554  29.022  35.756  1.00  0.00     0.002 A 
ATOM     92  C   UNL A   1      45.196  27.436  36.988  1.00  0.00     0.091 A 
ATOM     93  F   UNL A   1      42.861  27.294  36.527  1.00  0.00    -0.205 F 
ATOM     94  C   UNL A   1      46.447  28.005  36.702  1.00  0.00     0.022 A 
BRANCH  92  95
ATOM     95  S   UNL A   1      45.126  26.197  38.288  1.00  0.00     0.127 S 
ATOM     96  O   UNL A   1      46.433  26.356  38.924  1.00  0.00    -0.237 OA
ATOM     97  O   UNL A   1      43.995  26.652  39.097  1.00  0.00    -0.237 OA
ATOM     98  O   UNL A   1      44.903  24.927  37.610  1.00  0.00    -0.744 OA
ENDBRANCH  92  95
ENDBRANCH  65  88
ENDBRANCH  39  40
ENDBRANCH  31  34
ENDBRANCH  29  30
ENDBRANCH  28  29
ENDBRANCH   1  28
TORSDOF 18
ENDMDL
