MODEL 1
REMARK VINA RESULT:     -13.9      0.000      0.000
REMARK SMILES CC(=O)Nc1ccc(/C=C2/CCc3oc(C(=O)NCCCNC(=O)c4ccc(-c5c6nc(c(-c7cccc(S(=O)(=O)[O-])c7F)c7ccc([nH]7)c(-c7cccc(S(=O)(=O)[O-])c7F)c7nc(c(-c8cccc(S(=O)(=O)[O-])c8F)c8ccc5[nH]8)C=C7)C=C6)cc4)c(C)c3C2=O)cc1
REMARK SMILES IDX 20 1 19 2 18 3 16 4 17 5 15 7 9 8 10 9 11 10 91 11 12 12
REMARK SMILES IDX 90 13 92 14 13 15 88 16 14 17 89 18 8 19 5 20 6 21 94 22
REMARK SMILES IDX 7 23 93 24 4 25 1 26 2 27 3 28 21 30 22 31 23 32 24 34 25 35
REMARK SMILES IDX 26 36 87 37 27 38 86 39 28 40 29 41 30 42 80 43 31 44 85 45
REMARK SMILES IDX 79 46 81 47 32 48 84 49 78 50 77 51 33 53 65 54 45 55 64 56
REMARK SMILES IDX 46 57 49 58 63 59 82 60 47 61 48 62 62 64 83 65 50 66 34 67
REMARK SMILES IDX 35 68 43 69 36 70 38 71 44 72 37 73 39 74 40 75 41 76 42 77
REMARK SMILES IDX 66 78 67 79 75 80 68 81 70 82 76 83 69 84 71 85 72 86 73 87
REMARK SMILES IDX 74 88 51 89 52 90 60 91 53 92 55 93 61 94 54 95 56 96 57 97
REMARK SMILES IDX 58 98 59 99
REMARK H PARENT 18 6 4 29 22 33 81 52 49 63
REMARK Flexibility Score: inf
ROOT
ATOM      1  C   UNL A   1      37.790  19.525  24.987  1.00  0.00     0.042 C 
ENDROOT
BRANCH   1   2
ATOM      2  C   UNL A   1      36.794  20.652  24.689  1.00  0.00     0.118 C 
BRANCH   2   3
ATOM      3  N   UNL A   1      37.335  21.979  24.938  1.00  0.00    -0.349 N 
ATOM      4  C   UNL A   1      36.710  23.153  25.307  1.00  0.00     0.287 C 
ATOM      5  O   UNL A   1      37.444  24.085  25.632  1.00  0.00    -0.266 OA
ATOM      6  H   UNL A   1      38.310  22.053  24.823  1.00  0.00     0.163 HD
BRANCH   4   7
ATOM      7  C   UNL A   1      35.261  23.254  25.331  1.00  0.00     0.195 A 
ATOM      8  C   UNL A   1      30.026  25.248  25.729  1.00  0.00     0.016 C 
ATOM      9  C   UNL A   1      30.797  24.145  25.652  1.00  0.00     0.001 C 
ATOM     10  C   UNL A   1      30.912  23.158  26.808  1.00  0.00     0.048 C 
ATOM     11  C   UNL A   1      31.705  23.803  24.492  1.00  0.00     0.192 C 
ATOM     12  C   UNL A   1      32.334  23.152  27.396  1.00  0.00     0.081 C 
ATOM     13  C   UNL A   1      33.055  23.555  24.964  1.00  0.00     0.067 A 
ATOM     14  O   UNL A   1      31.335  23.709  23.343  1.00  0.00    -0.289 OA
ATOM     15  C   UNL A   1      33.292  23.235  26.276  1.00  0.00     0.116 A 
ATOM     16  C   UNL A   1      34.336  23.586  24.333  1.00  0.00     0.012 A 
ATOM     17  O   UNL A   1      34.593  23.013  26.502  1.00  0.00    -0.455 OA
ATOM     18  C   UNL A   1      34.603  23.954  22.915  1.00  0.00     0.049 C 
BRANCH   8  19
ATOM     19  C   UNL A   1      29.847  26.407  24.825  1.00  0.00    -0.025 A 
ATOM     20  C   UNL A   1      29.681  28.673  23.119  1.00  0.00     0.041 A 
ATOM     21  C   UNL A   1      28.655  27.736  23.162  1.00  0.00     0.027 A 
ATOM     22  C   UNL A   1      30.787  28.493  23.946  1.00  0.00     0.027 A 
ATOM     23  C   UNL A   1      28.760  26.599  23.971  1.00  0.00     0.010 A 
ATOM     24  C   UNL A   1      30.862  27.377  24.795  1.00  0.00     0.010 A 
BRANCH  20  25
ATOM     25  N   UNL A   1      29.497  29.775  22.274  1.00  0.00    -0.326 N 
ATOM     26  C   UNL A   1      27.711  30.967  23.516  1.00  0.00     0.114 C 
ATOM     27  C   UNL A   1      28.560  30.766  22.291  1.00  0.00     0.221 C 
ATOM     28  O   UNL A   1      28.478  31.537  21.333  1.00  0.00    -0.275 OA
ATOM     29  H   UNL A   1      30.154  29.847  21.545  1.00  0.00     0.169 HD
ENDBRANCH  20  25
ENDBRANCH   8  19
ENDBRANCH   4   7
ENDBRANCH   2   3
ENDBRANCH   1   2
BRANCH   1  30
ATOM     30  C   UNL A   1      38.988  20.059  25.755  1.00  0.00     0.118 C 
BRANCH  30  31
ATOM     31  N   UNL A   1      40.073  19.064  25.861  1.00  0.00    -0.352 N 
ATOM     32  C   UNL A   1      41.430  19.263  26.042  1.00  0.00     0.251 C 
ATOM     33  H   UNL A   1      39.790  18.124  25.794  1.00  0.00     0.163 HD
ATOM     34  O   UNL A   1      42.232  18.359  25.831  1.00  0.00    -0.269 OA
BRANCH  32  35
ATOM     35  C   UNL A   1      41.891  20.578  26.512  1.00  0.00     0.039 A 
ATOM     36  C   UNL A   1      42.503  21.516  25.672  1.00  0.00     0.014 A 
ATOM     37  C   UNL A   1      41.655  20.869  27.846  1.00  0.00     0.014 A 
ATOM     38  C   UNL A   1      42.817  22.770  26.192  1.00  0.00     0.010 A 
ATOM     39  C   UNL A   1      41.712  22.157  28.270  1.00  0.00     0.010 A 
ATOM     40  C   UNL A   1      42.411  23.071  27.496  1.00  0.00    -0.014 A 
BRANCH  40  41
ATOM     41  C   UNL A   1      42.614  24.366  28.123  1.00  0.00     0.031 A 
ATOM     42  C   UNL A   1      41.478  25.304  27.918  1.00  0.00     0.074 A 
ATOM     43  C   UNL A   1      43.555  24.491  29.090  1.00  0.00     0.049 A 
ATOM     44  N   UNL A   1      41.474  26.430  27.284  1.00  0.00    -0.248 NA
ATOM     45  C   UNL A   1      40.130  24.841  28.302  1.00  0.00     0.031 C 
ATOM     46  C   UNL A   1      44.437  23.437  29.625  1.00  0.00     0.029 A 
ATOM     47  N   UNL A   1      43.777  25.513  29.956  1.00  0.00    -0.354 N 
ATOM     48  C   UNL A   1      40.180  26.928  27.447  1.00  0.00     0.074 A 
ATOM     49  C   UNL A   1      39.361  25.801  27.787  1.00  0.00     0.031 C 
ATOM     50  C   UNL A   1      44.846  23.779  30.866  1.00  0.00     0.029 A 
ATOM     51  C   UNL A   1      44.388  25.125  31.149  1.00  0.00     0.049 A 
ATOM     52  H   UNL A   1      43.528  26.445  29.760  1.00  0.00     0.167 HD
ATOM     53  C   UNL A   1      39.956  28.259  27.642  1.00  0.00     0.034 A 
ATOM     54  C   UNL A   1      44.418  25.826  32.313  1.00  0.00     0.034 A 
ATOM     55  C   UNL A   1      41.122  29.034  27.291  1.00  0.00     0.049 A 
ATOM     56  C   UNL A   1      44.048  27.225  31.983  1.00  0.00     0.074 A 
ATOM     57  C   UNL A   1      41.927  29.129  26.171  1.00  0.00     0.029 A 
ATOM     58  N   UNL A   1      41.868  29.544  28.330  1.00  0.00    -0.354 N 
ATOM     59  N   UNL A   1      44.769  28.000  31.219  1.00  0.00    -0.248 NA
ATOM     60  C   UNL A   1      42.641  27.580  32.093  1.00  0.00     0.031 C 
ATOM     61  C   UNL A   1      43.256  29.192  26.687  1.00  0.00     0.029 A 
ATOM     62  C   UNL A   1      43.178  29.239  28.080  1.00  0.00     0.049 A 
ATOM     63  H   UNL A   1      41.521  30.039  29.108  1.00  0.00     0.167 HD
ATOM     64  C   UNL A   1      43.840  28.630  30.400  1.00  0.00     0.074 A 
ATOM     65  C   UNL A   1      42.544  28.401  31.042  1.00  0.00     0.031 C 
ATOM     66  C   UNL A   1      44.152  28.996  29.121  1.00  0.00     0.034 A 
BRANCH  53  67
ATOM     67  C   UNL A   1      38.867  28.841  28.530  1.00  0.00     0.023 A 
ATOM     68  C   UNL A   1      38.024  29.814  27.944  1.00  0.00     0.012 A 
ATOM     69  C   UNL A   1      38.789  28.708  29.938  1.00  0.00     0.148 A 
ATOM     70  C   UNL A   1      37.221  30.658  28.718  1.00  0.00     0.002 A 
ATOM     71  C   UNL A   1      37.928  29.493  30.696  1.00  0.00     0.091 A 
ATOM     72  F   UNL A   1      39.636  27.915  30.594  1.00  0.00    -0.205 F 
ATOM     73  C   UNL A   1      37.169  30.497  30.095  1.00  0.00     0.022 A 
BRANCH  71  74
ATOM     74  S   UNL A   1      37.789  29.288  32.478  1.00  0.00     0.127 S 
ATOM     75  O   UNL A   1      39.028  29.908  32.938  1.00  0.00    -0.237 OA
ATOM     76  O   UNL A   1      36.570  30.045  32.769  1.00  0.00    -0.237 OA
ATOM     77  O   UNL A   1      37.667  27.853  32.702  1.00  0.00    -0.744 OA
ENDBRANCH  71  74
ENDBRANCH  53  67
BRANCH  54  78
ATOM     78  C   UNL A   1      44.424  25.328  33.714  1.00  0.00     0.023 A 
ATOM     79  C   UNL A   1      43.221  24.918  34.327  1.00  0.00     0.012 A 
ATOM     80  C   UNL A   1      45.636  25.006  34.368  1.00  0.00     0.148 A 
ATOM     81  C   UNL A   1      43.226  24.203  35.534  1.00  0.00     0.002 A 
ATOM     82  C   UNL A   1      45.636  24.312  35.576  1.00  0.00     0.091 A 
ATOM     83  F   UNL A   1      46.793  25.295  33.759  1.00  0.00    -0.205 F 
ATOM     84  C   UNL A   1      44.433  23.898  36.158  1.00  0.00     0.022 A 
BRANCH  82  85
ATOM     85  S   UNL A   1      47.163  23.888  36.429  1.00  0.00     0.127 S 
ATOM     86  O   UNL A   1      47.755  25.206  36.662  1.00  0.00    -0.237 OA
ATOM     87  O   UNL A   1      46.663  23.219  37.625  1.00  0.00    -0.237 OA
ATOM     88  O   UNL A   1      47.909  23.054  35.496  1.00  0.00    -0.744 OA
ENDBRANCH  82  85
ENDBRANCH  54  78
BRANCH  66  89
ATOM     89  C   UNL A   1      45.590  28.915  28.670  1.00  0.00     0.023 A 
ATOM     90  C   UNL A   1      46.556  29.887  29.009  1.00  0.00     0.012 A 
ATOM     91  C   UNL A   1      46.015  27.719  28.072  1.00  0.00     0.148 A 
ATOM     92  C   UNL A   1      47.913  29.671  28.745  1.00  0.00     0.002 A 
ATOM     93  C   UNL A   1      47.366  27.488  27.855  1.00  0.00     0.091 A 
ATOM     94  F   UNL A   1      45.084  26.805  27.758  1.00  0.00    -0.205 F 
ATOM     95  C   UNL A   1      48.320  28.465  28.182  1.00  0.00     0.022 A 
BRANCH  93  96
ATOM     96  S   UNL A   1      47.955  25.902  27.257  1.00  0.00     0.127 S 
ATOM     97  O   UNL A   1      47.397  24.980  28.243  1.00  0.00    -0.237 OA
ATOM     98  O   UNL A   1      47.346  25.821  25.929  1.00  0.00    -0.237 OA
ATOM     99  O   UNL A   1      49.409  25.997  27.238  1.00  0.00    -0.744 OA
ENDBRANCH  93  96
ENDBRANCH  66  89
ENDBRANCH  40  41
ENDBRANCH  32  35
ENDBRANCH  30  31
ENDBRANCH   1  30
TORSDOF 15
ENDMDL
MODEL 2
REMARK VINA RESULT:     -13.5      1.807      2.082
REMARK SMILES CC(=O)Nc1ccc(/C=C2/CCc3oc(C(=O)NCCCNC(=O)c4ccc(-c5c6nc(c(-c7cccc(S(=O)(=O)[O-])c7F)c7ccc([nH]7)c(-c7cccc(S(=O)(=O)[O-])c7F)c7nc(c(-c8cccc(S(=O)(=O)[O-])c8F)c8ccc5[nH]8)C=C7)C=C6)cc4)c(C)c3C2=O)cc1
REMARK SMILES IDX 20 1 19 2 18 3 16 4 17 5 15 7 9 8 10 9 11 10 91 11 12 12
REMARK SMILES IDX 90 13 92 14 13 15 88 16 14 17 89 18 8 19 5 20 6 21 94 22
REMARK SMILES IDX 7 23 93 24 4 25 1 26 2 27 3 28 21 30 22 31 23 32 24 34 25 35
REMARK SMILES IDX 26 36 87 37 27 38 86 39 28 40 29 41 30 42 80 43 31 44 85 45
REMARK SMILES IDX 79 46 81 47 32 48 84 49 78 50 77 51 33 53 65 54 45 55 64 56
REMARK SMILES IDX 46 57 49 58 63 59 82 60 47 61 48 62 62 64 83 65 50 66 34 67
REMARK SMILES IDX 35 68 43 69 36 70 38 71 44 72 37 73 39 74 40 75 41 76 42 77
REMARK SMILES IDX 66 78 67 79 75 80 68 81 70 82 76 83 69 84 71 85 72 86 73 87
REMARK SMILES IDX 74 88 51 89 52 90 60 91 53 92 55 93 61 94 54 95 56 96 57 97
REMARK SMILES IDX 58 98 59 99
REMARK H PARENT 18 6 4 29 22 33 81 52 49 63
REMARK Flexibility Score: inf
ROOT
ATOM      1  C   UNL A   1      37.709  19.717  24.909  1.00  0.00     0.042 C 
ENDROOT
BRANCH   1   2
ATOM      2  C   UNL A   1      36.614  20.789  24.970  1.00  0.00     0.118 C 
BRANCH   2   3
ATOM      3  N   UNL A   1      37.122  22.116  25.280  1.00  0.00    -0.349 N 
ATOM      4  C   UNL A   1      36.462  23.278  25.620  1.00  0.00     0.287 C 
ATOM      5  O   UNL A   1      37.160  24.210  26.014  1.00  0.00    -0.266 OA
ATOM      6  H   UNL A   1      38.102  22.199  25.239  1.00  0.00     0.163 HD
BRANCH   4   7
ATOM      7  C   UNL A   1      35.014  23.368  25.538  1.00  0.00     0.195 A 
ATOM      8  C   UNL A   1      29.745  25.310  25.586  1.00  0.00     0.016 C 
ATOM      9  C   UNL A   1      30.529  24.216  25.543  1.00  0.00     0.001 C 
ATOM     10  C   UNL A   1      30.568  23.204  26.684  1.00  0.00     0.048 C 
ATOM     11  C   UNL A   1      31.525  23.906  24.448  1.00  0.00     0.192 C 
ATOM     12  C   UNL A   1      31.942  23.197  27.376  1.00  0.00     0.081 C 
ATOM     13  C   UNL A   1      32.838  23.658  25.014  1.00  0.00     0.067 A 
ATOM     14  O   UNL A   1      31.242  23.834  23.273  1.00  0.00    -0.289 OA
ATOM     15  C   UNL A   1      32.980  23.312  26.332  1.00  0.00     0.116 A 
ATOM     16  C   UNL A   1      34.162  23.714  24.481  1.00  0.00     0.012 A 
ATOM     17  O   UNL A   1      34.262  23.096  26.651  1.00  0.00    -0.455 OA
ATOM     18  C   UNL A   1      34.531  24.115  23.095  1.00  0.00     0.049 C 
BRANCH   8  19
ATOM     19  C   UNL A   1      29.622  26.487  24.697  1.00  0.00    -0.025 A 
ATOM     20  C   UNL A   1      29.568  28.775  23.013  1.00  0.00     0.041 A 
ATOM     21  C   UNL A   1      28.482  27.911  23.077  1.00  0.00     0.027 A 
ATOM     22  C   UNL A   1      30.681  28.512  23.808  1.00  0.00     0.027 A 
ATOM     23  C   UNL A   1      28.529  26.762  23.874  1.00  0.00     0.010 A 
ATOM     24  C   UNL A   1      30.701  27.386  24.647  1.00  0.00     0.010 A 
BRANCH  20  25
ATOM     25  N   UNL A   1      29.438  29.896  22.182  1.00  0.00    -0.326 N 
ATOM     26  C   UNL A   1      27.840  31.236  23.523  1.00  0.00     0.114 C 
ATOM     27  C   UNL A   1      28.598  30.967  22.253  1.00  0.00     0.221 C 
ATOM     28  O   UNL A   1      28.533  31.750  21.302  1.00  0.00    -0.275 OA
ATOM     29  H   UNL A   1      30.058  29.912  21.418  1.00  0.00     0.169 HD
ENDBRANCH  20  25
ENDBRANCH   8  19
ENDBRANCH   4   7
ENDBRANCH   2   3
ENDBRANCH   1   2
BRANCH   1  30
ATOM     30  C   UNL A   1      39.040  20.288  25.373  1.00  0.00     0.118 C 
BRANCH  30  31
ATOM     31  N   UNL A   1      40.027  19.231  25.671  1.00  0.00    -0.352 N 
ATOM     32  C   UNL A   1      41.357  19.351  26.031  1.00  0.00     0.251 C 
ATOM     33  H   UNL A   1      39.689  18.309  25.604  1.00  0.00     0.163 HD
ATOM     34  O   UNL A   1      42.114  18.387  25.972  1.00  0.00    -0.269 OA
BRANCH  32  35
ATOM     35  C   UNL A   1      41.842  20.656  26.506  1.00  0.00     0.039 A 
ATOM     36  C   UNL A   1      42.531  21.557  25.686  1.00  0.00     0.014 A 
ATOM     37  C   UNL A   1      41.549  20.975  27.822  1.00  0.00     0.014 A 
ATOM     38  C   UNL A   1      42.865  22.807  26.204  1.00  0.00     0.010 A 
ATOM     39  C   UNL A   1      41.632  22.268  28.230  1.00  0.00     0.010 A 
ATOM     40  C   UNL A   1      42.403  23.143  27.481  1.00  0.00    -0.014 A 
BRANCH  40  41
ATOM     41  C   UNL A   1      42.622  24.440  28.099  1.00  0.00     0.031 A 
ATOM     42  C   UNL A   1      41.499  25.391  27.885  1.00  0.00     0.074 A 
ATOM     43  C   UNL A   1      43.562  24.559  29.067  1.00  0.00     0.049 A 
ATOM     44  N   UNL A   1      41.511  26.512  27.243  1.00  0.00    -0.248 NA
ATOM     45  C   UNL A   1      40.144  24.948  28.269  1.00  0.00     0.031 C 
ATOM     46  C   UNL A   1      44.429  23.497  29.613  1.00  0.00     0.029 A 
ATOM     47  N   UNL A   1      43.795  25.584  29.927  1.00  0.00    -0.354 N 
ATOM     48  C   UNL A   1      40.224  27.029  27.400  1.00  0.00     0.074 A 
ATOM     49  C   UNL A   1      39.389  25.915  27.745  1.00  0.00     0.031 C 
ATOM     50  C   UNL A   1      44.840  23.843  30.851  1.00  0.00     0.029 A 
ATOM     51  C   UNL A   1      44.399  25.196  31.125  1.00  0.00     0.049 A 
ATOM     52  H   UNL A   1      43.559  26.517  29.724  1.00  0.00     0.167 HD
ATOM     53  C   UNL A   1      40.016  28.364  27.584  1.00  0.00     0.034 A 
ATOM     54  C   UNL A   1      44.435  25.905  32.284  1.00  0.00     0.034 A 
ATOM     55  C   UNL A   1      41.194  29.121  27.232  1.00  0.00     0.049 A 
ATOM     56  C   UNL A   1      44.085  27.306  31.943  1.00  0.00     0.074 A 
ATOM     57  C   UNL A   1      42.003  29.198  26.113  1.00  0.00     0.029 A 
ATOM     58  N   UNL A   1      41.943  29.629  28.268  1.00  0.00    -0.354 N 
ATOM     59  N   UNL A   1      44.817  28.067  31.176  1.00  0.00    -0.248 NA
ATOM     60  C   UNL A   1      42.682  27.680  32.047  1.00  0.00     0.031 C 
ATOM     61  C   UNL A   1      43.330  29.247  26.632  1.00  0.00     0.029 A 
ATOM     62  C   UNL A   1      43.250  29.304  28.024  1.00  0.00     0.049 A 
ATOM     63  H   UNL A   1      41.602  30.133  29.042  1.00  0.00     0.167 HD
ATOM     64  C   UNL A   1      43.898  28.703  30.350  1.00  0.00     0.074 A 
ATOM     65  C   UNL A   1      42.598  28.495  30.991  1.00  0.00     0.031 C 
ATOM     66  C   UNL A   1      44.218  29.056  29.069  1.00  0.00     0.034 A 
BRANCH  53  67
ATOM     67  C   UNL A   1      38.933  28.966  28.466  1.00  0.00     0.023 A 
ATOM     68  C   UNL A   1      38.876  28.505  29.802  1.00  0.00     0.012 A 
ATOM     69  C   UNL A   1      37.825  29.723  28.014  1.00  0.00     0.148 A 
ATOM     70  C   UNL A   1      37.752  28.712  30.608  1.00  0.00     0.002 A 
ATOM     71  C   UNL A   1      36.744  29.997  28.846  1.00  0.00     0.091 A 
ATOM     72  F   UNL A   1      37.724  30.087  26.736  1.00  0.00    -0.205 F 
ATOM     73  C   UNL A   1      36.684  29.462  30.131  1.00  0.00     0.022 A 
BRANCH  71  74
ATOM     74  S   UNL A   1      35.360  31.004  28.291  1.00  0.00     0.127 S 
ATOM     75  O   UNL A   1      34.564  30.024  27.559  1.00  0.00    -0.237 OA
ATOM     76  O   UNL A   1      34.787  31.446  29.562  1.00  0.00    -0.237 OA
ATOM     77  O   UNL A   1      35.946  32.077  27.496  1.00  0.00    -0.744 OA
ENDBRANCH  71  74
ENDBRANCH  53  67
BRANCH  54  78
ATOM     78  C   UNL A   1      44.431  25.416  33.688  1.00  0.00     0.023 A 
ATOM     79  C   UNL A   1      43.219  25.321  34.403  1.00  0.00     0.012 A 
ATOM     80  C   UNL A   1      45.573  24.798  34.248  1.00  0.00     0.148 A 
ATOM     81  C   UNL A   1      43.144  24.623  35.618  1.00  0.00     0.002 A 
ATOM     82  C   UNL A   1      45.498  24.122  35.464  1.00  0.00     0.091 A 
ATOM     83  F   UNL A   1      46.711  24.788  33.542  1.00  0.00    -0.205 F 
ATOM     84  C   UNL A   1      44.282  24.022  36.148  1.00  0.00     0.022 A 
BRANCH  82  85
ATOM     85  S   UNL A   1      46.935  23.325  36.198  1.00  0.00     0.127 S 
ATOM     86  O   UNL A   1      47.928  24.400  36.164  1.00  0.00    -0.237 OA
ATOM     87  O   UNL A   1      46.443  22.985  37.529  1.00  0.00    -0.237 OA
ATOM     88  O   UNL A   1      47.242  22.199  35.325  1.00  0.00    -0.744 OA
ENDBRANCH  82  85
ENDBRANCH  54  78
BRANCH  66  89
ATOM     89  C   UNL A   1      45.656  28.953  28.622  1.00  0.00     0.023 A 
ATOM     90  C   UNL A   1      46.266  27.728  28.276  1.00  0.00     0.012 A 
ATOM     91  C   UNL A   1      46.336  30.150  28.345  1.00  0.00     0.148 A 
ATOM     92  C   UNL A   1      47.529  27.701  27.676  1.00  0.00     0.002 A 
ATOM     93  C   UNL A   1      47.568  30.121  27.707  1.00  0.00     0.091 A 
ATOM     94  F   UNL A   1      45.742  31.305  28.679  1.00  0.00    -0.205 F 
ATOM     95  C   UNL A   1      48.174  28.898  27.377  1.00  0.00     0.022 A 
BRANCH  93  96
ATOM     96  S   UNL A   1      48.378  31.633  27.181  1.00  0.00     0.127 S 
ATOM     97  O   UNL A   1      47.363  32.238  26.322  1.00  0.00    -0.237 OA
ATOM     98  O   UNL A   1      48.602  32.327  28.449  1.00  0.00    -0.237 OA
ATOM     99  O   UNL A   1      49.603  31.216  26.508  1.00  0.00    -0.744 OA
ENDBRANCH  93  96
ENDBRANCH  66  89
ENDBRANCH  40  41
ENDBRANCH  32  35
ENDBRANCH  30  31
ENDBRANCH   1  30
TORSDOF 15
ENDMDL
MODEL 3
REMARK VINA RESULT:     -13.3      1.748      2.124
REMARK SMILES CC(=O)Nc1ccc(/C=C2/CCc3oc(C(=O)NCCCNC(=O)c4ccc(-c5c6nc(c(-c7cccc(S(=O)(=O)[O-])c7F)c7ccc([nH]7)c(-c7cccc(S(=O)(=O)[O-])c7F)c7nc(c(-c8cccc(S(=O)(=O)[O-])c8F)c8ccc5[nH]8)C=C7)C=C6)cc4)c(C)c3C2=O)cc1
REMARK SMILES IDX 20 1 19 2 18 3 16 4 17 5 15 7 9 8 10 9 11 10 91 11 12 12
REMARK SMILES IDX 90 13 92 14 13 15 88 16 14 17 89 18 8 19 5 20 6 21 94 22
REMARK SMILES IDX 7 23 93 24 4 25 1 26 2 27 3 28 21 30 22 31 23 32 24 34 25 35
REMARK SMILES IDX 26 36 87 37 27 38 86 39 28 40 29 41 30 42 80 43 31 44 85 45
REMARK SMILES IDX 79 46 81 47 32 48 84 49 78 50 77 51 33 53 65 54 45 55 64 56
REMARK SMILES IDX 46 57 49 58 63 59 82 60 47 61 48 62 62 64 83 65 50 66 34 67
REMARK SMILES IDX 35 68 43 69 36 70 38 71 44 72 37 73 39 74 40 75 41 76 42 77
REMARK SMILES IDX 66 78 67 79 75 80 68 81 70 82 76 83 69 84 71 85 72 86 73 87
REMARK SMILES IDX 74 88 51 89 52 90 60 91 53 92 55 93 61 94 54 95 56 96 57 97
REMARK SMILES IDX 58 98 59 99
REMARK H PARENT 18 6 4 29 22 33 81 52 49 63
REMARK Flexibility Score: inf
ROOT
ATOM      1  C   UNL A   1      37.913  19.702  24.993  1.00  0.00     0.042 C 
ENDROOT
BRANCH   1   2
ATOM      2  C   UNL A   1      36.963  20.848  24.627  1.00  0.00     0.118 C 
BRANCH   2   3
ATOM      3  N   UNL A   1      37.465  22.158  25.009  1.00  0.00    -0.349 N 
ATOM      4  C   UNL A   1      36.803  23.281  25.461  1.00  0.00     0.287 C 
ATOM      5  O   UNL A   1      37.505  24.195  25.890  1.00  0.00    -0.266 OA
ATOM      6  H   UNL A   1      38.441  22.261  24.931  1.00  0.00     0.163 HD
BRANCH   4   7
ATOM      7  C   UNL A   1      35.352  23.351  25.449  1.00  0.00     0.195 A 
ATOM      8  C   UNL A   1      30.066  25.231  25.702  1.00  0.00     0.016 C 
ATOM      9  C   UNL A   1      30.862  24.145  25.654  1.00  0.00     0.001 C 
ATOM     10  C   UNL A   1      30.971  23.170  26.822  1.00  0.00     0.048 C 
ATOM     11  C   UNL A   1      31.806  23.813  24.520  1.00  0.00     0.192 C 
ATOM     12  C   UNL A   1      32.378  23.201  27.443  1.00  0.00     0.081 C 
ATOM     13  C   UNL A   1      33.150  23.599  25.026  1.00  0.00     0.067 A 
ATOM     14  O   UNL A   1      31.466  23.701  23.362  1.00  0.00    -0.289 OA
ATOM     15  C   UNL A   1      33.362  23.295  26.346  1.00  0.00     0.116 A 
ATOM     16  C   UNL A   1      34.444  23.654  24.426  1.00  0.00     0.012 A 
ATOM     17  O   UNL A   1      34.661  23.105  26.606  1.00  0.00    -0.455 OA
ATOM     18  C   UNL A   1      34.737  24.016  23.011  1.00  0.00     0.049 C 
BRANCH   8  19
ATOM     19  C   UNL A   1      29.884  26.378  24.784  1.00  0.00    -0.025 A 
ATOM     20  C   UNL A   1      29.712  28.618  23.045  1.00  0.00     0.041 A 
ATOM     21  C   UNL A   1      28.671  27.703  23.133  1.00  0.00     0.027 A 
ATOM     22  C   UNL A   1      30.838  28.430  23.843  1.00  0.00     0.027 A 
ATOM     23  C   UNL A   1      28.776  26.577  23.958  1.00  0.00     0.010 A 
ATOM     24  C   UNL A   1      30.916  27.328  24.709  1.00  0.00     0.010 A 
BRANCH  20  25
ATOM     25  N   UNL A   1      29.525  29.710  22.187  1.00  0.00    -0.326 N 
ATOM     26  C   UNL A   1      28.126  31.155  23.638  1.00  0.00     0.114 C 
ATOM     27  C   UNL A   1      28.731  30.812  22.305  1.00  0.00     0.221 C 
ATOM     28  O   UNL A   1      28.585  31.559  21.335  1.00  0.00    -0.275 OA
ATOM     29  H   UNL A   1      30.057  29.676  21.360  1.00  0.00     0.169 HD
ENDBRANCH  20  25
ENDBRANCH   8  19
ENDBRANCH   4   7
ENDBRANCH   2   3
ENDBRANCH   1   2
BRANCH   1  30
ATOM     30  C   UNL A   1      39.035  20.204  25.887  1.00  0.00     0.118 C 
BRANCH  30  31
ATOM     31  N   UNL A   1      40.131  19.223  26.013  1.00  0.00    -0.352 N 
ATOM     32  C   UNL A   1      41.487  19.441  26.177  1.00  0.00     0.251 C 
ATOM     33  H   UNL A   1      39.857  18.279  25.975  1.00  0.00     0.163 HD
ATOM     34  O   UNL A   1      42.297  18.539  25.985  1.00  0.00    -0.269 OA
BRANCH  32  35
ATOM     35  C   UNL A   1      41.938  20.774  26.605  1.00  0.00     0.039 A 
ATOM     36  C   UNL A   1      42.478  21.716  25.723  1.00  0.00     0.014 A 
ATOM     37  C   UNL A   1      41.769  21.075  27.948  1.00  0.00     0.014 A 
ATOM     38  C   UNL A   1      42.787  22.985  26.210  1.00  0.00     0.010 A 
ATOM     39  C   UNL A   1      41.815  22.370  28.353  1.00  0.00     0.010 A 
ATOM     40  C   UNL A   1      42.445  23.292  27.531  1.00  0.00    -0.014 A 
BRANCH  40  41
ATOM     41  C   UNL A   1      42.649  24.600  28.131  1.00  0.00     0.031 A 
ATOM     42  C   UNL A   1      41.520  25.538  27.892  1.00  0.00     0.074 A 
ATOM     43  C   UNL A   1      43.579  24.741  29.105  1.00  0.00     0.049 A 
ATOM     44  N   UNL A   1      41.529  26.650  27.233  1.00  0.00    -0.248 NA
ATOM     45  C   UNL A   1      40.165  25.091  28.271  1.00  0.00     0.031 C 
ATOM     46  C   UNL A   1      44.449  23.695  29.674  1.00  0.00     0.029 A 
ATOM     47  N   UNL A   1      43.796  25.782  29.950  1.00  0.00    -0.354 N 
ATOM     48  C   UNL A   1      40.236  27.158  27.370  1.00  0.00     0.074 A 
ATOM     49  C   UNL A   1      39.407  26.043  27.726  1.00  0.00     0.031 C 
ATOM     50  C   UNL A   1      44.847  24.064  30.911  1.00  0.00     0.029 A 
ATOM     51  C   UNL A   1      44.393  25.418  31.159  1.00  0.00     0.049 A 
ATOM     52  H   UNL A   1      43.555  26.710  29.731  1.00  0.00     0.167 HD
ATOM     53  C   UNL A   1      40.016  28.494  27.532  1.00  0.00     0.034 A 
ATOM     54  C   UNL A   1      44.413  26.145  32.307  1.00  0.00     0.034 A 
ATOM     55  C   UNL A   1      41.191  29.255  27.178  1.00  0.00     0.049 A 
ATOM     56  C   UNL A   1      44.055  27.537  31.942  1.00  0.00     0.074 A 
ATOM     57  C   UNL A   1      42.008  29.321  26.065  1.00  0.00     0.029 A 
ATOM     58  N   UNL A   1      41.927  29.785  28.212  1.00  0.00    -0.354 N 
ATOM     59  N   UNL A   1      44.788  28.292  31.169  1.00  0.00    -0.248 NA
ATOM     60  C   UNL A   1      42.648  27.902  32.028  1.00  0.00     0.031 C 
ATOM     61  C   UNL A   1      43.331  29.389  26.594  1.00  0.00     0.029 A 
ATOM     62  C   UNL A   1      43.239  29.467  27.984  1.00  0.00     0.049 A 
ATOM     63  H   UNL A   1      41.574  30.298  28.975  1.00  0.00     0.167 HD
ATOM     64  C   UNL A   1      43.871  28.908  30.325  1.00  0.00     0.074 A 
ATOM     65  C   UNL A   1      42.567  28.699  30.958  1.00  0.00     0.031 C 
ATOM     66  C   UNL A   1      44.200  29.243  29.042  1.00  0.00     0.034 A 
BRANCH  53  67
ATOM     67  C   UNL A   1      38.920  29.101  28.395  1.00  0.00     0.023 A 
ATOM     68  C   UNL A   1      38.857  28.663  29.738  1.00  0.00     0.012 A 
ATOM     69  C   UNL A   1      37.809  29.840  27.921  1.00  0.00     0.148 A 
ATOM     70  C   UNL A   1      37.724  28.873  30.531  1.00  0.00     0.002 A 
ATOM     71  C   UNL A   1      36.719  30.118  28.740  1.00  0.00     0.091 A 
ATOM     72  F   UNL A   1      37.715  30.180  26.636  1.00  0.00    -0.205 F 
ATOM     73  C   UNL A   1      36.654  29.604  30.034  1.00  0.00     0.022 A 
BRANCH  71  74
ATOM     74  S   UNL A   1      35.331  31.102  28.156  1.00  0.00     0.127 S 
ATOM     75  O   UNL A   1      36.016  32.229  27.531  1.00  0.00    -0.237 OA
ATOM     76  O   UNL A   1      34.681  30.177  27.227  1.00  0.00    -0.237 OA
ATOM     77  O   UNL A   1      34.539  31.409  29.341  1.00  0.00    -0.744 OA
ENDBRANCH  71  74
ENDBRANCH  53  67
BRANCH  54  78
ATOM     78  C   UNL A   1      44.401  25.678  33.719  1.00  0.00     0.023 A 
ATOM     79  C   UNL A   1      45.593  25.234  34.330  1.00  0.00     0.012 A 
ATOM     80  C   UNL A   1      43.283  25.906  34.553  1.00  0.00     0.148 A 
ATOM     81  C   UNL A   1      45.672  25.043  35.717  1.00  0.00     0.002 A 
ATOM     82  C   UNL A   1      43.360  25.698  35.928  1.00  0.00     0.091 A 
ATOM     83  F   UNL A   1      42.171  26.423  34.013  1.00  0.00    -0.205 F 
ATOM     84  C   UNL A   1      44.557  25.276  36.517  1.00  0.00     0.022 A 
BRANCH  82  85
ATOM     85  S   UNL A   1      41.953  25.983  37.013  1.00  0.00     0.127 S 
ATOM     86  O   UNL A   1      41.187  24.747  36.847  1.00  0.00    -0.237 OA
ATOM     87  O   UNL A   1      42.601  26.134  38.313  1.00  0.00    -0.237 OA
ATOM     88  O   UNL A   1      41.293  27.171  36.488  1.00  0.00    -0.744 OA
ENDBRANCH  82  85
ENDBRANCH  54  78
BRANCH  66  89
ATOM     89  C   UNL A   1      45.642  29.145  28.609  1.00  0.00     0.023 A 
ATOM     90  C   UNL A   1      46.605  30.128  28.921  1.00  0.00     0.012 A 
ATOM     91  C   UNL A   1      46.072  27.927  28.060  1.00  0.00     0.148 A 
ATOM     92  C   UNL A   1      47.964  29.902  28.679  1.00  0.00     0.002 A 
ATOM     93  C   UNL A   1      47.425  27.687  27.866  1.00  0.00     0.091 A 
ATOM     94  F   UNL A   1      45.144  27.002  27.772  1.00  0.00    -0.205 F 
ATOM     95  C   UNL A   1      48.377  28.675  28.166  1.00  0.00     0.022 A 
BRANCH  93  96
ATOM     96  S   UNL A   1      48.019  26.080  27.334  1.00  0.00     0.127 S 
ATOM     97  O   UNL A   1      49.466  26.237  27.450  1.00  0.00    -0.237 OA
ATOM     98  O   UNL A   1      47.418  25.181  28.320  1.00  0.00    -0.237 OA
ATOM     99  O   UNL A   1      47.513  25.896  25.979  1.00  0.00    -0.744 OA
ENDBRANCH  93  96
ENDBRANCH  66  89
ENDBRANCH  40  41
ENDBRANCH  32  35
ENDBRANCH  30  31
ENDBRANCH   1  30
TORSDOF 15
ENDMDL
