MODEL 1
REMARK VINA RESULT:     -12.1      0.000      0.000
REMARK SMILES O=C(NCCCNC(=O)c1ccccc1C[N@H+]1CCCC[C@@H]1CCn1cccn1)c1ccc(-c2c3nc(c(-c4cccc(S(=O)(=O)[O-])c4F)c4ccc([nH]4)c(-c4cccc(S(=O)(=O)[O-])c4F)c4nc(c(-c5cccc(S(=O)(=O)[O-])c5F)c5ccc2[nH]5)C=C4)C=C3)cc1
REMARK SMILES IDX 6 1 5 2 4 3 3 4 1 5 2 6 30 8 31 9 92 10 32 11 91 12 33 13
REMARK SMILES IDX 34 14 35 15 85 16 36 17 90 18 84 19 86 20 37 21 89 22 83 23
REMARK SMILES IDX 82 24 38 26 70 27 50 28 69 29 51 30 54 31 68 32 87 33 52 34
REMARK SMILES IDX 53 35 67 37 88 38 55 39 39 40 40 41 48 42 41 43 43 44 49 45
REMARK SMILES IDX 42 46 44 47 45 48 46 49 47 50 71 51 72 52 80 53 73 54 75 55
REMARK SMILES IDX 81 56 74 57 76 58 77 59 78 60 79 61 56 62 57 63 65 64 58 65
REMARK SMILES IDX 60 66 66 67 59 68 61 69 62 70 63 71 64 72 7 73 8 74 9 76
REMARK SMILES IDX 10 77 11 78 15 79 12 80 14 81 13 82 16 83 17 84 18 85 22 86
REMARK SMILES IDX 19 88 21 89 20 90 23 91 24 92 25 93 26 94 29 95 27 96 28 97
REMARK H PARENT 3 7 86 25 54 36 7 75 17 87
REMARK Flexibility Score: inf
ROOT
ATOM      1  C   UNL A   1      31.745  30.132  25.929  1.00  0.00     0.118 C 
ENDROOT
BRANCH   1   2
ATOM      2  C   UNL A   1      32.589  29.857  27.162  1.00  0.00     0.042 C 
BRANCH   2   3
ATOM      3  C   UNL A   1      33.964  30.525  27.181  1.00  0.00     0.118 C 
BRANCH   3   4
ATOM      4  N   UNL A   1      34.189  31.457  28.268  1.00  0.00    -0.352 N 
ATOM      5  O   UNL A   1      35.113  32.830  29.720  1.00  0.00    -0.269 OA
ATOM      6  C   UNL A   1      35.274  31.831  29.013  1.00  0.00     0.251 C 
ATOM      7  H   UNL A   1      33.369  31.934  28.531  1.00  0.00     0.163 HD
BRANCH   6   8
ATOM      8  C   UNL A   1      36.573  31.106  29.071  1.00  0.00     0.039 A 
ATOM      9  C   UNL A   1      36.746  29.743  28.837  1.00  0.00     0.014 A 
ATOM     10  C   UNL A   1      37.696  31.864  29.454  1.00  0.00     0.014 A 
ATOM     11  C   UNL A   1      37.973  29.128  29.072  1.00  0.00     0.010 A 
ATOM     12  C   UNL A   1      38.937  31.263  29.654  1.00  0.00     0.010 A 
ATOM     13  C   UNL A   1      39.063  29.884  29.499  1.00  0.00    -0.014 A 
BRANCH  13  14
ATOM     14  C   UNL A   1      40.346  29.198  29.648  1.00  0.00     0.031 A 
ATOM     15  C   UNL A   1      40.770  28.908  31.050  1.00  0.00     0.074 A 
ATOM     16  C   UNL A   1      41.038  28.696  28.605  1.00  0.00     0.049 A 
ATOM     17  N   UNL A   1      41.882  29.211  31.642  1.00  0.00    -0.248 NA
ATOM     18  C   UNL A   1      39.787  28.250  31.926  1.00  0.00     0.031 C 
ATOM     19  C   UNL A   1      40.593  28.606  27.212  1.00  0.00     0.029 A 
ATOM     20  N   UNL A   1      42.219  28.009  28.608  1.00  0.00    -0.354 N 
ATOM     21  C   UNL A   1      41.821  28.600  32.897  1.00  0.00     0.074 A 
ATOM     22  C   UNL A   1      40.466  28.149  33.067  1.00  0.00     0.031 C 
ATOM     23  C   UNL A   1      41.349  27.688  26.572  1.00  0.00     0.029 A 
ATOM     24  C   UNL A   1      42.396  27.231  27.469  1.00  0.00     0.049 A 
ATOM     25  H   UNL A   1      42.877  28.061  29.338  1.00  0.00     0.167 HD
ATOM     26  C   UNL A   1      42.936  28.318  33.626  1.00  0.00     0.034 A 
ATOM     27  C   UNL A   1      43.273  26.212  27.309  1.00  0.00     0.034 A 
ATOM     28  C   UNL A   1      44.073  29.088  33.202  1.00  0.00     0.049 A 
ATOM     29  C   UNL A   1      44.323  26.336  28.341  1.00  0.00     0.074 A 
ATOM     30  C   UNL A   1      44.380  30.430  33.102  1.00  0.00     0.029 A 
ATOM     31  N   UNL A   1      45.063  28.427  32.520  1.00  0.00    -0.354 N 
ATOM     32  N   UNL A   1      45.222  27.279  28.366  1.00  0.00    -0.248 NA
ATOM     33  C   UNL A   1      44.186  25.569  29.567  1.00  0.00     0.031 C 
ATOM     34  C   UNL A   1      45.270  30.526  31.992  1.00  0.00     0.029 A 
ATOM     35  C   UNL A   1      45.455  29.236  31.491  1.00  0.00     0.049 A 
ATOM     36  H   UNL A   1      45.423  27.536  32.732  1.00  0.00     0.167 HD
ATOM     37  C   UNL A   1      45.452  27.506  29.714  1.00  0.00     0.074 A 
ATOM     38  C   UNL A   1      44.905  26.335  30.391  1.00  0.00     0.031 C 
ATOM     39  C   UNL A   1      45.796  28.746  30.174  1.00  0.00     0.034 A 
BRANCH  26  40
ATOM     40  C   UNL A   1      43.110  27.093  34.508  1.00  0.00     0.023 A 
ATOM     41  C   UNL A   1      43.137  27.301  35.908  1.00  0.00     0.012 A 
ATOM     42  C   UNL A   1      43.539  25.829  34.045  1.00  0.00     0.148 A 
ATOM     43  C   UNL A   1      43.642  26.337  36.789  1.00  0.00     0.002 A 
ATOM     44  C   UNL A   1      43.963  24.844  34.935  1.00  0.00     0.091 A 
ATOM     45  F   UNL A   1      43.672  25.597  32.737  1.00  0.00    -0.205 F 
ATOM     46  C   UNL A   1      44.052  25.104  36.301  1.00  0.00     0.022 A 
BRANCH  44  47
ATOM     47  S   UNL A   1      44.434  23.214  34.341  1.00  0.00     0.127 S 
ATOM     48  O   UNL A   1      43.269  22.857  33.525  1.00  0.00    -0.237 OA
ATOM     49  O   UNL A   1      45.650  23.509  33.573  1.00  0.00    -0.237 OA
ATOM     50  O   UNL A   1      44.662  22.428  35.533  1.00  0.00    -0.744 OA
ENDBRANCH  44  47
ENDBRANCH  26  40
BRANCH  27  51
ATOM     51  C   UNL A   1      43.148  25.005  26.463  1.00  0.00     0.023 A 
ATOM     52  C   UNL A   1      44.108  24.747  25.466  1.00  0.00     0.012 A 
ATOM     53  C   UNL A   1      42.229  23.980  26.785  1.00  0.00     0.148 A 
ATOM     54  C   UNL A   1      44.162  23.505  24.823  1.00  0.00     0.002 A 
ATOM     55  C   UNL A   1      42.273  22.755  26.129  1.00  0.00     0.091 A 
ATOM     56  F   UNL A   1      41.371  24.175  27.797  1.00  0.00    -0.205 F 
ATOM     57  C   UNL A   1      43.247  22.509  25.155  1.00  0.00     0.022 A 
BRANCH  55  58
ATOM     58  S   UNL A   1      41.117  21.431  26.506  1.00  0.00     0.127 S 
ATOM     59  O   UNL A   1      41.643  20.328  25.700  1.00  0.00    -0.237 OA
ATOM     60  O   UNL A   1      41.295  21.273  27.947  1.00  0.00    -0.237 OA
ATOM     61  O   UNL A   1      39.811  21.912  26.074  1.00  0.00    -0.744 OA
ENDBRANCH  55  58
ENDBRANCH  27  51
BRANCH  39  62
ATOM     62  C   UNL A   1      46.236  29.786  29.175  1.00  0.00     0.023 A 
ATOM     63  C   UNL A   1      47.586  29.914  28.787  1.00  0.00     0.012 A 
ATOM     64  C   UNL A   1      45.257  30.517  28.478  1.00  0.00     0.148 A 
ATOM     65  C   UNL A   1      47.955  30.772  27.750  1.00  0.00     0.002 A 
ATOM     66  C   UNL A   1      45.624  31.333  27.414  1.00  0.00     0.091 A 
ATOM     67  F   UNL A   1      43.975  30.379  28.850  1.00  0.00    -0.205 F 
ATOM     68  C   UNL A   1      46.973  31.472  27.055  1.00  0.00     0.022 A 
BRANCH  66  69
ATOM     69  S   UNL A   1      44.395  32.147  26.389  1.00  0.00     0.127 S 
ATOM     70  O   UNL A   1      43.473  31.055  26.087  1.00  0.00    -0.237 OA
ATOM     71  O   UNL A   1      43.856  33.168  27.290  1.00  0.00    -0.237 OA
ATOM     72  O   UNL A   1      45.125  32.691  25.251  1.00  0.00    -0.744 OA
ENDBRANCH  66  69
ENDBRANCH  39  62
ENDBRANCH  13  14
ENDBRANCH   6   8
ENDBRANCH   3   4
ENDBRANCH   2   3
ENDBRANCH   1   2
BRANCH   1  73
ATOM     73  N   UNL A   1      32.392  29.799  24.669  1.00  0.00    -0.352 N 
ATOM     74  C   UNL A   1      31.858  29.219  23.543  1.00  0.00     0.251 C 
ATOM     75  H   UNL A   1      33.349  30.022  24.615  1.00  0.00     0.163 HD
ATOM     76  O   UNL A   1      32.553  29.044  22.546  1.00  0.00    -0.269 OA
BRANCH  74  77
ATOM     77  C   UNL A   1      30.464  28.718  23.559  1.00  0.00     0.048 A 
ATOM     78  C   UNL A   1      29.484  29.657  23.187  1.00  0.00     0.014 A 
ATOM     79  C   UNL A   1      30.114  27.389  23.867  1.00  0.00     0.019 A 
ATOM     80  C   UNL A   1      28.159  29.266  23.026  1.00  0.00     0.001 A 
ATOM     81  C   UNL A   1      28.788  27.010  23.600  1.00  0.00     0.010 A 
ATOM     82  C   UNL A   1      27.819  27.932  23.200  1.00  0.00     0.001 A 
BRANCH  79  83
ATOM     83  C   UNL A   1      31.113  26.378  24.410  1.00  0.00     0.300 C 
BRANCH  83  84
ATOM     84  N   UNL A   1      31.526  25.265  23.528  1.00  0.00    -0.329 N 
ATOM     85  C   UNL A   1      32.517  25.736  22.543  1.00  0.00     0.262 C 
ATOM     86  C   UNL A   1      31.924  24.002  24.187  1.00  0.00     0.186 C 
ATOM     87  H   UNL A   1      30.674  24.983  23.045  1.00  0.00     0.348 HD
ATOM     88  C   UNL A   1      32.802  24.692  21.470  1.00  0.00     0.062 C 
ATOM     89  C   UNL A   1      32.190  22.923  23.111  1.00  0.00     0.065 C 
ATOM     90  C   UNL A   1      33.232  23.377  22.096  1.00  0.00     0.012 C 
BRANCH  86  91
ATOM     91  C   UNL A   1      30.867  23.466  25.193  1.00  0.00     0.088 C 
BRANCH  91  92
ATOM     92  C   UNL A   1      31.402  23.186  26.605  1.00  0.00     0.150 C 
BRANCH  92  93
ATOM     93  N   UNL A   1      32.769  22.695  26.621  1.00  0.00    -0.273 N 
ATOM     94  C   UNL A   1      33.199  21.430  26.330  1.00  0.00     0.108 A 
ATOM     95  N   UNL A   1      33.776  23.536  26.915  1.00  0.00    -0.182 NA
ATOM     96  C   UNL A   1      34.571  21.462  26.420  1.00  0.00     0.042 A 
ATOM     97  C   UNL A   1      34.871  22.780  26.808  1.00  0.00     0.135 A 
ENDBRANCH  92  93
ENDBRANCH  91  92
ENDBRANCH  86  91
ENDBRANCH  83  84
ENDBRANCH  79  83
ENDBRANCH  74  77
ENDBRANCH   1  73
TORSDOF 18
ENDMDL
MODEL 2
REMARK VINA RESULT:     -12.0      1.937      2.763
REMARK SMILES O=C(NCCCNC(=O)c1ccccc1C[N@H+]1CCCC[C@@H]1CCn1cccn1)c1ccc(-c2c3nc(c(-c4cccc(S(=O)(=O)[O-])c4F)c4ccc([nH]4)c(-c4cccc(S(=O)(=O)[O-])c4F)c4nc(c(-c5cccc(S(=O)(=O)[O-])c5F)c5ccc2[nH]5)C=C4)C=C3)cc1
REMARK SMILES IDX 6 1 5 2 4 3 3 4 1 5 2 6 30 8 31 9 92 10 32 11 91 12 33 13
REMARK SMILES IDX 34 14 35 15 85 16 36 17 90 18 84 19 86 20 37 21 89 22 83 23
REMARK SMILES IDX 82 24 38 26 70 27 50 28 69 29 51 30 54 31 68 32 87 33 52 34
REMARK SMILES IDX 53 35 67 37 88 38 55 39 39 40 40 41 48 42 41 43 43 44 49 45
REMARK SMILES IDX 42 46 44 47 45 48 46 49 47 50 71 51 72 52 80 53 73 54 75 55
REMARK SMILES IDX 81 56 74 57 76 58 77 59 78 60 79 61 56 62 57 63 65 64 58 65
REMARK SMILES IDX 60 66 66 67 59 68 61 69 62 70 63 71 64 72 7 73 8 74 9 76
REMARK SMILES IDX 10 77 11 78 15 79 12 80 14 81 13 82 16 83 17 84 18 85 22 86
REMARK SMILES IDX 19 88 21 89 20 90 23 91 24 92 25 93 26 94 29 95 27 96 28 97
REMARK H PARENT 3 7 86 25 54 36 7 75 17 87
REMARK Flexibility Score: inf
ROOT
ATOM      1  C   UNL A   1      33.242  28.480  26.510  1.00  0.00     0.118 C 
ENDROOT
BRANCH   1   2
ATOM      2  C   UNL A   1      34.310  29.212  27.304  1.00  0.00     0.042 C 
BRANCH   2   3
ATOM      3  C   UNL A   1      34.213  30.737  27.288  1.00  0.00     0.118 C 
BRANCH   3   4
ATOM      4  N   UNL A   1      34.146  31.372  28.590  1.00  0.00    -0.352 N 
ATOM      5  O   UNL A   1      34.647  32.410  30.465  1.00  0.00    -0.269 OA
ATOM      6  C   UNL A   1      35.051  31.656  29.576  1.00  0.00     0.251 C 
ATOM      7  H   UNL A   1      33.235  31.670  28.817  1.00  0.00     0.163 HD
BRANCH   6   8
ATOM      8  C   UNL A   1      36.424  31.089  29.677  1.00  0.00     0.039 A 
ATOM      9  C   UNL A   1      37.605  31.789  29.436  1.00  0.00     0.014 A 
ATOM     10  C   UNL A   1      36.514  29.718  29.985  1.00  0.00     0.014 A 
ATOM     11  C   UNL A   1      38.831  31.131  29.401  1.00  0.00     0.010 A 
ATOM     12  C   UNL A   1      37.741  29.059  29.990  1.00  0.00     0.010 A 
ATOM     13  C   UNL A   1      38.897  29.762  29.658  1.00  0.00    -0.014 A 
BRANCH  13  14
ATOM     14  C   UNL A   1      40.222  29.143  29.691  1.00  0.00     0.031 A 
ATOM     15  C   UNL A   1      40.830  28.979  31.045  1.00  0.00     0.074 A 
ATOM     16  C   UNL A   1      40.803  28.591  28.607  1.00  0.00     0.049 A 
ATOM     17  N   UNL A   1      41.990  29.373  31.468  1.00  0.00    -0.248 NA
ATOM     18  C   UNL A   1      39.997  28.351  32.083  1.00  0.00     0.031 C 
ATOM     19  C   UNL A   1      40.196  28.376  27.291  1.00  0.00     0.029 A 
ATOM     20  N   UNL A   1      42.010  27.956  28.508  1.00  0.00    -0.354 N 
ATOM     21  C   UNL A   1      42.116  28.858  32.761  1.00  0.00     0.074 A 
ATOM     22  C   UNL A   1      40.817  28.366  33.132  1.00  0.00     0.031 C 
ATOM     23  C   UNL A   1      40.912  27.444  26.627  1.00  0.00     0.029 A 
ATOM     24  C   UNL A   1      42.084  27.101  27.415  1.00  0.00     0.049 A 
ATOM     25  H   UNL A   1      42.749  28.091  29.143  1.00  0.00     0.167 HD
ATOM     26  C   UNL A   1      43.325  28.679  33.360  1.00  0.00     0.034 A 
ATOM     27  C   UNL A   1      42.984  26.109  27.217  1.00  0.00     0.034 A 
ATOM     28  C   UNL A   1      44.361  29.461  32.741  1.00  0.00     0.049 A 
ATOM     29  C   UNL A   1      44.146  26.355  28.096  1.00  0.00     0.074 A 
ATOM     30  C   UNL A   1      44.585  30.802  32.507  1.00  0.00     0.029 A 
ATOM     31  N   UNL A   1      45.291  28.790  31.988  1.00  0.00    -0.354 N 
ATOM     32  N   UNL A   1      44.992  27.334  27.939  1.00  0.00    -0.248 NA
ATOM     33  C   UNL A   1      44.200  25.680  29.381  1.00  0.00     0.031 C 
ATOM     34  C   UNL A   1      45.325  30.849  31.289  1.00  0.00     0.029 A 
ATOM     35  C   UNL A   1      45.511  29.534  30.862  1.00  0.00     0.049 A 
ATOM     36  H   UNL A   1      45.719  27.933  32.215  1.00  0.00     0.167 HD
ATOM     37  C   UNL A   1      45.376  27.673  29.228  1.00  0.00     0.074 A 
ATOM     38  C   UNL A   1      44.976  26.536  30.050  1.00  0.00     0.031 C 
ATOM     39  C   UNL A   1      45.711  28.958  29.550  1.00  0.00     0.034 A 
BRANCH  26  40
ATOM     40  C   UNL A   1      43.668  27.534  34.297  1.00  0.00     0.023 A 
ATOM     41  C   UNL A   1      44.211  27.870  35.561  1.00  0.00     0.012 A 
ATOM     42  C   UNL A   1      43.769  26.181  33.904  1.00  0.00     0.148 A 
ATOM     43  C   UNL A   1      44.889  26.932  36.348  1.00  0.00     0.002 A 
ATOM     44  C   UNL A   1      44.373  25.235  34.729  1.00  0.00     0.091 A 
ATOM     45  F   UNL A   1      43.405  25.805  32.674  1.00  0.00    -0.205 F 
ATOM     46  C   UNL A   1      44.967  25.611  35.933  1.00  0.00     0.022 A 
BRANCH  44  47
ATOM     47  S   UNL A   1      44.427  23.503  34.251  1.00  0.00     0.127 S 
ATOM     48  O   UNL A   1      45.118  22.908  35.400  1.00  0.00    -0.237 OA
ATOM     49  O   UNL A   1      43.001  23.168  34.156  1.00  0.00    -0.237 OA
ATOM     50  O   UNL A   1      45.127  23.480  32.986  1.00  0.00    -0.744 OA
ENDBRANCH  44  47
ENDBRANCH  26  40
BRANCH  27  51
ATOM     51  C   UNL A   1      42.817  24.836  26.482  1.00  0.00     0.023 A 
ATOM     52  C   UNL A   1      43.756  24.467  25.501  1.00  0.00     0.012 A 
ATOM     53  C   UNL A   1      41.876  23.869  26.903  1.00  0.00     0.148 A 
ATOM     54  C   UNL A   1      43.769  23.173  24.968  1.00  0.00     0.002 A 
ATOM     55  C   UNL A   1      41.880  22.590  26.357  1.00  0.00     0.091 A 
ATOM     56  F   UNL A   1      41.038  24.175  27.904  1.00  0.00    -0.205 F 
ATOM     57  C   UNL A   1      42.834  22.234  25.397  1.00  0.00     0.022 A 
BRANCH  55  58
ATOM     58  S   UNL A   1      40.696  21.335  26.862  1.00  0.00     0.127 S 
ATOM     59  O   UNL A   1      39.425  21.926  26.437  1.00  0.00    -0.237 OA
ATOM     60  O   UNL A   1      41.124  20.180  26.078  1.00  0.00    -0.237 OA
ATOM     61  O   UNL A   1      40.841  21.215  28.307  1.00  0.00    -0.744 OA
ENDBRANCH  55  58
ENDBRANCH  27  51
BRANCH  39  62
ATOM     62  C   UNL A   1      45.971  29.935  28.432  1.00  0.00     0.023 A 
ATOM     63  C   UNL A   1      44.920  30.634  27.802  1.00  0.00     0.012 A 
ATOM     64  C   UNL A   1      47.298  30.295  28.139  1.00  0.00     0.148 A 
ATOM     65  C   UNL A   1      45.186  31.646  26.879  1.00  0.00     0.002 A 
ATOM     66  C   UNL A   1      47.558  31.338  27.256  1.00  0.00     0.091 A 
ATOM     67  F   UNL A   1      48.289  29.630  28.753  1.00  0.00    -0.205 F 
ATOM     68  C   UNL A   1      46.504  32.008  26.615  1.00  0.00     0.022 A 
BRANCH  66  69
ATOM     69  S   UNL A   1      49.225  31.944  26.985  1.00  0.00     0.127 S 
ATOM     70  O   UNL A   1      49.652  32.289  28.340  1.00  0.00    -0.237 OA
ATOM     71  O   UNL A   1      49.899  30.777  26.412  1.00  0.00    -0.237 OA
ATOM     72  O   UNL A   1      49.095  33.063  26.060  1.00  0.00    -0.744 OA
ENDBRANCH  66  69
ENDBRANCH  39  62
ENDBRANCH  13  14
ENDBRANCH   6   8
ENDBRANCH   3   4
ENDBRANCH   2   3
ENDBRANCH   1   2
BRANCH   1  73
ATOM     73  N   UNL A   1      33.743  27.760  25.349  1.00  0.00    -0.352 N 
ATOM     74  C   UNL A   1      33.317  26.567  24.815  1.00  0.00     0.251 C 
ATOM     75  H   UNL A   1      34.494  28.188  24.879  1.00  0.00     0.163 HD
ATOM     76  O   UNL A   1      33.840  26.121  23.796  1.00  0.00    -0.269 OA
BRANCH  74  77
ATOM     77  C   UNL A   1      32.287  25.767  25.517  1.00  0.00     0.048 A 
ATOM     78  C   UNL A   1      30.966  26.228  25.371  1.00  0.00     0.014 A 
ATOM     79  C   UNL A   1      32.568  24.594  26.243  1.00  0.00     0.019 A 
ATOM     80  C   UNL A   1      29.900  25.482  25.864  1.00  0.00     0.001 A 
ATOM     81  C   UNL A   1      31.465  23.820  26.640  1.00  0.00     0.010 A 
ATOM     82  C   UNL A   1      30.150  24.259  26.468  1.00  0.00     0.001 A 
BRANCH  79  83
ATOM     83  C   UNL A   1      33.986  24.133  26.550  1.00  0.00     0.300 C 
BRANCH  83  84
ATOM     84  N   UNL A   1      34.681  23.303  25.542  1.00  0.00    -0.329 N 
ATOM     85  C   UNL A   1      35.867  24.010  25.029  1.00  0.00     0.262 C 
ATOM     86  C   UNL A   1      34.961  21.899  25.912  1.00  0.00     0.186 C 
ATOM     87  H   UNL A   1      34.004  23.183  24.789  1.00  0.00     0.348 HD
ATOM     88  C   UNL A   1      36.486  23.301  23.828  1.00  0.00     0.062 C 
ATOM     89  C   UNL A   1      35.563  21.157  24.695  1.00  0.00     0.065 C 
ATOM     90  C   UNL A   1      36.808  21.856  24.163  1.00  0.00     0.012 C 
BRANCH  86  91
ATOM     91  C   UNL A   1      33.708  21.124  26.409  1.00  0.00     0.088 C 
BRANCH  91  92
ATOM     92  C   UNL A   1      32.671  20.807  25.321  1.00  0.00     0.150 C 
BRANCH  92  93
ATOM     93  N   UNL A   1      32.695  19.423  24.880  1.00  0.00    -0.273 N 
ATOM     94  C   UNL A   1      32.773  18.305  25.662  1.00  0.00     0.108 A 
ATOM     95  N   UNL A   1      32.601  19.140  23.568  1.00  0.00    -0.182 NA
ATOM     96  C   UNL A   1      32.702  17.233  24.805  1.00  0.00     0.042 A 
ATOM     97  C   UNL A   1      32.621  17.806  23.523  1.00  0.00     0.135 A 
ENDBRANCH  92  93
ENDBRANCH  91  92
ENDBRANCH  86  91
ENDBRANCH  83  84
ENDBRANCH  79  83
ENDBRANCH  74  77
ENDBRANCH   1  73
TORSDOF 18
ENDMDL
MODEL 3
REMARK VINA RESULT:     -11.8      1.535      2.193
REMARK SMILES O=C(NCCCNC(=O)c1ccccc1C[N@H+]1CCCC[C@@H]1CCn1cccn1)c1ccc(-c2c3nc(c(-c4cccc(S(=O)(=O)[O-])c4F)c4ccc([nH]4)c(-c4cccc(S(=O)(=O)[O-])c4F)c4nc(c(-c5cccc(S(=O)(=O)[O-])c5F)c5ccc2[nH]5)C=C4)C=C3)cc1
REMARK SMILES IDX 6 1 5 2 4 3 3 4 1 5 2 6 30 8 31 9 92 10 32 11 91 12 33 13
REMARK SMILES IDX 34 14 35 15 85 16 36 17 90 18 84 19 86 20 37 21 89 22 83 23
REMARK SMILES IDX 82 24 38 26 70 27 50 28 69 29 51 30 54 31 68 32 87 33 52 34
REMARK SMILES IDX 53 35 67 37 88 38 55 39 39 40 40 41 48 42 41 43 43 44 49 45
REMARK SMILES IDX 42 46 44 47 45 48 46 49 47 50 71 51 72 52 80 53 73 54 75 55
REMARK SMILES IDX 81 56 74 57 76 58 77 59 78 60 79 61 56 62 57 63 65 64 58 65
REMARK SMILES IDX 60 66 66 67 59 68 61 69 62 70 63 71 64 72 7 73 8 74 9 76
REMARK SMILES IDX 10 77 11 78 15 79 12 80 14 81 13 82 16 83 17 84 18 85 22 86
REMARK SMILES IDX 19 88 21 89 20 90 23 91 24 92 25 93 26 94 29 95 27 96 28 97
REMARK H PARENT 3 7 86 25 54 36 7 75 17 87
REMARK Flexibility Score: inf
ROOT
ATOM      1  C   UNL A   1      32.146  30.168  25.789  1.00  0.00     0.118 C 
ENDROOT
BRANCH   1   2
ATOM      2  C   UNL A   1      32.946  29.897  27.051  1.00  0.00     0.042 C 
BRANCH   2   3
ATOM      3  C   UNL A   1      34.091  30.871  27.327  1.00  0.00     0.118 C 
BRANCH   3   4
ATOM      4  N   UNL A   1      34.044  31.540  28.612  1.00  0.00    -0.352 N 
ATOM      5  O   UNL A   1      34.577  32.621  30.455  1.00  0.00    -0.269 OA
ATOM      6  C   UNL A   1      34.963  31.838  29.582  1.00  0.00     0.251 C 
ATOM      7  H   UNL A   1      33.140  31.856  28.840  1.00  0.00     0.163 HD
BRANCH   6   8
ATOM      8  C   UNL A   1      36.329  31.256  29.686  1.00  0.00     0.039 A 
ATOM      9  C   UNL A   1      37.519  31.979  29.631  1.00  0.00     0.014 A 
ATOM     10  C   UNL A   1      36.406  29.854  29.787  1.00  0.00     0.014 A 
ATOM     11  C   UNL A   1      38.749  31.328  29.577  1.00  0.00     0.010 A 
ATOM     12  C   UNL A   1      37.634  29.196  29.773  1.00  0.00     0.010 A 
ATOM     13  C   UNL A   1      38.805  29.936  29.627  1.00  0.00    -0.014 A 
BRANCH  13  14
ATOM     14  C   UNL A   1      40.128  29.313  29.652  1.00  0.00     0.031 A 
ATOM     15  C   UNL A   1      40.747  29.155  31.002  1.00  0.00     0.074 A 
ATOM     16  C   UNL A   1      40.699  28.753  28.566  1.00  0.00     0.049 A 
ATOM     17  N   UNL A   1      41.912  29.548  31.412  1.00  0.00    -0.248 NA
ATOM     18  C   UNL A   1      39.922  28.536  32.051  1.00  0.00     0.031 C 
ATOM     19  C   UNL A   1      40.079  28.532  27.258  1.00  0.00     0.029 A 
ATOM     20  N   UNL A   1      41.902  28.114  28.461  1.00  0.00    -0.354 N 
ATOM     21  C   UNL A   1      42.048  29.040  32.707  1.00  0.00     0.074 A 
ATOM     22  C   UNL A   1      40.750  28.555  33.093  1.00  0.00     0.031 C 
ATOM     23  C   UNL A   1      40.786  27.593  26.593  1.00  0.00     0.029 A 
ATOM     24  C   UNL A   1      41.964  27.251  27.372  1.00  0.00     0.049 A 
ATOM     25  H   UNL A   1      42.647  28.249  29.089  1.00  0.00     0.167 HD
ATOM     26  C   UNL A   1      43.262  28.860  33.297  1.00  0.00     0.034 A 
ATOM     27  C   UNL A   1      42.859  26.256  27.173  1.00  0.00     0.034 A 
ATOM     28  C   UNL A   1      44.294  29.635  32.665  1.00  0.00     0.049 A 
ATOM     29  C   UNL A   1      44.030  26.503  28.040  1.00  0.00     0.074 A 
ATOM     30  C   UNL A   1      44.520  30.975  32.421  1.00  0.00     0.029 A 
ATOM     31  N   UNL A   1      45.216  28.958  31.908  1.00  0.00    -0.354 N 
ATOM     32  N   UNL A   1      44.878  27.478  27.870  1.00  0.00    -0.248 NA
ATOM     33  C   UNL A   1      44.093  25.836  29.329  1.00  0.00     0.031 C 
ATOM     34  C   UNL A   1      45.250  31.012  31.196  1.00  0.00     0.029 A 
ATOM     35  C   UNL A   1      45.429  29.694  30.776  1.00  0.00     0.049 A 
ATOM     36  H   UNL A   1      45.643  28.101  32.136  1.00  0.00     0.167 HD
ATOM     37  C   UNL A   1      45.273  27.824  29.154  1.00  0.00     0.074 A 
ATOM     38  C   UNL A   1      44.877  26.693  29.986  1.00  0.00     0.031 C 
ATOM     39  C   UNL A   1      45.615  29.109  29.466  1.00  0.00     0.034 A 
BRANCH  26  40
ATOM     40  C   UNL A   1      43.609  27.720  34.238  1.00  0.00     0.023 A 
ATOM     41  C   UNL A   1      44.169  28.062  35.493  1.00  0.00     0.012 A 
ATOM     42  C   UNL A   1      43.697  26.364  33.853  1.00  0.00     0.148 A 
ATOM     43  C   UNL A   1      44.851  27.126  36.279  1.00  0.00     0.002 A 
ATOM     44  C   UNL A   1      44.306  25.420  34.678  1.00  0.00     0.091 A 
ATOM     45  F   UNL A   1      43.316  25.982  32.631  1.00  0.00    -0.205 F 
ATOM     46  C   UNL A   1      44.916  25.800  35.872  1.00  0.00     0.022 A 
BRANCH  44  47
ATOM     47  S   UNL A   1      44.344  23.685  34.211  1.00  0.00     0.127 S 
ATOM     48  O   UNL A   1      45.262  23.136  35.215  1.00  0.00    -0.237 OA
ATOM     49  O   UNL A   1      42.941  23.291  34.387  1.00  0.00    -0.237 OA
ATOM     50  O   UNL A   1      44.795  23.671  32.838  1.00  0.00    -0.744 OA
ENDBRANCH  44  47
ENDBRANCH  26  40
BRANCH  27  51
ATOM     51  C   UNL A   1      42.682  24.979  26.447  1.00  0.00     0.023 A 
ATOM     52  C   UNL A   1      43.594  24.616  25.438  1.00  0.00     0.012 A 
ATOM     53  C   UNL A   1      41.764  24.004  26.900  1.00  0.00     0.148 A 
ATOM     54  C   UNL A   1      43.603  23.320  24.909  1.00  0.00     0.002 A 
ATOM     55  C   UNL A   1      41.764  22.723  26.357  1.00  0.00     0.091 A 
ATOM     56  F   UNL A   1      40.955  24.304  27.925  1.00  0.00    -0.205 F 
ATOM     57  C   UNL A   1      42.691  22.374  25.369  1.00  0.00     0.022 A 
BRANCH  55  58
ATOM     58  S   UNL A   1      40.608  21.459  26.902  1.00  0.00     0.127 S 
ATOM     59  O   UNL A   1      39.322  22.020  26.484  1.00  0.00    -0.237 OA
ATOM     60  O   UNL A   1      41.046  20.296  26.135  1.00  0.00    -0.237 OA
ATOM     61  O   UNL A   1      40.775  21.369  28.347  1.00  0.00    -0.744 OA
ENDBRANCH  55  58
ENDBRANCH  27  51
BRANCH  39  62
ATOM     62  C   UNL A   1      45.868  30.079  28.339  1.00  0.00     0.023 A 
ATOM     63  C   UNL A   1      44.809  30.719  27.662  1.00  0.00     0.012 A 
ATOM     64  C   UNL A   1      47.187  30.495  28.084  1.00  0.00     0.148 A 
ATOM     65  C   UNL A   1      45.060  31.727  26.730  1.00  0.00     0.002 A 
ATOM     66  C   UNL A   1      47.429  31.534  27.192  1.00  0.00     0.091 A 
ATOM     67  F   UNL A   1      48.186  29.887  28.743  1.00  0.00    -0.205 F 
ATOM     68  C   UNL A   1      46.369  32.144  26.505  1.00  0.00     0.022 A 
BRANCH  66  69
ATOM     69  S   UNL A   1      49.076  32.213  26.967  1.00  0.00     0.127 S 
ATOM     70  O   UNL A   1      49.826  31.051  26.495  1.00  0.00    -0.237 OA
ATOM     71  O   UNL A   1      48.857  33.249  25.955  1.00  0.00    -0.237 OA
ATOM     72  O   UNL A   1      49.472  32.735  28.269  1.00  0.00    -0.744 OA
ENDBRANCH  66  69
ENDBRANCH  39  62
ENDBRANCH  13  14
ENDBRANCH   6   8
ENDBRANCH   3   4
ENDBRANCH   2   3
ENDBRANCH   1   2
BRANCH   1  73
ATOM     73  N   UNL A   1      32.772  29.691  24.565  1.00  0.00    -0.352 N 
ATOM     74  C   UNL A   1      32.276  28.837  23.609  1.00  0.00     0.251 C 
ATOM     75  H   UNL A   1      33.681  30.030  24.397  1.00  0.00     0.163 HD
ATOM     76  O   UNL A   1      32.939  28.571  22.610  1.00  0.00    -0.269 OA
BRANCH  74  77
ATOM     77  C   UNL A   1      30.976  28.160  23.824  1.00  0.00     0.048 A 
ATOM     78  C   UNL A   1      29.881  28.736  23.156  1.00  0.00     0.014 A 
ATOM     79  C   UNL A   1      30.821  26.990  24.593  1.00  0.00     0.019 A 
ATOM     80  C   UNL A   1      28.639  28.109  23.166  1.00  0.00     0.001 A 
ATOM     81  C   UNL A   1      29.582  26.335  24.500  1.00  0.00     0.010 A 
ATOM     82  C   UNL A   1      28.501  26.889  23.811  1.00  0.00     0.001 A 
BRANCH  79  83
ATOM     83  C   UNL A   1      31.939  26.411  25.448  1.00  0.00     0.300 C 
BRANCH  83  84
ATOM     84  N   UNL A   1      32.084  24.939  25.500  1.00  0.00    -0.329 N 
ATOM     85  C   UNL A   1      31.345  24.395  26.652  1.00  0.00     0.262 C 
ATOM     86  C   UNL A   1      31.825  24.198  24.246  1.00  0.00     0.186 C 
ATOM     87  H   UNL A   1      33.082  24.778  25.628  1.00  0.00     0.348 HD
ATOM     88  C   UNL A   1      31.648  22.918  26.884  1.00  0.00     0.062 C 
ATOM     89  C   UNL A   1      32.154  22.702  24.456  1.00  0.00     0.065 C 
ATOM     90  C   UNL A   1      31.381  22.109  25.627  1.00  0.00     0.012 C 
BRANCH  86  91
ATOM     91  C   UNL A   1      32.635  24.730  23.030  1.00  0.00     0.088 C 
BRANCH  91  92
ATOM     92  C   UNL A   1      34.021  25.295  23.374  1.00  0.00     0.150 C 
BRANCH  92  93
ATOM     93  N   UNL A   1      34.988  24.276  23.745  1.00  0.00    -0.273 N 
ATOM     94  C   UNL A   1      35.544  24.070  24.977  1.00  0.00     0.108 A 
ATOM     95  N   UNL A   1      35.400  23.382  22.828  1.00  0.00    -0.182 NA
ATOM     96  C   UNL A   1      36.347  22.960  24.853  1.00  0.00     0.042 A 
ATOM     97  C   UNL A   1      36.239  22.592  23.501  1.00  0.00     0.135 A 
ENDBRANCH  92  93
ENDBRANCH  91  92
ENDBRANCH  86  91
ENDBRANCH  83  84
ENDBRANCH  79  83
ENDBRANCH  74  77
ENDBRANCH   1  73
TORSDOF 18
ENDMDL
