MODEL 1
REMARK VINA RESULT:     -12.0      0.000      0.000
REMARK SMILES O=C(NCCCNC(=O)[C@@H]1[C@H](C(=O)NCc2ccncc2)[C@H]2C=C[C@@H]1O2)c1ccc(-c2c3nc(c(-c4cccc(S(=O)(=O)[O-])c4F)c4ccc([nH]4)c(-c4cccc(S(=O)(=O)[O-])c4F)c4nc(c(-c5cccc(S(=O)(=O)[O-])c5F)c5ccc2[nH]5)C=C4)C=C3)cc1
REMARK SMILES IDX 5 1 4 2 3 3 1 4 2 5 27 7 28 8 89 9 29 10 88 11 30 12 31 13
REMARK SMILES IDX 32 14 82 15 33 16 87 17 81 18 83 19 34 20 86 21 80 22 79 23
REMARK SMILES IDX 35 25 67 26 47 27 66 28 48 29 51 30 65 31 84 32 49 33 50 34
REMARK SMILES IDX 64 36 85 37 52 38 36 39 37 40 45 41 38 42 40 43 46 44 39 45
REMARK SMILES IDX 41 46 42 47 43 48 44 49 68 50 69 51 77 52 70 53 72 54 78 55
REMARK SMILES IDX 71 56 73 57 74 58 75 59 76 60 53 61 54 62 62 63 55 64 57 65
REMARK SMILES IDX 63 66 56 67 58 68 59 69 60 70 61 71 6 72 7 73 8 74 9 76
REMARK SMILES IDX 10 77 11 78 25 79 22 80 24 81 26 82 23 83 12 84 13 85 14 86
REMARK SMILES IDX 15 88 16 89 17 90 21 91 18 92 20 93 19 94
REMARK H PARENT 3 6 83 24 51 35 7 75 14 87
REMARK Flexibility Score: inf
ROOT
ATOM      1  C   UNL A   1      33.547  28.388  24.785  1.00  0.00     0.042 C 
ENDROOT
BRANCH   1   2
ATOM      2  C   UNL A   1      34.138  28.637  26.164  1.00  0.00     0.118 C 
BRANCH   2   3
ATOM      3  N   UNL A   1      33.890  29.986  26.660  1.00  0.00    -0.352 N 
ATOM      4  O   UNL A   1      34.089  31.786  27.996  1.00  0.00    -0.269 OA
ATOM      5  C   UNL A   1      34.577  30.732  27.588  1.00  0.00     0.251 C 
ATOM      6  H   UNL A   1      33.106  30.435  26.266  1.00  0.00     0.163 HD
BRANCH   5   7
ATOM      7  C   UNL A   1      35.878  30.261  28.111  1.00  0.00     0.039 A 
ATOM      8  C   UNL A   1      37.044  30.430  27.363  1.00  0.00     0.014 A 
ATOM      9  C   UNL A   1      35.943  29.660  29.372  1.00  0.00     0.014 A 
ATOM     10  C   UNL A   1      38.230  29.845  27.785  1.00  0.00     0.010 A 
ATOM     11  C   UNL A   1      37.166  29.173  29.849  1.00  0.00     0.010 A 
ATOM     12  C   UNL A   1      38.315  29.236  29.047  1.00  0.00    -0.014 A 
BRANCH  12  13
ATOM     13  C   UNL A   1      39.644  28.788  29.535  1.00  0.00     0.031 A 
ATOM     14  C   UNL A   1      40.355  29.491  30.659  1.00  0.00     0.074 A 
ATOM     15  C   UNL A   1      40.206  27.715  28.943  1.00  0.00     0.049 A 
ATOM     16  N   UNL A   1      41.505  29.197  31.208  1.00  0.00    -0.248 NA
ATOM     17  C   UNL A   1      39.703  30.676  31.239  1.00  0.00     0.031 C 
ATOM     18  C   UNL A   1      39.629  26.983  27.809  1.00  0.00     0.029 A 
ATOM     19  N   UNL A   1      41.378  27.051  29.199  1.00  0.00    -0.354 N 
ATOM     20  C   UNL A   1      41.739  30.178  32.164  1.00  0.00     0.074 A 
ATOM     21  C   UNL A   1      40.606  31.078  32.126  1.00  0.00     0.031 C 
ATOM     22  C   UNL A   1      40.434  25.961  27.486  1.00  0.00     0.029 A 
ATOM     23  C   UNL A   1      41.613  26.002  28.340  1.00  0.00     0.049 A 
ATOM     24  H   UNL A   1      41.992  27.301  29.927  1.00  0.00     0.167 HD
ATOM     25  C   UNL A   1      42.797  30.306  33.000  1.00  0.00     0.034 A 
ATOM     26  C   UNL A   1      42.673  25.182  28.226  1.00  0.00     0.034 A 
ATOM     27  C   UNL A   1      43.901  29.383  33.055  1.00  0.00     0.049 A 
ATOM     28  C   UNL A   1      43.817  25.345  29.182  1.00  0.00     0.074 A 
ATOM     29  C   UNL A   1      44.978  29.384  33.927  1.00  0.00     0.029 A 
ATOM     30  N   UNL A   1      44.084  28.309  32.199  1.00  0.00    -0.354 N 
ATOM     31  N   UNL A   1      43.946  26.188  30.177  1.00  0.00    -0.248 NA
ATOM     32  C   UNL A   1      44.954  24.429  29.016  1.00  0.00     0.031 C 
ATOM     33  C   UNL A   1      45.829  28.333  33.575  1.00  0.00     0.029 A 
ATOM     34  C   UNL A   1      45.266  27.655  32.505  1.00  0.00     0.049 A 
ATOM     35  H   UNL A   1      43.466  28.050  31.478  1.00  0.00     0.167 HD
ATOM     36  C   UNL A   1      45.165  25.891  30.769  1.00  0.00     0.074 A 
ATOM     37  C   UNL A   1      45.719  24.765  30.045  1.00  0.00     0.031 C 
ATOM     38  C   UNL A   1      45.783  26.508  31.805  1.00  0.00     0.034 A 
BRANCH  25  39
ATOM     39  C   UNL A   1      42.817  31.469  33.959  1.00  0.00     0.023 A 
ATOM     40  C   UNL A   1      43.343  32.709  33.545  1.00  0.00     0.012 A 
ATOM     41  C   UNL A   1      42.202  31.367  35.224  1.00  0.00     0.148 A 
ATOM     42  C   UNL A   1      43.269  33.825  34.378  1.00  0.00     0.002 A 
ATOM     43  C   UNL A   1      42.097  32.493  36.033  1.00  0.00     0.091 A 
ATOM     44  F   UNL A   1      41.721  30.175  35.605  1.00  0.00    -0.205 F 
ATOM     45  C   UNL A   1      42.636  33.720  35.614  1.00  0.00     0.022 A 
BRANCH  43  46
ATOM     46  S   UNL A   1      41.230  32.484  37.607  1.00  0.00     0.127 S 
ATOM     47  O   UNL A   1      42.059  31.572  38.394  1.00  0.00    -0.237 OA
ATOM     48  O   UNL A   1      41.316  33.888  38.010  1.00  0.00    -0.237 OA
ATOM     49  O   UNL A   1      39.882  32.011  37.323  1.00  0.00    -0.744 OA
ENDBRANCH  43  46
ENDBRANCH  25  39
BRANCH  26  50
ATOM     50  C   UNL A   1      42.691  24.130  27.171  1.00  0.00     0.023 A 
ATOM     51  C   UNL A   1      43.355  24.372  25.954  1.00  0.00     0.012 A 
ATOM     52  C   UNL A   1      42.069  22.884  27.379  1.00  0.00     0.148 A 
ATOM     53  C   UNL A   1      43.365  23.406  24.948  1.00  0.00     0.002 A 
ATOM     54  C   UNL A   1      42.139  21.903  26.398  1.00  0.00     0.091 A 
ATOM     55  F   UNL A   1      41.426  22.678  28.536  1.00  0.00    -0.205 F 
ATOM     56  C   UNL A   1      42.769  22.168  25.173  1.00  0.00     0.022 A 
BRANCH  54  57
ATOM     57  S   UNL A   1      41.523  20.239  26.673  1.00  0.00     0.127 S 
ATOM     58  O   UNL A   1      41.919  19.565  25.440  1.00  0.00    -0.237 OA
ATOM     59  O   UNL A   1      42.265  19.831  27.867  1.00  0.00    -0.237 OA
ATOM     60  O   UNL A   1      40.089  20.388  26.887  1.00  0.00    -0.744 OA
ENDBRANCH  54  57
ENDBRANCH  26  50
BRANCH  38  61
ATOM     61  C   UNL A   1      47.119  25.962  32.236  1.00  0.00     0.023 A 
ATOM     62  C   UNL A   1      47.197  25.108  33.354  1.00  0.00     0.012 A 
ATOM     63  C   UNL A   1      48.286  26.255  31.505  1.00  0.00     0.148 A 
ATOM     64  C   UNL A   1      48.422  24.584  33.761  1.00  0.00     0.002 A 
ATOM     65  C   UNL A   1      49.496  25.687  31.885  1.00  0.00     0.091 A 
ATOM     66  F   UNL A   1      48.192  27.085  30.456  1.00  0.00    -0.205 F 
ATOM     67  C   UNL A   1      49.568  24.864  33.020  1.00  0.00     0.022 A 
BRANCH  65  68
ATOM     68  S   UNL A   1      51.004  25.914  30.938  1.00  0.00     0.127 S 
ATOM     69  O   UNL A   1      51.959  25.116  31.703  1.00  0.00    -0.237 OA
ATOM     70  O   UNL A   1      50.641  25.350  29.637  1.00  0.00    -0.237 OA
ATOM     71  O   UNL A   1      51.257  27.348  30.923  1.00  0.00    -0.744 OA
ENDBRANCH  65  68
ENDBRANCH  38  61
ENDBRANCH  12  13
ENDBRANCH   5   7
ENDBRANCH   2   3
ENDBRANCH   1   2
BRANCH   1  72
ATOM     72  C   UNL A   1      33.887  27.034  24.192  1.00  0.00     0.117 C 
BRANCH  72  73
ATOM     73  N   UNL A   1      33.163  25.923  24.790  1.00  0.00    -0.356 N 
ATOM     74  C   UNL A   1      33.692  24.831  25.419  1.00  0.00     0.227 C 
ATOM     75  H   UNL A   1      32.181  25.961  24.736  1.00  0.00     0.163 HD
ATOM     76  O   UNL A   1      33.058  24.309  26.331  1.00  0.00    -0.275 OA
BRANCH  74  77
ATOM     77  C   UNL A   1      35.049  24.337  25.000  1.00  0.00     0.127 C 
ATOM     78  C   UNL A   1      35.108  23.440  23.743  1.00  0.00     0.127 C 
ATOM     79  C   UNL A   1      35.706  23.430  26.057  1.00  0.00     0.155 C 
ATOM     80  C   UNL A   1      35.871  22.213  24.262  1.00  0.00     0.155 C 
ATOM     81  C   UNL A   1      37.176  23.351  25.748  1.00  0.00     0.004 C 
ATOM     82  O   UNL A   1      35.335  22.104  25.603  1.00  0.00    -0.365 OA
ATOM     83  C   UNL A   1      37.277  22.610  24.633  1.00  0.00     0.004 C 
BRANCH  78  84
ATOM     84  C   UNL A   1      33.861  23.091  22.943  1.00  0.00     0.227 C 
ATOM     85  O   UNL A   1      33.641  23.741  21.910  1.00  0.00    -0.275 OA
ATOM     86  N   UNL A   1      32.970  22.111  23.195  1.00  0.00    -0.352 N 
ATOM     87  H   UNL A   1      32.322  21.995  22.463  1.00  0.00     0.163 HD
BRANCH  86  88
ATOM     88  C   UNL A   1      32.744  21.188  24.292  1.00  0.00     0.151 C 
BRANCH  88  89
ATOM     89  C   UNL A   1      33.003  19.746  23.924  1.00  0.00    -0.026 A 
ATOM     90  C   UNL A   1      32.225  19.156  22.919  1.00  0.00     0.025 A 
ATOM     91  C   UNL A   1      33.982  18.956  24.534  1.00  0.00     0.025 A 
ATOM     92  C   UNL A   1      32.497  17.853  22.531  1.00  0.00     0.111 A 
ATOM     93  C   UNL A   1      34.169  17.656  24.086  1.00  0.00     0.111 A 
ATOM     94  N   UNL A   1      33.450  17.087  23.097  1.00  0.00    -0.265 NA
ENDBRANCH  88  89
ENDBRANCH  86  88
ENDBRANCH  78  84
ENDBRANCH  74  77
ENDBRANCH  72  73
ENDBRANCH   1  72
TORSDOF 16
ENDMDL
MODEL 2
REMARK VINA RESULT:     -11.9      1.278      1.709
REMARK SMILES O=C(NCCCNC(=O)[C@@H]1[C@H](C(=O)NCc2ccncc2)[C@H]2C=C[C@@H]1O2)c1ccc(-c2c3nc(c(-c4cccc(S(=O)(=O)[O-])c4F)c4ccc([nH]4)c(-c4cccc(S(=O)(=O)[O-])c4F)c4nc(c(-c5cccc(S(=O)(=O)[O-])c5F)c5ccc2[nH]5)C=C4)C=C3)cc1
REMARK SMILES IDX 5 1 4 2 3 3 1 4 2 5 27 7 28 8 89 9 29 10 88 11 30 12 31 13
REMARK SMILES IDX 32 14 82 15 33 16 87 17 81 18 83 19 34 20 86 21 80 22 79 23
REMARK SMILES IDX 35 25 67 26 47 27 66 28 48 29 51 30 65 31 84 32 49 33 50 34
REMARK SMILES IDX 64 36 85 37 52 38 36 39 37 40 45 41 38 42 40 43 46 44 39 45
REMARK SMILES IDX 41 46 42 47 43 48 44 49 68 50 69 51 77 52 70 53 72 54 78 55
REMARK SMILES IDX 71 56 73 57 74 58 75 59 76 60 53 61 54 62 62 63 55 64 57 65
REMARK SMILES IDX 63 66 56 67 58 68 59 69 60 70 61 71 6 72 7 73 8 74 9 76
REMARK SMILES IDX 10 77 11 78 25 79 22 80 24 81 26 82 23 83 12 84 13 85 14 86
REMARK SMILES IDX 15 88 16 89 17 90 21 91 18 92 20 93 19 94
REMARK H PARENT 3 6 83 24 51 35 7 75 14 87
REMARK Flexibility Score: inf
ROOT
ATOM      1  C   UNL A   1      33.279  27.616  26.451  1.00  0.00     0.042 C 
ENDROOT
BRANCH   1   2
ATOM      2  C   UNL A   1      34.221  28.728  26.017  1.00  0.00     0.118 C 
BRANCH   2   3
ATOM      3  N   UNL A   1      33.905  30.017  26.624  1.00  0.00    -0.352 N 
ATOM      4  O   UNL A   1      33.997  31.697  28.119  1.00  0.00    -0.269 OA
ATOM      5  C   UNL A   1      34.539  30.704  27.631  1.00  0.00     0.251 C 
ATOM      6  H   UNL A   1      33.110  30.466  26.252  1.00  0.00     0.163 HD
BRANCH   5   7
ATOM      7  C   UNL A   1      35.847  30.243  28.144  1.00  0.00     0.039 A 
ATOM      8  C   UNL A   1      37.012  30.466  27.409  1.00  0.00     0.014 A 
ATOM      9  C   UNL A   1      35.920  29.595  29.381  1.00  0.00     0.014 A 
ATOM     10  C   UNL A   1      38.210  29.892  27.815  1.00  0.00     0.010 A 
ATOM     11  C   UNL A   1      37.151  29.117  29.846  1.00  0.00     0.010 A 
ATOM     12  C   UNL A   1      38.302  29.237  29.053  1.00  0.00    -0.014 A 
BRANCH  12  13
ATOM     13  C   UNL A   1      39.639  28.799  29.532  1.00  0.00     0.031 A 
ATOM     14  C   UNL A   1      40.355  29.512  30.645  1.00  0.00     0.074 A 
ATOM     15  C   UNL A   1      40.202  27.727  28.939  1.00  0.00     0.049 A 
ATOM     16  N   UNL A   1      41.511  29.228  31.185  1.00  0.00    -0.248 NA
ATOM     17  C   UNL A   1      39.701  30.696  31.226  1.00  0.00     0.031 C 
ATOM     18  C   UNL A   1      39.620  26.986  27.814  1.00  0.00     0.029 A 
ATOM     19  N   UNL A   1      41.380  27.072  29.188  1.00  0.00    -0.354 N 
ATOM     20  C   UNL A   1      41.748  30.216  32.134  1.00  0.00     0.074 A 
ATOM     21  C   UNL A   1      40.609  31.109  32.102  1.00  0.00     0.031 C 
ATOM     22  C   UNL A   1      40.427  25.967  27.489  1.00  0.00     0.029 A 
ATOM     23  C   UNL A   1      41.614  26.021  28.332  1.00  0.00     0.049 A 
ATOM     24  H   UNL A   1      41.999  27.330  29.909  1.00  0.00     0.167 HD
ATOM     25  C   UNL A   1      42.813  30.355  32.960  1.00  0.00     0.034 A 
ATOM     26  C   UNL A   1      42.678  25.206  28.212  1.00  0.00     0.034 A 
ATOM     27  C   UNL A   1      43.923  29.440  33.009  1.00  0.00     0.049 A 
ATOM     28  C   UNL A   1      43.831  25.382  29.157  1.00  0.00     0.074 A 
ATOM     29  C   UNL A   1      45.008  29.452  33.871  1.00  0.00     0.029 A 
ATOM     30  N   UNL A   1      44.105  28.362  32.157  1.00  0.00    -0.354 N 
ATOM     31  N   UNL A   1      43.962  26.231  30.146  1.00  0.00    -0.248 NA
ATOM     32  C   UNL A   1      44.971  24.472  28.985  1.00  0.00     0.031 C 
ATOM     33  C   UNL A   1      45.862  28.404  33.516  1.00  0.00     0.029 A 
ATOM     34  C   UNL A   1      45.294  27.718  32.455  1.00  0.00     0.049 A 
ATOM     35  H   UNL A   1      43.483  28.095  31.443  1.00  0.00     0.167 HD
ATOM     36  C   UNL A   1      45.190  25.944  30.729  1.00  0.00     0.074 A 
ATOM     37  C   UNL A   1      45.744  24.818  30.005  1.00  0.00     0.031 C 
ATOM     38  C   UNL A   1      45.813  26.571  31.756  1.00  0.00     0.034 A 
BRANCH  25  39
ATOM     39  C   UNL A   1      42.834  31.523  33.912  1.00  0.00     0.023 A 
ATOM     40  C   UNL A   1      43.281  32.783  33.466  1.00  0.00     0.012 A 
ATOM     41  C   UNL A   1      42.295  31.401  35.210  1.00  0.00     0.148 A 
ATOM     42  C   UNL A   1      43.204  33.899  34.299  1.00  0.00     0.002 A 
ATOM     43  C   UNL A   1      42.184  32.525  36.020  1.00  0.00     0.091 A 
ATOM     44  F   UNL A   1      41.889  30.190  35.620  1.00  0.00    -0.205 F 
ATOM     45  C   UNL A   1      42.645  33.773  35.568  1.00  0.00     0.022 A 
BRANCH  43  46
ATOM     46  S   UNL A   1      41.407  32.487  37.640  1.00  0.00     0.127 S 
ATOM     47  O   UNL A   1      41.569  33.874  38.076  1.00  0.00    -0.237 OA
ATOM     48  O   UNL A   1      40.033  32.109  37.310  1.00  0.00    -0.237 OA
ATOM     49  O   UNL A   1      42.144  31.501  38.418  1.00  0.00    -0.744 OA
ENDBRANCH  43  46
ENDBRANCH  25  39
BRANCH  26  50
ATOM     50  C   UNL A   1      42.694  24.150  27.163  1.00  0.00     0.023 A 
ATOM     51  C   UNL A   1      43.383  24.373  25.956  1.00  0.00     0.012 A 
ATOM     52  C   UNL A   1      42.043  22.917  27.365  1.00  0.00     0.148 A 
ATOM     53  C   UNL A   1      43.392  23.401  24.954  1.00  0.00     0.002 A 
ATOM     54  C   UNL A   1      42.111  21.930  26.390  1.00  0.00     0.091 A 
ATOM     55  F   UNL A   1      41.377  22.729  28.512  1.00  0.00    -0.205 F 
ATOM     56  C   UNL A   1      42.767  22.177  25.175  1.00  0.00     0.022 A 
BRANCH  54  57
ATOM     57  S   UNL A   1      41.457  20.280  26.662  1.00  0.00     0.127 S 
ATOM     58  O   UNL A   1      42.185  19.863  27.857  1.00  0.00    -0.237 OA
ATOM     59  O   UNL A   1      40.033  20.544  26.866  1.00  0.00    -0.237 OA
ATOM     60  O   UNL A   1      41.756  19.540  25.442  1.00  0.00    -0.744 OA
ENDBRANCH  54  57
ENDBRANCH  26  50
BRANCH  38  61
ATOM     61  C   UNL A   1      47.156  26.036  32.178  1.00  0.00     0.023 A 
ATOM     62  C   UNL A   1      48.326  26.520  31.561  1.00  0.00     0.012 A 
ATOM     63  C   UNL A   1      47.260  25.092  33.217  1.00  0.00     0.148 A 
ATOM     64  C   UNL A   1      49.578  26.046  31.946  1.00  0.00     0.002 A 
ATOM     65  C   UNL A   1      48.515  24.662  33.632  1.00  0.00     0.091 A 
ATOM     66  F   UNL A   1      46.133  24.629  33.777  1.00  0.00    -0.205 F 
ATOM     67  C   UNL A   1      49.673  25.126  32.988  1.00  0.00     0.022 A 
BRANCH  65  68
ATOM     68  S   UNL A   1      48.739  23.553  35.026  1.00  0.00     0.127 S 
ATOM     69  O   UNL A   1      50.186  23.351  35.016  1.00  0.00    -0.237 OA
ATOM     70  O   UNL A   1      48.242  24.356  36.144  1.00  0.00    -0.237 OA
ATOM     71  O   UNL A   1      47.941  22.370  34.732  1.00  0.00    -0.744 OA
ENDBRANCH  65  68
ENDBRANCH  38  61
ENDBRANCH  12  13
ENDBRANCH   5   7
ENDBRANCH   2   3
ENDBRANCH   1   2
BRANCH   1  72
ATOM     72  C   UNL A   1      32.830  26.702  25.326  1.00  0.00     0.117 C 
BRANCH  72  73
ATOM     73  N   UNL A   1      32.436  25.371  25.763  1.00  0.00    -0.356 N 
ATOM     74  C   UNL A   1      33.257  24.322  26.067  1.00  0.00     0.227 C 
ATOM     75  H   UNL A   1      31.470  25.206  25.848  1.00  0.00     0.163 HD
ATOM     76  O   UNL A   1      32.897  23.518  26.921  1.00  0.00    -0.275 OA
BRANCH  74  77
ATOM     77  C   UNL A   1      34.588  24.216  25.376  1.00  0.00     0.127 C 
ATOM     78  C   UNL A   1      34.596  23.584  23.966  1.00  0.00     0.127 C 
ATOM     79  C   UNL A   1      35.579  23.306  26.127  1.00  0.00     0.155 C 
ATOM     80  C   UNL A   1      35.655  22.483  24.115  1.00  0.00     0.155 C 
ATOM     81  C   UNL A   1      36.961  23.605  25.612  1.00  0.00     0.004 C 
ATOM     82  O   UNL A   1      35.391  22.030  25.465  1.00  0.00    -0.365 OA
ATOM     83  C   UNL A   1      37.004  23.107  24.366  1.00  0.00     0.004 C 
BRANCH  78  84
ATOM     84  C   UNL A   1      33.316  23.115  23.288  1.00  0.00     0.227 C 
ATOM     85  O   UNL A   1      32.871  23.806  22.360  1.00  0.00    -0.275 OA
ATOM     86  N   UNL A   1      32.616  21.991  23.541  1.00  0.00    -0.352 N 
ATOM     87  H   UNL A   1      31.900  21.837  22.883  1.00  0.00     0.163 HD
BRANCH  86  88
ATOM     88  C   UNL A   1      32.671  20.956  24.557  1.00  0.00     0.151 C 
BRANCH  88  89
ATOM     89  C   UNL A   1      33.004  19.591  24.003  1.00  0.00    -0.026 A 
ATOM     90  C   UNL A   1      34.097  18.895  24.536  1.00  0.00     0.025 A 
ATOM     91  C   UNL A   1      32.280  18.974  22.978  1.00  0.00     0.025 A 
ATOM     92  C   UNL A   1      34.372  17.616  24.079  1.00  0.00     0.111 A 
ATOM     93  C   UNL A   1      32.643  17.696  22.576  1.00  0.00     0.111 A 
ATOM     94  N   UNL A   1      33.672  17.001  23.104  1.00  0.00    -0.265 NA
ENDBRANCH  88  89
ENDBRANCH  86  88
ENDBRANCH  78  84
ENDBRANCH  74  77
ENDBRANCH  72  73
ENDBRANCH   1  72
TORSDOF 16
ENDMDL
MODEL 3
REMARK VINA RESULT:     -11.8      3.371      8.717
REMARK SMILES O=C(NCCCNC(=O)[C@@H]1[C@H](C(=O)NCc2ccncc2)[C@H]2C=C[C@@H]1O2)c1ccc(-c2c3nc(c(-c4cccc(S(=O)(=O)[O-])c4F)c4ccc([nH]4)c(-c4cccc(S(=O)(=O)[O-])c4F)c4nc(c(-c5cccc(S(=O)(=O)[O-])c5F)c5ccc2[nH]5)C=C4)C=C3)cc1
REMARK SMILES IDX 5 1 4 2 3 3 1 4 2 5 27 7 28 8 89 9 29 10 88 11 30 12 31 13
REMARK SMILES IDX 32 14 82 15 33 16 87 17 81 18 83 19 34 20 86 21 80 22 79 23
REMARK SMILES IDX 35 25 67 26 47 27 66 28 48 29 51 30 65 31 84 32 49 33 50 34
REMARK SMILES IDX 64 36 85 37 52 38 36 39 37 40 45 41 38 42 40 43 46 44 39 45
REMARK SMILES IDX 41 46 42 47 43 48 44 49 68 50 69 51 77 52 70 53 72 54 78 55
REMARK SMILES IDX 71 56 73 57 74 58 75 59 76 60 53 61 54 62 62 63 55 64 57 65
REMARK SMILES IDX 63 66 56 67 58 68 59 69 60 70 61 71 6 72 7 73 8 74 9 76
REMARK SMILES IDX 10 77 11 78 25 79 22 80 24 81 26 82 23 83 12 84 13 85 14 86
REMARK SMILES IDX 15 88 16 89 17 90 21 91 18 92 20 93 19 94
REMARK H PARENT 3 6 83 24 51 35 7 75 14 87
REMARK Flexibility Score: inf
ROOT
ATOM      1  C   UNL A   1      31.675  28.654  25.810  1.00  0.00     0.042 C 
ENDROOT
BRANCH   1   2
ATOM      2  C   UNL A   1      32.833  29.629  25.675  1.00  0.00     0.118 C 
BRANCH   2   3
ATOM      3  N   UNL A   1      32.477  30.997  26.037  1.00  0.00    -0.352 N 
ATOM      4  O   UNL A   1      32.436  32.887  27.259  1.00  0.00    -0.269 OA
ATOM      5  C   UNL A   1      33.009  31.829  26.994  1.00  0.00     0.251 C 
ATOM      6  H   UNL A   1      31.739  31.385  25.513  1.00  0.00     0.163 HD
BRANCH   5   7
ATOM      7  C   UNL A   1      34.242  31.448  27.716  1.00  0.00     0.039 A 
ATOM      8  C   UNL A   1      34.403  30.150  28.202  1.00  0.00     0.014 A 
ATOM      9  C   UNL A   1      35.260  32.390  27.897  1.00  0.00     0.014 A 
ATOM     10  C   UNL A   1      35.486  29.844  29.016  1.00  0.00     0.010 A 
ATOM     11  C   UNL A   1      36.407  32.044  28.620  1.00  0.00     0.010 A 
ATOM     12  C   UNL A   1      36.517  30.776  29.210  1.00  0.00    -0.014 A 
BRANCH  12  13
ATOM     13  C   UNL A   1      37.741  30.346  29.934  1.00  0.00     0.031 A 
ATOM     14  C   UNL A   1      38.747  29.419  29.309  1.00  0.00     0.074 A 
ATOM     15  C   UNL A   1      37.937  30.818  31.182  1.00  0.00     0.049 A 
ATOM     16  N   UNL A   1      39.873  28.979  29.809  1.00  0.00    -0.248 NA
ATOM     17  C   UNL A   1      38.458  28.912  27.958  1.00  0.00     0.031 C 
ATOM     18  C   UNL A   1      37.002  31.686  31.907  1.00  0.00     0.029 A 
ATOM     19  N   UNL A   1      38.972  30.641  32.063  1.00  0.00    -0.354 N 
ATOM     20  C   UNL A   1      40.406  28.114  28.861  1.00  0.00     0.074 A 
ATOM     21  C   UNL A   1      39.480  28.092  27.748  1.00  0.00     0.031 C 
ATOM     22  C   UNL A   1      37.516  31.984  33.108  1.00  0.00     0.029 A 
ATOM     23  C   UNL A   1      38.781  31.279  33.267  1.00  0.00     0.049 A 
ATOM     24  H   UNL A   1      39.773  30.109  31.855  1.00  0.00     0.167 HD
ATOM     25  C   UNL A   1      41.564  27.413  28.914  1.00  0.00     0.034 A 
ATOM     26  C   UNL A   1      39.521  31.274  34.390  1.00  0.00     0.034 A 
ATOM     27  C   UNL A   1      42.495  27.471  30.011  1.00  0.00     0.049 A 
ATOM     28  C   UNL A   1      40.806  30.499  34.404  1.00  0.00     0.074 A 
ATOM     29  C   UNL A   1      43.734  26.861  30.117  1.00  0.00     0.029 A 
ATOM     30  N   UNL A   1      42.288  28.161  31.195  1.00  0.00    -0.354 N 
ATOM     31  N   UNL A   1      41.361  29.809  33.438  1.00  0.00    -0.248 NA
ATOM     32  C   UNL A   1      41.578  30.520  35.653  1.00  0.00     0.031 C 
ATOM     33  C   UNL A   1      44.260  27.153  31.379  1.00  0.00     0.029 A 
ATOM     34  C   UNL A   1      43.364  27.973  32.047  1.00  0.00     0.049 A 
ATOM     35  H   UNL A   1      41.493  28.703  31.401  1.00  0.00     0.167 HD
ATOM     36  C   UNL A   1      42.559  29.332  33.954  1.00  0.00     0.074 A 
ATOM     37  C   UNL A   1      42.664  29.844  35.306  1.00  0.00     0.031 C 
ATOM     38  C   UNL A   1      43.478  28.525  33.372  1.00  0.00     0.034 A 
BRANCH  25  39
ATOM     39  C   UNL A   1      41.925  26.534  27.744  1.00  0.00     0.023 A 
ATOM     40  C   UNL A   1      42.733  27.043  26.708  1.00  0.00     0.012 A 
ATOM     41  C   UNL A   1      41.567  25.169  27.734  1.00  0.00     0.148 A 
ATOM     42  C   UNL A   1      43.168  26.214  25.675  1.00  0.00     0.002 A 
ATOM     43  C   UNL A   1      42.038  24.340  26.723  1.00  0.00     0.091 A 
ATOM     44  F   UNL A   1      40.785  24.708  28.721  1.00  0.00    -0.205 F 
ATOM     45  C   UNL A   1      42.833  24.863  25.689  1.00  0.00     0.022 A 
BRANCH  43  46
ATOM     46  S   UNL A   1      41.730  22.570  26.691  1.00  0.00     0.127 S 
ATOM     47  O   UNL A   1      40.269  22.525  26.753  1.00  0.00    -0.237 OA
ATOM     48  O   UNL A   1      42.298  22.184  25.400  1.00  0.00    -0.237 OA
ATOM     49  O   UNL A   1      42.417  22.020  27.852  1.00  0.00    -0.744 OA
ENDBRANCH  43  46
ENDBRANCH  25  39
BRANCH  26  50
ATOM     50  C   UNL A   1      39.066  32.035  35.587  1.00  0.00     0.023 A 
ATOM     51  C   UNL A   1      39.314  33.418  35.671  1.00  0.00     0.012 A 
ATOM     52  C   UNL A   1      38.372  31.396  36.632  1.00  0.00     0.148 A 
ATOM     53  C   UNL A   1      38.913  34.143  36.794  1.00  0.00     0.002 A 
ATOM     54  C   UNL A   1      37.918  32.136  37.716  1.00  0.00     0.091 A 
ATOM     55  F   UNL A   1      38.161  30.075  36.544  1.00  0.00    -0.205 F 
ATOM     56  C   UNL A   1      38.205  33.506  37.810  1.00  0.00     0.022 A 
BRANCH  54  57
ATOM     57  S   UNL A   1      36.876  31.416  38.989  1.00  0.00     0.127 S 
ATOM     58  O   UNL A   1      37.754  31.457  40.154  1.00  0.00    -0.237 OA
ATOM     59  O   UNL A   1      35.751  32.352  39.029  1.00  0.00    -0.237 OA
ATOM     60  O   UNL A   1      36.528  30.089  38.497  1.00  0.00    -0.744 OA
ENDBRANCH  54  57
ENDBRANCH  26  50
BRANCH  38  61
ATOM     61  C   UNL A   1      44.693  28.165  34.184  1.00  0.00     0.023 A 
ATOM     62  C   UNL A   1      45.834  28.990  34.137  1.00  0.00     0.012 A 
ATOM     63  C   UNL A   1      44.686  27.038  35.029  1.00  0.00     0.148 A 
ATOM     64  C   UNL A   1      46.964  28.679  34.891  1.00  0.00     0.002 A 
ATOM     65  C   UNL A   1      45.797  26.764  35.817  1.00  0.00     0.091 A 
ATOM     66  F   UNL A   1      43.598  26.256  35.043  1.00  0.00    -0.205 F 
ATOM     67  C   UNL A   1      46.941  27.574  35.738  1.00  0.00     0.022 A 
BRANCH  65  68
ATOM     68  S   UNL A   1      45.823  25.419  37.006  1.00  0.00     0.127 S 
ATOM     69  O   UNL A   1      44.644  25.716  37.818  1.00  0.00    -0.237 OA
ATOM     70  O   UNL A   1      45.691  24.242  36.146  1.00  0.00    -0.237 OA
ATOM     71  O   UNL A   1      47.100  25.519  37.699  1.00  0.00    -0.744 OA
ENDBRANCH  65  68
ENDBRANCH  38  61
ENDBRANCH  12  13
ENDBRANCH   5   7
ENDBRANCH   2   3
ENDBRANCH   1   2
BRANCH   1  72
ATOM     72  C   UNL A   1      31.768  27.731  27.010  1.00  0.00     0.117 C 
BRANCH  72  73
ATOM     73  N   UNL A   1      31.055  26.472  26.850  1.00  0.00    -0.356 N 
ATOM     74  C   UNL A   1      31.585  25.257  26.523  1.00  0.00     0.227 C 
ATOM     75  H   UNL A   1      30.082  26.499  26.993  1.00  0.00     0.163 HD
ATOM     76  O   UNL A   1      31.053  24.242  26.964  1.00  0.00    -0.275 OA
BRANCH  74  77
ATOM     77  C   UNL A   1      32.823  25.208  25.671  1.00  0.00     0.127 C 
ATOM     78  C   UNL A   1      32.616  25.123  24.142  1.00  0.00     0.127 C 
ATOM     79  C   UNL A   1      33.680  23.955  25.936  1.00  0.00     0.155 C 
ATOM     80  C   UNL A   1      33.464  23.897  23.773  1.00  0.00     0.155 C 
ATOM     81  C   UNL A   1      35.054  24.210  25.379  1.00  0.00     0.004 C 
ATOM     82  O   UNL A   1      33.216  23.039  24.913  1.00  0.00    -0.365 OA
ATOM     83  C   UNL A   1      34.918  24.186  24.044  1.00  0.00     0.004 C 
BRANCH  78  84
ATOM     84  C   UNL A   1      31.229  25.118  23.517  1.00  0.00     0.227 C 
ATOM     85  O   UNL A   1      30.610  24.044  23.498  1.00  0.00    -0.275 OA
ATOM     86  N   UNL A   1      30.551  26.169  23.012  1.00  0.00    -0.352 N 
ATOM     87  H   UNL A   1      29.620  25.943  22.786  1.00  0.00     0.163 HD
BRANCH  86  88
ATOM     88  C   UNL A   1      30.874  27.554  22.724  1.00  0.00     0.151 C 
BRANCH  88  89
ATOM     89  C   UNL A   1      29.663  28.457  22.695  1.00  0.00    -0.026 A 
ATOM     90  C   UNL A   1      28.431  27.948  23.127  1.00  0.00     0.025 A 
ATOM     91  C   UNL A   1      29.699  29.784  22.256  1.00  0.00     0.025 A 
ATOM     92  C   UNL A   1      27.328  28.787  23.164  1.00  0.00     0.111 A 
ATOM     93  C   UNL A   1      28.536  30.541  22.315  1.00  0.00     0.111 A 
ATOM     94  N   UNL A   1      27.352  30.074  22.761  1.00  0.00    -0.265 NA
ENDBRANCH  88  89
ENDBRANCH  86  88
ENDBRANCH  78  84
ENDBRANCH  74  77
ENDBRANCH  72  73
ENDBRANCH   1  72
TORSDOF 16
ENDMDL
