MODEL 1
REMARK VINA RESULT:     -13.4      0.000      0.000
REMARK SMILES CC1=C(CC(=O)NCCCNC(=O)c2ccc(-c3c4nc(c(-c5cccc(S(=O)(=O)[O-])c5F)c5ccc([nH]5)c(-c5cccc(S(=O)(=O)[O-])c5F)c5nc(c(-c6cccc(S(=O)(=O)[O-])c6F)c6ccc3[nH]6)C=C5)C=C4)cc2)c2cc(F)ccc2/C1=C\c1ccc([S@@+](C)[O-])cc1
REMARK SMILES IDX 9 1 8 2 7 3 5 4 6 5 4 7 3 8 1 9 2 10 84 11 77 12 83 13 85 14
REMARK SMILES IDX 78 15 82 16 79 17 81 18 80 19 86 20 87 21 94 22 88 23 93 24
REMARK SMILES IDX 89 25 90 26 91 27 92 28 10 29 11 30 12 31 13 33 14 34 15 35
REMARK SMILES IDX 76 36 16 37 75 38 17 39 18 40 19 41 69 42 20 43 74 44 68 45
REMARK SMILES IDX 70 46 21 47 73 48 67 49 66 50 22 52 54 53 34 54 53 55 35 56
REMARK SMILES IDX 38 57 52 58 71 59 36 60 37 61 51 63 72 64 39 65 23 66 24 67
REMARK SMILES IDX 32 68 25 69 27 70 33 71 26 72 28 73 29 74 30 75 31 76 55 77
REMARK SMILES IDX 56 78 64 79 57 80 59 81 65 82 58 83 60 84 61 85 62 86 63 87
REMARK SMILES IDX 40 88 41 89 49 90 42 91 44 92 50 93 43 94 45 95 46 96 47 97
REMARK SMILES IDX 48 98
REMARK H PARENT 7 6 11 32 70 51 38 62
REMARK Flexibility Score: inf
ROOT
ATOM      1  C   UNL A   1      32.918  29.273  24.572  1.00  0.00     0.042 C 
ENDROOT
BRANCH   1   2
ATOM      2  C   UNL A   1      32.003  28.333  23.795  1.00  0.00     0.117 C 
BRANCH   2   3
ATOM      3  N   UNL A   1      32.720  27.561  22.799  1.00  0.00    -0.356 N 
ATOM      4  C   UNL A   1      33.485  26.446  22.961  1.00  0.00     0.224 C 
ATOM      5  O   UNL A   1      34.026  25.960  21.964  1.00  0.00    -0.275 OA
ATOM      6  H   UNL A   1      32.641  27.889  21.874  1.00  0.00     0.163 HD
BRANCH   4   7
ATOM      7  C   UNL A   1      33.625  25.793  24.334  1.00  0.00     0.136 C 
BRANCH   7   8
ATOM      8  C   UNL A   1      33.553  24.300  24.305  1.00  0.00    -0.027 C 
ATOM      9  C   UNL A   1      31.227  23.895  23.313  1.00  0.00     0.045 C 
ATOM     10  C   UNL A   1      32.545  23.495  23.890  1.00  0.00    -0.039 C 
ATOM     11  C   UNL A   1      32.930  22.084  24.067  1.00  0.00    -0.014 C 
ATOM     12  C   UNL A   1      34.681  23.436  24.701  1.00  0.00    -0.011 A 
ATOM     13  C   UNL A   1      34.337  22.083  24.514  1.00  0.00    -0.010 A 
ATOM     14  C   UNL A   1      32.094  21.040  23.894  1.00  0.00     0.017 C 
ATOM     15  C   UNL A   1      35.943  23.786  25.164  1.00  0.00     0.048 A 
ATOM     16  C   UNL A   1      35.273  21.082  24.732  1.00  0.00     0.012 A 
ATOM     17  C   UNL A   1      36.855  22.769  25.430  1.00  0.00     0.123 A 
ATOM     18  C   UNL A   1      36.538  21.430  25.211  1.00  0.00     0.040 A 
ATOM     19  F   UNL A   1      38.075  23.084  25.888  1.00  0.00    -0.207 F 
BRANCH  14  20
ATOM     20  C   UNL A   1      32.441  19.629  24.087  1.00  0.00    -0.025 A 
ATOM     21  C   UNL A   1      32.555  19.076  25.368  1.00  0.00     0.013 A 
ATOM     22  C   UNL A   1      32.770  18.855  22.972  1.00  0.00     0.013 A 
ATOM     23  C   UNL A   1      33.124  17.807  25.539  1.00  0.00     0.061 A 
ATOM     24  C   UNL A   1      33.318  17.582  23.144  1.00  0.00     0.061 A 
ATOM     25  C   UNL A   1      33.542  17.068  24.427  1.00  0.00     0.152 A 
BRANCH  25  26
ATOM     26  S   UNL A   1      34.540  15.568  24.625  1.00  0.00    -0.018 S 
ATOM     27  C   UNL A   1      35.803  16.182  25.754  1.00  0.00     0.346 C 
ATOM     28  O   UNL A   1      33.649  14.526  25.392  1.00  0.00    -0.612 OA
ENDBRANCH  25  26
ENDBRANCH  14  20
ENDBRANCH   7   8
ENDBRANCH   4   7
ENDBRANCH   2   3
ENDBRANCH   1   2
BRANCH   1  29
ATOM     29  C   UNL A   1      32.473  29.526  26.007  1.00  0.00     0.118 C 
BRANCH  29  30
ATOM     30  N   UNL A   1      32.309  30.942  26.308  1.00  0.00    -0.352 N 
ATOM     31  C   UNL A   1      33.077  31.777  27.085  1.00  0.00     0.251 C 
ATOM     32  H   UNL A   1      31.526  31.369  25.890  1.00  0.00     0.163 HD
ATOM     33  O   UNL A   1      32.666  32.906  27.344  1.00  0.00    -0.269 OA
BRANCH  31  34
ATOM     34  C   UNL A   1      34.370  31.311  27.633  1.00  0.00     0.039 A 
ATOM     35  C   UNL A   1      34.584  29.961  27.922  1.00  0.00     0.014 A 
ATOM     36  C   UNL A   1      35.387  32.243  27.863  1.00  0.00     0.014 A 
ATOM     37  C   UNL A   1      35.737  29.572  28.596  1.00  0.00     0.010 A 
ATOM     38  C   UNL A   1      36.581  31.835  28.466  1.00  0.00     0.010 A 
ATOM     39  C   UNL A   1      36.745  30.506  28.888  1.00  0.00    -0.014 A 
BRANCH  39  40
ATOM     40  C   UNL A   1      37.954  30.073  29.634  1.00  0.00     0.031 A 
ATOM     41  C   UNL A   1      38.154  30.471  31.073  1.00  0.00     0.074 A 
ATOM     42  C   UNL A   1      38.860  29.284  29.024  1.00  0.00     0.049 A 
ATOM     43  N   UNL A   1      39.133  30.158  31.882  1.00  0.00    -0.248 NA
ATOM     44  C   UNL A   1      37.128  31.331  31.687  1.00  0.00     0.031 C 
ATOM     45  C   UNL A   1      38.788  28.844  27.629  1.00  0.00     0.029 A 
ATOM     46  N   UNL A   1      40.009  28.703  29.497  1.00  0.00    -0.354 N 
ATOM     47  C   UNL A   1      38.869  30.815  33.078  1.00  0.00     0.074 A 
ATOM     48  C   UNL A   1      37.633  31.543  32.895  1.00  0.00     0.031 C 
ATOM     49  C   UNL A   1      39.822  28.030  27.372  1.00  0.00     0.029 A 
ATOM     50  C   UNL A   1      40.656  27.927  28.565  1.00  0.00     0.049 A 
ATOM     51  H   UNL A   1      40.338  28.828  30.417  1.00  0.00     0.167 HD
ATOM     52  C   UNL A   1      39.579  30.796  34.230  1.00  0.00     0.034 A 
ATOM     53  C   UNL A   1      41.798  27.217  28.653  1.00  0.00     0.034 A 
ATOM     54  C   UNL A   1      40.777  30.028  34.431  1.00  0.00     0.049 A 
ATOM     55  C   UNL A   1      42.556  27.198  29.947  1.00  0.00     0.074 A 
ATOM     56  C   UNL A   1      41.534  29.908  35.584  1.00  0.00     0.029 A 
ATOM     57  N   UNL A   1      41.394  29.251  33.464  1.00  0.00    -0.354 N 
ATOM     58  N   UNL A   1      42.242  27.761  31.088  1.00  0.00    -0.248 NA
ATOM     59  C   UNL A   1      43.816  26.443  29.973  1.00  0.00     0.031 C 
ATOM     60  C   UNL A   1      42.610  29.058  35.313  1.00  0.00     0.029 A 
ATOM     61  C   UNL A   1      42.520  28.647  33.994  1.00  0.00     0.049 A 
ATOM     62  H   UNL A   1      41.078  29.145  32.538  1.00  0.00     0.167 HD
ATOM     63  C   UNL A   1      43.258  27.418  31.971  1.00  0.00     0.074 A 
ATOM     64  C   UNL A   1      44.188  26.583  31.240  1.00  0.00     0.031 C 
ATOM     65  C   UNL A   1      43.412  27.782  33.267  1.00  0.00     0.034 A 
BRANCH  52  66
ATOM     66  C   UNL A   1      39.058  31.588  35.396  1.00  0.00     0.023 A 
ATOM     67  C   UNL A   1      38.197  30.965  36.319  1.00  0.00     0.012 A 
ATOM     68  C   UNL A   1      39.502  32.904  35.635  1.00  0.00     0.148 A 
ATOM     69  C   UNL A   1      37.778  31.643  37.464  1.00  0.00     0.002 A 
ATOM     70  C   UNL A   1      39.101  33.562  36.792  1.00  0.00     0.091 A 
ATOM     71  F   UNL A   1      40.309  33.478  34.733  1.00  0.00    -0.205 F 
ATOM     72  C   UNL A   1      38.239  32.934  37.706  1.00  0.00     0.022 A 
BRANCH  70  73
ATOM     73  S   UNL A   1      39.670  35.210  37.224  1.00  0.00     0.127 S 
ATOM     74  O   UNL A   1      38.955  35.446  38.479  1.00  0.00    -0.237 OA
ATOM     75  O   UNL A   1      41.111  35.007  37.371  1.00  0.00    -0.237 OA
ATOM     76  O   UNL A   1      39.281  36.073  36.118  1.00  0.00    -0.744 OA
ENDBRANCH  70  73
ENDBRANCH  52  66
BRANCH  53  77
ATOM     77  C   UNL A   1      42.249  26.422  27.480  1.00  0.00     0.023 A 
ATOM     78  C   UNL A   1      43.053  27.037  26.502  1.00  0.00     0.012 A 
ATOM     79  C   UNL A   1      41.961  25.048  27.375  1.00  0.00     0.148 A 
ATOM     80  C   UNL A   1      43.562  26.295  25.436  1.00  0.00     0.002 A 
ATOM     81  C   UNL A   1      42.507  24.306  26.335  1.00  0.00     0.091 A 
ATOM     82  F   UNL A   1      41.186  24.492  28.316  1.00  0.00    -0.205 F 
ATOM     83  C   UNL A   1      43.301  24.930  25.359  1.00  0.00     0.022 A 
BRANCH  81  84
ATOM     84  S   UNL A   1      42.324  22.523  26.219  1.00  0.00     0.127 S 
ATOM     85  O   UNL A   1      40.871  22.375  26.178  1.00  0.00    -0.237 OA
ATOM     86  O   UNL A   1      43.010  22.234  24.960  1.00  0.00    -0.237 OA
ATOM     87  O   UNL A   1      42.978  21.980  27.402  1.00  0.00    -0.744 OA
ENDBRANCH  81  84
ENDBRANCH  53  77
BRANCH  65  88
ATOM     88  C   UNL A   1      44.626  27.283  33.998  1.00  0.00     0.023 A 
ATOM     89  C   UNL A   1      45.780  28.088  34.045  1.00  0.00     0.012 A 
ATOM     90  C   UNL A   1      44.579  26.087  34.739  1.00  0.00     0.148 A 
ATOM     91  C   UNL A   1      46.876  27.705  34.817  1.00  0.00     0.002 A 
ATOM     92  C   UNL A   1      45.663  25.727  35.531  1.00  0.00     0.091 A 
ATOM     93  F   UNL A   1      43.470  25.336  34.667  1.00  0.00    -0.205 F 
ATOM     94  C   UNL A   1      46.813  26.533  35.568  1.00  0.00     0.022 A 
BRANCH  92  95
ATOM     95  S   UNL A   1      45.646  24.278  36.591  1.00  0.00     0.127 S 
ATOM     96  O   UNL A   1      46.999  24.299  37.145  1.00  0.00    -0.237 OA
ATOM     97  O   UNL A   1      44.588  24.608  37.547  1.00  0.00    -0.237 OA
ATOM     98  O   UNL A   1      45.347  23.147  35.723  1.00  0.00    -0.744 OA
ENDBRANCH  92  95
ENDBRANCH  65  88
ENDBRANCH  39  40
ENDBRANCH  31  34
ENDBRANCH  29  30
ENDBRANCH   1  29
TORSDOF 16
ENDMDL
MODEL 2
REMARK VINA RESULT:     -13.1      2.060      3.090
REMARK SMILES CC1=C(CC(=O)NCCCNC(=O)c2ccc(-c3c4nc(c(-c5cccc(S(=O)(=O)[O-])c5F)c5ccc([nH]5)c(-c5cccc(S(=O)(=O)[O-])c5F)c5nc(c(-c6cccc(S(=O)(=O)[O-])c6F)c6ccc3[nH]6)C=C5)C=C4)cc2)c2cc(F)ccc2/C1=C\c1ccc([S@@+](C)[O-])cc1
REMARK SMILES IDX 9 1 8 2 7 3 5 4 6 5 4 7 3 8 1 9 2 10 84 11 77 12 83 13 85 14
REMARK SMILES IDX 78 15 82 16 79 17 81 18 80 19 86 20 87 21 94 22 88 23 93 24
REMARK SMILES IDX 89 25 90 26 91 27 92 28 10 29 11 30 12 31 13 33 14 34 15 35
REMARK SMILES IDX 76 36 16 37 75 38 17 39 18 40 19 41 69 42 20 43 74 44 68 45
REMARK SMILES IDX 70 46 21 47 73 48 67 49 66 50 22 52 54 53 34 54 53 55 35 56
REMARK SMILES IDX 38 57 52 58 71 59 36 60 37 61 51 63 72 64 39 65 23 66 24 67
REMARK SMILES IDX 32 68 25 69 27 70 33 71 26 72 28 73 29 74 30 75 31 76 55 77
REMARK SMILES IDX 56 78 64 79 57 80 59 81 65 82 58 83 60 84 61 85 62 86 63 87
REMARK SMILES IDX 40 88 41 89 49 90 42 91 44 92 50 93 43 94 45 95 46 96 47 97
REMARK SMILES IDX 48 98
REMARK H PARENT 7 6 11 32 70 51 38 62
REMARK Flexibility Score: inf
ROOT
ATOM      1  C   UNL A   1      31.480  31.605  26.273  1.00  0.00     0.042 C 
ENDROOT
BRANCH   1   2
ATOM      2  C   UNL A   1      31.666  30.152  25.848  1.00  0.00     0.117 C 
BRANCH   2   3
ATOM      3  N   UNL A   1      31.219  29.911  24.491  1.00  0.00    -0.356 N 
ATOM      4  C   UNL A   1      31.877  29.308  23.461  1.00  0.00     0.224 C 
ATOM      5  O   UNL A   1      31.305  29.229  22.371  1.00  0.00    -0.275 OA
ATOM      6  H   UNL A   1      30.310  30.228  24.283  1.00  0.00     0.163 HD
BRANCH   4   7
ATOM      7  C   UNL A   1      33.263  28.705  23.673  1.00  0.00     0.136 C 
BRANCH   7   8
ATOM      8  C   UNL A   1      33.250  27.238  23.958  1.00  0.00    -0.027 C 
ATOM      9  C   UNL A   1      33.346  27.189  26.516  1.00  0.00     0.045 C 
ATOM     10  C   UNL A   1      33.297  26.592  25.148  1.00  0.00    -0.039 C 
ATOM     11  C   UNL A   1      33.275  25.136  24.925  1.00  0.00    -0.014 C 
ATOM     12  C   UNL A   1      33.112  26.219  22.901  1.00  0.00    -0.011 A 
ATOM     13  C   UNL A   1      33.074  24.934  23.477  1.00  0.00    -0.010 A 
ATOM     14  C   UNL A   1      33.463  24.216  25.892  1.00  0.00     0.017 C 
ATOM     15  C   UNL A   1      32.994  26.380  21.526  1.00  0.00     0.048 A 
ATOM     16  C   UNL A   1      32.857  23.814  22.686  1.00  0.00     0.012 A 
ATOM     17  C   UNL A   1      32.830  25.244  20.738  1.00  0.00     0.123 A 
ATOM     18  C   UNL A   1      32.751  23.972  21.302  1.00  0.00     0.040 A 
ATOM     19  F   UNL A   1      32.725  25.376  19.409  1.00  0.00    -0.207 F 
BRANCH  14  20
ATOM     20  C   UNL A   1      33.471  22.763  25.696  1.00  0.00    -0.025 A 
ATOM     21  C   UNL A   1      34.645  22.081  25.353  1.00  0.00     0.013 A 
ATOM     22  C   UNL A   1      32.261  22.067  25.746  1.00  0.00     0.013 A 
ATOM     23  C   UNL A   1      34.586  20.747  24.931  1.00  0.00     0.061 A 
ATOM     24  C   UNL A   1      32.208  20.731  25.345  1.00  0.00     0.061 A 
ATOM     25  C   UNL A   1      33.359  20.075  24.890  1.00  0.00     0.152 A 
BRANCH  25  26
ATOM     26  S   UNL A   1      33.204  18.462  24.079  1.00  0.00    -0.018 S 
ATOM     27  C   UNL A   1      34.834  17.779  24.430  1.00  0.00     0.346 C 
ATOM     28  O   UNL A   1      32.135  17.645  24.889  1.00  0.00    -0.612 OA
ENDBRANCH  25  26
ENDBRANCH  14  20
ENDBRANCH   7   8
ENDBRANCH   4   7
ENDBRANCH   2   3
ENDBRANCH   1   2
BRANCH   1  29
ATOM     29  C   UNL A   1      32.678  32.196  27.007  1.00  0.00     0.118 C 
BRANCH  29  30
ATOM     30  N   UNL A   1      32.485  33.592  27.374  1.00  0.00    -0.352 N 
ATOM     31  C   UNL A   1      33.114  34.350  28.334  1.00  0.00     0.251 C 
ATOM     32  H   UNL A   1      31.797  34.068  26.855  1.00  0.00     0.163 HD
ATOM     33  O   UNL A   1      32.681  35.470  28.595  1.00  0.00    -0.269 OA
BRANCH  31  34
ATOM     34  C   UNL A   1      34.280  33.811  29.068  1.00  0.00     0.039 A 
ATOM     35  C   UNL A   1      35.567  34.303  28.837  1.00  0.00     0.014 A 
ATOM     36  C   UNL A   1      34.081  32.794  30.007  1.00  0.00     0.014 A 
ATOM     37  C   UNL A   1      36.664  33.665  29.407  1.00  0.00     0.010 A 
ATOM     38  C   UNL A   1      35.180  32.209  30.643  1.00  0.00     0.010 A 
ATOM     39  C   UNL A   1      36.486  32.603  30.308  1.00  0.00    -0.014 A 
BRANCH  39  40
ATOM     40  C   UNL A   1      37.673  31.919  30.881  1.00  0.00     0.031 A 
ATOM     41  C   UNL A   1      38.101  32.180  32.302  1.00  0.00     0.074 A 
ATOM     42  C   UNL A   1      38.348  31.027  30.130  1.00  0.00     0.049 A 
ATOM     43  N   UNL A   1      39.092  31.649  32.970  1.00  0.00    -0.248 NA
ATOM     44  C   UNL A   1      37.321  33.162  33.075  1.00  0.00     0.031 C 
ATOM     45  C   UNL A   1      38.043  30.699  28.736  1.00  0.00     0.029 A 
ATOM     46  N   UNL A   1      39.420  30.225  30.433  1.00  0.00    -0.354 N 
ATOM     47  C   UNL A   1      39.086  32.261  34.218  1.00  0.00     0.074 A 
ATOM     48  C   UNL A   1      37.988  33.202  34.220  1.00  0.00     0.031 C 
ATOM     49  C   UNL A   1      38.879  29.738  28.318  1.00  0.00     0.029 A 
ATOM     50  C   UNL A   1      39.809  29.413  29.394  1.00  0.00     0.049 A 
ATOM     51  H   UNL A   1      39.867  30.231  31.311  1.00  0.00     0.167 HD
ATOM     52  C   UNL A   1      39.906  32.043  35.273  1.00  0.00     0.034 A 
ATOM     53  C   UNL A   1      40.807  28.512  29.310  1.00  0.00     0.034 A 
ATOM     54  C   UNL A   1      40.961  31.068  35.291  1.00  0.00     0.049 A 
ATOM     55  C   UNL A   1      41.689  28.277  30.500  1.00  0.00     0.074 A 
ATOM     56  C   UNL A   1      41.808  30.743  36.337  1.00  0.00     0.029 A 
ATOM     57  N   UNL A   1      41.316  30.262  34.222  1.00  0.00    -0.354 N 
ATOM     58  N   UNL A   1      41.611  28.808  31.696  1.00  0.00    -0.248 NA
ATOM     59  C   UNL A   1      42.788  27.314  30.338  1.00  0.00     0.031 C 
ATOM     60  C   UNL A   1      42.677  29.739  35.899  1.00  0.00     0.029 A 
ATOM     61  C   UNL A   1      42.367  29.438  34.583  1.00  0.00     0.049 A 
ATOM     62  H   UNL A   1      40.884  30.274  33.338  1.00  0.00     0.167 HD
ATOM     63  C   UNL A   1      42.642  28.237  32.432  1.00  0.00     0.074 A 
ATOM     64  C   UNL A   1      43.319  27.304  31.556  1.00  0.00     0.031 C 
ATOM     65  C   UNL A   1      43.003  28.482  33.714  1.00  0.00     0.034 A 
BRANCH  52  66
ATOM     66  C   UNL A   1      39.669  32.835  36.529  1.00  0.00     0.023 A 
ATOM     67  C   UNL A   1      40.295  34.087  36.679  1.00  0.00     0.012 A 
ATOM     68  C   UNL A   1      38.753  32.392  37.502  1.00  0.00     0.148 A 
ATOM     69  C   UNL A   1      40.017  34.888  37.786  1.00  0.00     0.002 A 
ATOM     70  C   UNL A   1      38.460  33.209  38.588  1.00  0.00     0.091 A 
ATOM     71  F   UNL A   1      38.183  31.190  37.342  1.00  0.00    -0.205 F 
ATOM     72  C   UNL A   1      39.092  34.455  38.732  1.00  0.00     0.022 A 
BRANCH  70  73
ATOM     73  S   UNL A   1      37.253  32.769  39.843  1.00  0.00     0.127 S 
ATOM     74  O   UNL A   1      37.805  31.513  40.353  1.00  0.00    -0.237 OA
ATOM     75  O   UNL A   1      37.347  33.898  40.768  1.00  0.00    -0.237 OA
ATOM     76  O   UNL A   1      35.978  32.647  39.150  1.00  0.00    -0.744 OA
ENDBRANCH  70  73
ENDBRANCH  52  66
BRANCH  53  77
ATOM     77  C   UNL A   1      40.974  27.730  28.056  1.00  0.00     0.023 A 
ATOM     78  C   UNL A   1      41.570  28.344  26.939  1.00  0.00     0.012 A 
ATOM     79  C   UNL A   1      40.628  26.367  27.995  1.00  0.00     0.148 A 
ATOM     80  C   UNL A   1      41.818  27.612  25.778  1.00  0.00     0.002 A 
ATOM     81  C   UNL A   1      40.918  25.633  26.851  1.00  0.00     0.091 A 
ATOM     82  F   UNL A   1      40.054  25.812  29.071  1.00  0.00    -0.205 F 
ATOM     83  C   UNL A   1      41.505  26.256  25.738  1.00  0.00     0.022 A 
BRANCH  81  84
ATOM     84  S   UNL A   1      40.660  23.858  26.750  1.00  0.00     0.127 S 
ATOM     85  O   UNL A   1      41.579  23.485  25.677  1.00  0.00    -0.237 OA
ATOM     86  O   UNL A   1      41.061  23.421  28.087  1.00  0.00    -0.237 OA
ATOM     87  O   UNL A   1      39.244  23.680  26.455  1.00  0.00    -0.744 OA
ENDBRANCH  81  84
ENDBRANCH  53  77
BRANCH  65  88
ATOM     88  C   UNL A   1      44.181  27.734  34.268  1.00  0.00     0.023 A 
ATOM     89  C   UNL A   1      45.466  28.299  34.165  1.00  0.00     0.012 A 
ATOM     90  C   UNL A   1      43.999  26.543  34.998  1.00  0.00     0.148 A 
ATOM     91  C   UNL A   1      46.558  27.685  34.776  1.00  0.00     0.002 A 
ATOM     92  C   UNL A   1      45.087  25.954  35.632  1.00  0.00     0.091 A 
ATOM     93  F   UNL A   1      42.765  26.023  35.071  1.00  0.00    -0.205 F 
ATOM     94  C   UNL A   1      46.367  26.522  35.519  1.00  0.00     0.022 A 
BRANCH  92  95
ATOM     95  S   UNL A   1      44.927  24.499  36.672  1.00  0.00     0.127 S 
ATOM     96  O   UNL A   1      43.866  24.907  37.592  1.00  0.00    -0.237 OA
ATOM     97  O   UNL A   1      44.536  23.472  35.705  1.00  0.00    -0.237 OA
ATOM     98  O   UNL A   1      46.234  24.293  37.281  1.00  0.00    -0.744 OA
ENDBRANCH  92  95
ENDBRANCH  65  88
ENDBRANCH  39  40
ENDBRANCH  31  34
ENDBRANCH  29  30
ENDBRANCH   1  29
TORSDOF 16
ENDMDL
MODEL 3
REMARK VINA RESULT:     -13.1      1.233      7.417
REMARK SMILES CC1=C(CC(=O)NCCCNC(=O)c2ccc(-c3c4nc(c(-c5cccc(S(=O)(=O)[O-])c5F)c5ccc([nH]5)c(-c5cccc(S(=O)(=O)[O-])c5F)c5nc(c(-c6cccc(S(=O)(=O)[O-])c6F)c6ccc3[nH]6)C=C5)C=C4)cc2)c2cc(F)ccc2/C1=C\c1ccc([S@@+](C)[O-])cc1
REMARK SMILES IDX 9 1 8 2 7 3 5 4 6 5 4 7 3 8 1 9 2 10 84 11 77 12 83 13 85 14
REMARK SMILES IDX 78 15 82 16 79 17 81 18 80 19 86 20 87 21 94 22 88 23 93 24
REMARK SMILES IDX 89 25 90 26 91 27 92 28 10 29 11 30 12 31 13 33 14 34 15 35
REMARK SMILES IDX 76 36 16 37 75 38 17 39 18 40 19 41 69 42 20 43 74 44 68 45
REMARK SMILES IDX 70 46 21 47 73 48 67 49 66 50 22 52 54 53 34 54 53 55 35 56
REMARK SMILES IDX 38 57 52 58 71 59 36 60 37 61 51 63 72 64 39 65 23 66 24 67
REMARK SMILES IDX 32 68 25 69 27 70 33 71 26 72 28 73 29 74 30 75 31 76 55 77
REMARK SMILES IDX 56 78 64 79 57 80 59 81 65 82 58 83 60 84 61 85 62 86 63 87
REMARK SMILES IDX 40 88 41 89 49 90 42 91 44 92 50 93 43 94 45 95 46 96 47 97
REMARK SMILES IDX 48 98
REMARK H PARENT 7 6 11 32 70 51 38 62
REMARK Flexibility Score: inf
ROOT
ATOM      1  C   UNL A   1      32.709  29.283  24.638  1.00  0.00     0.042 C 
ENDROOT
BRANCH   1   2
ATOM      2  C   UNL A   1      31.849  28.280  23.875  1.00  0.00     0.117 C 
BRANCH   2   3
ATOM      3  N   UNL A   1      32.607  27.545  22.882  1.00  0.00    -0.356 N 
ATOM      4  C   UNL A   1      33.415  26.460  23.045  1.00  0.00     0.224 C 
ATOM      5  O   UNL A   1      33.985  26.004  22.050  1.00  0.00    -0.275 OA
ATOM      6  H   UNL A   1      32.525  27.876  21.959  1.00  0.00     0.163 HD
BRANCH   4   7
ATOM      7  C   UNL A   1      33.566  25.803  24.414  1.00  0.00     0.136 C 
BRANCH   7   8
ATOM      8  C   UNL A   1      33.491  24.310  24.382  1.00  0.00    -0.027 C 
ATOM      9  C   UNL A   1      31.215  23.912  23.279  1.00  0.00     0.045 C 
ATOM     10  C   UNL A   1      32.503  23.508  23.918  1.00  0.00    -0.039 C 
ATOM     11  C   UNL A   1      32.874  22.096  24.114  1.00  0.00    -0.014 C 
ATOM     12  C   UNL A   1      34.597  23.443  24.831  1.00  0.00    -0.011 A 
ATOM     13  C   UNL A   1      34.258  22.091  24.627  1.00  0.00    -0.010 A 
ATOM     14  C   UNL A   1      32.045  21.054  23.901  1.00  0.00     0.017 C 
ATOM     15  C   UNL A   1      35.837  23.789  25.354  1.00  0.00     0.048 A 
ATOM     16  C   UNL A   1      35.180  21.087  24.890  1.00  0.00     0.012 A 
ATOM     17  C   UNL A   1      36.732  22.770  25.663  1.00  0.00     0.123 A 
ATOM     18  C   UNL A   1      36.422  21.432  25.428  1.00  0.00     0.040 A 
ATOM     19  F   UNL A   1      37.929  23.082  26.179  1.00  0.00    -0.207 F 
BRANCH  14  20
ATOM     20  C   UNL A   1      32.379  19.643  24.110  1.00  0.00    -0.025 A 
ATOM     21  C   UNL A   1      32.591  19.127  25.394  1.00  0.00     0.013 A 
ATOM     22  C   UNL A   1      32.595  18.827  22.997  1.00  0.00     0.013 A 
ATOM     23  C   UNL A   1      33.146  17.851  25.558  1.00  0.00     0.061 A 
ATOM     24  C   UNL A   1      33.129  17.547  23.163  1.00  0.00     0.061 A 
ATOM     25  C   UNL A   1      33.452  17.068  24.440  1.00  0.00     0.152 A 
BRANCH  25  26
ATOM     26  S   UNL A   1      34.433  15.553  24.601  1.00  0.00    -0.018 S 
ATOM     27  C   UNL A   1      35.768  16.157  25.649  1.00  0.00     0.346 C 
ATOM     28  O   UNL A   1      33.568  14.536  25.431  1.00  0.00    -0.612 OA
ENDBRANCH  25  26
ENDBRANCH  14  20
ENDBRANCH   7   8
ENDBRANCH   4   7
ENDBRANCH   2   3
ENDBRANCH   1   2
BRANCH   1  29
ATOM     29  C   UNL A   1      32.209  29.585  26.046  1.00  0.00     0.118 C 
BRANCH  29  30
ATOM     30  N   UNL A   1      32.039  31.011  26.293  1.00  0.00    -0.352 N 
ATOM     31  C   UNL A   1      32.802  31.876  27.041  1.00  0.00     0.251 C 
ATOM     32  H   UNL A   1      31.257  31.420  25.855  1.00  0.00     0.163 HD
ATOM     33  O   UNL A   1      32.387  33.013  27.256  1.00  0.00    -0.269 OA
BRANCH  31  34
ATOM     34  C   UNL A   1      34.093  31.434  27.612  1.00  0.00     0.039 A 
ATOM     35  C   UNL A   1      34.342  30.084  27.870  1.00  0.00     0.014 A 
ATOM     36  C   UNL A   1      35.075  32.390  27.895  1.00  0.00     0.014 A 
ATOM     37  C   UNL A   1      35.488  29.712  28.565  1.00  0.00     0.010 A 
ATOM     38  C   UNL A   1      36.264  32.002  28.520  1.00  0.00     0.010 A 
ATOM     39  C   UNL A   1      36.458  30.667  28.910  1.00  0.00    -0.014 A 
BRANCH  39  40
ATOM     40  C   UNL A   1      37.659  30.251  29.677  1.00  0.00     0.031 A 
ATOM     41  C   UNL A   1      38.714  29.382  29.045  1.00  0.00     0.074 A 
ATOM     42  C   UNL A   1      37.820  30.689  30.941  1.00  0.00     0.049 A 
ATOM     43  N   UNL A   1      39.838  28.950  29.558  1.00  0.00    -0.248 NA
ATOM     44  C   UNL A   1      38.485  28.938  27.659  1.00  0.00     0.031 C 
ATOM     45  C   UNL A   1      36.862  31.521  31.672  1.00  0.00     0.029 A 
ATOM     46  N   UNL A   1      38.848  30.508  31.832  1.00  0.00    -0.354 N 
ATOM     47  C   UNL A   1      40.423  28.150  28.584  1.00  0.00     0.074 A 
ATOM     48  C   UNL A   1      39.536  28.158  27.442  1.00  0.00     0.031 C 
ATOM     49  C   UNL A   1      37.364  31.813  32.880  1.00  0.00     0.029 A 
ATOM     50  C   UNL A   1      38.657  31.151  33.031  1.00  0.00     0.049 A 
ATOM     51  H   UNL A   1      39.648  29.969  31.630  1.00  0.00     0.167 HD
ATOM     52  C   UNL A   1      41.603  27.488  28.629  1.00  0.00     0.034 A 
ATOM     53  C   UNL A   1      39.428  31.201  34.135  1.00  0.00     0.034 A 
ATOM     54  C   UNL A   1      42.512  27.525  29.741  1.00  0.00     0.049 A 
ATOM     55  C   UNL A   1      40.739  30.473  34.150  1.00  0.00     0.074 A 
ATOM     56  C   UNL A   1      43.755  26.926  29.851  1.00  0.00     0.029 A 
ATOM     57  N   UNL A   1      42.283  28.195  30.932  1.00  0.00    -0.354 N 
ATOM     58  N   UNL A   1      41.309  29.792  33.187  1.00  0.00    -0.248 NA
ATOM     59  C   UNL A   1      41.518  30.526  35.395  1.00  0.00     0.031 C 
ATOM     60  C   UNL A   1      44.278  27.233  31.111  1.00  0.00     0.029 A 
ATOM     61  C   UNL A   1      43.361  28.026  31.782  1.00  0.00     0.049 A 
ATOM     62  H   UNL A   1      41.473  28.713  31.142  1.00  0.00     0.167 HD
ATOM     63  C   UNL A   1      42.518  29.344  33.704  1.00  0.00     0.074 A 
ATOM     64  C   UNL A   1      42.610  29.848  35.059  1.00  0.00     0.031 C 
ATOM     65  C   UNL A   1      43.458  28.570  33.111  1.00  0.00     0.034 A 
BRANCH  52  66
ATOM     66  C   UNL A   1      42.019  26.700  27.418  1.00  0.00     0.023 A 
ATOM     67  C   UNL A   1      42.667  27.363  26.358  1.00  0.00     0.012 A 
ATOM     68  C   UNL A   1      41.866  25.301  27.376  1.00  0.00     0.148 A 
ATOM     69  C   UNL A   1      43.153  26.644  25.267  1.00  0.00     0.002 A 
ATOM     70  C   UNL A   1      42.378  24.589  26.298  1.00  0.00     0.091 A 
ATOM     71  F   UNL A   1      41.232  24.698  28.391  1.00  0.00    -0.205 F 
ATOM     72  C   UNL A   1      43.021  25.258  25.243  1.00  0.00     0.022 A 
BRANCH  70  73
ATOM     73  S   UNL A   1      42.301  22.798  26.186  1.00  0.00     0.127 S 
ATOM     74  O   UNL A   1      42.903  22.561  24.873  1.00  0.00    -0.237 OA
ATOM     75  O   UNL A   1      43.126  22.384  27.320  1.00  0.00    -0.237 OA
ATOM     76  O   UNL A   1      40.891  22.448  26.291  1.00  0.00    -0.744 OA
ENDBRANCH  70  73
ENDBRANCH  52  66
BRANCH  53  77
ATOM     77  C   UNL A   1      38.986  32.025  35.292  1.00  0.00     0.023 A 
ATOM     78  C   UNL A   1      39.040  33.427  35.196  1.00  0.00     0.012 A 
ATOM     79  C   UNL A   1      38.434  31.429  36.442  1.00  0.00     0.148 A 
ATOM     80  C   UNL A   1      38.552  34.226  36.230  1.00  0.00     0.002 A 
ATOM     81  C   UNL A   1      37.910  32.230  37.449  1.00  0.00     0.091 A 
ATOM     82  F   UNL A   1      38.403  30.091  36.508  1.00  0.00    -0.205 F 
ATOM     83  C   UNL A   1      37.976  33.629  37.349  1.00  0.00     0.022 A 
BRANCH  81  84
ATOM     84  S   UNL A   1      37.043  31.555  38.870  1.00  0.00     0.127 S 
ATOM     85  O   UNL A   1      35.881  32.435  38.955  1.00  0.00    -0.237 OA
ATOM     86  O   UNL A   1      36.754  30.192  38.423  1.00  0.00    -0.237 OA
ATOM     87  O   UNL A   1      37.980  31.640  39.982  1.00  0.00    -0.744 OA
ENDBRANCH  81  84
ENDBRANCH  53  77
BRANCH  65  88
ATOM     88  C   UNL A   1      44.679  28.210  33.908  1.00  0.00     0.023 A 
ATOM     89  C   UNL A   1      45.708  29.160  34.057  1.00  0.00     0.012 A 
ATOM     90  C   UNL A   1      44.749  26.991  34.608  1.00  0.00     0.148 A 
ATOM     91  C   UNL A   1      46.794  28.898  34.890  1.00  0.00     0.002 A 
ATOM     92  C   UNL A   1      45.819  26.750  35.461  1.00  0.00     0.091 A 
ATOM     93  F   UNL A   1      43.759  26.102  34.439  1.00  0.00    -0.205 F 
ATOM     94  C   UNL A   1      46.844  27.700  35.600  1.00  0.00     0.022 A 
BRANCH  92  95
ATOM     95  S   UNL A   1      45.933  25.271  36.475  1.00  0.00     0.127 S 
ATOM     96  O   UNL A   1      47.157  25.524  37.233  1.00  0.00    -0.237 OA
ATOM     97  O   UNL A   1      44.701  25.342  37.261  1.00  0.00    -0.237 OA
ATOM     98  O   UNL A   1      45.997  24.150  35.547  1.00  0.00    -0.744 OA
ENDBRANCH  92  95
ENDBRANCH  65  88
ENDBRANCH  39  40
ENDBRANCH  31  34
ENDBRANCH  29  30
ENDBRANCH   1  29
TORSDOF 16
ENDMDL
