MODEL 1
REMARK VINA RESULT:     -12.4      0.000      0.000
REMARK SMILES O=C(CCCc1nc(-c2ccc(Cl)c(Cl)c2)c(-c2ccccc2)o1)NCCCNC(=O)c1ccc(-c2c3nc(c(-c4cccc(S(=O)(=O)[O-])c4F)c4ccc([nH]4)c(-c4cccc(S(=O)(=O)[O-])c4F)c4nc(c(-c5cccc(S(=O)(=O)[O-])c5F)c5ccc2[nH]5)C=C4)C=C3)cc1
REMARK SMILES IDX 26 1 25 2 1 3 2 4 3 6 4 7 5 8 6 9 7 10 24 11 8 12 17 13 9 14
REMARK SMILES IDX 10 15 16 16 11 17 14 18 12 19 15 20 13 21 18 22 19 23 23 24
REMARK SMILES IDX 20 25 22 26 21 27 27 28 28 29 29 30 30 31 31 33 32 34 33 35
REMARK SMILES IDX 94 36 34 37 93 38 35 39 36 40 37 41 87 42 38 43 92 44 86 45
REMARK SMILES IDX 88 46 39 47 91 48 85 49 84 50 40 52 72 53 52 54 71 55 53 56
REMARK SMILES IDX 56 57 70 58 89 59 54 60 55 61 69 63 90 64 57 65 41 66 42 67
REMARK SMILES IDX 50 68 43 69 45 70 51 71 44 72 46 73 47 74 48 75 49 76 73 77
REMARK SMILES IDX 74 78 82 79 75 80 77 81 83 82 76 83 78 84 79 85 80 86 81 87
REMARK SMILES IDX 58 88 59 89 67 90 60 91 62 92 68 93 61 94 63 95 64 96 65 97
REMARK SMILES IDX 66 98
REMARK H PARENT 25 5 29 32 88 51 56 62
REMARK Flexibility Score: inf
ROOT
ATOM      1  C   UNL A   1      30.556  32.806  25.372  1.00  0.00     0.117 C 
ENDROOT
BRANCH   1   2
ATOM      2  N   UNL A   1      29.796  32.233  24.281  1.00  0.00    -0.356 N 
ATOM      3  O   UNL A   1      29.207  34.243  23.331  1.00  0.00    -0.275 OA
ATOM      4  C   UNL A   1      29.203  33.017  23.318  1.00  0.00     0.220 C 
ATOM      5  H   UNL A   1      29.700  31.255  24.227  1.00  0.00     0.163 HD
BRANCH   4   6
ATOM      6  C   UNL A   1      28.574  32.229  22.192  1.00  0.00     0.100 C 
BRANCH   6   7
ATOM      7  C   UNL A   1      28.472  30.736  22.527  1.00  0.00     0.020 C 
BRANCH   7   8
ATOM      8  C   UNL A   1      29.250  29.785  21.604  1.00  0.00     0.098 C 
BRANCH   8   9
ATOM      9  C   UNL A   1      30.082  28.804  22.352  1.00  0.00     0.195 A 
ATOM     10  N   UNL A   1      30.325  27.543  22.052  1.00  0.00    -0.213 NA
ATOM     11  O   UNL A   1      30.642  29.230  23.531  1.00  0.00    -0.440 OA
ATOM     12  C   UNL A   1      31.064  27.095  23.114  1.00  0.00     0.117 A 
ATOM     13  C   UNL A   1      31.312  28.127  23.991  1.00  0.00     0.162 A 
BRANCH  12  14
ATOM     14  C   UNL A   1      31.519  25.733  23.269  1.00  0.00     0.006 A 
ATOM     15  C   UNL A   1      30.586  24.702  23.393  1.00  0.00     0.012 A 
ATOM     16  C   UNL A   1      32.888  25.436  23.266  1.00  0.00     0.032 A 
ATOM     17  C   UNL A   1      31.018  23.378  23.476  1.00  0.00     0.023 A 
ATOM     18  C   UNL A   1      33.322  24.111  23.360  1.00  0.00     0.060 A 
ATOM     19  C   UNL A   1      32.385  23.079  23.455  1.00  0.00     0.059 A 
ATOM     20  Cl  UNL A   1      35.024  23.822  23.352  1.00  0.00    -0.083 Cl
ATOM     21  Cl  UNL A   1      32.842  21.416  23.550  1.00  0.00    -0.083 Cl
ENDBRANCH  12  14
BRANCH  13  22
ATOM     22  C   UNL A   1      32.108  28.255  25.197  1.00  0.00     0.020 A 
ATOM     23  C   UNL A   1      33.441  28.663  25.135  1.00  0.00     0.012 A 
ATOM     24  C   UNL A   1      31.505  28.089  26.452  1.00  0.00     0.012 A 
ATOM     25  C   UNL A   1      34.160  28.908  26.308  1.00  0.00     0.001 A 
ATOM     26  C   UNL A   1      32.222  28.335  27.623  1.00  0.00     0.001 A 
ATOM     27  C   UNL A   1      33.549  28.749  27.550  1.00  0.00     0.000 A 
ENDBRANCH  13  22
ENDBRANCH   8   9
ENDBRANCH   7   8
ENDBRANCH   6   7
ENDBRANCH   4   6
ENDBRANCH   1   2
BRANCH   1  28
ATOM     28  C   UNL A   1      31.081  31.755  26.339  1.00  0.00     0.042 C 
BRANCH  28  29
ATOM     29  C   UNL A   1      32.436  32.073  26.964  1.00  0.00     0.118 C 
BRANCH  29  30
ATOM     30  N   UNL A   1      32.575  33.462  27.380  1.00  0.00    -0.352 N 
ATOM     31  C   UNL A   1      33.504  34.051  28.207  1.00  0.00     0.251 C 
ATOM     32  H   UNL A   1      31.897  34.076  27.014  1.00  0.00     0.163 HD
ATOM     33  O   UNL A   1      33.355  35.229  28.534  1.00  0.00    -0.269 OA
BRANCH  31  34
ATOM     34  C   UNL A   1      34.668  33.287  28.717  1.00  0.00     0.039 A 
ATOM     35  C   UNL A   1      35.960  33.718  28.411  1.00  0.00     0.014 A 
ATOM     36  C   UNL A   1      34.494  32.132  29.479  1.00  0.00     0.014 A 
ATOM     37  C   UNL A   1      37.065  33.028  28.924  1.00  0.00     0.010 A 
ATOM     38  C   UNL A   1      35.588  31.496  30.061  1.00  0.00     0.010 A 
ATOM     39  C   UNL A   1      36.888  31.931  29.784  1.00  0.00    -0.014 A 
BRANCH  39  40
ATOM     40  C   UNL A   1      38.044  31.253  30.430  1.00  0.00     0.031 A 
ATOM     41  C   UNL A   1      38.454  31.595  31.839  1.00  0.00     0.074 A 
ATOM     42  C   UNL A   1      38.787  30.392  29.708  1.00  0.00     0.049 A 
ATOM     43  N   UNL A   1      39.446  31.117  32.546  1.00  0.00    -0.248 NA
ATOM     44  C   UNL A   1      37.668  32.627  32.536  1.00  0.00     0.031 C 
ATOM     45  C   UNL A   1      38.560  30.054  28.300  1.00  0.00     0.029 A 
ATOM     46  N   UNL A   1      39.899  29.662  30.047  1.00  0.00    -0.354 N 
ATOM     47  C   UNL A   1      39.422  31.803  33.754  1.00  0.00     0.074 A 
ATOM     48  C   UNL A   1      38.341  32.762  33.670  1.00  0.00     0.031 C 
ATOM     49  C   UNL A   1      39.494  29.177  27.901  1.00  0.00     0.029 A 
ATOM     50  C   UNL A   1      40.402  28.907  29.012  1.00  0.00     0.049 A 
ATOM     51  H   UNL A   1      40.300  29.677  30.947  1.00  0.00     0.167 HD
ATOM     52  C   UNL A   1      40.205  31.630  34.847  1.00  0.00     0.034 A 
ATOM     53  C   UNL A   1      41.473  28.093  28.960  1.00  0.00     0.034 A 
ATOM     54  C   UNL A   1      41.255  30.650  34.942  1.00  0.00     0.049 A 
ATOM     55  C   UNL A   1      42.296  27.882  30.202  1.00  0.00     0.074 A 
ATOM     56  C   UNL A   1      42.037  30.330  36.038  1.00  0.00     0.029 A 
ATOM     57  N   UNL A   1      41.677  29.838  33.901  1.00  0.00    -0.354 N 
ATOM     58  N   UNL A   1      42.144  28.410  31.391  1.00  0.00    -0.248 NA
ATOM     59  C   UNL A   1      43.412  26.931  30.105  1.00  0.00     0.031 C 
ATOM     60  C   UNL A   1      42.953  29.346  35.651  1.00  0.00     0.029 A 
ATOM     61  C   UNL A   1      42.717  29.027  34.323  1.00  0.00     0.049 A 
ATOM     62  H   UNL A   1      41.296  29.838  32.993  1.00  0.00     0.167 HD
ATOM     63  C   UNL A   1      43.118  27.829  32.193  1.00  0.00     0.074 A 
ATOM     64  C   UNL A   1      43.841  26.891  31.359  1.00  0.00     0.031 C 
ATOM     65  C   UNL A   1      43.399  28.061  33.500  1.00  0.00     0.034 A 
BRANCH  52  66
ATOM     66  C   UNL A   1      39.920  32.482  36.059  1.00  0.00     0.023 A 
ATOM     67  C   UNL A   1      40.621  33.694  36.236  1.00  0.00     0.012 A 
ATOM     68  C   UNL A   1      38.917  32.127  36.980  1.00  0.00     0.148 A 
ATOM     69  C   UNL A   1      40.354  34.518  37.329  1.00  0.00     0.002 A 
ATOM     70  C   UNL A   1      38.624  32.976  38.042  1.00  0.00     0.091 A 
ATOM     71  F   UNL A   1      38.272  30.964  36.807  1.00  0.00    -0.205 F 
ATOM     72  C   UNL A   1      39.350  34.165  38.224  1.00  0.00     0.022 A 
BRANCH  70  73
ATOM     73  S   UNL A   1      37.296  32.651  39.207  1.00  0.00     0.127 S 
ATOM     74  O   UNL A   1      37.551  33.665  40.231  1.00  0.00    -0.237 OA
ATOM     75  O   UNL A   1      36.105  32.896  38.392  1.00  0.00    -0.237 OA
ATOM     76  O   UNL A   1      37.467  31.272  39.637  1.00  0.00    -0.744 OA
ENDBRANCH  70  73
ENDBRANCH  52  66
BRANCH  53  77
ATOM     77  C   UNL A   1      41.786  27.357  27.702  1.00  0.00     0.023 A 
ATOM     78  C   UNL A   1      42.292  28.063  26.594  1.00  0.00     0.012 A 
ATOM     79  C   UNL A   1      41.611  25.963  27.608  1.00  0.00     0.148 A 
ATOM     80  C   UNL A   1      42.586  27.401  25.402  1.00  0.00     0.002 A 
ATOM     81  C   UNL A   1      41.960  25.301  26.436  1.00  0.00     0.091 A 
ATOM     82  F   UNL A   1      41.120  25.311  28.671  1.00  0.00    -0.205 F 
ATOM     83  C   UNL A   1      42.429  26.020  25.326  1.00  0.00     0.022 A 
BRANCH  81  84
ATOM     84  S   UNL A   1      41.919  23.511  26.296  1.00  0.00     0.127 S 
ATOM     85  O   UNL A   1      42.653  23.101  27.491  1.00  0.00    -0.237 OA
ATOM     86  O   UNL A   1      40.480  23.240  26.332  1.00  0.00    -0.237 OA
ATOM     87  O   UNL A   1      42.555  23.201  25.024  1.00  0.00    -0.744 OA
ENDBRANCH  81  84
ENDBRANCH  53  77
BRANCH  65  88
ATOM     88  C   UNL A   1      44.511  27.261  34.128  1.00  0.00     0.023 A 
ATOM     89  C   UNL A   1      45.850  27.668  33.968  1.00  0.00     0.012 A 
ATOM     90  C   UNL A   1      44.221  26.140  34.932  1.00  0.00     0.148 A 
ATOM     91  C   UNL A   1      46.886  26.951  34.565  1.00  0.00     0.002 A 
ATOM     92  C   UNL A   1      45.255  25.461  35.566  1.00  0.00     0.091 A 
ATOM     93  F   UNL A   1      42.943  25.755  35.058  1.00  0.00    -0.205 F 
ATOM     94  C   UNL A   1      46.589  25.855  35.372  1.00  0.00     0.022 A 
BRANCH  92  95
ATOM     95  S   UNL A   1      44.958  24.100  36.701  1.00  0.00     0.127 S 
ATOM     96  O   UNL A   1      44.365  23.098  35.817  1.00  0.00    -0.237 OA
ATOM     97  O   UNL A   1      46.310  23.782  37.164  1.00  0.00    -0.237 OA
ATOM     98  O   UNL A   1      44.075  24.623  37.735  1.00  0.00    -0.744 OA
ENDBRANCH  92  95
ENDBRANCH  65  88
ENDBRANCH  39  40
ENDBRANCH  31  34
ENDBRANCH  29  30
ENDBRANCH  28  29
ENDBRANCH   1  28
TORSDOF 18
ENDMDL
MODEL 2
REMARK VINA RESULT:     -12.4      6.059     12.206
REMARK SMILES O=C(CCCc1nc(-c2ccc(Cl)c(Cl)c2)c(-c2ccccc2)o1)NCCCNC(=O)c1ccc(-c2c3nc(c(-c4cccc(S(=O)(=O)[O-])c4F)c4ccc([nH]4)c(-c4cccc(S(=O)(=O)[O-])c4F)c4nc(c(-c5cccc(S(=O)(=O)[O-])c5F)c5ccc2[nH]5)C=C4)C=C3)cc1
REMARK SMILES IDX 26 1 25 2 1 3 2 4 3 6 4 7 5 8 6 9 7 10 24 11 8 12 17 13 9 14
REMARK SMILES IDX 10 15 16 16 11 17 14 18 12 19 15 20 13 21 18 22 19 23 23 24
REMARK SMILES IDX 20 25 22 26 21 27 27 28 28 29 29 30 30 31 31 33 32 34 33 35
REMARK SMILES IDX 94 36 34 37 93 38 35 39 36 40 37 41 87 42 38 43 92 44 86 45
REMARK SMILES IDX 88 46 39 47 91 48 85 49 84 50 40 52 72 53 52 54 71 55 53 56
REMARK SMILES IDX 56 57 70 58 89 59 54 60 55 61 69 63 90 64 57 65 41 66 42 67
REMARK SMILES IDX 50 68 43 69 45 70 51 71 44 72 46 73 47 74 48 75 49 76 73 77
REMARK SMILES IDX 74 78 82 79 75 80 77 81 83 82 76 83 78 84 79 85 80 86 81 87
REMARK SMILES IDX 58 88 59 89 67 90 60 91 62 92 68 93 61 94 63 95 64 96 65 97
REMARK SMILES IDX 66 98
REMARK H PARENT 25 5 29 32 88 51 56 62
REMARK Flexibility Score: inf
ROOT
ATOM      1  C   UNL A   1      41.791  19.670  27.575  1.00  0.00     0.117 C 
ENDROOT
BRANCH   1   2
ATOM      2  N   UNL A   1      42.782  19.752  26.522  1.00  0.00    -0.356 N 
ATOM      3  O   UNL A   1      42.688  17.528  25.944  1.00  0.00    -0.275 OA
ATOM      4  C   UNL A   1      43.127  18.659  25.762  1.00  0.00     0.220 C 
ATOM      5  H   UNL A   1      43.222  20.614  26.345  1.00  0.00     0.163 HD
BRANCH   4   6
ATOM      6  C   UNL A   1      44.074  18.977  24.627  1.00  0.00     0.100 C 
BRANCH   6   7
ATOM      7  C   UNL A   1      45.533  19.015  25.096  1.00  0.00     0.020 C 
BRANCH   7   8
ATOM      8  C   UNL A   1      46.414  20.106  24.466  1.00  0.00     0.098 C 
BRANCH   8   9
ATOM      9  C   UNL A   1      46.106  21.468  24.979  1.00  0.00     0.195 A 
ATOM     10  N   UNL A   1      46.386  22.631  24.425  1.00  0.00    -0.213 NA
ATOM     11  O   UNL A   1      45.492  21.549  26.205  1.00  0.00    -0.440 OA
ATOM     12  C   UNL A   1      45.962  23.542  25.355  1.00  0.00     0.117 A 
ATOM     13  C   UNL A   1      45.363  22.897  26.416  1.00  0.00     0.162 A 
BRANCH  12  14
ATOM     14  C   UNL A   1      46.117  24.971  25.222  1.00  0.00     0.006 A 
ATOM     15  C   UNL A   1      44.991  25.796  25.265  1.00  0.00     0.012 A 
ATOM     16  C   UNL A   1      47.390  25.538  25.077  1.00  0.00     0.032 A 
ATOM     17  C   UNL A   1      45.141  27.182  25.204  1.00  0.00     0.023 A 
ATOM     18  C   UNL A   1      47.539  26.926  25.005  1.00  0.00     0.060 A 
ATOM     19  C   UNL A   1      46.413  27.750  25.078  1.00  0.00     0.059 A 
ATOM     20  Cl  UNL A   1      49.138  27.552  24.825  1.00  0.00    -0.083 Cl
ATOM     21  Cl  UNL A   1      46.519  29.473  25.021  1.00  0.00    -0.083 Cl
ENDBRANCH  12  14
BRANCH  13  22
ATOM     22  C   UNL A   1      44.659  23.347  27.601  1.00  0.00     0.020 A 
ATOM     23  C   UNL A   1      43.267  23.286  27.673  1.00  0.00     0.012 A 
ATOM     24  C   UNL A   1      45.383  23.732  28.738  1.00  0.00     0.012 A 
ATOM     25  C   UNL A   1      42.607  23.599  28.864  1.00  0.00     0.001 A 
ATOM     26  C   UNL A   1      44.724  24.044  29.928  1.00  0.00     0.001 A 
ATOM     27  C   UNL A   1      43.336  23.973  29.991  1.00  0.00     0.000 A 
ENDBRANCH  13  22
ENDBRANCH   8   9
ENDBRANCH   7   8
ENDBRANCH   6   7
ENDBRANCH   4   6
ENDBRANCH   1   2
BRANCH   1  28
ATOM     28  C   UNL A   1      40.808  20.831  27.550  1.00  0.00     0.042 C 
BRANCH  28  29
ATOM     29  C   UNL A   1      40.692  21.549  26.210  1.00  0.00     0.118 C 
BRANCH  29  30
ATOM     30  N   UNL A   1      39.321  21.863  25.833  1.00  0.00    -0.352 N 
ATOM     31  C   UNL A   1      38.573  22.993  26.072  1.00  0.00     0.251 C 
ATOM     32  H   UNL A   1      38.855  21.157  25.330  1.00  0.00     0.163 HD
ATOM     33  O   UNL A   1      37.377  22.996  25.777  1.00  0.00    -0.269 OA
BRANCH  31  34
ATOM     34  C   UNL A   1      39.180  24.197  26.689  1.00  0.00     0.039 A 
ATOM     35  C   UNL A   1      39.938  25.065  25.900  1.00  0.00     0.014 A 
ATOM     36  C   UNL A   1      39.028  24.465  28.049  1.00  0.00     0.014 A 
ATOM     37  C   UNL A   1      40.479  26.227  26.464  1.00  0.00     0.010 A 
ATOM     38  C   UNL A   1      39.491  25.662  28.591  1.00  0.00     0.010 A 
ATOM     39  C   UNL A   1      40.231  26.553  27.808  1.00  0.00    -0.014 A 
BRANCH  39  40
ATOM     40  C   UNL A   1      40.700  27.836  28.397  1.00  0.00     0.031 A 
ATOM     41  C   UNL A   1      42.169  28.098  28.613  1.00  0.00     0.074 A 
ATOM     42  C   UNL A   1      39.791  28.732  28.828  1.00  0.00     0.049 A 
ATOM     43  N   UNL A   1      42.749  29.150  29.132  1.00  0.00    -0.248 NA
ATOM     44  C   UNL A   1      43.106  27.031  28.225  1.00  0.00     0.031 C 
ATOM     45  C   UNL A   1      38.338  28.554  28.774  1.00  0.00     0.029 A 
ATOM     46  N   UNL A   1      39.952  29.961  29.419  1.00  0.00    -0.354 N 
ATOM     47  C   UNL A   1      44.109  28.865  29.157  1.00  0.00     0.074 A 
ATOM     48  C   UNL A   1      44.265  27.522  28.639  1.00  0.00     0.031 C 
ATOM     49  C   UNL A   1      37.741  29.636  29.298  1.00  0.00     0.029 A 
ATOM     50  C   UNL A   1      38.765  30.574  29.749  1.00  0.00     0.049 A 
ATOM     51  H   UNL A   1      40.833  30.365  29.591  1.00  0.00     0.167 HD
ATOM     52  C   UNL A   1      45.137  29.658  29.544  1.00  0.00     0.034 A 
ATOM     53  C   UNL A   1      38.525  31.756  30.349  1.00  0.00     0.034 A 
ATOM     54  C   UNL A   1      44.983  31.006  30.023  1.00  0.00     0.049 A 
ATOM     55  C   UNL A   1      39.685  32.637  30.724  1.00  0.00     0.074 A 
ATOM     56  C   UNL A   1      45.968  31.923  30.346  1.00  0.00     0.029 A 
ATOM     57  N   UNL A   1      43.767  31.628  30.259  1.00  0.00    -0.354 N 
ATOM     58  N   UNL A   1      40.969  32.420  30.572  1.00  0.00    -0.248 NA
ATOM     59  C   UNL A   1      39.363  33.945  31.314  1.00  0.00     0.031 C 
ATOM     60  C   UNL A   1      45.347  33.090  30.806  1.00  0.00     0.029 A 
ATOM     61  C   UNL A   1      43.975  32.912  30.735  1.00  0.00     0.049 A 
ATOM     62  H   UNL A   1      42.884  31.218  30.112  1.00  0.00     0.167 HD
ATOM     63  C   UNL A   1      41.605  33.575  31.011  1.00  0.00     0.074 A 
ATOM     64  C   UNL A   1      40.564  34.498  31.414  1.00  0.00     0.031 C 
ATOM     65  C   UNL A   1      42.933  33.842  31.088  1.00  0.00     0.034 A 
BRANCH  52  66
ATOM     66  C   UNL A   1      46.537  29.110  29.411  1.00  0.00     0.023 A 
ATOM     67  C   UNL A   1      47.322  29.473  28.297  1.00  0.00     0.012 A 
ATOM     68  C   UNL A   1      47.100  28.298  30.415  1.00  0.00     0.148 A 
ATOM     69  C   UNL A   1      48.631  29.010  28.166  1.00  0.00     0.002 A 
ATOM     70  C   UNL A   1      48.421  27.877  30.300  1.00  0.00     0.091 A 
ATOM     71  F   UNL A   1      46.335  27.948  31.459  1.00  0.00    -0.205 F 
ATOM     72  C   UNL A   1      49.182  28.222  29.172  1.00  0.00     0.022 A 
BRANCH  70  73
ATOM     73  S   UNL A   1      49.250  26.924  31.577  1.00  0.00     0.127 S 
ATOM     74  O   UNL A   1      50.535  26.637  30.939  1.00  0.00    -0.237 OA
ATOM     75  O   UNL A   1      49.320  27.883  32.680  1.00  0.00    -0.237 OA
ATOM     76  O   UNL A   1      48.405  25.768  31.828  1.00  0.00    -0.744 OA
ENDBRANCH  70  73
ENDBRANCH  52  66
BRANCH  53  77
ATOM     77  C   UNL A   1      37.121  32.208  30.566  1.00  0.00     0.023 A 
ATOM     78  C   UNL A   1      36.520  32.020  31.826  1.00  0.00     0.012 A 
ATOM     79  C   UNL A   1      36.392  32.844  29.545  1.00  0.00     0.148 A 
ATOM     80  C   UNL A   1      35.206  32.425  32.055  1.00  0.00     0.002 A 
ATOM     81  C   UNL A   1      35.102  33.298  29.797  1.00  0.00     0.091 A 
ATOM     82  F   UNL A   1      36.979  33.005  28.351  1.00  0.00    -0.205 F 
ATOM     83  C   UNL A   1      34.500  33.072  31.044  1.00  0.00     0.022 A 
BRANCH  81  84
ATOM     84  S   UNL A   1      34.170  34.259  28.599  1.00  0.00     0.127 S 
ATOM     85  O   UNL A   1      34.934  35.504  28.556  1.00  0.00    -0.237 OA
ATOM     86  O   UNL A   1      34.278  33.427  27.398  1.00  0.00    -0.237 OA
ATOM     87  O   UNL A   1      32.823  34.360  29.138  1.00  0.00    -0.744 OA
ENDBRANCH  81  84
ENDBRANCH  53  77
BRANCH  65  88
ATOM     88  C   UNL A   1      43.344  35.202  31.589  1.00  0.00     0.023 A 
ATOM     89  C   UNL A   1      43.712  36.209  30.674  1.00  0.00     0.012 A 
ATOM     90  C   UNL A   1      43.305  35.501  32.966  1.00  0.00     0.148 A 
ATOM     91  C   UNL A   1      44.071  37.479  31.123  1.00  0.00     0.002 A 
ATOM     92  C   UNL A   1      43.614  36.784  33.401  1.00  0.00     0.091 A 
ATOM     93  F   UNL A   1      42.971  34.526  33.823  1.00  0.00    -0.205 F 
ATOM     94  C   UNL A   1      44.011  37.770  32.484  1.00  0.00     0.022 A 
BRANCH  92  95
ATOM     95  S   UNL A   1      43.469  37.277  35.124  1.00  0.00     0.127 S 
ATOM     96  O   UNL A   1      43.821  38.694  35.059  1.00  0.00    -0.237 OA
ATOM     97  O   UNL A   1      42.058  37.010  35.405  1.00  0.00    -0.237 OA
ATOM     98  O   UNL A   1      44.401  36.434  35.862  1.00  0.00    -0.744 OA
ENDBRANCH  92  95
ENDBRANCH  65  88
ENDBRANCH  39  40
ENDBRANCH  31  34
ENDBRANCH  29  30
ENDBRANCH  28  29
ENDBRANCH   1  28
TORSDOF 18
ENDMDL
MODEL 3
REMARK VINA RESULT:     -12.3      0.772      7.401
REMARK SMILES O=C(CCCc1nc(-c2ccc(Cl)c(Cl)c2)c(-c2ccccc2)o1)NCCCNC(=O)c1ccc(-c2c3nc(c(-c4cccc(S(=O)(=O)[O-])c4F)c4ccc([nH]4)c(-c4cccc(S(=O)(=O)[O-])c4F)c4nc(c(-c5cccc(S(=O)(=O)[O-])c5F)c5ccc2[nH]5)C=C4)C=C3)cc1
REMARK SMILES IDX 26 1 25 2 1 3 2 4 3 6 4 7 5 8 6 9 7 10 24 11 8 12 17 13 9 14
REMARK SMILES IDX 10 15 16 16 11 17 14 18 12 19 15 20 13 21 18 22 19 23 23 24
REMARK SMILES IDX 20 25 22 26 21 27 27 28 28 29 29 30 30 31 31 33 32 34 33 35
REMARK SMILES IDX 94 36 34 37 93 38 35 39 36 40 37 41 87 42 38 43 92 44 86 45
REMARK SMILES IDX 88 46 39 47 91 48 85 49 84 50 40 52 72 53 52 54 71 55 53 56
REMARK SMILES IDX 56 57 70 58 89 59 54 60 55 61 69 63 90 64 57 65 41 66 42 67
REMARK SMILES IDX 50 68 43 69 45 70 51 71 44 72 46 73 47 74 48 75 49 76 73 77
REMARK SMILES IDX 74 78 82 79 75 80 77 81 83 82 76 83 78 84 79 85 80 86 81 87
REMARK SMILES IDX 58 88 59 89 67 90 60 91 62 92 68 93 61 94 63 95 64 96 65 97
REMARK SMILES IDX 66 98
REMARK H PARENT 25 5 29 32 88 51 56 62
REMARK Flexibility Score: inf
ROOT
ATOM      1  C   UNL A   1      30.383  32.680  25.099  1.00  0.00     0.117 C 
ENDROOT
BRANCH   1   2
ATOM      2  N   UNL A   1      29.462  32.027  24.191  1.00  0.00    -0.356 N 
ATOM      3  O   UNL A   1      28.832  33.944  23.089  1.00  0.00    -0.275 OA
ATOM      4  C   UNL A   1      28.778  32.726  23.225  1.00  0.00     0.220 C 
ATOM      5  H   UNL A   1      29.322  31.056  24.268  1.00  0.00     0.163 HD
BRANCH   4   6
ATOM      6  C   UNL A   1      27.975  31.850  22.291  1.00  0.00     0.100 C 
BRANCH   6   7
ATOM      7  C   UNL A   1      28.138  30.362  22.623  1.00  0.00     0.020 C 
BRANCH   7   8
ATOM      8  C   UNL A   1      29.029  29.553  21.667  1.00  0.00     0.098 C 
BRANCH   8   9
ATOM      9  C   UNL A   1      30.077  28.771  22.376  1.00  0.00     0.195 A 
ATOM     10  N   UNL A   1      30.650  27.645  21.998  1.00  0.00    -0.213 NA
ATOM     11  O   UNL A   1      30.483  29.237  23.602  1.00  0.00    -0.440 OA
ATOM     12  C   UNL A   1      31.462  27.326  23.053  1.00  0.00     0.117 A 
ATOM     13  C   UNL A   1      31.413  28.317  24.009  1.00  0.00     0.162 A 
BRANCH  12  14
ATOM     14  C   UNL A   1      32.259  26.124  23.130  1.00  0.00     0.006 A 
ATOM     15  C   UNL A   1      33.625  26.216  23.401  1.00  0.00     0.012 A 
ATOM     16  C   UNL A   1      31.666  24.865  22.963  1.00  0.00     0.032 A 
ATOM     17  C   UNL A   1      34.387  25.055  23.544  1.00  0.00     0.023 A 
ATOM     18  C   UNL A   1      32.430  23.703  23.095  1.00  0.00     0.060 A 
ATOM     19  C   UNL A   1      33.792  23.798  23.395  1.00  0.00     0.059 A 
ATOM     20  Cl  UNL A   1      31.632  22.188  22.873  1.00  0.00    -0.083 Cl
ATOM     21  Cl  UNL A   1      34.797  22.408  23.598  1.00  0.00    -0.083 Cl
ENDBRANCH  12  14
BRANCH  13  22
ATOM     22  C   UNL A   1      32.125  28.556  25.250  1.00  0.00     0.020 A 
ATOM     23  C   UNL A   1      31.610  28.110  26.468  1.00  0.00     0.012 A 
ATOM     24  C   UNL A   1      33.403  29.131  25.221  1.00  0.00     0.012 A 
ATOM     25  C   UNL A   1      32.362  28.231  27.639  1.00  0.00     0.001 A 
ATOM     26  C   UNL A   1      34.155  29.251  26.391  1.00  0.00     0.001 A 
ATOM     27  C   UNL A   1      33.635  28.796  27.599  1.00  0.00     0.000 A 
ENDBRANCH  13  22
ENDBRANCH   8   9
ENDBRANCH   7   8
ENDBRANCH   6   7
ENDBRANCH   4   6
ENDBRANCH   1   2
BRANCH   1  28
ATOM     28  C   UNL A   1      30.838  31.769  26.231  1.00  0.00     0.042 C 
BRANCH  28  29
ATOM     29  C   UNL A   1      32.168  32.152  26.872  1.00  0.00     0.118 C 
BRANCH  29  30
ATOM     30  N   UNL A   1      32.249  33.556  27.251  1.00  0.00    -0.352 N 
ATOM     31  C   UNL A   1      33.137  34.199  28.083  1.00  0.00     0.251 C 
ATOM     32  H   UNL A   1      31.562  34.135  26.851  1.00  0.00     0.163 HD
ATOM     33  O   UNL A   1      32.941  35.379  28.373  1.00  0.00    -0.269 OA
BRANCH  31  34
ATOM     34  C   UNL A   1      34.312  33.489  28.644  1.00  0.00     0.039 A 
ATOM     35  C   UNL A   1      35.561  34.114  28.635  1.00  0.00     0.014 A 
ATOM     36  C   UNL A   1      34.197  32.199  29.160  1.00  0.00     0.014 A 
ATOM     37  C   UNL A   1      36.667  33.470  29.201  1.00  0.00     0.010 A 
ATOM     38  C   UNL A   1      35.275  31.593  29.800  1.00  0.00     0.010 A 
ATOM     39  C   UNL A   1      36.526  32.217  29.821  1.00  0.00    -0.014 A 
BRANCH  39  40
ATOM     40  C   UNL A   1      37.662  31.565  30.527  1.00  0.00     0.031 A 
ATOM     41  C   UNL A   1      38.481  30.494  29.854  1.00  0.00     0.074 A 
ATOM     42  C   UNL A   1      37.898  31.875  31.817  1.00  0.00     0.049 A 
ATOM     43  N   UNL A   1      39.490  29.809  30.329  1.00  0.00    -0.248 NA
ATOM     44  C   UNL A   1      38.101  30.120  28.481  1.00  0.00     0.031 C 
ATOM     45  C   UNL A   1      37.112  32.818  32.616  1.00  0.00     0.029 A 
ATOM     46  N   UNL A   1      38.849  31.413  32.692  1.00  0.00    -0.354 N 
ATOM     47  C   UNL A   1      39.849  28.911  29.331  1.00  0.00     0.074 A 
ATOM     48  C   UNL A   1      38.921  29.108  28.237  1.00  0.00     0.031 C 
ATOM     49  C   UNL A   1      37.619  32.874  33.858  1.00  0.00     0.029 A 
ATOM     50  C   UNL A   1      38.748  31.953  33.954  1.00  0.00     0.049 A 
ATOM     51  H   UNL A   1      39.539  30.756  32.441  1.00  0.00     0.167 HD
ATOM     52  C   UNL A   1      40.874  28.026  29.312  1.00  0.00     0.034 A 
ATOM     53  C   UNL A   1      39.478  31.733  35.064  1.00  0.00     0.034 A 
ATOM     54  C   UNL A   1      41.818  27.858  30.385  1.00  0.00     0.049 A 
ATOM     55  C   UNL A   1      40.641  30.781  34.999  1.00  0.00     0.074 A 
ATOM     56  C   UNL A   1      42.947  27.060  30.422  1.00  0.00     0.029 A 
ATOM     57  N   UNL A   1      41.737  28.490  31.616  1.00  0.00    -0.354 N 
ATOM     58  N   UNL A   1      41.073  30.073  33.985  1.00  0.00    -0.248 NA
ATOM     59  C   UNL A   1      41.444  30.630  36.222  1.00  0.00     0.031 C 
ATOM     60  C   UNL A   1      43.534  27.186  31.686  1.00  0.00     0.029 A 
ATOM     61  C   UNL A   1      42.789  28.091  32.425  1.00  0.00     0.049 A 
ATOM     62  H   UNL A   1      41.035  29.128  31.880  1.00  0.00     0.167 HD
ATOM     63  C   UNL A   1      42.216  29.423  34.433  1.00  0.00     0.074 A 
ATOM     64  C   UNL A   1      42.424  29.839  35.804  1.00  0.00     0.031 C 
ATOM     65  C   UNL A   1      43.015  28.548  33.772  1.00  0.00     0.034 A 
BRANCH  52  66
ATOM     66  C   UNL A   1      41.071  27.204  28.062  1.00  0.00     0.023 A 
ATOM     67  C   UNL A   1      41.648  27.801  26.922  1.00  0.00     0.012 A 
ATOM     68  C   UNL A   1      40.755  25.832  28.034  1.00  0.00     0.148 A 
ATOM     69  C   UNL A   1      41.873  27.057  25.764  1.00  0.00     0.002 A 
ATOM     70  C   UNL A   1      41.025  25.086  26.892  1.00  0.00     0.091 A 
ATOM     71  F   UNL A   1      40.191  25.283  29.120  1.00  0.00    -0.205 F 
ATOM     72  C   UNL A   1      41.572  25.699  25.754  1.00  0.00     0.022 A 
BRANCH  70  73
ATOM     73  S   UNL A   1      40.747  23.313  26.803  1.00  0.00     0.127 S 
ATOM     74  O   UNL A   1      41.665  22.927  25.732  1.00  0.00    -0.237 OA
ATOM     75  O   UNL A   1      41.148  22.871  28.138  1.00  0.00    -0.237 OA
ATOM     76  O   UNL A   1      39.333  23.143  26.504  1.00  0.00    -0.744 OA
ENDBRANCH  70  73
ENDBRANCH  52  66
BRANCH  53  77
ATOM     77  C   UNL A   1      39.174  32.485  36.315  1.00  0.00     0.023 A 
ATOM     78  C   UNL A   1      39.748  33.755  36.515  1.00  0.00     0.012 A 
ATOM     79  C   UNL A   1      38.302  31.962  37.288  1.00  0.00     0.148 A 
ATOM     80  C   UNL A   1      39.487  34.477  37.679  1.00  0.00     0.002 A 
ATOM     81  C   UNL A   1      38.000  32.712  38.419  1.00  0.00     0.091 A 
ATOM     82  F   UNL A   1      37.773  30.748  37.081  1.00  0.00    -0.205 F 
ATOM     83  C   UNL A   1      38.607  33.960  38.626  1.00  0.00     0.022 A 
BRANCH  81  84
ATOM     84  S   UNL A   1      36.776  32.185  39.623  1.00  0.00     0.127 S 
ATOM     85  O   UNL A   1      36.987  33.147  40.703  1.00  0.00    -0.237 OA
ATOM     86  O   UNL A   1      35.527  32.359  38.878  1.00  0.00    -0.237 OA
ATOM     87  O   UNL A   1      37.100  30.802  39.935  1.00  0.00    -0.744 OA
ENDBRANCH  81  84
ENDBRANCH  53  77
BRANCH  65  88
ATOM     88  C   UNL A   1      44.216  28.008  34.505  1.00  0.00     0.023 A 
ATOM     89  C   UNL A   1      45.422  28.735  34.515  1.00  0.00     0.012 A 
ATOM     90  C   UNL A   1      44.128  26.807  35.239  1.00  0.00     0.148 A 
ATOM     91  C   UNL A   1      46.534  28.258  35.209  1.00  0.00     0.002 A 
ATOM     92  C   UNL A   1      45.223  26.365  35.971  1.00  0.00     0.091 A 
ATOM     93  F   UNL A   1      42.977  26.118  35.204  1.00  0.00    -0.205 F 
ATOM     94  C   UNL A   1      46.431  27.080  35.946  1.00  0.00     0.022 A 
BRANCH  92  95
ATOM     95  S   UNL A   1      45.151  24.912  37.027  1.00  0.00     0.127 S 
ATOM     96  O   UNL A   1      46.564  24.697  37.333  1.00  0.00    -0.237 OA
ATOM     97  O   UNL A   1      44.348  25.387  38.154  1.00  0.00    -0.237 OA
ATOM     98  O   UNL A   1      44.517  23.869  36.232  1.00  0.00    -0.744 OA
ENDBRANCH  92  95
ENDBRANCH  65  88
ENDBRANCH  39  40
ENDBRANCH  31  34
ENDBRANCH  29  30
ENDBRANCH  28  29
ENDBRANCH   1  28
TORSDOF 18
ENDMDL
