MODEL 1
REMARK VINA RESULT:     -12.8      0.000      0.000
REMARK SMILES Cc1cc(Br)cc2c1O[C@H](C(F)(F)F)C(C(=O)NCCCNC(=O)c1ccc(-c3c4nc(c(-c5cccc(S(=O)(=O)[O-])c5F)c5ccc([nH]5)c(-c5cccc(S(=O)(=O)[O-])c5F)c5nc(c(-c6cccc(S(=O)(=O)[O-])c6F)c6ccc3[nH]6)C=C5)C=C4)cc1)=C2
REMARK SMILES IDX 21 1 20 2 19 3 18 4 16 5 17 6 15 8 1 9 2 10 3 11 8 12 4 13
REMARK SMILES IDX 7 14 9 15 5 16 6 17 88 18 10 19 11 20 12 21 13 22 14 23
REMARK SMILES IDX 22 24 23 25 24 27 25 28 26 29 87 30 27 31 86 32 28 33 29 34
REMARK SMILES IDX 30 35 80 36 31 37 85 38 79 39 81 40 32 41 84 42 78 43 77 44
REMARK SMILES IDX 33 46 65 47 45 48 64 49 46 50 49 51 63 52 82 53 47 54 48 55
REMARK SMILES IDX 62 57 83 58 50 59 34 60 35 61 43 62 36 63 38 64 44 65 37 66
REMARK SMILES IDX 39 67 40 68 41 69 42 70 66 71 67 72 75 73 68 74 70 75 76 76
REMARK SMILES IDX 69 77 71 78 72 79 73 80 74 81 51 82 52 83 60 84 53 85 55 86
REMARK SMILES IDX 61 87 54 88 56 89 57 90 58 91 59 92
REMARK H PARENT 18 7 22 26 81 45 49 56
REMARK Flexibility Score: inf
ROOT
ATOM      1  C   UNL A   1      33.245  29.127  25.154  1.00  0.00     0.118 C 
ENDROOT
BRANCH   1   2
ATOM      2  C   UNL A   1      33.186  29.051  23.635  1.00  0.00     0.042 C 
BRANCH   2   3
ATOM      3  C   UNL A   1      32.086  28.121  23.151  1.00  0.00     0.118 C 
BRANCH   3   4
ATOM      4  N   UNL A   1      32.542  27.241  22.085  1.00  0.00    -0.352 N 
ATOM      5  C   UNL A   1      33.030  25.984  21.978  1.00  0.00     0.251 C 
ATOM      6  O   UNL A   1      33.278  25.609  20.827  1.00  0.00    -0.270 OA
ATOM      7  H   UNL A   1      32.479  27.679  21.206  1.00  0.00     0.163 HD
BRANCH   5   8
ATOM      8  C   UNL A   1      33.262  25.056  23.122  1.00  0.00     0.067 C 
ATOM      9  C   UNL A   1      33.261  22.526  27.602  1.00  0.00     0.048 C 
ATOM     10  C   UNL A   1      34.103  22.508  26.357  1.00  0.00    -0.007 A 
ATOM     11  C   UNL A   1      35.176  21.612  26.256  1.00  0.00     0.023 A 
ATOM     12  C   UNL A   1      33.872  23.399  25.301  1.00  0.00     0.130 A 
ATOM     13  C   UNL A   1      35.981  21.607  25.116  1.00  0.00     0.019 A 
ATOM     14  C   UNL A   1      34.676  23.394  24.155  1.00  0.00     0.019 A 
ATOM     15  O   UNL A   1      32.863  24.305  25.461  1.00  0.00    -0.475 OA
ATOM     16  Br  UNL A   1      37.425  20.391  25.001  1.00  0.00    -0.051 Br
ATOM     17  C   UNL A   1      35.737  22.490  24.064  1.00  0.00     0.027 A 
ATOM     18  C   UNL A   1      34.408  24.350  23.087  1.00  0.00     0.025 C 
ATOM     19  C   UNL A   1      32.291  24.856  24.248  1.00  0.00     0.314 C 
BRANCH  19  20
ATOM     20  C   UNL A   1      31.071  24.011  23.835  1.00  0.00     0.429 C 
ATOM     21  F   UNL A   1      30.101  24.799  23.305  1.00  0.00    -0.167 F 
ATOM     22  F   UNL A   1      31.368  23.085  22.892  1.00  0.00    -0.167 F 
ATOM     23  F   UNL A   1      30.521  23.341  24.873  1.00  0.00    -0.167 F 
ENDBRANCH  19  20
ENDBRANCH   5   8
ENDBRANCH   3   4
ENDBRANCH   2   3
ENDBRANCH   1   2
BRANCH   1  24
ATOM     24  N   UNL A   1      32.710  30.393  25.654  1.00  0.00    -0.352 N 
ATOM     25  C   UNL A   1      33.041  31.107  26.778  1.00  0.00     0.251 C 
ATOM     26  H   UNL A   1      32.004  30.794  25.099  1.00  0.00     0.163 HD
ATOM     27  O   UNL A   1      32.285  31.991  27.181  1.00  0.00    -0.269 OA
BRANCH  25  28
ATOM     28  C   UNL A   1      34.297  30.819  27.494  1.00  0.00     0.039 A 
ATOM     29  C   UNL A   1      35.260  31.822  27.630  1.00  0.00     0.014 A 
ATOM     30  C   UNL A   1      34.532  29.542  28.007  1.00  0.00     0.014 A 
ATOM     31  C   UNL A   1      36.435  31.554  28.335  1.00  0.00     0.010 A 
ATOM     32  C   UNL A   1      35.647  29.310  28.799  1.00  0.00     0.010 A 
ATOM     33  C   UNL A   1      36.623  30.304  28.949  1.00  0.00    -0.014 A 
BRANCH  33  34
ATOM     34  C   UNL A   1      37.847  29.997  29.724  1.00  0.00     0.031 A 
ATOM     35  C   UNL A   1      38.877  29.060  29.155  1.00  0.00     0.074 A 
ATOM     36  C   UNL A   1      37.992  30.498  30.966  1.00  0.00     0.049 A 
ATOM     37  N   UNL A   1      39.987  28.631  29.696  1.00  0.00    -0.248 NA
ATOM     38  C   UNL A   1      38.613  28.506  27.815  1.00  0.00     0.031 C 
ATOM     39  C   UNL A   1      37.019  31.353  31.650  1.00  0.00     0.029 A 
ATOM     40  N   UNL A   1      39.003  30.348  31.881  1.00  0.00    -0.354 N 
ATOM     41  C   UNL A   1      40.533  27.739  28.781  1.00  0.00     0.074 A 
ATOM     42  C   UNL A   1      39.609  27.643  27.675  1.00  0.00     0.031 C 
ATOM     43  C   UNL A   1      37.493  31.672  32.865  1.00  0.00     0.029 A 
ATOM     44  C   UNL A   1      38.784  31.020  33.061  1.00  0.00     0.049 A 
ATOM     45  H   UNL A   1      39.810  29.810  31.708  1.00  0.00     0.167 HD
ATOM     46  C   UNL A   1      41.721  27.094  28.834  1.00  0.00     0.034 A 
ATOM     47  C   UNL A   1      39.543  31.103  34.171  1.00  0.00     0.034 A 
ATOM     48  C   UNL A   1      42.658  27.239  29.913  1.00  0.00     0.049 A 
ATOM     49  C   UNL A   1      40.872  30.399  34.196  1.00  0.00     0.074 A 
ATOM     50  C   UNL A   1      43.925  26.699  30.026  1.00  0.00     0.029 A 
ATOM     51  N   UNL A   1      42.430  27.977  31.063  1.00  0.00    -0.354 N 
ATOM     52  N   UNL A   1      41.443  29.684  33.257  1.00  0.00    -0.248 NA
ATOM     53  C   UNL A   1      41.677  30.536  35.419  1.00  0.00     0.031 C 
ATOM     54  C   UNL A   1      44.454  27.090  31.258  1.00  0.00     0.029 A 
ATOM     55  C   UNL A   1      43.527  27.896  31.902  1.00  0.00     0.049 A 
ATOM     56  H   UNL A   1      41.609  28.484  31.256  1.00  0.00     0.167 HD
ATOM     57  C   UNL A   1      42.681  29.304  33.763  1.00  0.00     0.074 A 
ATOM     58  C   UNL A   1      42.789  29.893  35.082  1.00  0.00     0.031 C 
ATOM     59  C   UNL A   1      43.633  28.524  33.194  1.00  0.00     0.034 A 
BRANCH  46  60
ATOM     60  C   UNL A   1      42.107  26.232  27.660  1.00  0.00     0.023 A 
ATOM     61  C   UNL A   1      42.872  26.789  26.613  1.00  0.00     0.012 A 
ATOM     62  C   UNL A   1      41.777  24.864  27.619  1.00  0.00     0.148 A 
ATOM     63  C   UNL A   1      43.273  26.009  25.531  1.00  0.00     0.002 A 
ATOM     64  C   UNL A   1      42.224  24.080  26.562  1.00  0.00     0.091 A 
ATOM     65  F   UNL A   1      41.031  24.356  28.611  1.00  0.00    -0.205 F 
ATOM     66  C   UNL A   1      42.961  24.653  25.511  1.00  0.00     0.022 A 
BRANCH  64  67
ATOM     67  S   UNL A   1      41.951  22.306  26.482  1.00  0.00     0.127 S 
ATOM     68  O   UNL A   1      42.496  21.864  27.764  1.00  0.00    -0.237 OA
ATOM     69  O   UNL A   1      40.493  22.226  26.379  1.00  0.00    -0.237 OA
ATOM     70  O   UNL A   1      42.671  21.841  25.304  1.00  0.00    -0.744 OA
ENDBRANCH  64  67
ENDBRANCH  46  60
BRANCH  47  71
ATOM     71  C   UNL A   1      39.094  31.962  35.305  1.00  0.00     0.023 A 
ATOM     72  C   UNL A   1      39.208  33.361  35.193  1.00  0.00     0.012 A 
ATOM     73  C   UNL A   1      38.489  31.412  36.453  1.00  0.00     0.148 A 
ATOM     74  C   UNL A   1      38.745  34.197  36.209  1.00  0.00     0.002 A 
ATOM     75  C   UNL A   1      37.978  32.253  37.435  1.00  0.00     0.091 A 
ATOM     76  F   UNL A   1      38.396  30.078  36.544  1.00  0.00    -0.205 F 
ATOM     77  C   UNL A   1      38.119  33.645  37.323  1.00  0.00     0.022 A 
BRANCH  75  78
ATOM     78  S   UNL A   1      37.027  31.644  38.833  1.00  0.00     0.127 S 
ATOM     79  O   UNL A   1      36.827  30.242  38.472  1.00  0.00    -0.237 OA
ATOM     80  O   UNL A   1      37.951  31.868  39.945  1.00  0.00    -0.237 OA
ATOM     81  O   UNL A   1      35.821  32.460  38.878  1.00  0.00    -0.744 OA
ENDBRANCH  75  78
ENDBRANCH  47  71
BRANCH  59  82
ATOM     82  C   UNL A   1      44.886  28.247  33.985  1.00  0.00     0.023 A 
ATOM     83  C   UNL A   1      45.953  29.164  33.935  1.00  0.00     0.012 A 
ATOM     84  C   UNL A   1      44.952  27.155  34.875  1.00  0.00     0.148 A 
ATOM     85  C   UNL A   1      47.074  28.993  34.745  1.00  0.00     0.002 A 
ATOM     86  C   UNL A   1      46.048  27.020  35.717  1.00  0.00     0.091 A 
ATOM     87  F   UNL A   1      43.929  26.287  34.897  1.00  0.00    -0.205 F 
ATOM     88  C   UNL A   1      47.114  27.931  35.647  1.00  0.00     0.022 A 
BRANCH  86  89
ATOM     89  S   UNL A   1      46.142  25.752  36.987  1.00  0.00     0.127 S 
ATOM     90  O   UNL A   1      44.953  26.041  37.785  1.00  0.00    -0.237 OA
ATOM     91  O   UNL A   1      46.064  24.522  36.199  1.00  0.00    -0.237 OA
ATOM     92  O   UNL A   1      47.412  25.955  37.669  1.00  0.00    -0.744 OA
ENDBRANCH  86  89
ENDBRANCH  59  82
ENDBRANCH  33  34
ENDBRANCH  25  28
ENDBRANCH   1  24
TORSDOF 14
ENDMDL
MODEL 2
REMARK VINA RESULT:     -12.7      5.256      9.972
REMARK SMILES Cc1cc(Br)cc2c1O[C@H](C(F)(F)F)C(C(=O)NCCCNC(=O)c1ccc(-c3c4nc(c(-c5cccc(S(=O)(=O)[O-])c5F)c5ccc([nH]5)c(-c5cccc(S(=O)(=O)[O-])c5F)c5nc(c(-c6cccc(S(=O)(=O)[O-])c6F)c6ccc3[nH]6)C=C5)C=C4)cc1)=C2
REMARK SMILES IDX 21 1 20 2 19 3 18 4 16 5 17 6 15 8 1 9 2 10 3 11 8 12 4 13
REMARK SMILES IDX 7 14 9 15 5 16 6 17 88 18 10 19 11 20 12 21 13 22 14 23
REMARK SMILES IDX 22 24 23 25 24 27 25 28 26 29 87 30 27 31 86 32 28 33 29 34
REMARK SMILES IDX 30 35 80 36 31 37 85 38 79 39 81 40 32 41 84 42 78 43 77 44
REMARK SMILES IDX 33 46 65 47 45 48 64 49 46 50 49 51 63 52 82 53 47 54 48 55
REMARK SMILES IDX 62 57 83 58 50 59 34 60 35 61 43 62 36 63 38 64 44 65 37 66
REMARK SMILES IDX 39 67 40 68 41 69 42 70 66 71 67 72 75 73 68 74 70 75 76 76
REMARK SMILES IDX 69 77 71 78 72 79 73 80 74 81 51 82 52 83 60 84 53 85 55 86
REMARK SMILES IDX 61 87 54 88 56 89 57 90 58 91 59 92
REMARK H PARENT 18 7 22 26 81 45 49 56
REMARK Flexibility Score: inf
ROOT
ATOM      1  C   UNL A   1      35.634  22.337  26.122  1.00  0.00     0.118 C 
ENDROOT
BRANCH   1   2
ATOM      2  C   UNL A   1      34.433  21.846  26.918  1.00  0.00     0.042 C 
BRANCH   2   3
ATOM      3  C   UNL A   1      33.202  21.670  26.045  1.00  0.00     0.118 C 
BRANCH   3   4
ATOM      4  N   UNL A   1      32.007  22.225  26.665  1.00  0.00    -0.352 N 
ATOM      5  C   UNL A   1      31.347  23.406  26.665  1.00  0.00     0.251 C 
ATOM      6  O   UNL A   1      30.315  23.435  27.345  1.00  0.00    -0.270 OA
ATOM      7  H   UNL A   1      31.559  21.562  27.238  1.00  0.00     0.163 HD
BRANCH   5   8
ATOM      8  C   UNL A   1      31.769  24.621  25.912  1.00  0.00     0.067 C 
ATOM      9  C   UNL A   1      33.750  28.033  22.610  1.00  0.00     0.048 C 
ATOM     10  C   UNL A   1      33.064  28.103  23.945  1.00  0.00    -0.007 A 
ATOM     11  C   UNL A   1      32.828  29.349  24.542  1.00  0.00     0.023 A 
ATOM     12  C   UNL A   1      32.689  26.945  24.639  1.00  0.00     0.130 A 
ATOM     13  C   UNL A   1      32.216  29.423  25.794  1.00  0.00     0.019 A 
ATOM     14  C   UNL A   1      32.073  27.017  25.894  1.00  0.00     0.019 A 
ATOM     15  O   UNL A   1      32.996  25.747  24.062  1.00  0.00    -0.475 OA
ATOM     16  Br  UNL A   1      31.907  31.114  26.582  1.00  0.00    -0.051 Br
ATOM     17  C   UNL A   1      31.836  28.265  26.473  1.00  0.00     0.027 A 
ATOM     18  C   UNL A   1      31.714  25.785  26.587  1.00  0.00     0.025 C 
ATOM     19  C   UNL A   1      32.201  24.607  24.475  1.00  0.00     0.314 C 
BRANCH  19  20
ATOM     20  C   UNL A   1      31.017  24.438  23.503  1.00  0.00     0.429 C 
ATOM     21  F   UNL A   1      31.300  25.004  22.302  1.00  0.00    -0.167 F 
ATOM     22  F   UNL A   1      30.724  23.139  23.253  1.00  0.00    -0.167 F 
ATOM     23  F   UNL A   1      29.879  25.009  23.958  1.00  0.00    -0.167 F 
ENDBRANCH  19  20
ENDBRANCH   5   8
ENDBRANCH   3   4
ENDBRANCH   2   3
ENDBRANCH   1   2
BRANCH   1  24
ATOM     24  N   UNL A   1      36.578  21.256  25.844  1.00  0.00    -0.352 N 
ATOM     25  C   UNL A   1      37.943  21.290  25.708  1.00  0.00     0.251 C 
ATOM     26  H   UNL A   1      36.172  20.366  25.737  1.00  0.00     0.163 HD
ATOM     27  O   UNL A   1      38.526  20.338  25.189  1.00  0.00    -0.269 OA
BRANCH  25  28
ATOM     28  C   UNL A   1      38.704  22.459  26.184  1.00  0.00     0.039 A 
ATOM     29  C   UNL A   1      39.845  22.268  26.968  1.00  0.00     0.014 A 
ATOM     30  C   UNL A   1      38.269  23.750  25.876  1.00  0.00     0.014 A 
ATOM     31  C   UNL A   1      40.580  23.377  27.392  1.00  0.00     0.010 A 
ATOM     32  C   UNL A   1      39.058  24.842  26.204  1.00  0.00     0.010 A 
ATOM     33  C   UNL A   1      40.207  24.670  26.987  1.00  0.00    -0.014 A 
BRANCH  33  34
ATOM     34  C   UNL A   1      40.980  25.864  27.400  1.00  0.00     0.031 A 
ATOM     35  C   UNL A   1      40.321  26.930  28.233  1.00  0.00     0.074 A 
ATOM     36  C   UNL A   1      42.243  26.025  26.959  1.00  0.00     0.049 A 
ATOM     37  N   UNL A   1      40.813  28.066  28.652  1.00  0.00    -0.248 NA
ATOM     38  C   UNL A   1      38.917  26.707  28.620  1.00  0.00     0.031 C 
ATOM     39  C   UNL A   1      42.955  25.093  26.082  1.00  0.00     0.029 A 
ATOM     40  N   UNL A   1      43.146  27.034  27.176  1.00  0.00    -0.354 N 
ATOM     41  C   UNL A   1      39.775  28.702  29.323  1.00  0.00     0.074 A 
ATOM     42  C   UNL A   1      38.610  27.855  29.207  1.00  0.00     0.031 C 
ATOM     43  C   UNL A   1      44.193  25.563  25.855  1.00  0.00     0.029 A 
ATOM     44  C   UNL A   1      44.352  26.841  26.543  1.00  0.00     0.049 A 
ATOM     45  H   UNL A   1      42.950  27.822  27.733  1.00  0.00     0.167 HD
ATOM     46  C   UNL A   1      39.800  29.865  30.013  1.00  0.00     0.034 A 
ATOM     47  C   UNL A   1      45.461  27.606  26.524  1.00  0.00     0.034 A 
ATOM     48  C   UNL A   1      40.978  30.673  30.168  1.00  0.00     0.049 A 
ATOM     49  C   UNL A   1      45.474  28.882  27.322  1.00  0.00     0.074 A 
ATOM     50  C   UNL A   1      41.135  31.823  30.917  1.00  0.00     0.029 A 
ATOM     51  N   UNL A   1      42.198  30.414  29.564  1.00  0.00    -0.354 N 
ATOM     52  N   UNL A   1      44.531  29.392  28.078  1.00  0.00    -0.248 NA
ATOM     53  C   UNL A   1      46.712  29.675  27.293  1.00  0.00     0.031 C 
ATOM     54  C   UNL A   1      42.445  32.277  30.746  1.00  0.00     0.029 A 
ATOM     55  C   UNL A   1      43.112  31.393  29.910  1.00  0.00     0.049 A 
ATOM     56  H   UNL A   1      42.386  29.649  28.976  1.00  0.00     0.167 HD
ATOM     57  C   UNL A   1      45.065  30.550  28.631  1.00  0.00     0.074 A 
ATOM     58  C   UNL A   1      46.426  30.652  28.145  1.00  0.00     0.031 C 
ATOM     59  C   UNL A   1      44.476  31.455  29.451  1.00  0.00     0.034 A 
BRANCH  46  60
ATOM     60  C   UNL A   1      38.538  30.295  30.714  1.00  0.00     0.023 A 
ATOM     61  C   UNL A   1      38.346  29.950  32.069  1.00  0.00     0.012 A 
ATOM     62  C   UNL A   1      37.576  31.092  30.064  1.00  0.00     0.148 A 
ATOM     63  C   UNL A   1      37.206  30.362  32.755  1.00  0.00     0.002 A 
ATOM     64  C   UNL A   1      36.466  31.542  30.769  1.00  0.00     0.091 A 
ATOM     65  F   UNL A   1      37.763  31.391  28.771  1.00  0.00    -0.205 F 
ATOM     66  C   UNL A   1      36.273  31.168  32.110  1.00  0.00     0.022 A 
BRANCH  64  67
ATOM     67  S   UNL A   1      35.247  32.655  30.058  1.00  0.00     0.127 S 
ATOM     68  O   UNL A   1      36.082  33.781  29.642  1.00  0.00    -0.237 OA
ATOM     69  O   UNL A   1      34.709  31.855  28.957  1.00  0.00    -0.237 OA
ATOM     70  O   UNL A   1      34.297  32.943  31.123  1.00  0.00    -0.744 OA
ENDBRANCH  64  67
ENDBRANCH  46  60
BRANCH  47  71
ATOM     71  C   UNL A   1      46.671  27.130  25.797  1.00  0.00     0.023 A 
ATOM     72  C   UNL A   1      47.455  26.107  26.365  1.00  0.00     0.012 A 
ATOM     73  C   UNL A   1      47.007  27.623  24.520  1.00  0.00     0.148 A 
ATOM     74  C   UNL A   1      48.561  25.596  25.685  1.00  0.00     0.002 A 
ATOM     75  C   UNL A   1      48.076  27.069  23.824  1.00  0.00     0.091 A 
ATOM     76  F   UNL A   1      46.252  28.600  23.999  1.00  0.00    -0.205 F 
ATOM     77  C   UNL A   1      48.863  26.067  24.411  1.00  0.00     0.022 A 
BRANCH  75  78
ATOM     78  S   UNL A   1      48.453  27.505  22.122  1.00  0.00     0.127 S 
ATOM     79  O   UNL A   1      49.601  28.394  22.287  1.00  0.00    -0.237 OA
ATOM     80  O   UNL A   1      48.763  26.200  21.539  1.00  0.00    -0.237 OA
ATOM     81  O   UNL A   1      47.246  28.129  21.596  1.00  0.00    -0.744 OA
ENDBRANCH  75  78
ENDBRANCH  47  71
BRANCH  59  82
ATOM     82  C   UNL A   1      45.288  32.649  29.885  1.00  0.00     0.023 A 
ATOM     83  C   UNL A   1      46.097  32.554  31.033  1.00  0.00     0.012 A 
ATOM     84  C   UNL A   1      45.350  33.809  29.086  1.00  0.00     0.148 A 
ATOM     85  C   UNL A   1      46.946  33.601  31.391  1.00  0.00     0.002 A 
ATOM     86  C   UNL A   1      46.237  34.825  29.419  1.00  0.00     0.091 A 
ATOM     87  F   UNL A   1      44.561  33.882  28.004  1.00  0.00    -0.205 F 
ATOM     88  C   UNL A   1      47.027  34.728  30.575  1.00  0.00     0.022 A 
BRANCH  86  89
ATOM     89  S   UNL A   1      46.494  36.265  28.374  1.00  0.00     0.127 S 
ATOM     90  O   UNL A   1      45.197  36.933  28.464  1.00  0.00    -0.237 OA
ATOM     91  O   UNL A   1      47.584  36.955  29.064  1.00  0.00    -0.237 OA
ATOM     92  O   UNL A   1      46.839  35.752  27.056  1.00  0.00    -0.744 OA
ENDBRANCH  86  89
ENDBRANCH  59  82
ENDBRANCH  33  34
ENDBRANCH  25  28
ENDBRANCH   1  24
TORSDOF 14
ENDMDL
MODEL 3
REMARK VINA RESULT:     -12.7      2.451      3.325
REMARK SMILES Cc1cc(Br)cc2c1O[C@H](C(F)(F)F)C(C(=O)NCCCNC(=O)c1ccc(-c3c4nc(c(-c5cccc(S(=O)(=O)[O-])c5F)c5ccc([nH]5)c(-c5cccc(S(=O)(=O)[O-])c5F)c5nc(c(-c6cccc(S(=O)(=O)[O-])c6F)c6ccc3[nH]6)C=C5)C=C4)cc1)=C2
REMARK SMILES IDX 21 1 20 2 19 3 18 4 16 5 17 6 15 8 1 9 2 10 3 11 8 12 4 13
REMARK SMILES IDX 7 14 9 15 5 16 6 17 88 18 10 19 11 20 12 21 13 22 14 23
REMARK SMILES IDX 22 24 23 25 24 27 25 28 26 29 87 30 27 31 86 32 28 33 29 34
REMARK SMILES IDX 30 35 80 36 31 37 85 38 79 39 81 40 32 41 84 42 78 43 77 44
REMARK SMILES IDX 33 46 65 47 45 48 64 49 46 50 49 51 63 52 82 53 47 54 48 55
REMARK SMILES IDX 62 57 83 58 50 59 34 60 35 61 43 62 36 63 38 64 44 65 37 66
REMARK SMILES IDX 39 67 40 68 41 69 42 70 66 71 67 72 75 73 68 74 70 75 76 76
REMARK SMILES IDX 69 77 71 78 72 79 73 80 74 81 51 82 52 83 60 84 53 85 55 86
REMARK SMILES IDX 61 87 54 88 56 89 57 90 58 91 59 92
REMARK H PARENT 18 7 22 26 81 45 49 56
REMARK Flexibility Score: inf
ROOT
ATOM      1  C   UNL A   1      32.890  32.697  27.229  1.00  0.00     0.118 C 
ENDROOT
BRANCH   1   2
ATOM      2  C   UNL A   1      31.566  32.031  26.881  1.00  0.00     0.042 C 
BRANCH   2   3
ATOM      3  C   UNL A   1      31.713  30.529  26.699  1.00  0.00     0.118 C 
BRANCH   3   4
ATOM      4  N   UNL A   1      32.329  30.189  25.424  1.00  0.00    -0.352 N 
ATOM      5  C   UNL A   1      32.594  29.066  24.719  1.00  0.00     0.251 C 
ATOM      6  O   UNL A   1      33.133  29.245  23.622  1.00  0.00    -0.270 OA
ATOM      7  H   UNL A   1      32.635  30.994  24.947  1.00  0.00     0.163 HD
BRANCH   5   8
ATOM      8  C   UNL A   1      32.271  27.680  25.165  1.00  0.00     0.067 C 
ATOM      9  C   UNL A   1      30.129  23.378  27.000  1.00  0.00     0.048 C 
ATOM     10  C   UNL A   1      31.505  23.790  26.559  1.00  0.00    -0.007 A 
ATOM     11  C   UNL A   1      32.553  22.860  26.590  1.00  0.00     0.023 A 
ATOM     12  C   UNL A   1      31.785  25.102  26.157  1.00  0.00     0.130 A 
ATOM     13  C   UNL A   1      33.841  23.240  26.208  1.00  0.00     0.019 A 
ATOM     14  C   UNL A   1      33.075  25.485  25.771  1.00  0.00     0.019 A 
ATOM     15  O   UNL A   1      30.758  26.001  26.205  1.00  0.00    -0.475 OA
ATOM     16  Br  UNL A   1      35.240  21.969  26.258  1.00  0.00    -0.051 Br
ATOM     17  C   UNL A   1      34.108  24.546  25.799  1.00  0.00     0.027 A 
ATOM     18  C   UNL A   1      33.324  26.867  25.374  1.00  0.00     0.025 C 
ATOM     19  C   UNL A   1      30.875  27.163  25.347  1.00  0.00     0.314 C 
BRANCH  19  20
ATOM     20  C   UNL A   1      30.170  26.875  24.007  1.00  0.00     0.429 C 
ATOM     21  F   UNL A   1      29.029  26.168  24.209  1.00  0.00    -0.167 F 
ATOM     22  F   UNL A   1      29.809  28.004  23.351  1.00  0.00    -0.167 F 
ATOM     23  F   UNL A   1      30.939  26.163  23.153  1.00  0.00    -0.167 F 
ENDBRANCH  19  20
ENDBRANCH   5   8
ENDBRANCH   3   4
ENDBRANCH   2   3
ENDBRANCH   1   2
BRANCH   1  24
ATOM     24  N   UNL A   1      32.701  34.079  27.669  1.00  0.00    -0.352 N 
ATOM     25  C   UNL A   1      33.192  34.727  28.774  1.00  0.00     0.251 C 
ATOM     26  H   UNL A   1      32.135  34.629  27.082  1.00  0.00     0.163 HD
ATOM     27  O   UNL A   1      32.690  35.794  29.126  1.00  0.00    -0.269 OA
BRANCH  25  28
ATOM     28  C   UNL A   1      34.316  34.147  29.533  1.00  0.00     0.039 A 
ATOM     29  C   UNL A   1      34.056  33.343  30.645  1.00  0.00     0.014 A 
ATOM     30  C   UNL A   1      35.631  34.425  29.155  1.00  0.00     0.014 A 
ATOM     31  C   UNL A   1      35.122  32.771  31.342  1.00  0.00     0.010 A 
ATOM     32  C   UNL A   1      36.682  33.770  29.780  1.00  0.00     0.010 A 
ATOM     33  C   UNL A   1      36.442  32.958  30.895  1.00  0.00    -0.014 A 
BRANCH  33  34
ATOM     34  C   UNL A   1      37.592  32.344  31.598  1.00  0.00     0.031 A 
ATOM     35  C   UNL A   1      38.338  31.206  30.958  1.00  0.00     0.074 A 
ATOM     36  C   UNL A   1      37.912  32.759  32.839  1.00  0.00     0.049 A 
ATOM     37  N   UNL A   1      39.337  30.508  31.431  1.00  0.00    -0.248 NA
ATOM     38  C   UNL A   1      37.885  30.770  29.625  1.00  0.00     0.031 C 
ATOM     39  C   UNL A   1      37.207  33.801  33.589  1.00  0.00     0.029 A 
ATOM     40  N   UNL A   1      38.901  32.345  33.695  1.00  0.00    -0.354 N 
ATOM     41  C   UNL A   1      39.610  29.540  30.473  1.00  0.00     0.074 A 
ATOM     42  C   UNL A   1      38.637  29.699  29.417  1.00  0.00     0.031 C 
ATOM     43  C   UNL A   1      37.801  33.961  34.782  1.00  0.00     0.029 A 
ATOM     44  C   UNL A   1      38.906  33.014  34.897  1.00  0.00     0.049 A 
ATOM     45  H   UNL A   1      39.546  31.635  33.471  1.00  0.00     0.167 HD
ATOM     46  C   UNL A   1      40.609  28.628  30.451  1.00  0.00     0.034 A 
ATOM     47  C   UNL A   1      39.715  32.881  35.966  1.00  0.00     0.034 A 
ATOM     48  C   UNL A   1      41.604  28.513  31.480  1.00  0.00     0.049 A 
ATOM     49  C   UNL A   1      40.836  31.879  35.908  1.00  0.00     0.074 A 
ATOM     50  C   UNL A   1      42.708  27.683  31.515  1.00  0.00     0.029 A 
ATOM     51  N   UNL A   1      41.615  29.250  32.654  1.00  0.00    -0.354 N 
ATOM     52  N   UNL A   1      41.173  31.077  34.927  1.00  0.00    -0.248 NA
ATOM     53  C   UNL A   1      41.709  31.784  37.087  1.00  0.00     0.031 C 
ATOM     54  C   UNL A   1      43.375  27.899  32.724  1.00  0.00     0.029 A 
ATOM     55  C   UNL A   1      42.700  28.884  33.431  1.00  0.00     0.049 A 
ATOM     56  H   UNL A   1      40.950  29.932  32.899  1.00  0.00     0.167 HD
ATOM     57  C   UNL A   1      42.307  30.397  35.358  1.00  0.00     0.074 A 
ATOM     58  C   UNL A   1      42.616  30.904  36.681  1.00  0.00     0.031 C 
ATOM     59  C   UNL A   1      43.016  29.430  34.726  1.00  0.00     0.034 A 
BRANCH  46  60
ATOM     60  C   UNL A   1      40.720  27.734  29.243  1.00  0.00     0.023 A 
ATOM     61  C   UNL A   1      39.893  26.593  29.148  1.00  0.00     0.012 A 
ATOM     62  C   UNL A   1      41.583  28.050  28.177  1.00  0.00     0.148 A 
ATOM     63  C   UNL A   1      39.948  25.766  28.029  1.00  0.00     0.002 A 
ATOM     64  C   UNL A   1      41.594  27.248  27.041  1.00  0.00     0.091 A 
ATOM     65  F   UNL A   1      42.376  29.124  28.294  1.00  0.00    -0.205 F 
ATOM     66  C   UNL A   1      40.788  26.099  26.971  1.00  0.00     0.022 A 
BRANCH  64  67
ATOM     67  S   UNL A   1      42.576  27.635  25.587  1.00  0.00     0.127 S 
ATOM     68  O   UNL A   1      42.365  26.446  24.763  1.00  0.00    -0.237 OA
ATOM     69  O   UNL A   1      41.921  28.845  25.089  1.00  0.00    -0.237 OA
ATOM     70  O   UNL A   1      43.938  27.830  26.062  1.00  0.00    -0.744 OA
ENDBRANCH  64  67
ENDBRANCH  46  60
BRANCH  47  71
ATOM     71  C   UNL A   1      39.541  33.788  37.137  1.00  0.00     0.023 A 
ATOM     72  C   UNL A   1      39.914  35.140  37.020  1.00  0.00     0.012 A 
ATOM     73  C   UNL A   1      38.942  33.343  38.333  1.00  0.00     0.148 A 
ATOM     74  C   UNL A   1      39.711  36.030  38.075  1.00  0.00     0.002 A 
ATOM     75  C   UNL A   1      38.689  34.247  39.358  1.00  0.00     0.091 A 
ATOM     76  F   UNL A   1      38.599  32.051  38.428  1.00  0.00    -0.205 F 
ATOM     77  C   UNL A   1      39.088  35.587  39.238  1.00  0.00     0.022 A 
BRANCH  75  78
ATOM     78  S   UNL A   1      37.761  33.806  40.833  1.00  0.00     0.127 S 
ATOM     79  O   UNL A   1      38.694  32.914  41.518  1.00  0.00    -0.237 OA
ATOM     80  O   UNL A   1      37.573  35.109  41.470  1.00  0.00    -0.237 OA
ATOM     81  O   UNL A   1      36.532  33.185  40.356  1.00  0.00    -0.744 OA
ENDBRANCH  75  78
ENDBRANCH  47  71
BRANCH  59  82
ATOM     82  C   UNL A   1      44.202  28.838  35.444  1.00  0.00     0.023 A 
ATOM     83  C   UNL A   1      45.471  29.427  35.284  1.00  0.00     0.012 A 
ATOM     84  C   UNL A   1      44.035  27.791  36.373  1.00  0.00     0.148 A 
ATOM     85  C   UNL A   1      46.561  28.974  36.025  1.00  0.00     0.002 A 
ATOM     86  C   UNL A   1      45.114  27.380  37.146  1.00  0.00     0.091 A 
ATOM     87  F   UNL A   1      42.820  27.237  36.499  1.00  0.00    -0.205 F 
ATOM     88  C   UNL A   1      46.378  27.963  36.966  1.00  0.00     0.022 A 
BRANCH  86  89
ATOM     89  S   UNL A   1      44.955  26.165  38.459  1.00  0.00     0.127 S 
ATOM     90  O   UNL A   1      44.526  24.980  37.719  1.00  0.00    -0.237 OA
ATOM     91  O   UNL A   1      46.319  26.096  38.982  1.00  0.00    -0.237 OA
ATOM     92  O   UNL A   1      43.974  26.702  39.393  1.00  0.00    -0.744 OA
ENDBRANCH  86  89
ENDBRANCH  59  82
ENDBRANCH  33  34
ENDBRANCH  25  28
ENDBRANCH   1  24
TORSDOF 14
ENDMDL
