MODEL 1
REMARK VINA RESULT:     -11.2      0.000      0.000
REMARK SMILES CCc1nsc(NC[C@H](CC(C)C)C(=O)NCCCNC(=O)c2ccc(-c3c4nc(c(-c5cccc(S(=O)(=O)[O-])c5F)c5ccc([nH]5)c(-c5cccc(S(=O)(=O)[O-])c5F)c5nc(c(-c6cccc(S(=O)(=O)[O-])c6F)c6ccc3[nH]6)C=C5)C=C4)cc2)n1
REMARK SMILES IDX 17 1 16 2 14 3 15 4 9 6 8 7 7 8 6 10 3 11 4 12 86 13 5 14
REMARK SMILES IDX 2 15 1 16 10 17 11 18 12 19 13 20 18 21 19 22 20 23 21 24
REMARK SMILES IDX 22 26 23 27 24 28 85 29 25 30 84 31 26 32 27 33 28 34 78 35
REMARK SMILES IDX 29 36 83 37 77 38 79 39 30 40 82 41 76 42 75 43 31 45 63 46
REMARK SMILES IDX 43 47 62 48 44 49 47 50 61 51 80 52 45 53 46 54 60 56 81 57
REMARK SMILES IDX 48 58 32 59 33 60 41 61 34 62 36 63 42 64 35 65 37 66 38 67
REMARK SMILES IDX 39 68 40 69 64 70 65 71 73 72 66 73 68 74 74 75 67 76 69 77
REMARK SMILES IDX 70 78 71 79 72 80 49 81 50 82 58 83 51 84 53 85 59 86 52 87
REMARK SMILES IDX 54 88 55 89 56 90 57 91
REMARK H PARENT 16 5 7 9 20 25 79 44 47 55
REMARK Flexibility Score: inf
ROOT
ATOM      1  C   UNL A   1      30.862  27.081  25.712  1.00  0.00     0.117 C 
ENDROOT
BRANCH   1   2
ATOM      2  N   UNL A   1      30.305  25.940  26.422  1.00  0.00    -0.356 N 
ATOM      3  C   UNL A   1      30.630  24.618  26.373  1.00  0.00     0.224 C 
ATOM      4  O   UNL A   1      30.094  23.868  27.193  1.00  0.00    -0.275 OA
ATOM      5  H   UNL A   1      29.572  26.160  27.041  1.00  0.00     0.163 HD
BRANCH   3   6
ATOM      6  C   UNL A   1      31.666  24.074  25.393  1.00  0.00     0.098 C 
BRANCH   6   7
ATOM      7  C   UNL A   1      31.221  22.639  25.033  1.00  0.00     0.128 C 
BRANCH   7   8
ATOM      8  N   UNL A   1      31.810  21.619  25.874  1.00  0.00    -0.359 N 
ATOM      9  H   UNL A   1      31.557  21.618  26.826  1.00  0.00     0.162 HD
BRANCH   8  10
ATOM     10  C   UNL A   1      32.678  20.668  25.460  1.00  0.00     0.202 A 
ATOM     11  C   UNL A   1      33.396  18.682  24.807  1.00  0.00     0.144 A 
ATOM     12  N   UNL A   1      34.584  19.277  24.681  1.00  0.00    -0.174 NA
ATOM     13  N   UNL A   1      32.304  19.425  25.250  1.00  0.00    -0.204 NA
ATOM     14  S   UNL A   1      34.368  20.858  25.139  1.00  0.00     0.004 S 
BRANCH  11  15
ATOM     15  C   UNL A   1      33.204  17.240  24.471  1.00  0.00     0.075 C 
ATOM     16  C   UNL A   1      33.771  16.822  23.121  1.00  0.00     0.012 C 
ENDBRANCH  11  15
ENDBRANCH   8  10
ENDBRANCH   7   8
ENDBRANCH   6   7
BRANCH   6  17
ATOM     17  C   UNL A   1      33.123  24.278  25.868  1.00  0.00     0.018 C 
BRANCH  17  18
ATOM     18  C   UNL A   1      34.133  24.624  24.744  1.00  0.00    -0.017 C 
ATOM     19  C   UNL A   1      33.976  26.032  24.171  1.00  0.00     0.007 C 
ATOM     20  C   UNL A   1      35.562  24.454  25.274  1.00  0.00     0.007 C 
ENDBRANCH  17  18
ENDBRANCH   6  17
ENDBRANCH   3   6
ENDBRANCH   1   2
BRANCH   1  21
ATOM     21  C   UNL A   1      31.465  28.127  26.638  1.00  0.00     0.042 C 
BRANCH  21  22
ATOM     22  C   UNL A   1      32.448  29.065  25.955  1.00  0.00     0.118 C 
BRANCH  22  23
ATOM     23  N   UNL A   1      32.139  30.471  26.185  1.00  0.00    -0.352 N 
ATOM     24  C   UNL A   1      32.776  31.400  26.970  1.00  0.00     0.251 C 
ATOM     25  H   UNL A   1      31.350  30.807  25.702  1.00  0.00     0.163 HD
ATOM     26  O   UNL A   1      32.237  32.489  27.170  1.00  0.00    -0.269 OA
BRANCH  24  27
ATOM     27  C   UNL A   1      34.086  31.097  27.583  1.00  0.00     0.039 A 
ATOM     28  C   UNL A   1      34.979  32.145  27.828  1.00  0.00     0.014 A 
ATOM     29  C   UNL A   1      34.446  29.787  27.906  1.00  0.00     0.014 A 
ATOM     30  C   UNL A   1      36.198  31.884  28.459  1.00  0.00     0.010 A 
ATOM     31  C   UNL A   1      35.614  29.543  28.621  1.00  0.00     0.010 A 
ATOM     32  C   UNL A   1      36.509  30.586  28.896  1.00  0.00    -0.014 A 
BRANCH  32  33
ATOM     33  C   UNL A   1      37.758  30.302  29.650  1.00  0.00     0.031 A 
ATOM     34  C   UNL A   1      38.799  29.377  29.076  1.00  0.00     0.074 A 
ATOM     35  C   UNL A   1      37.916  30.807  30.890  1.00  0.00     0.049 A 
ATOM     36  N   UNL A   1      39.918  28.963  29.611  1.00  0.00    -0.248 NA
ATOM     37  C   UNL A   1      38.537  28.823  27.736  1.00  0.00     0.031 C 
ATOM     38  C   UNL A   1      36.944  31.649  31.592  1.00  0.00     0.029 A 
ATOM     39  N   UNL A   1      38.940  30.663  31.793  1.00  0.00    -0.354 N 
ATOM     40  C   UNL A   1      40.474  28.076  28.695  1.00  0.00     0.074 A 
ATOM     41  C   UNL A   1      39.552  27.983  27.585  1.00  0.00     0.031 C 
ATOM     42  C   UNL A   1      37.422  31.953  32.810  1.00  0.00     0.029 A 
ATOM     43  C   UNL A   1      38.712  31.297  32.993  1.00  0.00     0.049 A 
ATOM     44  H   UNL A   1      39.760  30.153  31.601  1.00  0.00     0.167 HD
ATOM     45  C   UNL A   1      41.658  27.422  28.757  1.00  0.00     0.034 A 
ATOM     46  C   UNL A   1      39.452  31.338  34.118  1.00  0.00     0.034 A 
ATOM     47  C   UNL A   1      42.591  27.547  29.844  1.00  0.00     0.049 A 
ATOM     48  C   UNL A   1      40.776  30.624  34.148  1.00  0.00     0.074 A 
ATOM     49  C   UNL A   1      43.853  26.993  29.960  1.00  0.00     0.029 A 
ATOM     50  N   UNL A   1      42.360  28.265  31.006  1.00  0.00    -0.354 N 
ATOM     51  N   UNL A   1      41.355  29.918  33.207  1.00  0.00    -0.248 NA
ATOM     52  C   UNL A   1      41.568  30.743  35.381  1.00  0.00     0.031 C 
ATOM     53  C   UNL A   1      44.373  27.349  31.208  1.00  0.00     0.029 A 
ATOM     54  C   UNL A   1      43.451  28.159  31.852  1.00  0.00     0.049 A 
ATOM     55  H   UNL A   1      41.541  28.776  31.202  1.00  0.00     0.167 HD
ATOM     56  C   UNL A   1      42.592  29.542  33.718  1.00  0.00     0.074 A 
ATOM     57  C   UNL A   1      42.687  30.117  35.044  1.00  0.00     0.031 C 
ATOM     58  C   UNL A   1      43.556  28.778  33.147  1.00  0.00     0.034 A 
BRANCH  45  59
ATOM     59  C   UNL A   1      42.038  26.544  27.591  1.00  0.00     0.023 A 
ATOM     60  C   UNL A   1      42.832  27.069  26.552  1.00  0.00     0.012 A 
ATOM     61  C   UNL A   1      41.667  25.185  27.558  1.00  0.00     0.148 A 
ATOM     62  C   UNL A   1      43.225  26.266  25.481  1.00  0.00     0.002 A 
ATOM     63  C   UNL A   1      42.102  24.380  26.512  1.00  0.00     0.091 A 
ATOM     64  F   UNL A   1      40.896  24.708  28.546  1.00  0.00    -0.205 F 
ATOM     65  C   UNL A   1      42.869  24.921  25.468  1.00  0.00     0.022 A 
BRANCH  63  66
ATOM     66  S   UNL A   1      41.770  22.615  26.442  1.00  0.00     0.127 S 
ATOM     67  O   UNL A   1      42.309  22.163  27.724  1.00  0.00    -0.237 OA
ATOM     68  O   UNL A   1      40.311  22.582  26.348  1.00  0.00    -0.237 OA
ATOM     69  O   UNL A   1      42.469  22.120  25.264  1.00  0.00    -0.744 OA
ENDBRANCH  63  66
ENDBRANCH  45  59
BRANCH  46  70
ATOM     70  C   UNL A   1      38.982  32.121  35.296  1.00  0.00     0.023 A 
ATOM     71  C   UNL A   1      39.124  33.523  35.300  1.00  0.00     0.012 A 
ATOM     72  C   UNL A   1      38.387  31.490  36.405  1.00  0.00     0.148 A 
ATOM     73  C   UNL A   1      38.720  34.277  36.402  1.00  0.00     0.002 A 
ATOM     74  C   UNL A   1      37.933  32.252  37.475  1.00  0.00     0.091 A 
ATOM     75  F   UNL A   1      38.268  30.155  36.387  1.00  0.00    -0.205 F 
ATOM     76  C   UNL A   1      38.117  33.643  37.485  1.00  0.00     0.022 A 
BRANCH  74  77
ATOM     77  S   UNL A   1      37.028  31.536  38.851  1.00  0.00     0.127 S 
ATOM     78  O   UNL A   1      36.818  30.166  38.390  1.00  0.00    -0.237 OA
ATOM     79  O   UNL A   1      37.986  31.677  39.948  1.00  0.00    -0.237 OA
ATOM     80  O   UNL A   1      35.827  32.346  38.996  1.00  0.00    -0.744 OA
ENDBRANCH  74  77
ENDBRANCH  46  70
BRANCH  58  81
ATOM     81  C   UNL A   1      44.825  28.554  33.928  1.00  0.00     0.023 A 
ATOM     82  C   UNL A   1      45.894  29.465  33.816  1.00  0.00     0.012 A 
ATOM     83  C   UNL A   1      44.927  27.475  34.829  1.00  0.00     0.148 A 
ATOM     84  C   UNL A   1      47.059  29.285  34.561  1.00  0.00     0.002 A 
ATOM     85  C   UNL A   1      46.069  27.332  35.607  1.00  0.00     0.091 A 
ATOM     86  F   UNL A   1      43.905  26.610  34.908  1.00  0.00    -0.205 F 
ATOM     87  C   UNL A   1      47.142  28.227  35.464  1.00  0.00     0.022 A 
BRANCH  85  88
ATOM     88  S   UNL A   1      46.224  26.061  36.868  1.00  0.00     0.127 S 
ATOM     89  O   UNL A   1      47.591  26.276  37.340  1.00  0.00    -0.237 OA
ATOM     90  O   UNL A   1      45.182  26.444  37.821  1.00  0.00    -0.237 OA
ATOM     91  O   UNL A   1      45.989  24.792  36.192  1.00  0.00    -0.744 OA
ENDBRANCH  85  88
ENDBRANCH  58  81
ENDBRANCH  32  33
ENDBRANCH  24  27
ENDBRANCH  22  23
ENDBRANCH  21  22
ENDBRANCH   1  21
TORSDOF 19
ENDMDL
MODEL 2
REMARK VINA RESULT:     -11.1      2.976      8.124
REMARK SMILES CCc1nsc(NC[C@H](CC(C)C)C(=O)NCCCNC(=O)c2ccc(-c3c4nc(c(-c5cccc(S(=O)(=O)[O-])c5F)c5ccc([nH]5)c(-c5cccc(S(=O)(=O)[O-])c5F)c5nc(c(-c6cccc(S(=O)(=O)[O-])c6F)c6ccc3[nH]6)C=C5)C=C4)cc2)n1
REMARK SMILES IDX 17 1 16 2 14 3 15 4 9 6 8 7 7 8 6 10 3 11 4 12 86 13 5 14
REMARK SMILES IDX 2 15 1 16 10 17 11 18 12 19 13 20 18 21 19 22 20 23 21 24
REMARK SMILES IDX 22 26 23 27 24 28 85 29 25 30 84 31 26 32 27 33 28 34 78 35
REMARK SMILES IDX 29 36 83 37 77 38 79 39 30 40 82 41 76 42 75 43 31 45 63 46
REMARK SMILES IDX 43 47 62 48 44 49 47 50 61 51 80 52 45 53 46 54 60 56 81 57
REMARK SMILES IDX 48 58 32 59 33 60 41 61 34 62 36 63 42 64 35 65 37 66 38 67
REMARK SMILES IDX 39 68 40 69 64 70 65 71 73 72 66 73 68 74 74 75 67 76 69 77
REMARK SMILES IDX 70 78 71 79 72 80 49 81 50 82 58 83 51 84 53 85 59 86 52 87
REMARK SMILES IDX 54 88 55 89 56 90 57 91
REMARK H PARENT 16 5 7 9 20 25 79 44 47 55
REMARK Flexibility Score: inf
ROOT
ATOM      1  C   UNL A   1      31.805  27.030  26.006  1.00  0.00     0.117 C 
ENDROOT
BRANCH   1   2
ATOM      2  N   UNL A   1      31.004  25.953  26.568  1.00  0.00    -0.356 N 
ATOM      3  C   UNL A   1      31.137  24.601  26.466  1.00  0.00     0.224 C 
ATOM      4  O   UNL A   1      30.399  23.901  27.166  1.00  0.00    -0.275 OA
ATOM      5  H   UNL A   1      30.240  26.251  27.112  1.00  0.00     0.163 HD
BRANCH   3   6
ATOM      6  C   UNL A   1      32.196  23.955  25.577  1.00  0.00     0.098 C 
BRANCH   6   7
ATOM      7  C   UNL A   1      31.561  22.673  24.996  1.00  0.00     0.128 C 
BRANCH   7   8
ATOM      8  N   UNL A   1      31.857  21.479  25.759  1.00  0.00    -0.359 N 
ATOM      9  H   UNL A   1      31.445  21.400  26.650  1.00  0.00     0.162 HD
BRANCH   8  10
ATOM     10  C   UNL A   1      32.653  20.466  25.350  1.00  0.00     0.202 A 
ATOM     11  C   UNL A   1      33.221  18.437  24.680  1.00  0.00     0.144 A 
ATOM     12  N   UNL A   1      34.457  18.932  24.592  1.00  0.00    -0.174 NA
ATOM     13  N   UNL A   1      32.184  19.262  25.109  1.00  0.00    -0.204 NA
ATOM     14  S   UNL A   1      34.361  20.519  25.071  1.00  0.00     0.004 S 
BRANCH  11  15
ATOM     15  C   UNL A   1      32.919  17.021  24.315  1.00  0.00     0.075 C 
ATOM     16  C   UNL A   1      34.039  16.035  24.615  1.00  0.00     0.012 C 
ENDBRANCH  11  15
ENDBRANCH   8  10
ENDBRANCH   7   8
ENDBRANCH   6   7
BRANCH   6  17
ATOM     17  C   UNL A   1      33.575  23.829  26.263  1.00  0.00     0.018 C 
BRANCH  17  18
ATOM     18  C   UNL A   1      34.721  24.612  25.574  1.00  0.00    -0.017 C 
ATOM     19  C   UNL A   1      36.081  23.915  25.631  1.00  0.00     0.007 C 
ATOM     20  C   UNL A   1      34.352  24.871  24.109  1.00  0.00     0.007 C 
ENDBRANCH  17  18
ENDBRANCH   6  17
ENDBRANCH   3   6
ENDBRANCH   1   2
BRANCH   1  21
ATOM     21  C   UNL A   1      32.944  27.466  26.915  1.00  0.00     0.042 C 
BRANCH  21  22
ATOM     22  C   UNL A   1      33.963  28.370  26.240  1.00  0.00     0.118 C 
BRANCH  22  23
ATOM     23  N   UNL A   1      33.751  29.781  26.536  1.00  0.00    -0.352 N 
ATOM     24  C   UNL A   1      34.435  30.622  27.378  1.00  0.00     0.251 C 
ATOM     25  H   UNL A   1      32.997  30.197  26.057  1.00  0.00     0.163 HD
ATOM     26  O   UNL A   1      33.970  31.736  27.624  1.00  0.00    -0.269 OA
BRANCH  24  27
ATOM     27  C   UNL A   1      35.707  30.195  27.998  1.00  0.00     0.039 A 
ATOM     28  C   UNL A   1      35.686  29.663  29.291  1.00  0.00     0.014 A 
ATOM     29  C   UNL A   1      36.921  30.327  27.319  1.00  0.00     0.014 A 
ATOM     30  C   UNL A   1      36.871  29.202  29.871  1.00  0.00     0.010 A 
ATOM     31  C   UNL A   1      38.080  29.779  27.858  1.00  0.00     0.010 A 
ATOM     32  C   UNL A   1      38.072  29.220  29.143  1.00  0.00    -0.014 A 
BRANCH  32  33
ATOM     33  C   UNL A   1      39.326  28.652  29.704  1.00  0.00     0.031 A 
ATOM     34  C   UNL A   1      39.972  29.280  30.911  1.00  0.00     0.074 A 
ATOM     35  C   UNL A   1      39.930  27.624  29.075  1.00  0.00     0.049 A 
ATOM     36  N   UNL A   1      41.094  28.964  31.502  1.00  0.00    -0.248 NA
ATOM     37  C   UNL A   1      39.281  30.432  31.517  1.00  0.00     0.031 C 
ATOM     38  C   UNL A   1      39.449  26.979  27.850  1.00  0.00     0.029 A 
ATOM     39  N   UNL A   1      41.096  26.957  29.362  1.00  0.00    -0.354 N 
ATOM     40  C   UNL A   1      41.263  29.894  32.523  1.00  0.00     0.074 A 
ATOM     41  C   UNL A   1      40.146  30.809  32.448  1.00  0.00     0.031 C 
ATOM     42  C   UNL A   1      40.306  26.008  27.497  1.00  0.00     0.029 A 
ATOM     43  C   UNL A   1      41.416  25.984  28.444  1.00  0.00     0.049 A 
ATOM     44  H   UNL A   1      41.650  27.157  30.151  1.00  0.00     0.167 HD
ATOM     45  C   UNL A   1      42.241  29.963  33.456  1.00  0.00     0.034 A 
ATOM     46  C   UNL A   1      42.488  25.172  28.365  1.00  0.00     0.034 A 
ATOM     47  C   UNL A   1      43.330  29.028  33.552  1.00  0.00     0.049 A 
ATOM     48  C   UNL A   1      43.545  25.252  29.432  1.00  0.00     0.074 A 
ATOM     49  C   UNL A   1      44.323  28.962  34.513  1.00  0.00     0.029 A 
ATOM     50  N   UNL A   1      43.576  28.005  32.651  1.00  0.00    -0.354 N 
ATOM     51  N   UNL A   1      43.604  26.038  30.479  1.00  0.00    -0.248 NA
ATOM     52  C   UNL A   1      44.668  24.308  29.327  1.00  0.00     0.031 C 
ATOM     53  C   UNL A   1      45.189  27.918  34.174  1.00  0.00     0.029 A 
ATOM     54  C   UNL A   1      44.712  27.308  33.025  1.00  0.00     0.049 A 
ATOM     55  H   UNL A   1      43.024  27.802  31.861  1.00  0.00     0.167 HD
ATOM     56  C   UNL A   1      44.744  25.658  31.179  1.00  0.00     0.074 A 
ATOM     57  C   UNL A   1      45.335  24.558  30.446  1.00  0.00     0.031 C 
ATOM     58  C   UNL A   1      45.262  26.182  32.317  1.00  0.00     0.034 A 
BRANCH  45  59
ATOM     59  C   UNL A   1      42.156  31.063  34.484  1.00  0.00     0.023 A 
ATOM     60  C   UNL A   1      41.452  30.843  35.685  1.00  0.00     0.012 A 
ATOM     61  C   UNL A   1      42.830  32.286  34.292  1.00  0.00     0.148 A 
ATOM     62  C   UNL A   1      41.389  31.834  36.665  1.00  0.00     0.002 A 
ATOM     63  C   UNL A   1      42.802  33.249  35.293  1.00  0.00     0.091 A 
ATOM     64  F   UNL A   1      43.479  32.484  33.136  1.00  0.00    -0.205 F 
ATOM     65  C   UNL A   1      42.072  33.030  36.474  1.00  0.00     0.022 A 
BRANCH  63  66
ATOM     66  S   UNL A   1      43.717  34.792  35.183  1.00  0.00     0.127 S 
ATOM     67  O   UNL A   1      43.056  35.600  36.206  1.00  0.00    -0.237 OA
ATOM     68  O   UNL A   1      45.074  34.367  35.524  1.00  0.00    -0.237 OA
ATOM     69  O   UNL A   1      43.551  35.262  33.814  1.00  0.00    -0.744 OA
ENDBRANCH  63  66
ENDBRANCH  45  59
BRANCH  46  70
ATOM     70  C   UNL A   1      42.593  24.176  27.260  1.00  0.00     0.023 A 
ATOM     71  C   UNL A   1      43.287  24.517  26.081  1.00  0.00     0.012 A 
ATOM     72  C   UNL A   1      42.022  22.895  27.373  1.00  0.00     0.148 A 
ATOM     73  C   UNL A   1      43.374  23.614  25.021  1.00  0.00     0.002 A 
ATOM     74  C   UNL A   1      42.162  21.980  26.335  1.00  0.00     0.091 A 
ATOM     75  F   UNL A   1      41.358  22.592  28.497  1.00  0.00    -0.205 F 
ATOM     76  C   UNL A   1      42.820  22.344  25.151  1.00  0.00     0.022 A 
BRANCH  74  77
ATOM     77  S   UNL A   1      41.596  20.281  26.468  1.00  0.00     0.127 S 
ATOM     78  O   UNL A   1      40.151  20.435  26.328  1.00  0.00    -0.237 OA
ATOM     79  O   UNL A   1      42.263  19.651  25.328  1.00  0.00    -0.237 OA
ATOM     80  O   UNL A   1      42.060  19.812  27.767  1.00  0.00    -0.744 OA
ENDBRANCH  74  77
ENDBRANCH  46  70
BRANCH  58  81
ATOM     81  C   UNL A   1      46.508  25.545  32.876  1.00  0.00     0.023 A 
ATOM     82  C   UNL A   1      46.410  24.560  33.878  1.00  0.00     0.012 A 
ATOM     83  C   UNL A   1      47.774  25.877  32.353  1.00  0.00     0.148 A 
ATOM     84  C   UNL A   1      47.555  23.941  34.377  1.00  0.00     0.002 A 
ATOM     85  C   UNL A   1      48.905  25.217  32.817  1.00  0.00     0.091 A 
ATOM     86  F   UNL A   1      47.848  26.829  31.412  1.00  0.00    -0.205 F 
ATOM     87  C   UNL A   1      48.801  24.260  33.839  1.00  0.00     0.022 A 
BRANCH  85  88
ATOM     88  S   UNL A   1      50.536  25.489  32.113  1.00  0.00     0.127 S 
ATOM     89  O   UNL A   1      50.303  25.196  30.700  1.00  0.00    -0.237 OA
ATOM     90  O   UNL A   1      50.770  26.902  32.412  1.00  0.00    -0.237 OA
ATOM     91  O   UNL A   1      51.431  24.569  32.802  1.00  0.00    -0.744 OA
ENDBRANCH  85  88
ENDBRANCH  58  81
ENDBRANCH  32  33
ENDBRANCH  24  27
ENDBRANCH  22  23
ENDBRANCH  21  22
ENDBRANCH   1  21
TORSDOF 19
ENDMDL
MODEL 3
REMARK VINA RESULT:     -10.8      2.223      2.852
REMARK SMILES CCc1nsc(NC[C@H](CC(C)C)C(=O)NCCCNC(=O)c2ccc(-c3c4nc(c(-c5cccc(S(=O)(=O)[O-])c5F)c5ccc([nH]5)c(-c5cccc(S(=O)(=O)[O-])c5F)c5nc(c(-c6cccc(S(=O)(=O)[O-])c6F)c6ccc3[nH]6)C=C5)C=C4)cc2)n1
REMARK SMILES IDX 17 1 16 2 14 3 15 4 9 6 8 7 7 8 6 10 3 11 4 12 86 13 5 14
REMARK SMILES IDX 2 15 1 16 10 17 11 18 12 19 13 20 18 21 19 22 20 23 21 24
REMARK SMILES IDX 22 26 23 27 24 28 85 29 25 30 84 31 26 32 27 33 28 34 78 35
REMARK SMILES IDX 29 36 83 37 77 38 79 39 30 40 82 41 76 42 75 43 31 45 63 46
REMARK SMILES IDX 43 47 62 48 44 49 47 50 61 51 80 52 45 53 46 54 60 56 81 57
REMARK SMILES IDX 48 58 32 59 33 60 41 61 34 62 36 63 42 64 35 65 37 66 38 67
REMARK SMILES IDX 39 68 40 69 64 70 65 71 73 72 66 73 68 74 74 75 67 76 69 77
REMARK SMILES IDX 70 78 71 79 72 80 49 81 50 82 58 83 51 84 53 85 59 86 52 87
REMARK SMILES IDX 54 88 55 89 56 90 57 91
REMARK H PARENT 16 5 7 9 20 25 79 44 47 55
REMARK Flexibility Score: inf
ROOT
ATOM      1  C   UNL A   1      33.106  26.812  25.347  1.00  0.00     0.117 C 
ENDROOT
BRANCH   1   2
ATOM      2  N   UNL A   1      33.779  26.998  24.070  1.00  0.00    -0.356 N 
ATOM      3  C   UNL A   1      33.327  26.833  22.796  1.00  0.00     0.224 C 
ATOM      4  O   UNL A   1      34.065  27.201  21.878  1.00  0.00    -0.275 OA
ATOM      5  H   UNL A   1      34.715  27.292  24.140  1.00  0.00     0.163 HD
BRANCH   3   6
ATOM      6  C   UNL A   1      31.938  26.278  22.494  1.00  0.00     0.098 C 
BRANCH   6   7
ATOM      7  C   UNL A   1      32.129  25.165  21.440  1.00  0.00     0.128 C 
BRANCH   7   8
ATOM      8  N   UNL A   1      32.143  23.830  22.000  1.00  0.00    -0.359 N 
ATOM      9  H   UNL A   1      31.402  23.230  21.754  1.00  0.00     0.162 HD
BRANCH   8  10
ATOM     10  C   UNL A   1      33.090  23.341  22.833  1.00  0.00     0.202 A 
ATOM     11  C   UNL A   1      35.107  22.873  23.605  1.00  0.00     0.144 A 
ATOM     12  N   UNL A   1      34.464  22.340  24.645  1.00  0.00    -0.174 NA
ATOM     13  N   UNL A   1      34.373  23.436  22.564  1.00  0.00    -0.204 NA
ATOM     14  S   UNL A   1      32.843  22.528  24.341  1.00  0.00     0.004 S 
BRANCH  11  15
ATOM     15  C   UNL A   1      36.599  22.894  23.535  1.00  0.00     0.075 C 
ATOM     16  C   UNL A   1      37.288  23.355  24.812  1.00  0.00     0.012 C 
ENDBRANCH  11  15
ENDBRANCH   8  10
ENDBRANCH   7   8
ENDBRANCH   6   7
BRANCH   6  17
ATOM     17  C   UNL A   1      30.892  27.377  22.199  1.00  0.00     0.018 C 
BRANCH  17  18
ATOM     18  C   UNL A   1      30.017  27.787  23.411  1.00  0.00    -0.017 C 
ATOM     19  C   UNL A   1      29.078  28.962  23.138  1.00  0.00     0.007 C 
ATOM     20  C   UNL A   1      29.190  26.581  23.873  1.00  0.00     0.007 C 
ENDBRANCH  17  18
ENDBRANCH   6  17
ENDBRANCH   3   6
ENDBRANCH   1   2
BRANCH   1  21
ATOM     21  C   UNL A   1      32.641  28.117  25.975  1.00  0.00     0.042 C 
BRANCH  21  22
ATOM     22  C   UNL A   1      33.130  29.361  25.249  1.00  0.00     0.118 C 
BRANCH  22  23
ATOM     23  N   UNL A   1      32.649  30.596  25.858  1.00  0.00    -0.352 N 
ATOM     24  C   UNL A   1      33.120  31.289  26.945  1.00  0.00     0.251 C 
ATOM     25  H   UNL A   1      31.861  30.994  25.422  1.00  0.00     0.163 HD
ATOM     26  O   UNL A   1      32.449  32.211  27.408  1.00  0.00    -0.269 OA
BRANCH  24  27
ATOM     27  C   UNL A   1      34.411  30.926  27.568  1.00  0.00     0.039 A 
ATOM     28  C   UNL A   1      35.413  31.896  27.667  1.00  0.00     0.014 A 
ATOM     29  C   UNL A   1      34.646  29.633  28.042  1.00  0.00     0.014 A 
ATOM     30  C   UNL A   1      36.618  31.587  28.303  1.00  0.00     0.010 A 
ATOM     31  C   UNL A   1      35.804  29.356  28.759  1.00  0.00     0.010 A 
ATOM     32  C   UNL A   1      36.808  30.325  28.890  1.00  0.00    -0.014 A 
BRANCH  32  33
ATOM     33  C   UNL A   1      38.045  30.003  29.650  1.00  0.00     0.031 A 
ATOM     34  C   UNL A   1      39.057  29.042  29.085  1.00  0.00     0.074 A 
ATOM     35  C   UNL A   1      38.214  30.509  30.888  1.00  0.00     0.049 A 
ATOM     36  N   UNL A   1      40.159  28.594  29.627  1.00  0.00    -0.248 NA
ATOM     37  C   UNL A   1      38.782  28.490  27.747  1.00  0.00     0.031 C 
ATOM     38  C   UNL A   1      37.268  31.387  31.582  1.00  0.00     0.029 A 
ATOM     39  N   UNL A   1      39.230  30.337  31.796  1.00  0.00    -0.354 N 
ATOM     40  C   UNL A   1      40.689  27.685  28.717  1.00  0.00     0.074 A 
ATOM     41  C   UNL A   1      39.769  27.616  27.605  1.00  0.00     0.031 C 
ATOM     42  C   UNL A   1      37.751  31.681  32.800  1.00  0.00     0.029 A 
ATOM     43  C   UNL A   1      39.018  30.985  32.992  1.00  0.00     0.049 A 
ATOM     44  H   UNL A   1      40.033  29.799  31.610  1.00  0.00     0.167 HD
ATOM     45  C   UNL A   1      41.851  26.992  28.788  1.00  0.00     0.034 A 
ATOM     46  C   UNL A   1      39.754  31.007  34.120  1.00  0.00     0.034 A 
ATOM     47  C   UNL A   1      42.783  27.092  29.878  1.00  0.00     0.049 A 
ATOM     48  C   UNL A   1      41.054  30.250  34.158  1.00  0.00     0.074 A 
ATOM     49  C   UNL A   1      44.026  26.498  30.002  1.00  0.00     0.029 A 
ATOM     50  N   UNL A   1      42.572  27.823  31.036  1.00  0.00    -0.354 N 
ATOM     51  N   UNL A   1      41.613  29.520  33.224  1.00  0.00    -0.248 NA
ATOM     52  C   UNL A   1      41.845  30.349  35.394  1.00  0.00     0.031 C 
ATOM     53  C   UNL A   1      44.552  26.843  31.250  1.00  0.00     0.029 A 
ATOM     54  C   UNL A   1      43.655  27.686  31.886  1.00  0.00     0.049 A 
ATOM     55  H   UNL A   1      41.769  28.362  31.226  1.00  0.00     0.167 HD
ATOM     56  C   UNL A   1      42.835  29.106  33.742  1.00  0.00     0.074 A 
ATOM     57  C   UNL A   1      42.944  29.685  35.065  1.00  0.00     0.031 C 
ATOM     58  C   UNL A   1      43.776  28.308  33.179  1.00  0.00     0.034 A 
BRANCH  45  59
ATOM     59  C   UNL A   1      42.206  26.096  27.628  1.00  0.00     0.023 A 
ATOM     60  C   UNL A   1      43.010  26.593  26.583  1.00  0.00     0.012 A 
ATOM     61  C   UNL A   1      41.803  24.746  27.607  1.00  0.00     0.148 A 
ATOM     62  C   UNL A   1      43.380  25.773  25.517  1.00  0.00     0.002 A 
ATOM     63  C   UNL A   1      42.215  23.922  26.566  1.00  0.00     0.091 A 
ATOM     64  F   UNL A   1      41.023  24.296  28.600  1.00  0.00    -0.205 F 
ATOM     65  C   UNL A   1      42.992  24.437  25.516  1.00  0.00     0.022 A 
BRANCH  63  66
ATOM     66  S   UNL A   1      41.840  22.166  26.511  1.00  0.00     0.127 S 
ATOM     67  O   UNL A   1      40.399  22.180  26.268  1.00  0.00    -0.237 OA
ATOM     68  O   UNL A   1      42.646  21.717  25.376  1.00  0.00    -0.237 OA
ATOM     69  O   UNL A   1      42.248  21.626  27.801  1.00  0.00    -0.744 OA
ENDBRANCH  63  66
ENDBRANCH  45  59
BRANCH  46  70
ATOM     70  C   UNL A   1      39.305  31.811  35.292  1.00  0.00     0.023 A 
ATOM     71  C   UNL A   1      38.412  31.245  36.223  1.00  0.00     0.012 A 
ATOM     72  C   UNL A   1      39.764  33.127  35.495  1.00  0.00     0.148 A 
ATOM     73  C   UNL A   1      37.953  31.987  37.311  1.00  0.00     0.002 A 
ATOM     74  C   UNL A   1      39.348  33.841  36.613  1.00  0.00     0.091 A 
ATOM     75  F   UNL A   1      40.605  33.652  34.593  1.00  0.00    -0.205 F 
ATOM     76  C   UNL A   1      38.427  33.281  37.512  1.00  0.00     0.022 A 
BRANCH  74  77
ATOM     77  S   UNL A   1      40.007  35.461  37.020  1.00  0.00     0.127 S 
ATOM     78  O   UNL A   1      39.575  36.256  35.874  1.00  0.00    -0.237 OA
ATOM     79  O   UNL A   1      39.317  35.761  38.275  1.00  0.00    -0.237 OA
ATOM     80  O   UNL A   1      41.446  35.277  37.157  1.00  0.00    -0.744 OA
ENDBRANCH  74  77
ENDBRANCH  46  70
BRANCH  58  81
ATOM     81  C   UNL A   1      45.033  28.047  33.966  1.00  0.00     0.023 A 
ATOM     82  C   UNL A   1      46.132  28.920  33.852  1.00  0.00     0.012 A 
ATOM     83  C   UNL A   1      45.096  26.971  34.874  1.00  0.00     0.148 A 
ATOM     84  C   UNL A   1      47.288  28.705  34.603  1.00  0.00     0.002 A 
ATOM     85  C   UNL A   1      46.229  26.795  35.657  1.00  0.00     0.091 A 
ATOM     86  F   UNL A   1      44.045  26.141  34.955  1.00  0.00    -0.205 F 
ATOM     87  C   UNL A   1      47.332  27.651  35.513  1.00  0.00     0.022 A 
BRANCH  85  88
ATOM     88  S   UNL A   1      46.336  25.527  36.927  1.00  0.00     0.127 S 
ATOM     89  O   UNL A   1      47.678  25.755  37.462  1.00  0.00    -0.237 OA
ATOM     90  O   UNL A   1      45.248  25.902  37.830  1.00  0.00    -0.237 OA
ATOM     91  O   UNL A   1      46.145  24.255  36.244  1.00  0.00    -0.744 OA
ENDBRANCH  85  88
ENDBRANCH  58  81
ENDBRANCH  32  33
ENDBRANCH  24  27
ENDBRANCH  22  23
ENDBRANCH  21  22
ENDBRANCH   1  21
TORSDOF 19
ENDMDL
