MODEL 1
REMARK VINA RESULT:     -12.5      0.000      0.000
REMARK SMILES O=C(NCCCNC(=O)c1c(OCc2ccccn2)cnc2ccccc12)c1ccc(-c2c3nc(c(-c4cccc(S(=O)(=O)[O-])c4F)c4ccc([nH]4)c(-c4cccc(S(=O)(=O)[O-])c4F)c4nc(c(-c5cccc(S(=O)(=O)[O-])c5F)c5ccc2[nH]5)C=C4)C=C3)cc1
REMARK SMILES IDX 5 1 4 2 3 3 1 4 2 5 28 7 29 8 90 9 30 10 89 11 31 12 32 13
REMARK SMILES IDX 33 14 83 15 34 16 88 17 82 18 84 19 35 20 87 21 81 22 80 23
REMARK SMILES IDX 36 25 68 26 48 27 67 28 49 29 52 30 66 31 85 32 50 33 51 34
REMARK SMILES IDX 65 36 86 37 53 38 37 39 38 40 46 41 39 42 41 43 47 44 40 45
REMARK SMILES IDX 42 46 43 47 44 48 45 49 69 50 70 51 78 52 71 53 73 54 79 55
REMARK SMILES IDX 72 56 74 57 75 58 76 59 77 60 54 61 55 62 63 63 56 64 58 65
REMARK SMILES IDX 64 66 57 67 59 68 60 69 61 70 62 71 6 72 7 73 8 74 9 76
REMARK SMILES IDX 10 77 11 78 27 79 20 80 22 81 26 82 21 83 23 84 25 85 24 86
REMARK SMILES IDX 12 87 13 88 14 89 15 90 19 91 16 92 18 93 17 94
REMARK H PARENT 3 6 84 24 52 35 7 75
REMARK Flexibility Score: inf
ROOT
ATOM      1  C   UNL A   1      31.393  31.161  25.966  1.00  0.00     0.042 C 
ENDROOT
BRANCH   1   2
ATOM      2  C   UNL A   1      32.432  31.599  26.986  1.00  0.00     0.118 C 
BRANCH   2   3
ATOM      3  N   UNL A   1      32.428  33.036  27.236  1.00  0.00    -0.352 N 
ATOM      4  O   UNL A   1      32.978  34.976  28.230  1.00  0.00    -0.269 OA
ATOM      5  C   UNL A   1      33.258  33.798  28.025  1.00  0.00     0.251 C 
ATOM      6  H   UNL A   1      31.722  33.537  26.768  1.00  0.00     0.163 HD
BRANCH   5   7
ATOM      7  C   UNL A   1      34.460  33.195  28.642  1.00  0.00     0.039 A 
ATOM      8  C   UNL A   1      34.339  32.220  29.633  1.00  0.00     0.014 A 
ATOM      9  C   UNL A   1      35.729  33.596  28.212  1.00  0.00     0.014 A 
ATOM     10  C   UNL A   1      35.465  31.776  30.312  1.00  0.00     0.010 A 
ATOM     11  C   UNL A   1      36.870  33.061  28.820  1.00  0.00     0.010 A 
ATOM     12  C   UNL A   1      36.746  32.165  29.893  1.00  0.00    -0.014 A 
BRANCH  12  13
ATOM     13  C   UNL A   1      37.929  31.512  30.504  1.00  0.00     0.031 A 
ATOM     14  C   UNL A   1      38.721  30.463  29.776  1.00  0.00     0.074 A 
ATOM     15  C   UNL A   1      38.273  31.879  31.756  1.00  0.00     0.049 A 
ATOM     16  N   UNL A   1      39.781  29.813  30.183  1.00  0.00    -0.248 NA
ATOM     17  C   UNL A   1      38.270  30.084  28.427  1.00  0.00     0.031 C 
ATOM     18  C   UNL A   1      37.537  32.847  32.577  1.00  0.00     0.029 A 
ATOM     19  N   UNL A   1      39.307  31.483  32.562  1.00  0.00    -0.354 N 
ATOM     20  C   UNL A   1      40.097  28.918  29.169  1.00  0.00     0.074 A 
ATOM     21  C   UNL A   1      39.121  29.113  28.118  1.00  0.00     0.031 C 
ATOM     22  C   UNL A   1      38.151  32.981  33.760  1.00  0.00     0.029 A 
ATOM     23  C   UNL A   1      39.283  32.066  33.808  1.00  0.00     0.049 A 
ATOM     24  H   UNL A   1      40.000  30.844  32.278  1.00  0.00     0.167 HD
ATOM     25  C   UNL A   1      41.114  28.025  29.121  1.00  0.00     0.034 A 
ATOM     26  C   UNL A   1      40.061  31.864  34.888  1.00  0.00     0.034 A 
ATOM     27  C   UNL A   1      42.109  27.878  30.151  1.00  0.00     0.049 A 
ATOM     28  C   UNL A   1      41.190  30.882  34.788  1.00  0.00     0.074 A 
ATOM     29  C   UNL A   1      43.246  27.088  30.140  1.00  0.00     0.029 A 
ATOM     30  N   UNL A   1      42.077  28.514  31.382  1.00  0.00    -0.354 N 
ATOM     31  N   UNL A   1      41.577  30.176  33.753  1.00  0.00    -0.248 NA
ATOM     32  C   UNL A   1      42.003  30.680  35.995  1.00  0.00     0.031 C 
ATOM     33  C   UNL A   1      43.884  27.222  31.377  1.00  0.00     0.029 A 
ATOM     34  C   UNL A   1      43.155  28.109  32.152  1.00  0.00     0.049 A 
ATOM     35  H   UNL A   1      41.390  29.159  31.668  1.00  0.00     0.167 HD
ATOM     36  C   UNL A   1      42.680  29.451  34.181  1.00  0.00     0.074 A 
ATOM     37  C   UNL A   1      42.926  29.836  35.556  1.00  0.00     0.031 C 
ATOM     38  C   UNL A   1      43.406  28.527  33.506  1.00  0.00     0.034 A 
BRANCH  25  39
ATOM     39  C   UNL A   1      41.248  27.150  27.902  1.00  0.00     0.023 A 
ATOM     40  C   UNL A   1      41.899  27.648  26.757  1.00  0.00     0.012 A 
ATOM     41  C   UNL A   1      40.846  25.800  27.941  1.00  0.00     0.148 A 
ATOM     42  C   UNL A   1      42.143  26.816  25.663  1.00  0.00     0.002 A 
ATOM     43  C   UNL A   1      41.122  24.969  26.861  1.00  0.00     0.091 A 
ATOM     44  F   UNL A   1      40.214  25.354  29.035  1.00  0.00    -0.205 F 
ATOM     45  C   UNL A   1      41.766  25.476  25.721  1.00  0.00     0.022 A 
BRANCH  43  46
ATOM     46  S   UNL A   1      40.743  23.213  26.862  1.00  0.00     0.127 S 
ATOM     47  O   UNL A   1      39.290  23.226  26.696  1.00  0.00    -0.237 OA
ATOM     48  O   UNL A   1      41.485  22.737  25.694  1.00  0.00    -0.237 OA
ATOM     49  O   UNL A   1      41.217  22.697  28.138  1.00  0.00    -0.744 OA
ENDBRANCH  43  46
ENDBRANCH  25  39
BRANCH  26  50
ATOM     50  C   UNL A   1      39.791  32.613  36.145  1.00  0.00     0.023 A 
ATOM     51  C   UNL A   1      40.469  33.820  36.397  1.00  0.00     0.012 A 
ATOM     52  C   UNL A   1      38.831  32.158  37.071  1.00  0.00     0.148 A 
ATOM     53  C   UNL A   1      40.213  34.547  37.562  1.00  0.00     0.002 A 
ATOM     54  C   UNL A   1      38.535  32.918  38.195  1.00  0.00     0.091 A 
ATOM     55  F   UNL A   1      38.210  30.994  36.827  1.00  0.00    -0.205 F 
ATOM     56  C   UNL A   1      39.238  34.104  38.453  1.00  0.00     0.022 A 
BRANCH  54  57
ATOM     57  S   UNL A   1      37.183  32.482  39.293  1.00  0.00     0.127 S 
ATOM     58  O   UNL A   1      37.538  31.122  39.684  1.00  0.00    -0.237 OA
ATOM     59  O   UNL A   1      37.309  33.481  40.357  1.00  0.00    -0.237 OA
ATOM     60  O   UNL A   1      35.979  32.627  38.485  1.00  0.00    -0.744 OA
ENDBRANCH  54  57
ENDBRANCH  26  50
BRANCH  38  61
ATOM     61  C   UNL A   1      44.531  27.862  34.250  1.00  0.00     0.023 A 
ATOM     62  C   UNL A   1      45.809  28.454  34.236  1.00  0.00     0.012 A 
ATOM     63  C   UNL A   1      44.313  26.696  35.008  1.00  0.00     0.148 A 
ATOM     64  C   UNL A   1      46.863  27.879  34.943  1.00  0.00     0.002 A 
ATOM     65  C   UNL A   1      45.358  26.154  35.747  1.00  0.00     0.091 A 
ATOM     66  F   UNL A   1      43.093  26.140  34.991  1.00  0.00    -0.205 F 
ATOM     67  C   UNL A   1      46.635  26.736  35.706  1.00  0.00     0.022 A 
BRANCH  65  68
ATOM     68  S   UNL A   1      45.137  24.735  36.827  1.00  0.00     0.127 S 
ATOM     69  O   UNL A   1      44.868  23.668  35.865  1.00  0.00    -0.237 OA
ATOM     70  O   UNL A   1      46.440  24.645  37.489  1.00  0.00    -0.237 OA
ATOM     71  O   UNL A   1      44.032  25.073  37.712  1.00  0.00    -0.744 OA
ENDBRANCH  65  68
ENDBRANCH  38  61
ENDBRANCH  12  13
ENDBRANCH   5   7
ENDBRANCH   2   3
ENDBRANCH   1   2
BRANCH   1  72
ATOM     72  C   UNL A   1      31.535  29.723  25.505  1.00  0.00     0.118 C 
BRANCH  72  73
ATOM     73  N   UNL A   1      32.350  29.574  24.308  1.00  0.00    -0.352 N 
ATOM     74  C   UNL A   1      32.514  28.475  23.500  1.00  0.00     0.255 C 
ATOM     75  H   UNL A   1      32.855  30.375  24.040  1.00  0.00     0.163 HD
ATOM     76  O   UNL A   1      33.187  28.563  22.476  1.00  0.00    -0.269 OA
BRANCH  74  77
ATOM     77  C   UNL A   1      31.853  27.195  23.836  1.00  0.00     0.092 A 
ATOM     78  C   UNL A   1      30.541  26.994  23.389  1.00  0.00     0.151 A 
ATOM     79  C   UNL A   1      32.538  26.213  24.606  1.00  0.00     0.017 A 
ATOM     80  C   UNL A   1      29.957  25.806  23.778  1.00  0.00     0.159 A 
ATOM     81  C   UNL A   1      31.860  25.000  24.813  1.00  0.00     0.071 A 
ATOM     82  C   UNL A   1      33.844  26.350  25.147  1.00  0.00     0.011 A 
ATOM     83  N   UNL A   1      30.587  24.811  24.445  1.00  0.00    -0.252 NA
ATOM     84  C   UNL A   1      32.529  23.942  25.410  1.00  0.00     0.029 A 
ATOM     85  C   UNL A   1      34.501  25.274  25.739  1.00  0.00     0.001 A 
ATOM     86  C   UNL A   1      33.848  24.057  25.849  1.00  0.00     0.002 A 
BRANCH  78  87
ATOM     87  O   UNL A   1      29.965  27.942  22.593  1.00  0.00    -0.485 OA
BRANCH  87  88
ATOM     88  C   UNL A   1      28.727  28.558  22.975  1.00  0.00     0.285 C 
BRANCH  88  89
ATOM     89  C   UNL A   1      28.564  29.996  22.514  1.00  0.00     0.078 A 
ATOM     90  C   UNL A   1      28.687  31.045  23.428  1.00  0.00     0.027 A 
ATOM     91  N   UNL A   1      28.284  30.214  21.206  1.00  0.00    -0.258 NA
ATOM     92  C   UNL A   1      28.444  32.347  23.003  1.00  0.00     0.004 A 
ATOM     93  C   UNL A   1      28.081  31.493  20.815  1.00  0.00     0.111 A 
ATOM     94  C   UNL A   1      28.134  32.579  21.671  1.00  0.00     0.020 A 
ENDBRANCH  88  89
ENDBRANCH  87  88
ENDBRANCH  78  87
ENDBRANCH  74  77
ENDBRANCH  72  73
ENDBRANCH   1  72
TORSDOF 16
ENDMDL
MODEL 2
REMARK VINA RESULT:     -12.3      1.803      7.728
REMARK SMILES O=C(NCCCNC(=O)c1c(OCc2ccccn2)cnc2ccccc12)c1ccc(-c2c3nc(c(-c4cccc(S(=O)(=O)[O-])c4F)c4ccc([nH]4)c(-c4cccc(S(=O)(=O)[O-])c4F)c4nc(c(-c5cccc(S(=O)(=O)[O-])c5F)c5ccc2[nH]5)C=C4)C=C3)cc1
REMARK SMILES IDX 5 1 4 2 3 3 1 4 2 5 28 7 29 8 90 9 30 10 89 11 31 12 32 13
REMARK SMILES IDX 33 14 83 15 34 16 88 17 82 18 84 19 35 20 87 21 81 22 80 23
REMARK SMILES IDX 36 25 68 26 48 27 67 28 49 29 52 30 66 31 85 32 50 33 51 34
REMARK SMILES IDX 65 36 86 37 53 38 37 39 38 40 46 41 39 42 41 43 47 44 40 45
REMARK SMILES IDX 42 46 43 47 44 48 45 49 69 50 70 51 78 52 71 53 73 54 79 55
REMARK SMILES IDX 72 56 74 57 75 58 76 59 77 60 54 61 55 62 63 63 56 64 58 65
REMARK SMILES IDX 64 66 57 67 59 68 60 69 61 70 62 71 6 72 7 73 8 74 9 76
REMARK SMILES IDX 10 77 11 78 27 79 20 80 22 81 26 82 21 83 23 84 25 85 24 86
REMARK SMILES IDX 12 87 13 88 14 89 15 90 19 91 16 92 18 93 17 94
REMARK H PARENT 3 6 84 24 52 35 7 75
REMARK Flexibility Score: inf
ROOT
ATOM      1  C   UNL A   1      33.578  29.022  23.601  1.00  0.00     0.042 C 
ENDROOT
BRANCH   1   2
ATOM      2  C   UNL A   1      33.360  29.075  25.104  1.00  0.00     0.118 C 
BRANCH   2   3
ATOM      3  N   UNL A   1      32.774  30.330  25.560  1.00  0.00    -0.352 N 
ATOM      4  O   UNL A   1      32.367  32.054  26.946  1.00  0.00    -0.269 OA
ATOM      5  C   UNL A   1      33.098  31.115  26.642  1.00  0.00     0.251 C 
ATOM      6  H   UNL A   1      32.031  30.666  25.009  1.00  0.00     0.163 HD
BRANCH   5   7
ATOM      7  C   UNL A   1      34.303  30.814  27.447  1.00  0.00     0.039 A 
ATOM      8  C   UNL A   1      34.486  29.550  28.009  1.00  0.00     0.014 A 
ATOM      9  C   UNL A   1      35.274  31.803  27.629  1.00  0.00     0.014 A 
ATOM     10  C   UNL A   1      35.537  29.324  28.887  1.00  0.00     0.010 A 
ATOM     11  C   UNL A   1      36.395  31.538  28.424  1.00  0.00     0.010 A 
ATOM     12  C   UNL A   1      36.522  30.305  29.080  1.00  0.00    -0.014 A 
BRANCH  12  13
ATOM     13  C   UNL A   1      37.735  29.956  29.859  1.00  0.00     0.031 A 
ATOM     14  C   UNL A   1      37.970  30.491  31.244  1.00  0.00     0.074 A 
ATOM     15  C   UNL A   1      38.644  29.146  29.278  1.00  0.00     0.049 A 
ATOM     16  N   UNL A   1      38.979  30.265  32.045  1.00  0.00    -0.248 NA
ATOM     17  C   UNL A   1      36.955  31.398  31.804  1.00  0.00     0.031 C 
ATOM     18  C   UNL A   1      38.544  28.616  27.914  1.00  0.00     0.029 A 
ATOM     19  N   UNL A   1      39.828  28.636  29.743  1.00  0.00    -0.354 N 
ATOM     20  C   UNL A   1      38.750  31.034  33.179  1.00  0.00     0.074 A 
ATOM     21  C   UNL A   1      37.498  31.729  32.970  1.00  0.00     0.031 C 
ATOM     22  C   UNL A   1      39.609  27.845  27.659  1.00  0.00     0.029 A 
ATOM     23  C   UNL A   1      40.498  27.876  28.813  1.00  0.00     0.049 A 
ATOM     24  H   UNL A   1      40.166  28.796  30.654  1.00  0.00     0.167 HD
ATOM     25  C   UNL A   1      39.513  31.139  34.293  1.00  0.00     0.034 A 
ATOM     26  C   UNL A   1      41.711  27.295  28.863  1.00  0.00     0.034 A 
ATOM     27  C   UNL A   1      40.730  30.402  34.510  1.00  0.00     0.049 A 
ATOM     28  C   UNL A   1      42.517  27.416  30.121  1.00  0.00     0.074 A 
ATOM     29  C   UNL A   1      41.509  30.349  35.654  1.00  0.00     0.029 A 
ATOM     30  N   UNL A   1      41.359  29.610  33.562  1.00  0.00    -0.354 N 
ATOM     31  N   UNL A   1      42.196  28.004  31.248  1.00  0.00    -0.248 NA
ATOM     32  C   UNL A   1      43.841  26.781  30.125  1.00  0.00     0.031 C 
ATOM     33  C   UNL A   1      42.625  29.549  35.387  1.00  0.00     0.029 A 
ATOM     34  C   UNL A   1      42.532  29.091  34.083  1.00  0.00     0.049 A 
ATOM     35  H   UNL A   1      41.021  29.440  32.653  1.00  0.00     0.167 HD
ATOM     36  C   UNL A   1      43.276  27.805  32.098  1.00  0.00     0.074 A 
ATOM     37  C   UNL A   1      44.240  27.006  31.369  1.00  0.00     0.031 C 
ATOM     38  C   UNL A   1      43.465  28.269  33.357  1.00  0.00     0.034 A 
BRANCH  25  39
ATOM     39  C   UNL A   1      39.052  32.052  35.398  1.00  0.00     0.023 A 
ATOM     40  C   UNL A   1      38.151  31.571  36.368  1.00  0.00     0.012 A 
ATOM     41  C   UNL A   1      39.613  33.337  35.548  1.00  0.00     0.148 A 
ATOM     42  C   UNL A   1      37.807  32.358  37.467  1.00  0.00     0.002 A 
ATOM     43  C   UNL A   1      39.291  34.102  36.664  1.00  0.00     0.091 A 
ATOM     44  F   UNL A   1      40.455  33.779  34.604  1.00  0.00    -0.205 F 
ATOM     45  C   UNL A   1      38.385  33.616  37.621  1.00  0.00     0.022 A 
BRANCH  43  46
ATOM     46  S   UNL A   1      40.034  35.704  36.992  1.00  0.00     0.127 S 
ATOM     47  O   UNL A   1      39.656  36.455  35.795  1.00  0.00    -0.237 OA
ATOM     48  O   UNL A   1      39.344  36.118  38.214  1.00  0.00    -0.237 OA
ATOM     49  O   UNL A   1      41.461  35.464  37.149  1.00  0.00    -0.744 OA
ENDBRANCH  43  46
ENDBRANCH  25  39
BRANCH  26  50
ATOM     50  C   UNL A   1      42.222  26.548  27.681  1.00  0.00     0.023 A 
ATOM     51  C   UNL A   1      43.062  27.196  26.756  1.00  0.00     0.012 A 
ATOM     52  C   UNL A   1      41.918  25.185  27.493  1.00  0.00     0.148 A 
ATOM     53  C   UNL A   1      43.567  26.506  25.652  1.00  0.00     0.002 A 
ATOM     54  C   UNL A   1      42.475  24.489  26.429  1.00  0.00     0.091 A 
ATOM     55  F   UNL A   1      41.097  24.588  28.372  1.00  0.00    -0.205 F 
ATOM     56  C   UNL A   1      43.285  25.150  25.496  1.00  0.00     0.022 A 
BRANCH  54  57
ATOM     57  S   UNL A   1      42.277  22.711  26.265  1.00  0.00     0.127 S 
ATOM     58  O   UNL A   1      42.924  22.222  27.479  1.00  0.00    -0.237 OA
ATOM     59  O   UNL A   1      40.821  22.559  26.239  1.00  0.00    -0.237 OA
ATOM     60  O   UNL A   1      42.929  22.373  25.006  1.00  0.00    -0.744 OA
ENDBRANCH  54  57
ENDBRANCH  26  50
BRANCH  38  61
ATOM     61  C   UNL A   1      44.769  27.929  34.024  1.00  0.00     0.023 A 
ATOM     62  C   UNL A   1      45.844  28.835  33.935  1.00  0.00     0.012 A 
ATOM     63  C   UNL A   1      44.912  26.754  34.786  1.00  0.00     0.148 A 
ATOM     64  C   UNL A   1      47.054  28.564  34.570  1.00  0.00     0.002 A 
ATOM     65  C   UNL A   1      46.107  26.512  35.454  1.00  0.00     0.091 A 
ATOM     66  F   UNL A   1      43.883  25.897  34.841  1.00  0.00    -0.205 F 
ATOM     67  C   UNL A   1      47.182  27.409  35.338  1.00  0.00     0.022 A 
BRANCH  65  68
ATOM     68  S   UNL A   1      46.335  25.095  36.535  1.00  0.00     0.127 S 
ATOM     69  O   UNL A   1      46.179  23.981  35.603  1.00  0.00    -0.237 OA
ATOM     70  O   UNL A   1      47.700  25.296  37.025  1.00  0.00    -0.237 OA
ATOM     71  O   UNL A   1      45.304  25.202  37.559  1.00  0.00    -0.744 OA
ENDBRANCH  65  68
ENDBRANCH  38  61
ENDBRANCH  12  13
ENDBRANCH   5   7
ENDBRANCH   2   3
ENDBRANCH   1   2
BRANCH   1  72
ATOM     72  C   UNL A   1      33.892  27.640  23.062  1.00  0.00     0.118 C 
BRANCH  72  73
ATOM     73  N   UNL A   1      33.027  27.232  21.964  1.00  0.00    -0.352 N 
ATOM     74  C   UNL A   1      31.861  26.505  22.000  1.00  0.00     0.255 C 
ATOM     75  H   UNL A   1      33.319  27.518  21.069  1.00  0.00     0.163 HD
ATOM     76  O   UNL A   1      31.220  26.326  20.968  1.00  0.00    -0.269 OA
BRANCH  74  77
ATOM     77  C   UNL A   1      31.356  25.968  23.282  1.00  0.00     0.092 A 
ATOM     78  C   UNL A   1      30.595  26.816  24.096  1.00  0.00     0.151 A 
ATOM     79  C   UNL A   1      31.655  24.631  23.670  1.00  0.00     0.017 A 
ATOM     80  C   UNL A   1      30.195  26.279  25.303  1.00  0.00     0.159 A 
ATOM     81  C   UNL A   1      31.070  24.185  24.867  1.00  0.00     0.071 A 
ATOM     82  C   UNL A   1      32.462  23.720  22.938  1.00  0.00     0.011 A 
ATOM     83  N   UNL A   1      30.390  24.996  25.686  1.00  0.00    -0.252 NA
ATOM     84  C   UNL A   1      31.185  22.848  25.220  1.00  0.00     0.029 A 
ATOM     85  C   UNL A   1      32.559  22.380  23.306  1.00  0.00     0.001 A 
ATOM     86  C   UNL A   1      31.897  21.937  24.440  1.00  0.00     0.002 A 
BRANCH  78  87
ATOM     87  O   UNL A   1      30.279  28.061  23.635  1.00  0.00    -0.485 OA
BRANCH  87  88
ATOM     88  C   UNL A   1      28.977  28.329  23.095  1.00  0.00     0.285 C 
BRANCH  88  89
ATOM     89  C   UNL A   1      28.764  29.759  22.629  1.00  0.00     0.078 A 
ATOM     90  C   UNL A   1      29.002  30.824  23.500  1.00  0.00     0.027 A 
ATOM     91  N   UNL A   1      28.325  29.954  21.362  1.00  0.00    -0.258 NA
ATOM     92  C   UNL A   1      28.713  32.120  23.084  1.00  0.00     0.004 A 
ATOM     93  C   UNL A   1      28.079  31.226  20.974  1.00  0.00     0.111 A 
ATOM     94  C   UNL A   1      28.241  32.328  21.796  1.00  0.00     0.020 A 
ENDBRANCH  88  89
ENDBRANCH  87  88
ENDBRANCH  78  87
ENDBRANCH  74  77
ENDBRANCH  72  73
ENDBRANCH   1  72
TORSDOF 16
ENDMDL
MODEL 3
REMARK VINA RESULT:     -12.2      1.750      2.282
REMARK SMILES O=C(NCCCNC(=O)c1c(OCc2ccccn2)cnc2ccccc12)c1ccc(-c2c3nc(c(-c4cccc(S(=O)(=O)[O-])c4F)c4ccc([nH]4)c(-c4cccc(S(=O)(=O)[O-])c4F)c4nc(c(-c5cccc(S(=O)(=O)[O-])c5F)c5ccc2[nH]5)C=C4)C=C3)cc1
REMARK SMILES IDX 5 1 4 2 3 3 1 4 2 5 28 7 29 8 90 9 30 10 89 11 31 12 32 13
REMARK SMILES IDX 33 14 83 15 34 16 88 17 82 18 84 19 35 20 87 21 81 22 80 23
REMARK SMILES IDX 36 25 68 26 48 27 67 28 49 29 52 30 66 31 85 32 50 33 51 34
REMARK SMILES IDX 65 36 86 37 53 38 37 39 38 40 46 41 39 42 41 43 47 44 40 45
REMARK SMILES IDX 42 46 43 47 44 48 45 49 69 50 70 51 78 52 71 53 73 54 79 55
REMARK SMILES IDX 72 56 74 57 75 58 76 59 77 60 54 61 55 62 63 63 56 64 58 65
REMARK SMILES IDX 64 66 57 67 59 68 60 69 61 70 62 71 6 72 7 73 8 74 9 76
REMARK SMILES IDX 10 77 11 78 27 79 20 80 22 81 26 82 21 83 23 84 25 85 24 86
REMARK SMILES IDX 12 87 13 88 14 89 15 90 19 91 16 92 18 93 17 94
REMARK H PARENT 3 6 84 24 52 35 7 75
REMARK Flexibility Score: inf
ROOT
ATOM      1  C   UNL A   1      33.485  29.005  23.543  1.00  0.00     0.042 C 
ENDROOT
BRANCH   1   2
ATOM      2  C   UNL A   1      33.318  29.002  25.054  1.00  0.00     0.118 C 
BRANCH   2   3
ATOM      3  N   UNL A   1      32.728  30.230  25.574  1.00  0.00    -0.352 N 
ATOM      4  O   UNL A   1      32.341  31.898  27.032  1.00  0.00    -0.269 OA
ATOM      5  C   UNL A   1      33.077  30.984  26.671  1.00  0.00     0.251 C 
ATOM      6  H   UNL A   1      31.961  30.572  25.061  1.00  0.00     0.163 HD
BRANCH   5   7
ATOM      7  C   UNL A   1      34.314  30.676  27.422  1.00  0.00     0.039 A 
ATOM      8  C   UNL A   1      34.556  29.387  27.898  1.00  0.00     0.014 A 
ATOM      9  C   UNL A   1      35.257  31.686  27.640  1.00  0.00     0.014 A 
ATOM     10  C   UNL A   1      35.639  29.146  28.733  1.00  0.00     0.010 A 
ATOM     11  C   UNL A   1      36.408  31.413  28.386  1.00  0.00     0.010 A 
ATOM     12  C   UNL A   1      36.596  30.147  28.960  1.00  0.00    -0.014 A 
BRANCH  12  13
ATOM     13  C   UNL A   1      37.842  29.795  29.683  1.00  0.00     0.031 A 
ATOM     14  C   UNL A   1      38.875  28.880  29.085  1.00  0.00     0.074 A 
ATOM     15  C   UNL A   1      38.022  30.312  30.916  1.00  0.00     0.049 A 
ATOM     16  N   UNL A   1      40.014  28.492  29.598  1.00  0.00    -0.248 NA
ATOM     17  C   UNL A   1      38.599  28.323  27.751  1.00  0.00     0.031 C 
ATOM     18  C   UNL A   1      37.055  31.165  31.616  1.00  0.00     0.029 A 
ATOM     19  N   UNL A   1      39.059  30.194  31.803  1.00  0.00    -0.354 N 
ATOM     20  C   UNL A   1      40.570  27.612  28.678  1.00  0.00     0.074 A 
ATOM     21  C   UNL A   1      39.647  27.527  27.566  1.00  0.00     0.031 C 
ATOM     22  C   UNL A   1      37.550  31.505  32.813  1.00  0.00     0.029 A 
ATOM     23  C   UNL A   1      38.836  30.846  32.993  1.00  0.00     0.049 A 
ATOM     24  H   UNL A   1      39.883  29.692  31.608  1.00  0.00     0.167 HD
ATOM     25  C   UNL A   1      41.746  26.944  28.756  1.00  0.00     0.034 A 
ATOM     26  C   UNL A   1      39.566  30.884  34.124  1.00  0.00     0.034 A 
ATOM     27  C   UNL A   1      42.679  27.077  29.844  1.00  0.00     0.049 A 
ATOM     28  C   UNL A   1      40.872  30.150  34.164  1.00  0.00     0.074 A 
ATOM     29  C   UNL A   1      43.949  26.537  29.956  1.00  0.00     0.029 A 
ATOM     30  N   UNL A   1      42.439  27.779  31.015  1.00  0.00    -0.354 N 
ATOM     31  N   UNL A   1      41.460  29.467  33.211  1.00  0.00    -0.248 NA
ATOM     32  C   UNL A   1      41.627  30.205  35.423  1.00  0.00     0.031 C 
ATOM     33  C   UNL A   1      44.465  26.887  31.208  1.00  0.00     0.029 A 
ATOM     34  C   UNL A   1      43.523  27.658  31.869  1.00  0.00     0.049 A 
ATOM     35  H   UNL A   1      41.620  28.288  31.211  1.00  0.00     0.167 HD
ATOM     36  C   UNL A   1      42.655  29.015  33.753  1.00  0.00     0.074 A 
ATOM     37  C   UNL A   1      42.727  29.539  35.103  1.00  0.00     0.031 C 
ATOM     38  C   UNL A   1      43.594  28.214  33.195  1.00  0.00     0.034 A 
BRANCH  25  39
ATOM     39  C   UNL A   1      42.132  26.031  27.622  1.00  0.00     0.023 A 
ATOM     40  C   UNL A   1      43.074  26.466  26.669  1.00  0.00     0.012 A 
ATOM     41  C   UNL A   1      41.663  24.703  27.579  1.00  0.00     0.148 A 
ATOM     42  C   UNL A   1      43.538  25.594  25.683  1.00  0.00     0.002 A 
ATOM     43  C   UNL A   1      42.155  23.830  26.615  1.00  0.00     0.091 A 
ATOM     44  F   UNL A   1      40.755  24.318  28.486  1.00  0.00    -0.205 F 
ATOM     45  C   UNL A   1      43.088  24.276  25.664  1.00  0.00     0.022 A 
BRANCH  43  46
ATOM     46  S   UNL A   1      41.695  22.095  26.546  1.00  0.00     0.127 S 
ATOM     47  O   UNL A   1      42.429  21.643  25.364  1.00  0.00    -0.237 OA
ATOM     48  O   UNL A   1      42.216  21.589  27.817  1.00  0.00    -0.237 OA
ATOM     49  O   UNL A   1      40.245  22.065  26.426  1.00  0.00    -0.744 OA
ENDBRANCH  43  46
ENDBRANCH  25  39
BRANCH  26  50
ATOM     50  C   UNL A   1      39.067  31.650  35.300  1.00  0.00     0.023 A 
ATOM     51  C   UNL A   1      38.236  31.016  36.243  1.00  0.00     0.012 A 
ATOM     52  C   UNL A   1      39.451  32.988  35.513  1.00  0.00     0.148 A 
ATOM     53  C   UNL A   1      37.775  31.713  37.362  1.00  0.00     0.002 A 
ATOM     54  C   UNL A   1      39.042  33.654  36.661  1.00  0.00     0.091 A 
ATOM     55  F   UNL A   1      40.226  33.584  34.593  1.00  0.00    -0.205 F 
ATOM     56  C   UNL A   1      38.189  33.026  37.578  1.00  0.00     0.022 A 
BRANCH  54  57
ATOM     57  S   UNL A   1      39.668  35.286  37.071  1.00  0.00     0.127 S 
ATOM     58  O   UNL A   1      38.998  35.557  38.339  1.00  0.00    -0.237 OA
ATOM     59  O   UNL A   1      41.110  35.052  37.174  1.00  0.00    -0.237 OA
ATOM     60  O   UNL A   1      39.286  36.132  35.947  1.00  0.00    -0.744 OA
ENDBRANCH  54  57
ENDBRANCH  26  50
BRANCH  38  61
ATOM     61  C   UNL A   1      44.778  27.847  34.047  1.00  0.00     0.023 A 
ATOM     62  C   UNL A   1      45.896  28.704  34.077  1.00  0.00     0.012 A 
ATOM     63  C   UNL A   1      44.760  26.699  34.861  1.00  0.00     0.148 A 
ATOM     64  C   UNL A   1      46.993  28.408  34.882  1.00  0.00     0.002 A 
ATOM     65  C   UNL A   1      45.840  26.434  35.696  1.00  0.00     0.091 A 
ATOM     66  F   UNL A   1      43.694  25.888  34.803  1.00  0.00    -0.205 F 
ATOM     67  C   UNL A   1      46.961  27.280  35.699  1.00  0.00     0.022 A 
BRANCH  65  68
ATOM     68  S   UNL A   1      45.851  25.054  36.846  1.00  0.00     0.127 S 
ATOM     69  O   UNL A   1      47.038  25.345  37.648  1.00  0.00    -0.237 OA
ATOM     70  O   UNL A   1      44.580  25.230  37.552  1.00  0.00    -0.237 OA
ATOM     71  O   UNL A   1      45.927  23.851  36.030  1.00  0.00    -0.744 OA
ENDBRANCH  65  68
ENDBRANCH  38  61
ENDBRANCH  12  13
ENDBRANCH   5   7
ENDBRANCH   2   3
ENDBRANCH   1   2
BRANCH   1  72
ATOM     72  C   UNL A   1      33.877  27.664  22.954  1.00  0.00     0.118 C 
BRANCH  72  73
ATOM     73  N   UNL A   1      33.014  27.232  21.864  1.00  0.00    -0.352 N 
ATOM     74  C   UNL A   1      31.851  26.501  21.913  1.00  0.00     0.255 C 
ATOM     75  H   UNL A   1      33.305  27.503  20.963  1.00  0.00     0.163 HD
ATOM     76  O   UNL A   1      31.211  26.300  20.885  1.00  0.00    -0.269 OA
BRANCH  74  77
ATOM     77  C   UNL A   1      31.348  25.985  23.204  1.00  0.00     0.092 A 
ATOM     78  C   UNL A   1      30.566  26.838  23.994  1.00  0.00     0.151 A 
ATOM     79  C   UNL A   1      31.670  24.664  23.626  1.00  0.00     0.017 A 
ATOM     80  C   UNL A   1      30.169  26.322  25.211  1.00  0.00     0.159 A 
ATOM     81  C   UNL A   1      31.086  24.235  24.830  1.00  0.00     0.071 A 
ATOM     82  C   UNL A   1      32.498  23.751  22.921  1.00  0.00     0.011 A 
ATOM     83  N   UNL A   1      30.386  25.053  25.625  1.00  0.00    -0.252 NA
ATOM     84  C   UNL A   1      31.223  22.910  25.216  1.00  0.00     0.029 A 
ATOM     85  C   UNL A   1      32.618  22.422  23.321  1.00  0.00     0.001 A 
ATOM     86  C   UNL A   1      31.956  21.994  24.461  1.00  0.00     0.002 A 
BRANCH  78  87
ATOM     87  O   UNL A   1      30.231  28.066  23.502  1.00  0.00    -0.485 OA
BRANCH  87  88
ATOM     88  C   UNL A   1      28.876  28.353  23.123  1.00  0.00     0.285 C 
BRANCH  88  89
ATOM     89  C   UNL A   1      28.644  29.766  22.616  1.00  0.00     0.078 A 
ATOM     90  C   UNL A   1      28.765  30.852  23.485  1.00  0.00     0.027 A 
ATOM     91  N   UNL A   1      28.305  29.923  21.314  1.00  0.00    -0.258 NA
ATOM     92  C   UNL A   1      28.459  32.129  23.023  1.00  0.00     0.004 A 
ATOM     93  C   UNL A   1      28.040  31.178  20.884  1.00  0.00     0.111 A 
ATOM     94  C   UNL A   1      28.088  32.298  21.696  1.00  0.00     0.020 A 
ENDBRANCH  88  89
ENDBRANCH  87  88
ENDBRANCH  78  87
ENDBRANCH  74  77
ENDBRANCH  72  73
ENDBRANCH   1  72
TORSDOF 16
ENDMDL
