MODEL 1
REMARK VINA RESULT:     -12.4      0.000      0.000
REMARK SMILES O=C(COc1cc(C(F)(F)F)nc(Nc2ccc3c(c2)CCC3)n1)NCCCNC(=O)c1ccc(-c2c3nc(c(-c4cccc(S(=O)(=O)[O-])c4F)c4ccc([nH]4)c(-c4cccc(S(=O)(=O)[O-])c4F)c4nc(c(-c5cccc(S(=O)(=O)[O-])c5F)c5ccc2[nH]5)C=C4)C=C3)cc1
REMARK SMILES IDX 26 1 25 2 1 3 2 4 3 6 4 7 5 8 6 9 24 10 7 11 13 12 12 13
REMARK SMILES IDX 8 14 9 15 10 16 11 17 14 18 15 20 16 21 20 22 17 23 19 24
REMARK SMILES IDX 18 25 21 26 23 27 22 28 27 29 28 30 29 31 30 32 31 34 32 35
REMARK SMILES IDX 33 36 94 37 34 38 93 39 35 40 36 41 37 42 87 43 38 44 92 45
REMARK SMILES IDX 86 46 88 47 39 48 91 49 85 50 84 51 40 53 72 54 52 55 71 56
REMARK SMILES IDX 53 57 56 58 70 59 89 60 54 61 55 62 69 64 90 65 57 66 41 67
REMARK SMILES IDX 42 68 50 69 43 70 45 71 51 72 44 73 46 74 47 75 48 76 49 77
REMARK SMILES IDX 73 78 74 79 82 80 75 81 77 82 83 83 76 84 78 85 79 86 80 87
REMARK SMILES IDX 81 88 58 89 59 90 67 91 60 92 62 93 68 94 61 95 63 96 64 97
REMARK SMILES IDX 65 98 66 99
REMARK H PARENT 25 5 14 19 29 33 88 52 56 63
REMARK Flexibility Score: inf
ROOT
ATOM      1  C   UNL A   1      36.288  20.147  24.893  1.00  0.00     0.117 C 
ENDROOT
BRANCH   1   2
ATOM      2  N   UNL A   1      36.320  21.400  25.620  1.00  0.00    -0.353 N 
ATOM      3  O   UNL A   1      36.638  22.768  23.793  1.00  0.00    -0.271 OA
ATOM      4  C   UNL A   1      36.405  22.625  24.989  1.00  0.00     0.258 C 
ATOM      5  H   UNL A   1      36.280  21.377  26.603  1.00  0.00     0.163 HD
BRANCH   4   6
ATOM      6  C   UNL A   1      36.082  23.807  25.901  1.00  0.00     0.331 C 
BRANCH   6   7
ATOM      7  O   UNL A   1      35.144  24.714  25.326  1.00  0.00    -0.467 OA
BRANCH   7   8
ATOM      8  C   UNL A   1      33.842  24.495  25.690  1.00  0.00     0.219 A 
ATOM      9  C   UNL A   1      32.909  25.502  25.744  1.00  0.00     0.102 A 
ATOM     10  N   UNL A   1      33.516  23.204  25.791  1.00  0.00    -0.177 NA
ATOM     11  C   UNL A   1      31.593  25.115  25.895  1.00  0.00     0.153 A 
ATOM     12  C   UNL A   1      32.220  22.892  25.919  1.00  0.00     0.231 A 
ATOM     13  N   UNL A   1      31.241  23.807  25.967  1.00  0.00    -0.208 NA
BRANCH  11  14
ATOM     14  C   UNL A   1      30.503  26.174  25.920  1.00  0.00     0.433 C 
ATOM     15  F   UNL A   1      29.265  25.652  26.156  1.00  0.00    -0.165 F 
ATOM     16  F   UNL A   1      30.702  27.121  26.879  1.00  0.00    -0.165 F 
ATOM     17  F   UNL A   1      30.389  26.861  24.746  1.00  0.00    -0.165 F 
ENDBRANCH  11  14
BRANCH  12  18
ATOM     18  N   UNL A   1      31.809  21.565  25.895  1.00  0.00    -0.324 N 
ATOM     19  H   UNL A   1      31.081  21.338  26.518  1.00  0.00     0.170 HD
BRANCH  18  20
ATOM     20  C   UNL A   1      32.281  20.507  25.114  1.00  0.00     0.041 A 
ATOM     21  C   UNL A   1      32.178  20.532  23.709  1.00  0.00     0.026 A 
ATOM     22  C   UNL A   1      32.776  19.355  25.741  1.00  0.00     0.030 A 
ATOM     23  C   UNL A   1      32.590  19.452  22.923  1.00  0.00     0.006 A 
ATOM     24  C   UNL A   1      33.157  18.276  24.959  1.00  0.00    -0.043 A 
ATOM     25  C   UNL A   1      33.076  18.329  23.565  1.00  0.00    -0.045 A 
ATOM     26  C   UNL A   1      33.585  16.916  25.413  1.00  0.00     0.036 C 
ATOM     27  C   UNL A   1      33.481  17.025  22.954  1.00  0.00     0.036 C 
ATOM     28  C   UNL A   1      34.211  16.357  24.128  1.00  0.00     0.010 C 
ENDBRANCH  18  20
ENDBRANCH  12  18
ENDBRANCH   7   8
ENDBRANCH   6   7
ENDBRANCH   4   6
ENDBRANCH   1   2
BRANCH   1  29
ATOM     29  C   UNL A   1      37.573  19.346  25.016  1.00  0.00     0.042 C 
BRANCH  29  30
ATOM     30  C   UNL A   1      38.797  20.170  25.402  1.00  0.00     0.118 C 
BRANCH  30  31
ATOM     31  N   UNL A   1      39.926  19.361  25.850  1.00  0.00    -0.352 N 
ATOM     32  C   UNL A   1      41.115  19.742  26.423  1.00  0.00     0.251 C 
ATOM     33  H   UNL A   1      39.817  18.391  25.722  1.00  0.00     0.163 HD
ATOM     34  O   UNL A   1      41.990  18.898  26.613  1.00  0.00    -0.269 OA
BRANCH  32  35
ATOM     35  C   UNL A   1      41.365  21.156  26.782  1.00  0.00     0.039 A 
ATOM     36  C   UNL A   1      41.754  21.460  28.089  1.00  0.00     0.014 A 
ATOM     37  C   UNL A   1      41.224  22.178  25.841  1.00  0.00     0.014 A 
ATOM     38  C   UNL A   1      42.090  22.774  28.428  1.00  0.00     0.010 A 
ATOM     39  C   UNL A   1      41.632  23.474  26.158  1.00  0.00     0.010 A 
ATOM     40  C   UNL A   1      42.082  23.783  27.451  1.00  0.00    -0.014 A 
BRANCH  40  41
ATOM     41  C   UNL A   1      42.590  25.149  27.743  1.00  0.00     0.031 A 
ATOM     42  C   UNL A   1      41.695  26.185  28.368  1.00  0.00     0.074 A 
ATOM     43  C   UNL A   1      43.834  25.489  27.349  1.00  0.00     0.049 A 
ATOM     44  N   UNL A   1      41.942  27.445  28.615  1.00  0.00    -0.248 NA
ATOM     45  C   UNL A   1      40.338  25.756  28.741  1.00  0.00     0.031 C 
ATOM     46  C   UNL A   1      44.777  24.599  26.666  1.00  0.00     0.029 A 
ATOM     47  N   UNL A   1      44.508  26.683  27.432  1.00  0.00    -0.354 N 
ATOM     48  C   UNL A   1      40.767  27.969  29.139  1.00  0.00     0.074 A 
ATOM     49  C   UNL A   1      39.797  26.895  29.150  1.00  0.00     0.031 C 
ATOM     50  C   UNL A   1      45.902  25.277  26.391  1.00  0.00     0.029 A 
ATOM     51  C   UNL A   1      45.751  26.656  26.840  1.00  0.00     0.049 A 
ATOM     52  H   UNL A   1      44.138  27.481  27.872  1.00  0.00     0.167 HD
ATOM     53  C   UNL A   1      40.523  29.223  29.593  1.00  0.00     0.034 A 
ATOM     54  C   UNL A   1      46.659  27.635  26.660  1.00  0.00     0.034 A 
ATOM     55  C   UNL A   1      41.498  30.281  29.611  1.00  0.00     0.049 A 
ATOM     56  C   UNL A   1      46.368  29.014  27.186  1.00  0.00     0.074 A 
ATOM     57  C   UNL A   1      41.371  31.556  30.134  1.00  0.00     0.029 A 
ATOM     58  N   UNL A   1      42.771  30.197  29.069  1.00  0.00    -0.354 N 
ATOM     59  N   UNL A   1      45.309  29.445  27.827  1.00  0.00    -0.248 NA
ATOM     60  C   UNL A   1      47.408  30.034  26.991  1.00  0.00     0.031 C 
ATOM     61  C   UNL A   1      42.558  32.253  29.879  1.00  0.00     0.029 A 
ATOM     62  C   UNL A   1      43.434  31.403  29.226  1.00  0.00     0.049 A 
ATOM     63  H   UNL A   1      43.148  29.397  28.636  1.00  0.00     0.167 HD
ATOM     64  C   UNL A   1      45.568  30.776  28.137  1.00  0.00     0.074 A 
ATOM     65  C   UNL A   1      46.894  31.071  27.638  1.00  0.00     0.031 C 
ATOM     66  C   UNL A   1      44.771  31.676  28.764  1.00  0.00     0.034 A 
BRANCH  53  67
ATOM     67  C   UNL A   1      39.154  29.512  30.152  1.00  0.00     0.023 A 
ATOM     68  C   UNL A   1      38.816  29.048  31.441  1.00  0.00     0.012 A 
ATOM     69  C   UNL A   1      38.227  30.295  29.436  1.00  0.00     0.148 A 
ATOM     70  C   UNL A   1      37.567  29.329  31.992  1.00  0.00     0.002 A 
ATOM     71  C   UNL A   1      37.001  30.609  30.012  1.00  0.00     0.091 A 
ATOM     72  F   UNL A   1      38.559  30.710  28.205  1.00  0.00    -0.205 F 
ATOM     73  C   UNL A   1      36.665  30.117  31.283  1.00  0.00     0.022 A 
BRANCH  71  74
ATOM     74  S   UNL A   1      35.802  31.682  29.214  1.00  0.00     0.127 S 
ATOM     75  O   UNL A   1      34.807  31.850  30.272  1.00  0.00    -0.237 OA
ATOM     76  O   UNL A   1      36.598  32.877  28.932  1.00  0.00    -0.237 OA
ATOM     77  O   UNL A   1      35.342  30.965  28.032  1.00  0.00    -0.744 OA
ENDBRANCH  71  74
ENDBRANCH  53  67
BRANCH  54  78
ATOM     78  C   UNL A   1      47.954  27.334  25.986  1.00  0.00     0.023 A 
ATOM     79  C   UNL A   1      49.029  26.831  26.744  1.00  0.00     0.012 A 
ATOM     80  C   UNL A   1      48.120  27.521  24.601  1.00  0.00     0.148 A 
ATOM     81  C   UNL A   1      50.255  26.549  26.141  1.00  0.00     0.002 A 
ATOM     82  C   UNL A   1      49.326  27.186  23.995  1.00  0.00     0.091 A 
ATOM     83  F   UNL A   1      47.090  28.013  23.898  1.00  0.00    -0.205 F 
ATOM     84  C   UNL A   1      50.401  26.717  24.767  1.00  0.00     0.022 A 
BRANCH  82  85
ATOM     85  S   UNL A   1      49.560  27.243  22.216  1.00  0.00     0.127 S 
ATOM     86  O   UNL A   1      50.975  26.905  22.089  1.00  0.00    -0.237 OA
ATOM     87  O   UNL A   1      48.635  26.206  21.757  1.00  0.00    -0.237 OA
ATOM     88  O   UNL A   1      49.193  28.595  21.814  1.00  0.00    -0.744 OA
ENDBRANCH  82  85
ENDBRANCH  54  78
BRANCH  66  89
ATOM     89  C   UNL A   1      45.316  33.066  28.972  1.00  0.00     0.023 A 
ATOM     90  C   UNL A   1      46.063  33.361  30.129  1.00  0.00     0.012 A 
ATOM     91  C   UNL A   1      45.146  34.061  27.988  1.00  0.00     0.148 A 
ATOM     92  C   UNL A   1      46.602  34.632  30.323  1.00  0.00     0.002 A 
ATOM     93  C   UNL A   1      45.729  35.311  28.164  1.00  0.00     0.091 A 
ATOM     94  F   UNL A   1      44.418  33.768  26.901  1.00  0.00    -0.205 F 
ATOM     95  C   UNL A   1      46.444  35.603  29.336  1.00  0.00     0.022 A 
BRANCH  93  96
ATOM     96  S   UNL A   1      45.662  36.593  26.906  1.00  0.00     0.127 S 
ATOM     97  O   UNL A   1      46.248  35.910  25.753  1.00  0.00    -0.237 OA
ATOM     98  O   UNL A   1      44.224  36.846  26.799  1.00  0.00    -0.237 OA
ATOM     99  O   UNL A   1      46.436  37.710  27.429  1.00  0.00    -0.744 OA
ENDBRANCH  93  96
ENDBRANCH  66  89
ENDBRANCH  40  41
ENDBRANCH  32  35
ENDBRANCH  30  31
ENDBRANCH  29  30
ENDBRANCH   1  29
TORSDOF 18
ENDMDL
MODEL 2
REMARK VINA RESULT:     -12.1      1.711      2.452
REMARK SMILES O=C(COc1cc(C(F)(F)F)nc(Nc2ccc3c(c2)CCC3)n1)NCCCNC(=O)c1ccc(-c2c3nc(c(-c4cccc(S(=O)(=O)[O-])c4F)c4ccc([nH]4)c(-c4cccc(S(=O)(=O)[O-])c4F)c4nc(c(-c5cccc(S(=O)(=O)[O-])c5F)c5ccc2[nH]5)C=C4)C=C3)cc1
REMARK SMILES IDX 26 1 25 2 1 3 2 4 3 6 4 7 5 8 6 9 24 10 7 11 13 12 12 13
REMARK SMILES IDX 8 14 9 15 10 16 11 17 14 18 15 20 16 21 20 22 17 23 19 24
REMARK SMILES IDX 18 25 21 26 23 27 22 28 27 29 28 30 29 31 30 32 31 34 32 35
REMARK SMILES IDX 33 36 94 37 34 38 93 39 35 40 36 41 37 42 87 43 38 44 92 45
REMARK SMILES IDX 86 46 88 47 39 48 91 49 85 50 84 51 40 53 72 54 52 55 71 56
REMARK SMILES IDX 53 57 56 58 70 59 89 60 54 61 55 62 69 64 90 65 57 66 41 67
REMARK SMILES IDX 42 68 50 69 43 70 45 71 51 72 44 73 46 74 47 75 48 76 49 77
REMARK SMILES IDX 73 78 74 79 82 80 75 81 77 82 83 83 76 84 78 85 79 86 80 87
REMARK SMILES IDX 81 88 58 89 59 90 67 91 60 92 62 93 68 94 61 95 63 96 64 97
REMARK SMILES IDX 65 98 66 99
REMARK H PARENT 25 5 14 19 29 33 88 52 56 63
REMARK Flexibility Score: inf
ROOT
ATOM      1  C   UNL A   1      34.918  23.033  23.490  1.00  0.00     0.117 C 
ENDROOT
BRANCH   1   2
ATOM      2  N   UNL A   1      34.657  24.420  23.164  1.00  0.00    -0.353 N 
ATOM      3  O   UNL A   1      33.285  24.023  21.355  1.00  0.00    -0.271 OA
ATOM      4  C   UNL A   1      33.780  24.799  22.165  1.00  0.00     0.258 C 
ATOM      5  H   UNL A   1      35.122  25.122  23.673  1.00  0.00     0.163 HD
BRANCH   4   6
ATOM      6  C   UNL A   1      33.396  26.276  22.216  1.00  0.00     0.331 C 
BRANCH   6   7
ATOM      7  O   UNL A   1      32.133  26.502  22.836  1.00  0.00    -0.467 OA
BRANCH   7   8
ATOM      8  C   UNL A   1      32.158  26.488  24.206  1.00  0.00     0.219 A 
ATOM      9  C   UNL A   1      32.077  27.632  24.960  1.00  0.00     0.102 A 
ATOM     10  N   UNL A   1      32.065  25.265  24.737  1.00  0.00    -0.177 NA
ATOM     11  C   UNL A   1      31.878  27.465  26.315  1.00  0.00     0.153 A 
ATOM     12  C   UNL A   1      31.855  25.170  26.057  1.00  0.00     0.231 A 
ATOM     13  N   UNL A   1      31.750  26.232  26.867  1.00  0.00    -0.208 NA
BRANCH  11  14
ATOM     14  C   UNL A   1      31.736  28.690  27.205  1.00  0.00     0.433 C 
ATOM     15  F   UNL A   1      31.299  29.788  26.525  1.00  0.00    -0.165 F 
ATOM     16  F   UNL A   1      30.858  28.505  28.230  1.00  0.00    -0.165 F 
ATOM     17  F   UNL A   1      32.909  29.070  27.791  1.00  0.00    -0.165 F 
ENDBRANCH  11  14
BRANCH  12  18
ATOM     18  N   UNL A   1      31.620  23.933  26.644  1.00  0.00    -0.324 N 
ATOM     19  H   UNL A   1      30.983  23.938  27.394  1.00  0.00     0.170 HD
BRANCH  18  20
ATOM     20  C   UNL A   1      32.158  22.684  26.322  1.00  0.00     0.041 A 
ATOM     21  C   UNL A   1      33.150  22.086  27.125  1.00  0.00     0.026 A 
ATOM     22  C   UNL A   1      31.779  22.059  25.127  1.00  0.00     0.030 A 
ATOM     23  C   UNL A   1      33.739  20.867  26.776  1.00  0.00     0.006 A 
ATOM     24  C   UNL A   1      32.385  20.865  24.771  1.00  0.00    -0.043 A 
ATOM     25  C   UNL A   1      33.346  20.269  25.594  1.00  0.00    -0.045 A 
ATOM     26  C   UNL A   1      32.233  20.098  23.496  1.00  0.00     0.036 C 
ATOM     27  C   UNL A   1      33.896  19.028  24.966  1.00  0.00     0.036 C 
ATOM     28  C   UNL A   1      32.839  18.744  23.888  1.00  0.00     0.010 C 
ENDBRANCH  18  20
ENDBRANCH  12  18
ENDBRANCH   7   8
ENDBRANCH   6   7
ENDBRANCH   4   6
ENDBRANCH   1   2
BRANCH   1  29
ATOM     29  C   UNL A   1      36.376  22.754  23.814  1.00  0.00     0.042 C 
BRANCH  29  30
ATOM     30  C   UNL A   1      36.635  22.357  25.263  1.00  0.00     0.118 C 
BRANCH  30  31
ATOM     31  N   UNL A   1      37.656  21.324  25.410  1.00  0.00    -0.352 N 
ATOM     32  C   UNL A   1      38.925  21.401  25.932  1.00  0.00     0.251 C 
ATOM     33  H   UNL A   1      37.394  20.433  25.083  1.00  0.00     0.163 HD
ATOM     34  O   UNL A   1      39.673  20.428  25.845  1.00  0.00    -0.269 OA
BRANCH  32  35
ATOM     35  C   UNL A   1      39.408  22.648  26.566  1.00  0.00     0.039 A 
ATOM     36  C   UNL A   1      40.440  22.570  27.505  1.00  0.00     0.014 A 
ATOM     37  C   UNL A   1      38.859  23.889  26.237  1.00  0.00     0.014 A 
ATOM     38  C   UNL A   1      40.981  23.741  28.044  1.00  0.00     0.010 A 
ATOM     39  C   UNL A   1      39.448  25.059  26.716  1.00  0.00     0.010 A 
ATOM     40  C   UNL A   1      40.524  24.998  27.615  1.00  0.00    -0.014 A 
BRANCH  40  41
ATOM     41  C   UNL A   1      41.190  26.254  28.048  1.00  0.00     0.031 A 
ATOM     42  C   UNL A   1      40.407  27.345  28.727  1.00  0.00     0.074 A 
ATOM     43  C   UNL A   1      42.486  26.456  27.734  1.00  0.00     0.049 A 
ATOM     44  N   UNL A   1      40.803  28.535  29.095  1.00  0.00    -0.248 NA
ATOM     45  C   UNL A   1      38.989  27.071  29.008  1.00  0.00     0.031 C 
ATOM     46  C   UNL A   1      43.339  25.508  27.010  1.00  0.00     0.029 A 
ATOM     47  N   UNL A   1      43.305  27.538  27.949  1.00  0.00    -0.354 N 
ATOM     48  C   UNL A   1      39.681  29.166  29.619  1.00  0.00     0.074 A 
ATOM     49  C   UNL A   1      38.581  28.234  29.495  1.00  0.00     0.031 C 
ATOM     50  C   UNL A   1      44.554  26.050  26.841  1.00  0.00     0.029 A 
ATOM     51  C   UNL A   1      44.561  27.395  27.406  1.00  0.00     0.049 A 
ATOM     52  H   UNL A   1      43.020  28.339  28.444  1.00  0.00     0.167 HD
ATOM     53  C   UNL A   1      39.580  30.399  30.172  1.00  0.00     0.034 A 
ATOM     54  C   UNL A   1      45.597  28.255  27.349  1.00  0.00     0.034 A 
ATOM     55  C   UNL A   1      40.682  31.312  30.323  1.00  0.00     0.049 A 
ATOM     56  C   UNL A   1      45.461  29.612  27.985  1.00  0.00     0.074 A 
ATOM     57  C   UNL A   1      40.696  32.544  30.953  1.00  0.00     0.029 A 
ATOM     58  N   UNL A   1      41.959  31.103  29.825  1.00  0.00    -0.354 N 
ATOM     59  N   UNL A   1      44.437  30.126  28.620  1.00  0.00    -0.248 NA
ATOM     60  C   UNL A   1      46.634  30.496  27.922  1.00  0.00     0.031 C 
ATOM     61  C   UNL A   1      41.974  33.095  30.807  1.00  0.00     0.029 A 
ATOM     62  C   UNL A   1      42.764  32.193  30.115  1.00  0.00     0.049 A 
ATOM     63  H   UNL A   1      42.250  30.299  29.338  1.00  0.00     0.167 HD
ATOM     64  C   UNL A   1      44.850  31.379  29.058  1.00  0.00     0.074 A 
ATOM     65  C   UNL A   1      46.227  31.535  28.639  1.00  0.00     0.031 C 
ATOM     66  C   UNL A   1      44.147  32.322  29.732  1.00  0.00     0.034 A 
BRANCH  53  67
ATOM     67  C   UNL A   1      38.234  30.820  30.702  1.00  0.00     0.023 A 
ATOM     68  C   UNL A   1      37.882  30.516  32.034  1.00  0.00     0.012 A 
ATOM     69  C   UNL A   1      37.344  31.573  29.909  1.00  0.00     0.148 A 
ATOM     70  C   UNL A   1      36.655  30.922  32.556  1.00  0.00     0.002 A 
ATOM     71  C   UNL A   1      36.143  32.013  30.452  1.00  0.00     0.091 A 
ATOM     72  F   UNL A   1      37.687  31.837  28.640  1.00  0.00    -0.205 F 
ATOM     73  C   UNL A   1      35.792  31.679  31.769  1.00  0.00     0.022 A 
BRANCH  71  74
ATOM     74  S   UNL A   1      34.997  33.061  29.548  1.00  0.00     0.127 S 
ATOM     75  O   UNL A   1      35.889  34.100  29.035  1.00  0.00    -0.237 OA
ATOM     76  O   UNL A   1      34.481  32.145  28.530  1.00  0.00    -0.237 OA
ATOM     77  O   UNL A   1      34.009  33.510  30.519  1.00  0.00    -0.744 OA
ENDBRANCH  71  74
ENDBRANCH  53  67
BRANCH  54  78
ATOM     78  C   UNL A   1      46.874  27.841  26.702  1.00  0.00     0.023 A 
ATOM     79  C   UNL A   1      47.918  27.327  27.495  1.00  0.00     0.012 A 
ATOM     80  C   UNL A   1      47.052  27.931  25.308  1.00  0.00     0.148 A 
ATOM     81  C   UNL A   1      49.127  26.940  26.917  1.00  0.00     0.002 A 
ATOM     82  C   UNL A   1      48.238  27.492  24.731  1.00  0.00     0.091 A 
ATOM     83  F   UNL A   1      46.052  28.434  24.571  1.00  0.00    -0.205 F 
ATOM     84  C   UNL A   1      49.285  27.014  25.535  1.00  0.00     0.022 A 
BRANCH  82  85
ATOM     85  S   UNL A   1      48.478  27.424  22.953  1.00  0.00     0.127 S 
ATOM     86  O   UNL A   1      49.820  27.981  22.810  1.00  0.00    -0.237 OA
ATOM     87  O   UNL A   1      48.374  25.988  22.690  1.00  0.00    -0.237 OA
ATOM     88  O   UNL A   1      47.399  28.218  22.380  1.00  0.00    -0.744 OA
ENDBRANCH  82  85
ENDBRANCH  54  78
BRANCH  66  89
ATOM     89  C   UNL A   1      44.857  33.605  30.084  1.00  0.00     0.023 A 
ATOM     90  C   UNL A   1      45.600  33.690  31.277  1.00  0.00     0.012 A 
ATOM     91  C   UNL A   1      44.843  34.702  29.200  1.00  0.00     0.148 A 
ATOM     92  C   UNL A   1      46.290  34.857  31.604  1.00  0.00     0.002 A 
ATOM     93  C   UNL A   1      45.573  35.844  29.506  1.00  0.00     0.091 A 
ATOM     94  F   UNL A   1      44.116  34.609  28.076  1.00  0.00    -0.205 F 
ATOM     95  C   UNL A   1      46.285  35.929  30.713  1.00  0.00     0.022 A 
BRANCH  93  96
ATOM     96  S   UNL A   1      45.706  37.238  28.380  1.00  0.00     0.127 S 
ATOM     97  O   UNL A   1      46.569  38.147  29.132  1.00  0.00    -0.237 OA
ATOM     98  O   UNL A   1      46.335  36.628  27.208  1.00  0.00    -0.237 OA
ATOM     99  O   UNL A   1      44.345  37.709  28.160  1.00  0.00    -0.744 OA
ENDBRANCH  93  96
ENDBRANCH  66  89
ENDBRANCH  40  41
ENDBRANCH  32  35
ENDBRANCH  30  31
ENDBRANCH  29  30
ENDBRANCH   1  29
TORSDOF 18
ENDMDL
MODEL 3
REMARK VINA RESULT:     -11.9      6.180     11.085
REMARK SMILES O=C(COc1cc(C(F)(F)F)nc(Nc2ccc3c(c2)CCC3)n1)NCCCNC(=O)c1ccc(-c2c3nc(c(-c4cccc(S(=O)(=O)[O-])c4F)c4ccc([nH]4)c(-c4cccc(S(=O)(=O)[O-])c4F)c4nc(c(-c5cccc(S(=O)(=O)[O-])c5F)c5ccc2[nH]5)C=C4)C=C3)cc1
REMARK SMILES IDX 26 1 25 2 1 3 2 4 3 6 4 7 5 8 6 9 24 10 7 11 13 12 12 13
REMARK SMILES IDX 8 14 9 15 10 16 11 17 14 18 15 20 16 21 20 22 17 23 19 24
REMARK SMILES IDX 18 25 21 26 23 27 22 28 27 29 28 30 29 31 30 32 31 34 32 35
REMARK SMILES IDX 33 36 94 37 34 38 93 39 35 40 36 41 37 42 87 43 38 44 92 45
REMARK SMILES IDX 86 46 88 47 39 48 91 49 85 50 84 51 40 53 72 54 52 55 71 56
REMARK SMILES IDX 53 57 56 58 70 59 89 60 54 61 55 62 69 64 90 65 57 66 41 67
REMARK SMILES IDX 42 68 50 69 43 70 45 71 51 72 44 73 46 74 47 75 48 76 49 77
REMARK SMILES IDX 73 78 74 79 82 80 75 81 77 82 83 83 76 84 78 85 79 86 80 87
REMARK SMILES IDX 81 88 58 89 59 90 67 91 60 92 62 93 68 94 61 95 63 96 64 97
REMARK SMILES IDX 65 98 66 99
REMARK H PARENT 25 5 14 19 29 33 88 52 56 63
REMARK Flexibility Score: inf
ROOT
ATOM      1  C   UNL A   1      33.629  30.822  27.522  1.00  0.00     0.117 C 
ENDROOT
BRANCH   1   2
ATOM      2  N   UNL A   1      33.813  30.072  26.297  1.00  0.00    -0.353 N 
ATOM      3  O   UNL A   1      33.294  28.001  27.164  1.00  0.00    -0.271 OA
ATOM      4  C   UNL A   1      33.540  28.721  26.202  1.00  0.00     0.258 C 
ATOM      5  H   UNL A   1      34.146  30.542  25.499  1.00  0.00     0.163 HD
BRANCH   4   6
ATOM      6  C   UNL A   1      33.473  28.209  24.765  1.00  0.00     0.331 C 
BRANCH   6   7
ATOM      7  O   UNL A   1      32.566  28.951  23.953  1.00  0.00    -0.467 OA
BRANCH   7   8
ATOM      8  C   UNL A   1      31.287  28.459  23.928  1.00  0.00     0.219 A 
ATOM      9  C   UNL A   1      30.211  29.214  23.534  1.00  0.00     0.102 A 
ATOM     10  N   UNL A   1      31.210  27.140  24.125  1.00  0.00    -0.177 NA
ATOM     11  C   UNL A   1      29.024  28.539  23.332  1.00  0.00     0.153 A 
ATOM     12  C   UNL A   1      30.035  26.539  23.895  1.00  0.00     0.231 A 
ATOM     13  N   UNL A   1      28.935  27.195  23.497  1.00  0.00    -0.208 NA
BRANCH  11  14
ATOM     14  C   UNL A   1      27.801  29.306  22.855  1.00  0.00     0.433 C 
ATOM     15  F   UNL A   1      27.705  30.546  23.414  1.00  0.00    -0.165 F 
ATOM     16  F   UNL A   1      27.785  29.497  21.507  1.00  0.00    -0.165 F 
ATOM     17  F   UNL A   1      26.623  28.682  23.151  1.00  0.00    -0.165 F 
ENDBRANCH  11  14
BRANCH  12  18
ATOM     18  N   UNL A   1      29.927  25.156  23.955  1.00  0.00    -0.324 N 
ATOM     19  H   UNL A   1      29.047  24.790  23.709  1.00  0.00     0.170 HD
BRANCH  18  20
ATOM     20  C   UNL A   1      30.891  24.208  24.312  1.00  0.00     0.041 A 
ATOM     21  C   UNL A   1      31.439  23.327  23.359  1.00  0.00     0.026 A 
ATOM     22  C   UNL A   1      31.247  24.063  25.659  1.00  0.00     0.030 A 
ATOM     23  C   UNL A   1      32.356  22.335  23.719  1.00  0.00     0.006 A 
ATOM     24  C   UNL A   1      32.135  23.061  26.016  1.00  0.00    -0.043 A 
ATOM     25  C   UNL A   1      32.693  22.214  25.054  1.00  0.00    -0.045 A 
ATOM     26  C   UNL A   1      32.551  22.644  27.391  1.00  0.00     0.036 C 
ATOM     27  C   UNL A   1      33.566  21.179  25.690  1.00  0.00     0.036 C 
ATOM     28  C   UNL A   1      33.787  21.789  27.082  1.00  0.00     0.010 C 
ENDBRANCH  18  20
ENDBRANCH  12  18
ENDBRANCH   7   8
ENDBRANCH   6   7
ENDBRANCH   4   6
ENDBRANCH   1   2
BRANCH   1  29
ATOM     29  C   UNL A   1      32.514  31.850  27.438  1.00  0.00     0.042 C 
BRANCH  29  30
ATOM     30  C   UNL A   1      32.957  33.224  26.948  1.00  0.00     0.118 C 
BRANCH  30  31
ATOM     31  N   UNL A   1      32.633  34.305  27.874  1.00  0.00    -0.352 N 
ATOM     32  C   UNL A   1      33.201  34.639  29.079  1.00  0.00     0.251 C 
ATOM     33  H   UNL A   1      31.890  34.886  27.589  1.00  0.00     0.163 HD
ATOM     34  O   UNL A   1      32.688  35.523  29.764  1.00  0.00    -0.269 OA
BRANCH  32  35
ATOM     35  C   UNL A   1      34.400  33.926  29.574  1.00  0.00     0.039 A 
ATOM     36  C   UNL A   1      35.660  34.348  29.142  1.00  0.00     0.014 A 
ATOM     37  C   UNL A   1      34.292  32.854  30.463  1.00  0.00     0.014 A 
ATOM     38  C   UNL A   1      36.812  33.756  29.669  1.00  0.00     0.010 A 
ATOM     39  C   UNL A   1      35.439  32.317  31.046  1.00  0.00     0.010 A 
ATOM     40  C   UNL A   1      36.711  32.771  30.665  1.00  0.00    -0.014 A 
BRANCH  40  41
ATOM     41  C   UNL A   1      37.916  32.243  31.359  1.00  0.00     0.031 A 
ATOM     42  C   UNL A   1      38.723  31.125  30.755  1.00  0.00     0.074 A 
ATOM     43  C   UNL A   1      38.224  32.704  32.588  1.00  0.00     0.049 A 
ATOM     44  N   UNL A   1      39.748  30.487  31.256  1.00  0.00    -0.248 NA
ATOM     45  C   UNL A   1      38.309  30.647  29.426  1.00  0.00     0.031 C 
ATOM     46  C   UNL A   1      37.478  33.734  33.316  1.00  0.00     0.029 A 
ATOM     47  N   UNL A   1      39.223  32.342  33.458  1.00  0.00    -0.354 N 
ATOM     48  C   UNL A   1      40.082  29.511  30.325  1.00  0.00     0.074 A 
ATOM     49  C   UNL A   1      39.132  29.625  29.239  1.00  0.00     0.031 C 
ATOM     50  C   UNL A   1      38.043  33.918  34.520  1.00  0.00     0.029 A 
ATOM     51  C   UNL A   1      39.164  32.997  34.668  1.00  0.00     0.049 A 
ATOM     52  H   UNL A   1      39.915  31.678  33.239  1.00  0.00     0.167 HD
ATOM     53  C   UNL A   1      41.100  28.618  30.358  1.00  0.00     0.034 A 
ATOM     54  C   UNL A   1      39.913  32.858  35.779  1.00  0.00     0.034 A 
ATOM     55  C   UNL A   1      42.063  28.527  31.424  1.00  0.00     0.049 A 
ATOM     56  C   UNL A   1      41.046  31.868  35.784  1.00  0.00     0.074 A 
ATOM     57  C   UNL A   1      43.182  27.717  31.503  1.00  0.00     0.029 A 
ATOM     58  N   UNL A   1      42.015  29.257  32.602  1.00  0.00    -0.354 N 
ATOM     59  N   UNL A   1      41.445  31.068  34.826  1.00  0.00    -0.248 NA
ATOM     60  C   UNL A   1      41.850  31.783  37.011  1.00  0.00     0.031 C 
ATOM     61  C   UNL A   1      43.792  27.933  32.744  1.00  0.00     0.029 A 
ATOM     62  C   UNL A   1      43.072  28.901  33.424  1.00  0.00     0.049 A 
ATOM     63  H   UNL A   1      41.330  29.929  32.821  1.00  0.00     0.167 HD
ATOM     64  C   UNL A   1      42.563  30.407  35.323  1.00  0.00     0.074 A 
ATOM     65  C   UNL A   1      42.793  30.921  36.656  1.00  0.00     0.031 C 
ATOM     66  C   UNL A   1      43.319  29.449  34.733  1.00  0.00     0.034 A 
BRANCH  53  67
ATOM     67  C   UNL A   1      41.256  27.689  29.182  1.00  0.00     0.023 A 
ATOM     68  C   UNL A   1      40.601  26.440  29.189  1.00  0.00     0.012 A 
ATOM     69  C   UNL A   1      41.994  28.074  28.045  1.00  0.00     0.148 A 
ATOM     70  C   UNL A   1      40.705  25.576  28.100  1.00  0.00     0.002 A 
ATOM     71  C   UNL A   1      42.055  27.227  26.945  1.00  0.00     0.091 A 
ATOM     72  F   UNL A   1      42.626  29.256  28.065  1.00  0.00    -0.205 F 
ATOM     73  C   UNL A   1      41.422  25.974  26.975  1.00  0.00     0.022 A 
BRANCH  71  74
ATOM     74  S   UNL A   1      42.887  27.679  25.418  1.00  0.00     0.127 S 
ATOM     75  O   UNL A   1      42.797  26.435  24.655  1.00  0.00    -0.237 OA
ATOM     76  O   UNL A   1      42.043  28.763  24.918  1.00  0.00    -0.237 OA
ATOM     77  O   UNL A   1      44.235  28.082  25.797  1.00  0.00    -0.744 OA
ENDBRANCH  71  74
ENDBRANCH  53  67
BRANCH  54  78
ATOM     78  C   UNL A   1      39.643  33.713  36.970  1.00  0.00     0.023 A 
ATOM     79  C   UNL A   1      40.041  35.063  36.958  1.00  0.00     0.012 A 
ATOM     80  C   UNL A   1      38.977  33.204  38.101  1.00  0.00     0.148 A 
ATOM     81  C   UNL A   1      39.810  35.884  38.062  1.00  0.00     0.002 A 
ATOM     82  C   UNL A   1      38.698  34.041  39.176  1.00  0.00     0.091 A 
ATOM     83  F   UNL A   1      38.617  31.913  38.099  1.00  0.00    -0.205 F 
ATOM     84  C   UNL A   1      39.131  35.376  39.167  1.00  0.00     0.022 A 
BRANCH  82  85
ATOM     85  S   UNL A   1      37.714  33.510  40.581  1.00  0.00     0.127 S 
ATOM     86  O   UNL A   1      38.565  32.482  41.172  1.00  0.00    -0.237 OA
ATOM     87  O   UNL A   1      37.610  34.746  41.358  1.00  0.00    -0.237 OA
ATOM     88  O   UNL A   1      36.451  33.044  40.023  1.00  0.00    -0.744 OA
ENDBRANCH  82  85
ENDBRANCH  54  78
BRANCH  66  89
ATOM     89  C   UNL A   1      44.489  28.904  35.513  1.00  0.00     0.023 A 
ATOM     90  C   UNL A   1      45.752  29.516  35.402  1.00  0.00     0.012 A 
ATOM     91  C   UNL A   1      44.319  27.827  36.407  1.00  0.00     0.148 A 
ATOM     92  C   UNL A   1      46.837  29.045  36.141  1.00  0.00     0.002 A 
ATOM     93  C   UNL A   1      45.392  27.395  37.178  1.00  0.00     0.091 A 
ATOM     94  F   UNL A   1      43.113  27.246  36.486  1.00  0.00    -0.205 F 
ATOM     95  C   UNL A   1      46.654  27.993  37.036  1.00  0.00     0.022 A 
BRANCH  93  96
ATOM     96  S   UNL A   1      45.231  26.112  38.425  1.00  0.00     0.127 S 
ATOM     97  O   UNL A   1      45.137  24.907  37.602  1.00  0.00    -0.237 OA
ATOM     98  O   UNL A   1      46.483  26.246  39.170  1.00  0.00    -0.237 OA
ATOM     99  O   UNL A   1      44.034  26.441  39.188  1.00  0.00    -0.744 OA
ENDBRANCH  93  96
ENDBRANCH  66  89
ENDBRANCH  40  41
ENDBRANCH  32  35
ENDBRANCH  30  31
ENDBRANCH  29  30
ENDBRANCH   1  29
TORSDOF 18
ENDMDL
