MODEL 1
REMARK VINA RESULT:     -12.8      0.000      0.000
REMARK SMILES C[C@@H](C(=O)NCCCNC(=O)c1ccc(-c2c3nc(c(-c4cccc(S(=O)(=O)[O-])c4F)c4ccc([nH]4)c(-c4cccc(S(=O)(=O)[O-])c4F)c4nc(c(-c5cccc(S(=O)(=O)[O-])c5F)c5ccc2[nH]5)C=C4)C=C3)cc1)c1ccc(-c2ccn(C(F)F)c(=O)c2)cc1
REMARK SMILES IDX 7 1 6 2 5 3 3 4 4 5 2 7 1 8 75 9 76 10 90 11 77 12 89 13
REMARK SMILES IDX 78 14 79 15 80 16 88 17 81 18 86 19 82 20 87 21 83 22 84 23
REMARK SMILES IDX 85 24 8 25 9 26 10 27 11 29 12 30 13 31 74 32 14 33 73 34
REMARK SMILES IDX 15 35 16 36 17 37 67 38 18 39 72 40 66 41 68 42 19 43 71 44
REMARK SMILES IDX 65 45 64 46 20 48 52 49 32 50 51 51 33 52 36 53 50 54 69 55
REMARK SMILES IDX 34 56 35 57 49 59 70 60 37 61 21 62 22 63 30 64 23 65 25 66
REMARK SMILES IDX 31 67 24 68 26 69 27 70 28 71 29 72 53 73 54 74 62 75 55 76
REMARK SMILES IDX 57 77 63 78 56 79 58 80 59 81 60 82 61 83 38 84 39 85 47 86
REMARK SMILES IDX 40 87 42 88 48 89 41 90 43 91 44 92 45 93 46 94
REMARK H PARENT 5 6 9 28 68 47 36 58
REMARK Flexibility Score: inf
ROOT
ATOM      1  C   UNL A   1      31.840  28.856  26.926  1.00  0.00     0.042 C 
ENDROOT
BRANCH   1   2
ATOM      2  C   UNL A   1      31.632  27.442  26.390  1.00  0.00     0.117 C 
BRANCH   2   3
ATOM      3  N   UNL A   1      30.642  27.391  25.334  1.00  0.00    -0.356 N 
ATOM      4  C   UNL A   1      30.706  26.895  24.065  1.00  0.00     0.227 C 
ATOM      5  O   UNL A   1      29.654  26.948  23.423  1.00  0.00    -0.274 OA
ATOM      6  H   UNL A   1      29.771  27.783  25.574  1.00  0.00     0.163 HD
BRANCH   4   7
ATOM      7  C   UNL A   1      32.012  26.274  23.527  1.00  0.00     0.105 C 
ATOM      8  C   UNL A   1      32.288  26.647  22.069  1.00  0.00     0.023 C 
BRANCH   7   9
ATOM      9  C   UNL A   1      32.084  24.748  23.628  1.00  0.00    -0.036 A 
ATOM     10  C   UNL A   1      31.301  24.074  24.578  1.00  0.00     0.005 A 
ATOM     11  C   UNL A   1      32.993  24.000  22.866  1.00  0.00     0.005 A 
ATOM     12  C   UNL A   1      31.405  22.686  24.739  1.00  0.00     0.009 A 
ATOM     13  C   UNL A   1      33.080  22.616  23.007  1.00  0.00     0.009 A 
ATOM     14  C   UNL A   1      32.288  21.945  23.945  1.00  0.00    -0.018 A 
BRANCH  14  15
ATOM     15  C   UNL A   1      32.408  20.479  24.059  1.00  0.00    -0.011 A 
ATOM     16  C   UNL A   1      32.757  19.821  25.305  1.00  0.00     0.027 A 
ATOM     17  C   UNL A   1      32.270  19.735  22.947  1.00  0.00     0.080 A 
ATOM     18  C   UNL A   1      32.999  18.506  25.337  1.00  0.00     0.095 A 
ATOM     19  C   UNL A   1      32.503  18.265  22.976  1.00  0.00     0.255 A 
ATOM     20  N   UNL A   1      32.892  17.736  24.195  1.00  0.00    -0.258 N 
ATOM     21  O   UNL A   1      32.355  17.627  21.935  1.00  0.00    -0.269 OA
BRANCH  20  22
ATOM     22  C   UNL A   1      33.206  16.333  24.229  1.00  0.00     0.451 C 
ATOM     23  F   UNL A   1      34.375  16.070  23.595  1.00  0.00    -0.185 F 
ATOM     24  F   UNL A   1      33.317  15.891  25.507  1.00  0.00    -0.185 F 
ENDBRANCH  20  22
ENDBRANCH  14  15
ENDBRANCH   7   9
ENDBRANCH   4   7
ENDBRANCH   2   3
ENDBRANCH   1   2
BRANCH   1  25
ATOM     25  C   UNL A   1      32.769  29.734  26.090  1.00  0.00     0.118 C 
BRANCH  25  26
ATOM     26  N   UNL A   1      32.664  31.146  26.419  1.00  0.00    -0.352 N 
ATOM     27  C   UNL A   1      33.415  31.921  27.268  1.00  0.00     0.251 C 
ATOM     28  H   UNL A   1      31.937  31.624  25.959  1.00  0.00     0.163 HD
ATOM     29  O   UNL A   1      33.034  33.063  27.518  1.00  0.00    -0.269 OA
BRANCH  27  30
ATOM     30  C   UNL A   1      34.653  31.403  27.897  1.00  0.00     0.039 A 
ATOM     31  C   UNL A   1      35.745  32.267  28.019  1.00  0.00     0.014 A 
ATOM     32  C   UNL A   1      34.772  30.075  28.317  1.00  0.00     0.014 A 
ATOM     33  C   UNL A   1      36.931  31.817  28.605  1.00  0.00     0.010 A 
ATOM     34  C   UNL A   1      35.930  29.648  28.970  1.00  0.00     0.010 A 
ATOM     35  C   UNL A   1      37.026  30.510  29.112  1.00  0.00    -0.014 A 
BRANCH  35  36
ATOM     36  C   UNL A   1      38.261  30.053  29.804  1.00  0.00     0.031 A 
ATOM     37  C   UNL A   1      38.604  30.545  31.184  1.00  0.00     0.074 A 
ATOM     38  C   UNL A   1      39.109  29.225  29.161  1.00  0.00     0.049 A 
ATOM     39  N   UNL A   1      39.625  30.230  31.941  1.00  0.00    -0.248 NA
ATOM     40  C   UNL A   1      37.701  31.539  31.787  1.00  0.00     0.031 C 
ATOM     41  C   UNL A   1      38.942  28.749  27.785  1.00  0.00     0.029 A 
ATOM     42  N   UNL A   1      40.286  28.650  29.569  1.00  0.00    -0.354 N 
ATOM     43  C   UNL A   1      39.502  30.999  33.092  1.00  0.00     0.074 A 
ATOM     44  C   UNL A   1      38.329  31.828  32.918  1.00  0.00     0.031 C 
ATOM     45  C   UNL A   1      39.971  27.946  27.469  1.00  0.00     0.029 A 
ATOM     46  C   UNL A   1      40.879  27.864  28.609  1.00  0.00     0.049 A 
ATOM     47  H   UNL A   1      40.671  28.787  30.465  1.00  0.00     0.167 HD
ATOM     48  C   UNL A   1      40.272  30.994  34.207  1.00  0.00     0.034 A 
ATOM     49  C   UNL A   1      42.022  27.151  28.641  1.00  0.00     0.034 A 
ATOM     50  C   UNL A   1      41.416  30.141  34.395  1.00  0.00     0.049 A 
ATOM     51  C   UNL A   1      42.825  27.114  29.912  1.00  0.00     0.074 A 
ATOM     52  C   UNL A   1      42.211  30.000  35.520  1.00  0.00     0.029 A 
ATOM     53  N   UNL A   1      41.935  29.288  33.433  1.00  0.00    -0.354 N 
ATOM     54  N   UNL A   1      42.593  27.716  31.053  1.00  0.00    -0.248 NA
ATOM     55  C   UNL A   1      44.024  26.262  29.915  1.00  0.00     0.031 C 
ATOM     56  C   UNL A   1      43.219  29.075  35.231  1.00  0.00     0.029 A 
ATOM     57  C   UNL A   1      43.041  28.622  33.934  1.00  0.00     0.049 A 
ATOM     58  H   UNL A   1      41.570  29.173  32.526  1.00  0.00     0.167 HD
ATOM     59  C   UNL A   1      43.597  27.295  31.918  1.00  0.00     0.074 A 
ATOM     60  C   UNL A   1      44.422  26.363  31.176  1.00  0.00     0.031 C 
ATOM     61  C   UNL A   1      43.828  27.662  33.203  1.00  0.00     0.034 A 
BRANCH  48  62
ATOM     62  C   UNL A   1      39.864  31.896  35.344  1.00  0.00     0.023 A 
ATOM     63  C   UNL A   1      40.353  33.218  35.387  1.00  0.00     0.012 A 
ATOM     64  C   UNL A   1      38.956  31.465  36.331  1.00  0.00     0.148 A 
ATOM     65  C   UNL A   1      39.975  34.085  36.410  1.00  0.00     0.002 A 
ATOM     66  C   UNL A   1      38.550  32.350  37.325  1.00  0.00     0.091 A 
ATOM     67  F   UNL A   1      38.516  30.200  36.288  1.00  0.00    -0.205 F 
ATOM     68  C   UNL A   1      39.067  33.655  37.373  1.00  0.00     0.022 A 
BRANCH  66  69
ATOM     69  S   UNL A   1      37.323  31.917  38.565  1.00  0.00     0.127 S 
ATOM     70  O   UNL A   1      37.089  30.504  38.265  1.00  0.00    -0.237 OA
ATOM     71  O   UNL A   1      38.046  32.162  39.813  1.00  0.00    -0.237 OA
ATOM     72  O   UNL A   1      36.191  32.800  38.335  1.00  0.00    -0.744 OA
ENDBRANCH  66  69
ENDBRANCH  48  62
BRANCH  49  73
ATOM     73  C   UNL A   1      42.429  26.349  27.453  1.00  0.00     0.023 A 
ATOM     74  C   UNL A   1      43.212  26.948  26.448  1.00  0.00     0.012 A 
ATOM     75  C   UNL A   1      42.078  24.990  27.332  1.00  0.00     0.148 A 
ATOM     76  C   UNL A   1      43.610  26.218  25.327  1.00  0.00     0.002 A 
ATOM     77  C   UNL A   1      42.528  24.253  26.242  1.00  0.00     0.091 A 
ATOM     78  F   UNL A   1      41.323  24.440  28.293  1.00  0.00    -0.205 F 
ATOM     79  C   UNL A   1      43.279  24.871  25.229  1.00  0.00     0.022 A 
BRANCH  77  80
ATOM     80  S   UNL A   1      42.266  22.482  26.109  1.00  0.00     0.127 S 
ATOM     81  O   UNL A   1      40.807  22.396  26.088  1.00  0.00    -0.237 OA
ATOM     82  O   UNL A   1      42.919  22.172  24.836  1.00  0.00    -0.237 OA
ATOM     83  O   UNL A   1      42.920  21.901  27.271  1.00  0.00    -0.744 OA
ENDBRANCH  77  80
ENDBRANCH  49  73
BRANCH  61  84
ATOM     84  C   UNL A   1      45.008  27.037  33.902  1.00  0.00     0.023 A 
ATOM     85  C   UNL A   1      46.272  27.655  33.823  1.00  0.00     0.012 A 
ATOM     86  C   UNL A   1      44.855  25.872  34.677  1.00  0.00     0.148 A 
ATOM     87  C   UNL A   1      47.375  27.099  34.472  1.00  0.00     0.002 A 
ATOM     88  C   UNL A   1      45.949  25.351  35.361  1.00  0.00     0.091 A 
ATOM     89  F   UNL A   1      43.650  25.286  34.725  1.00  0.00    -0.205 F 
ATOM     90  C   UNL A   1      47.210  25.955  35.248  1.00  0.00     0.022 A 
BRANCH  88  91
ATOM     91  S   UNL A   1      45.806  23.935  36.458  1.00  0.00     0.127 S 
ATOM     92  O   UNL A   1      47.193  23.739  36.875  1.00  0.00    -0.237 OA
ATOM     93  O   UNL A   1      44.919  24.440  37.507  1.00  0.00    -0.237 OA
ATOM     94  O   UNL A   1      45.233  22.865  35.652  1.00  0.00    -0.744 OA
ENDBRANCH  88  91
ENDBRANCH  61  84
ENDBRANCH  35  36
ENDBRANCH  27  30
ENDBRANCH  25  26
ENDBRANCH   1  25
TORSDOF 16
ENDMDL
MODEL 2
REMARK VINA RESULT:     -12.8      1.975      2.471
REMARK SMILES C[C@@H](C(=O)NCCCNC(=O)c1ccc(-c2c3nc(c(-c4cccc(S(=O)(=O)[O-])c4F)c4ccc([nH]4)c(-c4cccc(S(=O)(=O)[O-])c4F)c4nc(c(-c5cccc(S(=O)(=O)[O-])c5F)c5ccc2[nH]5)C=C4)C=C3)cc1)c1ccc(-c2ccn(C(F)F)c(=O)c2)cc1
REMARK SMILES IDX 7 1 6 2 5 3 3 4 4 5 2 7 1 8 75 9 76 10 90 11 77 12 89 13
REMARK SMILES IDX 78 14 79 15 80 16 88 17 81 18 86 19 82 20 87 21 83 22 84 23
REMARK SMILES IDX 85 24 8 25 9 26 10 27 11 29 12 30 13 31 74 32 14 33 73 34
REMARK SMILES IDX 15 35 16 36 17 37 67 38 18 39 72 40 66 41 68 42 19 43 71 44
REMARK SMILES IDX 65 45 64 46 20 48 52 49 32 50 51 51 33 52 36 53 50 54 69 55
REMARK SMILES IDX 34 56 35 57 49 59 70 60 37 61 21 62 22 63 30 64 23 65 25 66
REMARK SMILES IDX 31 67 24 68 26 69 27 70 28 71 29 72 53 73 54 74 62 75 55 76
REMARK SMILES IDX 57 77 63 78 56 79 58 80 59 81 60 82 61 83 38 84 39 85 47 86
REMARK SMILES IDX 40 87 42 88 48 89 41 90 43 91 44 92 45 93 46 94
REMARK H PARENT 5 6 9 28 68 47 36 58
REMARK Flexibility Score: inf
ROOT
ATOM      1  C   UNL A   1      32.018  28.093  27.468  1.00  0.00     0.042 C 
ENDROOT
BRANCH   1   2
ATOM      2  C   UNL A   1      31.570  26.977  26.527  1.00  0.00     0.117 C 
BRANCH   2   3
ATOM      3  N   UNL A   1      31.092  27.484  25.256  1.00  0.00    -0.356 N 
ATOM      4  C   UNL A   1      31.691  27.551  24.033  1.00  0.00     0.227 C 
ATOM      5  O   UNL A   1      30.985  27.989  23.122  1.00  0.00    -0.274 OA
ATOM      6  H   UNL A   1      30.175  27.843  25.281  1.00  0.00     0.163 HD
BRANCH   4   7
ATOM      7  C   UNL A   1      33.140  27.056  23.838  1.00  0.00     0.105 C 
ATOM      8  C   UNL A   1      33.746  27.509  22.507  1.00  0.00     0.023 C 
BRANCH   7   9
ATOM      9  C   UNL A   1      33.314  25.538  23.923  1.00  0.00    -0.036 A 
ATOM     10  C   UNL A   1      32.618  24.704  23.034  1.00  0.00     0.005 A 
ATOM     11  C   UNL A   1      34.074  24.938  24.937  1.00  0.00     0.005 A 
ATOM     12  C   UNL A   1      32.703  23.310  23.140  1.00  0.00     0.009 A 
ATOM     13  C   UNL A   1      34.181  23.551  25.029  1.00  0.00     0.009 A 
ATOM     14  C   UNL A   1      33.496  22.723  24.133  1.00  0.00    -0.018 A 
BRANCH  14  15
ATOM     15  C   UNL A   1      33.640  21.260  24.263  1.00  0.00    -0.011 A 
ATOM     16  C   UNL A   1      34.788  20.645  24.903  1.00  0.00     0.027 A 
ATOM     17  C   UNL A   1      32.712  20.471  23.692  1.00  0.00     0.080 A 
ATOM     18  C   UNL A   1      34.954  19.318  24.874  1.00  0.00     0.095 A 
ATOM     19  C   UNL A   1      32.867  18.991  23.683  1.00  0.00     0.255 A 
ATOM     20  N   UNL A   1      34.024  18.498  24.262  1.00  0.00    -0.258 N 
ATOM     21  O   UNL A   1      31.988  18.311  23.157  1.00  0.00    -0.269 OA
BRANCH  20  22
ATOM     22  C   UNL A   1      34.240  17.078  24.190  1.00  0.00     0.451 C 
ATOM     23  F   UNL A   1      34.441  16.672  22.913  1.00  0.00    -0.185 F 
ATOM     24  F   UNL A   1      35.324  16.713  24.920  1.00  0.00    -0.185 F 
ENDBRANCH  20  22
ENDBRANCH  14  15
ENDBRANCH   7   9
ENDBRANCH   4   7
ENDBRANCH   2   3
ENDBRANCH   1   2
BRANCH   1  25
ATOM     25  C   UNL A   1      33.402  28.669  27.175  1.00  0.00     0.118 C 
BRANCH  25  26
ATOM     26  N   UNL A   1      33.461  30.113  27.335  1.00  0.00    -0.352 N 
ATOM     27  C   UNL A   1      34.413  30.905  27.927  1.00  0.00     0.251 C 
ATOM     28  H   UNL A   1      32.694  30.602  26.958  1.00  0.00     0.163 HD
ATOM     29  O   UNL A   1      34.168  32.098  28.094  1.00  0.00    -0.269 OA
BRANCH  27  30
ATOM     30  C   UNL A   1      35.710  30.348  28.379  1.00  0.00     0.039 A 
ATOM     31  C   UNL A   1      36.808  30.444  27.520  1.00  0.00     0.014 A 
ATOM     32  C   UNL A   1      35.848  29.692  29.606  1.00  0.00     0.014 A 
ATOM     33  C   UNL A   1      38.048  29.930  27.909  1.00  0.00     0.010 A 
ATOM     34  C   UNL A   1      37.103  29.248  30.025  1.00  0.00     0.010 A 
ATOM     35  C   UNL A   1      38.215  29.352  29.178  1.00  0.00    -0.014 A 
BRANCH  35  36
ATOM     36  C   UNL A   1      39.551  28.873  29.623  1.00  0.00     0.031 A 
ATOM     37  C   UNL A   1      40.300  29.576  30.724  1.00  0.00     0.074 A 
ATOM     38  C   UNL A   1      40.119  27.825  28.994  1.00  0.00     0.049 A 
ATOM     39  N   UNL A   1      41.460  29.277  31.252  1.00  0.00    -0.248 NA
ATOM     40  C   UNL A   1      39.681  30.785  31.291  1.00  0.00     0.031 C 
ATOM     41  C   UNL A   1      39.541  27.114  27.850  1.00  0.00     0.029 A 
ATOM     42  N   UNL A   1      41.312  27.183  29.214  1.00  0.00    -0.354 N 
ATOM     43  C   UNL A   1      41.722  30.269  32.190  1.00  0.00     0.074 A 
ATOM     44  C   UNL A   1      40.618  31.201  32.133  1.00  0.00     0.031 C 
ATOM     45  C   UNL A   1      40.375  26.129  27.477  1.00  0.00     0.029 A 
ATOM     46  C   UNL A   1      41.552  26.148  28.341  1.00  0.00     0.049 A 
ATOM     47  H   UNL A   1      41.938  27.440  29.929  1.00  0.00     0.167 HD
ATOM     48  C   UNL A   1      42.766  30.376  33.048  1.00  0.00     0.034 A 
ATOM     49  C   UNL A   1      42.597  25.303  28.247  1.00  0.00     0.034 A 
ATOM     50  C   UNL A   1      43.844  29.426  33.132  1.00  0.00     0.049 A 
ATOM     51  C   UNL A   1      43.713  25.406  29.250  1.00  0.00     0.074 A 
ATOM     52  C   UNL A   1      44.903  29.401  34.023  1.00  0.00     0.029 A 
ATOM     53  N   UNL A   1      44.006  28.336  32.290  1.00  0.00    -0.354 N 
ATOM     54  N   UNL A   1      43.854  26.249  30.244  1.00  0.00    -0.248 NA
ATOM     55  C   UNL A   1      44.793  24.414  29.145  1.00  0.00     0.031 C 
ATOM     56  C   UNL A   1      45.714  28.306  33.709  1.00  0.00     0.029 A 
ATOM     57  C   UNL A   1      45.150  27.635  32.636  1.00  0.00     0.049 A 
ATOM     58  H   UNL A   1      43.398  28.096  31.555  1.00  0.00     0.167 HD
ATOM     59  C   UNL A   1      45.020  25.871  30.902  1.00  0.00     0.074 A 
ATOM     60  C   UNL A   1      45.529  24.705  30.210  1.00  0.00     0.031 C 
ATOM     61  C   UNL A   1      45.624  26.449  31.970  1.00  0.00     0.034 A 
BRANCH  48  62
ATOM     62  C   UNL A   1      42.761  31.533  34.014  1.00  0.00     0.023 A 
ATOM     63  C   UNL A   1      43.293  32.775  33.608  1.00  0.00     0.012 A 
ATOM     64  C   UNL A   1      42.182  31.417  35.293  1.00  0.00     0.148 A 
ATOM     65  C   UNL A   1      43.281  33.871  34.469  1.00  0.00     0.002 A 
ATOM     66  C   UNL A   1      42.134  32.527  36.130  1.00  0.00     0.091 A 
ATOM     67  F   UNL A   1      41.699  30.225  35.671  1.00  0.00    -0.205 F 
ATOM     68  C   UNL A   1      42.693  33.750  35.725  1.00  0.00     0.022 A 
BRANCH  66  69
ATOM     69  S   UNL A   1      41.329  32.496  37.736  1.00  0.00     0.127 S 
ATOM     70  O   UNL A   1      40.006  31.972  37.391  1.00  0.00    -0.237 OA
ATOM     71  O   UNL A   1      42.174  31.566  38.487  1.00  0.00    -0.237 OA
ATOM     72  O   UNL A   1      41.351  33.866  38.224  1.00  0.00    -0.744 OA
ENDBRANCH  66  69
ENDBRANCH  48  62
BRANCH  49  73
ATOM     73  C   UNL A   1      42.595  24.233  27.210  1.00  0.00     0.023 A 
ATOM     74  C   UNL A   1      43.256  24.453  25.986  1.00  0.00     0.012 A 
ATOM     75  C   UNL A   1      41.976  22.989  27.442  1.00  0.00     0.148 A 
ATOM     76  C   UNL A   1      43.272  23.466  24.999  1.00  0.00     0.002 A 
ATOM     77  C   UNL A   1      42.047  21.990  26.478  1.00  0.00     0.091 A 
ATOM     78  F   UNL A   1      41.342  22.803  28.609  1.00  0.00    -0.205 F 
ATOM     79  C   UNL A   1      42.679  22.233  25.249  1.00  0.00     0.022 A 
BRANCH  77  80
ATOM     80  S   UNL A   1      41.433  20.328  26.775  1.00  0.00     0.127 S 
ATOM     81  O   UNL A   1      40.011  20.572  27.009  1.00  0.00    -0.237 OA
ATOM     82  O   UNL A   1      41.742  19.660  25.509  1.00  0.00    -0.237 OA
ATOM     83  O   UNL A   1      42.189  19.829  27.913  1.00  0.00    -0.744 OA
ENDBRANCH  77  80
ENDBRANCH  49  73
BRANCH  61  84
ATOM     84  C   UNL A   1      46.896  25.817  32.473  1.00  0.00     0.023 A 
ATOM     85  C   UNL A   1      48.135  26.214  31.932  1.00  0.00     0.012 A 
ATOM     86  C   UNL A   1      46.869  24.871  33.516  1.00  0.00     0.148 A 
ATOM     87  C   UNL A   1      49.324  25.650  32.392  1.00  0.00     0.002 A 
ATOM     88  C   UNL A   1      48.062  24.348  34.003  1.00  0.00     0.091 A 
ATOM     89  F   UNL A   1      45.681  24.488  34.006  1.00  0.00    -0.205 F 
ATOM     90  C   UNL A   1      49.288  24.725  33.433  1.00  0.00     0.022 A 
BRANCH  88  91
ATOM     91  S   UNL A   1      48.114  23.224  35.403  1.00  0.00     0.127 S 
ATOM     92  O   UNL A   1      47.489  22.025  34.847  1.00  0.00    -0.237 OA
ATOM     93  O   UNL A   1      49.551  23.101  35.653  1.00  0.00    -0.237 OA
ATOM     94  O   UNL A   1      47.373  23.883  36.469  1.00  0.00    -0.744 OA
ENDBRANCH  88  91
ENDBRANCH  61  84
ENDBRANCH  35  36
ENDBRANCH  27  30
ENDBRANCH  25  26
ENDBRANCH   1  25
TORSDOF 16
ENDMDL
MODEL 3
REMARK VINA RESULT:     -12.5      1.816      2.405
REMARK SMILES C[C@@H](C(=O)NCCCNC(=O)c1ccc(-c2c3nc(c(-c4cccc(S(=O)(=O)[O-])c4F)c4ccc([nH]4)c(-c4cccc(S(=O)(=O)[O-])c4F)c4nc(c(-c5cccc(S(=O)(=O)[O-])c5F)c5ccc2[nH]5)C=C4)C=C3)cc1)c1ccc(-c2ccn(C(F)F)c(=O)c2)cc1
REMARK SMILES IDX 7 1 6 2 5 3 3 4 4 5 2 7 1 8 75 9 76 10 90 11 77 12 89 13
REMARK SMILES IDX 78 14 79 15 80 16 88 17 81 18 86 19 82 20 87 21 83 22 84 23
REMARK SMILES IDX 85 24 8 25 9 26 10 27 11 29 12 30 13 31 74 32 14 33 73 34
REMARK SMILES IDX 15 35 16 36 17 37 67 38 18 39 72 40 66 41 68 42 19 43 71 44
REMARK SMILES IDX 65 45 64 46 20 48 52 49 32 50 51 51 33 52 36 53 50 54 69 55
REMARK SMILES IDX 34 56 35 57 49 59 70 60 37 61 21 62 22 63 30 64 23 65 25 66
REMARK SMILES IDX 31 67 24 68 26 69 27 70 28 71 29 72 53 73 54 74 62 75 55 76
REMARK SMILES IDX 57 77 63 78 56 79 58 80 59 81 60 82 61 83 38 84 39 85 47 86
REMARK SMILES IDX 40 87 42 88 48 89 41 90 43 91 44 92 45 93 46 94
REMARK H PARENT 5 6 9 28 68 47 36 58
REMARK Flexibility Score: inf
ROOT
ATOM      1  C   UNL A   1      31.414  31.893  26.189  1.00  0.00     0.042 C 
ENDROOT
BRANCH   1   2
ATOM      2  C   UNL A   1      31.245  30.384  26.023  1.00  0.00     0.117 C 
BRANCH   2   3
ATOM      3  N   UNL A   1      32.056  29.852  24.947  1.00  0.00    -0.356 N 
ATOM      4  C   UNL A   1      32.936  28.810  24.916  1.00  0.00     0.227 C 
ATOM      5  O   UNL A   1      33.429  28.568  23.812  1.00  0.00    -0.274 OA
ATOM      6  H   UNL A   1      31.955  30.325  24.089  1.00  0.00     0.163 HD
BRANCH   4   7
ATOM      7  C   UNL A   1      33.227  27.987  26.188  1.00  0.00     0.105 C 
ATOM      8  C   UNL A   1      34.477  28.465  26.930  1.00  0.00     0.023 C 
BRANCH   7   9
ATOM      9  C   UNL A   1      33.386  26.483  25.954  1.00  0.00    -0.036 A 
ATOM     10  C   UNL A   1      32.419  25.593  26.449  1.00  0.00     0.005 A 
ATOM     11  C   UNL A   1      34.530  25.947  25.346  1.00  0.00     0.005 A 
ATOM     12  C   UNL A   1      32.579  24.209  26.312  1.00  0.00     0.009 A 
ATOM     13  C   UNL A   1      34.680  24.570  25.187  1.00  0.00     0.009 A 
ATOM     14  C   UNL A   1      33.708  23.686  25.668  1.00  0.00    -0.018 A 
BRANCH  14  15
ATOM     15  C   UNL A   1      33.904  22.237  25.475  1.00  0.00    -0.011 A 
ATOM     16  C   UNL A   1      35.213  21.651  25.252  1.00  0.00     0.027 A 
ATOM     17  C   UNL A   1      32.818  21.445  25.420  1.00  0.00     0.080 A 
ATOM     18  C   UNL A   1      35.336  20.357  24.937  1.00  0.00     0.095 A 
ATOM     19  C   UNL A   1      32.944  19.996  25.104  1.00  0.00     0.255 A 
ATOM     20  N   UNL A   1      34.225  19.540  24.846  1.00  0.00    -0.258 N 
ATOM     21  O   UNL A   1      31.923  19.310  25.075  1.00  0.00    -0.269 OA
BRANCH  20  22
ATOM     22  C   UNL A   1      34.364  18.163  24.454  1.00  0.00     0.451 C 
ATOM     23  F   UNL A   1      33.901  17.956  23.197  1.00  0.00    -0.185 F 
ATOM     24  F   UNL A   1      35.664  17.776  24.488  1.00  0.00    -0.185 F 
ENDBRANCH  20  22
ENDBRANCH  14  15
ENDBRANCH   7   9
ENDBRANCH   4   7
ENDBRANCH   2   3
ENDBRANCH   1   2
BRANCH   1  25
ATOM     25  C   UNL A   1      32.604  32.319  27.046  1.00  0.00     0.118 C 
BRANCH  25  26
ATOM     26  N   UNL A   1      32.476  33.671  27.563  1.00  0.00    -0.352 N 
ATOM     27  C   UNL A   1      33.191  34.324  28.536  1.00  0.00     0.251 C 
ATOM     28  H   UNL A   1      31.760  34.206  27.149  1.00  0.00     0.163 HD
ATOM     29  O   UNL A   1      32.792  35.419  28.928  1.00  0.00    -0.269 OA
BRANCH  27  30
ATOM     30  C   UNL A   1      34.413  33.730  29.129  1.00  0.00     0.039 A 
ATOM     31  C   UNL A   1      34.265  32.659  30.016  1.00  0.00     0.014 A 
ATOM     32  C   UNL A   1      35.688  34.240  28.867  1.00  0.00     0.014 A 
ATOM     33  C   UNL A   1      35.392  32.072  30.597  1.00  0.00     0.010 A 
ATOM     34  C   UNL A   1      36.816  33.605  29.388  1.00  0.00     0.010 A 
ATOM     35  C   UNL A   1      36.682  32.521  30.267  1.00  0.00    -0.014 A 
BRANCH  35  36
ATOM     36  C   UNL A   1      37.885  31.847  30.826  1.00  0.00     0.031 A 
ATOM     37  C   UNL A   1      38.432  32.230  32.175  1.00  0.00     0.074 A 
ATOM     38  C   UNL A   1      38.520  30.915  30.087  1.00  0.00     0.049 A 
ATOM     39  N   UNL A   1      39.453  31.727  32.821  1.00  0.00    -0.248 NA
ATOM     40  C   UNL A   1      37.765  33.336  32.880  1.00  0.00     0.031 C 
ATOM     41  C   UNL A   1      38.149  30.519  28.726  1.00  0.00     0.029 A 
ATOM     42  N   UNL A   1      39.620  30.143  30.368  1.00  0.00    -0.354 N 
ATOM     43  C   UNL A   1      39.567  32.467  33.993  1.00  0.00     0.074 A 
ATOM     44  C   UNL A   1      38.535  33.480  33.950  1.00  0.00     0.031 C 
ATOM     45  C   UNL A   1      38.998  29.572  28.296  1.00  0.00     0.029 A 
ATOM     46  C   UNL A   1      39.983  29.304  29.340  1.00  0.00     0.049 A 
ATOM     47  H   UNL A   1      40.104  30.185  31.224  1.00  0.00     0.167 HD
ATOM     48  C   UNL A   1      40.427  32.299  35.027  1.00  0.00     0.034 A 
ATOM     49  C   UNL A   1      40.991  28.415  29.247  1.00  0.00     0.034 A 
ATOM     50  C   UNL A   1      41.427  31.266  35.086  1.00  0.00     0.049 A 
ATOM     51  C   UNL A   1      41.892  28.205  30.432  1.00  0.00     0.074 A 
ATOM     52  C   UNL A   1      42.289  30.960  36.125  1.00  0.00     0.029 A 
ATOM     53  N   UNL A   1      41.706  30.373  34.062  1.00  0.00    -0.354 N 
ATOM     54  N   UNL A   1      41.870  28.798  31.601  1.00  0.00    -0.248 NA
ATOM     55  C   UNL A   1      42.930  27.170  30.302  1.00  0.00     0.031 C 
ATOM     56  C   UNL A   1      43.101  29.894  35.722  1.00  0.00     0.029 A 
ATOM     57  C   UNL A   1      42.730  29.520  34.440  1.00  0.00     0.049 A 
ATOM     58  H   UNL A   1      41.244  30.350  33.193  1.00  0.00     0.167 HD
ATOM     59  C   UNL A   1      42.868  28.190  32.356  1.00  0.00     0.074 A 
ATOM     60  C   UNL A   1      43.454  27.162  31.520  1.00  0.00     0.031 C 
ATOM     61  C   UNL A   1      43.275  28.471  33.619  1.00  0.00     0.034 A 
BRANCH  48  62
ATOM     62  C   UNL A   1      40.281  33.216  36.215  1.00  0.00     0.023 A 
ATOM     63  C   UNL A   1      40.900  34.483  36.189  1.00  0.00     0.012 A 
ATOM     64  C   UNL A   1      39.489  32.858  37.324  1.00  0.00     0.148 A 
ATOM     65  C   UNL A   1      40.764  35.365  37.260  1.00  0.00     0.002 A 
ATOM     66  C   UNL A   1      39.323  33.761  38.370  1.00  0.00     0.091 A 
ATOM     67  F   UNL A   1      38.925  31.643  37.342  1.00  0.00    -0.205 F 
ATOM     68  C   UNL A   1      39.968  35.008  38.345  1.00  0.00     0.022 A 
BRANCH  66  69
ATOM     69  S   UNL A   1      38.254  33.427  39.776  1.00  0.00     0.127 S 
ATOM     70  O   UNL A   1      36.995  33.086  39.113  1.00  0.00    -0.237 OA
ATOM     71  O   UNL A   1      38.931  32.297  40.415  1.00  0.00    -0.237 OA
ATOM     72  O   UNL A   1      38.235  34.649  40.564  1.00  0.00    -0.744 OA
ENDBRANCH  66  69
ENDBRANCH  48  62
BRANCH  49  73
ATOM     73  C   UNL A   1      41.147  27.598  28.010  1.00  0.00     0.023 A 
ATOM     74  C   UNL A   1      41.737  28.174  26.870  1.00  0.00     0.012 A 
ATOM     75  C   UNL A   1      40.750  26.247  27.970  1.00  0.00     0.148 A 
ATOM     76  C   UNL A   1      41.899  27.431  25.700  1.00  0.00     0.002 A 
ATOM     77  C   UNL A   1      40.967  25.495  26.821  1.00  0.00     0.091 A 
ATOM     78  F   UNL A   1      40.179  25.719  29.062  1.00  0.00    -0.205 F 
ATOM     79  C   UNL A   1      41.526  26.091  25.679  1.00  0.00     0.022 A 
BRANCH  77  80
ATOM     80  S   UNL A   1      40.646  23.730  26.756  1.00  0.00     0.127 S 
ATOM     81  O   UNL A   1      40.962  23.318  28.123  1.00  0.00    -0.237 OA
ATOM     82  O   UNL A   1      39.223  23.692  26.416  1.00  0.00    -0.237 OA
ATOM     83  O   UNL A   1      41.522  23.210  25.718  1.00  0.00    -0.744 OA
ENDBRANCH  77  80
ENDBRANCH  49  73
BRANCH  61  84
ATOM     84  C   UNL A   1      44.396  27.639  34.187  1.00  0.00     0.023 A 
ATOM     85  C   UNL A   1      45.729  28.075  34.045  1.00  0.00     0.012 A 
ATOM     86  C   UNL A   1      44.129  26.458  34.905  1.00  0.00     0.148 A 
ATOM     87  C   UNL A   1      46.780  27.327  34.573  1.00  0.00     0.002 A 
ATOM     88  C   UNL A   1      45.179  25.743  35.471  1.00  0.00     0.091 A 
ATOM     89  F   UNL A   1      42.857  26.047  35.014  1.00  0.00    -0.205 F 
ATOM     90  C   UNL A   1      46.504  26.167  35.294  1.00  0.00     0.022 A 
BRANCH  88  91
ATOM     91  S   UNL A   1      44.906  24.291  36.494  1.00  0.00     0.127 S 
ATOM     92  O   UNL A   1      44.448  24.890  37.746  1.00  0.00    -0.237 OA
ATOM     93  O   UNL A   1      43.871  23.573  35.748  1.00  0.00    -0.237 OA
ATOM     94  O   UNL A   1      46.187  23.603  36.556  1.00  0.00    -0.744 OA
ENDBRANCH  88  91
ENDBRANCH  61  84
ENDBRANCH  35  36
ENDBRANCH  27  30
ENDBRANCH  25  26
ENDBRANCH   1  25
TORSDOF 16
ENDMDL
