MODEL 1
REMARK VINA RESULT:     -13.2      0.000      0.000
REMARK SMILES Cc1ccccc1C(=O)Nc1ccc(N2CCC(n3c(C)nc4cccnc43)CC2)c(C(=O)NCCCNC(=O)c2ccc(-c3c4nc(c(-c5cccc(S(=O)(=O)[O-])c5F)c5ccc([nH]5)c(-c5cccc(S(=O)(=O)[O-])c5F)c5nc(c(-c6cccc(S(=O)(=O)[O-])c6F)c6ccc3[nH]6)C=C5)C=C4)cc2)c1
REMARK SMILES IDX 36 1 35 2 34 3 32 4 33 5 31 7 11 8 12 9 104 10 13 11 14 12
REMARK SMILES IDX 10 13 8 14 9 15 7 17 1 18 2 19 3 20 4 21 6 22 5 23 15 24
REMARK SMILES IDX 16 25 30 26 17 27 29 28 18 29 19 30 20 31 28 32 21 33 22 34
REMARK SMILES IDX 23 35 27 36 24 37 26 38 25 39 37 40 38 41 39 42 40 44 41 45
REMARK SMILES IDX 42 46 103 47 43 48 102 49 44 50 45 51 46 52 96 53 47 54
REMARK SMILES IDX 101 55 95 56 97 57 48 58 100 59 94 60 93 61 49 63 81 64
REMARK SMILES IDX 61 65 80 66 62 67 65 68 79 69 98 70 63 71 64 72 78 74 99 75
REMARK SMILES IDX 66 76 50 77 51 78 59 79 52 80 54 81 60 82 53 83 55 84 56 85
REMARK SMILES IDX 57 86 58 87 82 88 83 89 91 90 84 91 86 92 92 93 85 94 87 95
REMARK SMILES IDX 88 96 89 97 90 98 67 99 68 100 76 101 69 102 71 103 77 104
REMARK SMILES IDX 70 105 72 106 73 107 74 108 75 109
REMARK H PARENT 34 6 10 16 38 43 97 62 65 73
REMARK Flexibility Score: inf
ROOT
ATOM      1  C   UNL A   1      38.397  23.902  26.118  1.00  0.00     0.042 C 
ENDROOT
BRANCH   1   2
ATOM      2  C   UNL A   1      36.986  23.488  25.748  1.00  0.00     0.118 C 
BRANCH   2   3
ATOM      3  N   UNL A   1      36.763  23.075  24.386  1.00  0.00    -0.352 N 
ATOM      4  C   UNL A   1      35.630  22.920  23.641  1.00  0.00     0.253 C 
ATOM      5  O   UNL A   1      35.762  23.067  22.420  1.00  0.00    -0.269 OA
ATOM      6  H   UNL A   1      37.590  22.864  23.896  1.00  0.00     0.163 HD
BRANCH   4   7
ATOM      7  C   UNL A   1      34.303  22.466  24.156  1.00  0.00     0.065 A 
ATOM      8  C   UNL A   1      32.629  20.738  23.716  1.00  0.00     0.042 A 
ATOM      9  C   UNL A   1      31.834  21.227  24.730  1.00  0.00     0.028 A 
ATOM     10  C   UNL A   1      33.918  21.236  23.561  1.00  0.00     0.042 A 
ATOM     11  C   UNL A   1      32.231  22.387  25.394  1.00  0.00     0.029 A 
ATOM     12  C   UNL A   1      33.382  23.123  25.005  1.00  0.00     0.050 A 
BRANCH   8  13
ATOM     13  N   UNL A   1      32.148  19.880  22.722  1.00  0.00    -0.322 N 
ATOM     14  C   UNL A   1      32.245  18.502  22.633  1.00  0.00     0.255 C 
ATOM     15  O   UNL A   1      31.828  17.954  21.608  1.00  0.00    -0.269 OA
ATOM     16  H   UNL A   1      31.673  20.317  21.980  1.00  0.00     0.170 HD
BRANCH  14  17
ATOM     17  C   UNL A   1      32.775  17.620  23.727  1.00  0.00     0.043 A 
ATOM     18  C   UNL A   1      34.771  16.596  22.454  1.00  0.00     0.045 C 
ATOM     19  C   UNL A   1      33.871  16.739  23.642  1.00  0.00    -0.038 A 
ATOM     20  C   UNL A   1      34.208  15.940  24.756  1.00  0.00     0.004 A 
ATOM     21  C   UNL A   1      33.581  16.120  25.984  1.00  0.00     0.000 A 
ATOM     22  C   UNL A   1      32.185  17.817  24.989  1.00  0.00     0.014 A 
ATOM     23  C   UNL A   1      32.597  17.090  26.111  1.00  0.00     0.001 A 
ENDBRANCH  14  17
ENDBRANCH   8  13
BRANCH  12  24
ATOM     24  N   UNL A   1      33.368  24.495  25.309  1.00  0.00    -0.371 N 
ATOM     25  C   UNL A   1      32.541  24.934  26.424  1.00  0.00     0.118 C 
ATOM     26  C   UNL A   1      34.120  25.397  24.442  1.00  0.00     0.118 C 
ATOM     27  C   UNL A   1      32.534  26.418  26.733  1.00  0.00     0.047 C 
ATOM     28  C   UNL A   1      33.750  26.855  24.606  1.00  0.00     0.047 C 
ATOM     29  C   UNL A   1      33.572  27.316  26.047  1.00  0.00     0.094 C 
BRANCH  29  30
ATOM     30  N   UNL A   1      33.187  28.736  26.206  1.00  0.00    -0.310 N 
ATOM     31  C   UNL A   1      32.125  29.465  25.683  1.00  0.00     0.108 A 
ATOM     32  C   UNL A   1      33.900  29.617  27.002  1.00  0.00     0.160 A 
ATOM     33  C   UNL A   1      31.150  29.029  24.651  1.00  0.00     0.088 C 
ATOM     34  N   UNL A   1      32.069  30.678  26.206  1.00  0.00    -0.232 NA
ATOM     35  C   UNL A   1      33.185  30.803  26.978  1.00  0.00     0.108 A 
ATOM     36  N   UNL A   1      35.040  29.376  27.681  1.00  0.00    -0.237 NA
ATOM     37  C   UNL A   1      33.678  31.893  27.702  1.00  0.00     0.034 A 
ATOM     38  C   UNL A   1      35.523  30.480  28.299  1.00  0.00     0.113 A 
ATOM     39  C   UNL A   1      34.896  31.720  28.359  1.00  0.00     0.022 A 
ENDBRANCH  29  30
ENDBRANCH  12  24
ENDBRANCH   4   7
ENDBRANCH   2   3
ENDBRANCH   1   2
BRANCH   1  40
ATOM     40  C   UNL A   1      38.973  22.879  27.085  1.00  0.00     0.118 C 
BRANCH  40  41
ATOM     41  N   UNL A   1      39.839  21.839  26.468  1.00  0.00    -0.352 N 
ATOM     42  C   UNL A   1      41.220  21.786  26.254  1.00  0.00     0.251 C 
ATOM     43  H   UNL A   1      39.351  21.044  26.154  1.00  0.00     0.163 HD
ATOM     44  O   UNL A   1      41.688  20.913  25.527  1.00  0.00    -0.269 OA
BRANCH  42  45
ATOM     45  C   UNL A   1      42.115  22.758  26.907  1.00  0.00     0.039 A 
ATOM     46  C   UNL A   1      42.604  22.730  28.213  1.00  0.00     0.014 A 
ATOM     47  C   UNL A   1      42.352  23.890  26.177  1.00  0.00     0.014 A 
ATOM     48  C   UNL A   1      43.210  23.899  28.709  1.00  0.00     0.010 A 
ATOM     49  C   UNL A   1      43.391  24.703  26.443  1.00  0.00     0.010 A 
ATOM     50  C   UNL A   1      43.512  24.914  27.801  1.00  0.00    -0.014 A 
BRANCH  50  51
ATOM     51  C   UNL A   1      43.597  26.356  28.017  1.00  0.00     0.031 A 
ATOM     52  C   UNL A   1      42.350  27.114  28.203  1.00  0.00     0.074 A 
ATOM     53  C   UNL A   1      44.709  26.712  28.730  1.00  0.00     0.049 A 
ATOM     54  N   UNL A   1      42.316  28.363  28.514  1.00  0.00    -0.248 NA
ATOM     55  C   UNL A   1      41.024  26.501  28.108  1.00  0.00     0.031 C 
ATOM     56  C   UNL A   1      44.796  27.681  29.823  1.00  0.00     0.029 A 
ATOM     57  N   UNL A   1      46.007  26.180  28.708  1.00  0.00    -0.354 N 
ATOM     58  C   UNL A   1      41.065  28.591  29.034  1.00  0.00     0.074 A 
ATOM     59  C   UNL A   1      40.254  27.492  28.571  1.00  0.00     0.031 C 
ATOM     60  C   UNL A   1      46.088  27.883  30.127  1.00  0.00     0.029 A 
ATOM     61  C   UNL A   1      46.869  27.206  29.112  1.00  0.00     0.049 A 
ATOM     62  H   UNL A   1      46.262  25.263  28.457  1.00  0.00     0.167 HD
ATOM     63  C   UNL A   1      40.901  29.582  29.954  1.00  0.00     0.034 A 
ATOM     64  C   UNL A   1      47.715  27.827  28.232  1.00  0.00     0.034 A 
ATOM     65  C   UNL A   1      42.130  30.375  30.128  1.00  0.00     0.049 A 
ATOM     66  C   UNL A   1      47.325  29.280  27.969  1.00  0.00     0.074 A 
ATOM     67  C   UNL A   1      43.016  30.569  31.172  1.00  0.00     0.029 A 
ATOM     68  N   UNL A   1      42.739  30.931  29.004  1.00  0.00    -0.354 N 
ATOM     69  N   UNL A   1      46.398  29.933  28.624  1.00  0.00    -0.248 NA
ATOM     70  C   UNL A   1      47.922  30.109  26.923  1.00  0.00     0.031 C 
ATOM     71  C   UNL A   1      44.227  31.098  30.624  1.00  0.00     0.029 A 
ATOM     72  C   UNL A   1      44.056  31.284  29.261  1.00  0.00     0.049 A 
ATOM     73  H   UNL A   1      42.290  31.057  28.137  1.00  0.00     0.167 HD
ATOM     74  C   UNL A   1      46.078  31.083  27.951  1.00  0.00     0.074 A 
ATOM     75  C   UNL A   1      47.161  31.218  26.990  1.00  0.00     0.031 C 
ATOM     76  C   UNL A   1      44.903  31.763  28.162  1.00  0.00     0.034 A 
BRANCH  63  77
ATOM     77  C   UNL A   1      39.661  29.771  30.806  1.00  0.00     0.023 A 
ATOM     78  C   UNL A   1      39.251  28.678  31.597  1.00  0.00     0.012 A 
ATOM     79  C   UNL A   1      38.839  30.926  30.855  1.00  0.00     0.148 A 
ATOM     80  C   UNL A   1      38.116  28.736  32.415  1.00  0.00     0.002 A 
ATOM     81  C   UNL A   1      37.764  31.016  31.744  1.00  0.00     0.091 A 
ATOM     82  F   UNL A   1      39.016  31.912  29.968  1.00  0.00    -0.205 F 
ATOM     83  C   UNL A   1      37.390  29.915  32.516  1.00  0.00     0.022 A 
BRANCH  81  84
ATOM     84  S   UNL A   1      36.846  32.549  31.991  1.00  0.00     0.127 S 
ATOM     85  O   UNL A   1      35.541  32.063  32.435  1.00  0.00    -0.237 OA
ATOM     86  O   UNL A   1      37.630  33.224  33.027  1.00  0.00    -0.237 OA
ATOM     87  O   UNL A   1      36.854  33.232  30.702  1.00  0.00    -0.744 OA
ENDBRANCH  81  84
ENDBRANCH  63  77
BRANCH  64  88
ATOM     88  C   UNL A   1      48.307  26.862  27.252  1.00  0.00     0.023 A 
ATOM     89  C   UNL A   1      47.567  26.663  26.062  1.00  0.00     0.012 A 
ATOM     90  C   UNL A   1      49.688  26.585  27.244  1.00  0.00     0.148 A 
ATOM     91  C   UNL A   1      48.209  26.373  24.857  1.00  0.00     0.002 A 
ATOM     92  C   UNL A   1      50.325  26.304  26.033  1.00  0.00     0.091 A 
ATOM     93  F   UNL A   1      50.371  26.713  28.389  1.00  0.00    -0.205 F 
ATOM     94  C   UNL A   1      49.594  26.244  24.835  1.00  0.00     0.022 A 
BRANCH  92  95
ATOM     95  S   UNL A   1      52.116  26.161  25.915  1.00  0.00     0.127 S 
ATOM     96  O   UNL A   1      52.550  27.371  26.606  1.00  0.00    -0.237 OA
ATOM     97  O   UNL A   1      52.386  24.915  26.629  1.00  0.00    -0.237 OA
ATOM     98  O   UNL A   1      52.397  26.100  24.488  1.00  0.00    -0.744 OA
ENDBRANCH  92  95
ENDBRANCH  64  88
BRANCH  76  99
ATOM     99  C   UNL A   1      44.392  32.909  27.293  1.00  0.00     0.023 A 
ATOM    100  C   UNL A   1      44.174  32.781  25.908  1.00  0.00     0.012 A 
ATOM    101  C   UNL A   1      43.972  34.131  27.883  1.00  0.00     0.148 A 
ATOM    102  C   UNL A   1      43.644  33.823  25.136  1.00  0.00     0.002 A 
ATOM    103  C   UNL A   1      43.327  35.115  27.135  1.00  0.00     0.091 A 
ATOM    104  F   UNL A   1      44.211  34.362  29.183  1.00  0.00    -0.205 F 
ATOM    105  C   UNL A   1      43.196  34.982  25.753  1.00  0.00     0.022 A 
BRANCH 103 106
ATOM    106  S   UNL A   1      42.496  36.488  27.947  1.00  0.00     0.127 S 
ATOM    107  O   UNL A   1      43.605  37.172  28.607  1.00  0.00    -0.237 OA
ATOM    108  O   UNL A   1      41.914  37.221  26.821  1.00  0.00    -0.237 OA
ATOM    109  O   UNL A   1      41.511  35.861  28.820  1.00  0.00    -0.744 OA
ENDBRANCH 103 106
ENDBRANCH  76  99
ENDBRANCH  50  51
ENDBRANCH  42  45
ENDBRANCH  40  41
ENDBRANCH   1  40
TORSDOF 17
ENDMDL
MODEL 2
REMARK VINA RESULT:     -12.9      5.643     10.652
REMARK SMILES Cc1ccccc1C(=O)Nc1ccc(N2CCC(n3c(C)nc4cccnc43)CC2)c(C(=O)NCCCNC(=O)c2ccc(-c3c4nc(c(-c5cccc(S(=O)(=O)[O-])c5F)c5ccc([nH]5)c(-c5cccc(S(=O)(=O)[O-])c5F)c5nc(c(-c6cccc(S(=O)(=O)[O-])c6F)c6ccc3[nH]6)C=C5)C=C4)cc2)c1
REMARK SMILES IDX 36 1 35 2 34 3 32 4 33 5 31 7 11 8 12 9 104 10 13 11 14 12
REMARK SMILES IDX 10 13 8 14 9 15 7 17 1 18 2 19 3 20 4 21 6 22 5 23 15 24
REMARK SMILES IDX 16 25 30 26 17 27 29 28 18 29 19 30 20 31 28 32 21 33 22 34
REMARK SMILES IDX 23 35 27 36 24 37 26 38 25 39 37 40 38 41 39 42 40 44 41 45
REMARK SMILES IDX 42 46 103 47 43 48 102 49 44 50 45 51 46 52 96 53 47 54
REMARK SMILES IDX 101 55 95 56 97 57 48 58 100 59 94 60 93 61 49 63 81 64
REMARK SMILES IDX 61 65 80 66 62 67 65 68 79 69 98 70 63 71 64 72 78 74 99 75
REMARK SMILES IDX 66 76 50 77 51 78 59 79 52 80 54 81 60 82 53 83 55 84 56 85
REMARK SMILES IDX 57 86 58 87 82 88 83 89 91 90 84 91 86 92 92 93 85 94 87 95
REMARK SMILES IDX 88 96 89 97 90 98 67 99 68 100 76 101 69 102 71 103 77 104
REMARK SMILES IDX 70 105 72 106 73 107 74 108 75 109
REMARK H PARENT 34 6 10 16 38 43 97 62 65 73
REMARK Flexibility Score: inf
ROOT
ATOM      1  C   UNL A   1      41.418  29.553  34.438  1.00  0.00     0.042 C 
ENDROOT
BRANCH   1   2
ATOM      2  C   UNL A   1      40.263  29.923  33.529  1.00  0.00     0.118 C 
BRANCH   2   3
ATOM      3  N   UNL A   1      39.172  28.986  33.445  1.00  0.00    -0.352 N 
ATOM      4  C   UNL A   1      38.795  28.090  32.487  1.00  0.00     0.253 C 
ATOM      5  O   UNL A   1      38.173  27.099  32.889  1.00  0.00    -0.269 OA
ATOM      6  H   UNL A   1      38.584  28.992  34.234  1.00  0.00     0.163 HD
BRANCH   4   7
ATOM      7  C   UNL A   1      38.951  28.272  31.012  1.00  0.00     0.065 A 
ATOM      8  C   UNL A   1      40.477  27.636  29.210  1.00  0.00     0.042 A 
ATOM      9  C   UNL A   1      39.706  28.319  28.294  1.00  0.00     0.028 A 
ATOM     10  C   UNL A   1      40.003  27.465  30.506  1.00  0.00     0.042 A 
ATOM     11  C   UNL A   1      38.612  29.052  28.752  1.00  0.00     0.029 A 
ATOM     12  C   UNL A   1      38.316  29.183  30.135  1.00  0.00     0.050 A 
BRANCH   8  13
ATOM     13  N   UNL A   1      41.795  27.246  28.952  1.00  0.00    -0.322 N 
ATOM     14  C   UNL A   1      42.272  26.044  28.459  1.00  0.00     0.255 C 
ATOM     15  O   UNL A   1      43.495  25.882  28.401  1.00  0.00    -0.269 OA
ATOM     16  H   UNL A   1      42.481  27.923  29.147  1.00  0.00     0.170 HD
BRANCH  14  17
ATOM     17  C   UNL A   1      41.399  24.939  27.938  1.00  0.00     0.043 A 
ATOM     18  C   UNL A   1      42.547  22.957  29.124  1.00  0.00     0.045 C 
ATOM     19  C   UNL A   1      41.540  23.560  28.195  1.00  0.00    -0.038 A 
ATOM     20  C   UNL A   1      40.658  22.646  27.581  1.00  0.00     0.004 A 
ATOM     21  C   UNL A   1      39.556  23.087  26.857  1.00  0.00     0.000 A 
ATOM     22  C   UNL A   1      40.254  25.364  27.240  1.00  0.00     0.014 A 
ATOM     23  C   UNL A   1      39.330  24.449  26.722  1.00  0.00     0.001 A 
ENDBRANCH  14  17
ENDBRANCH   8  13
BRANCH  12  24
ATOM     24  N   UNL A   1      37.615  30.341  30.508  1.00  0.00    -0.371 N 
ATOM     25  C   UNL A   1      38.298  31.620  30.375  1.00  0.00     0.118 C 
ATOM     26  C   UNL A   1      36.278  30.182  31.073  1.00  0.00     0.118 C 
ATOM     27  C   UNL A   1      37.526  32.858  30.788  1.00  0.00     0.047 C 
ATOM     28  C   UNL A   1      35.761  31.413  31.783  1.00  0.00     0.047 C 
ATOM     29  C   UNL A   1      36.022  32.730  31.061  1.00  0.00     0.094 C 
BRANCH  29  30
ATOM     30  N   UNL A   1      35.537  33.936  31.768  1.00  0.00    -0.310 N 
ATOM     31  C   UNL A   1      35.932  34.522  32.965  1.00  0.00     0.108 A 
ATOM     32  C   UNL A   1      34.531  34.742  31.261  1.00  0.00     0.160 A 
ATOM     33  C   UNL A   1      36.872  33.971  33.974  1.00  0.00     0.088 C 
ATOM     34  N   UNL A   1      35.333  35.686  33.153  1.00  0.00    -0.232 NA
ATOM     35  C   UNL A   1      34.431  35.808  32.139  1.00  0.00     0.108 A 
ATOM     36  N   UNL A   1      33.809  34.551  30.138  1.00  0.00    -0.237 NA
ATOM     37  C   UNL A   1      33.477  36.798  31.880  1.00  0.00     0.034 A 
ATOM     38  C   UNL A   1      32.844  35.487  29.972  1.00  0.00     0.113 A 
ATOM     39  C   UNL A   1      32.650  36.608  30.774  1.00  0.00     0.022 A 
ENDBRANCH  29  30
ENDBRANCH  12  24
ENDBRANCH   4   7
ENDBRANCH   2   3
ENDBRANCH   1   2
BRANCH   1  40
ATOM     40  C   UNL A   1      42.283  30.784  34.661  1.00  0.00     0.118 C 
BRANCH  40  41
ATOM     41  N   UNL A   1      41.663  31.857  35.483  1.00  0.00    -0.352 N 
ATOM     42  C   UNL A   1      41.383  33.199  35.202  1.00  0.00     0.251 C 
ATOM     43  H   UNL A   1      41.403  31.571  36.388  1.00  0.00     0.163 HD
ATOM     44  O   UNL A   1      41.062  33.956  36.116  1.00  0.00    -0.269 OA
BRANCH  42  45
ATOM     45  C   UNL A   1      41.454  33.704  33.819  1.00  0.00     0.039 A 
ATOM     46  C   UNL A   1      40.504  33.567  32.807  1.00  0.00     0.014 A 
ATOM     47  C   UNL A   1      42.669  34.224  33.467  1.00  0.00     0.014 A 
ATOM     48  C   UNL A   1      40.899  33.878  31.494  1.00  0.00     0.010 A 
ATOM     49  C   UNL A   1      42.814  35.030  32.399  1.00  0.00     0.010 A 
ATOM     50  C   UNL A   1      42.115  34.538  31.316  1.00  0.00    -0.014 A 
BRANCH  50  51
ATOM     51  C   UNL A   1      43.032  34.502  30.180  1.00  0.00     0.031 A 
ATOM     52  C   UNL A   1      43.556  33.199  29.739  1.00  0.00     0.074 A 
ATOM     53  C   UNL A   1      42.741  35.457  29.245  1.00  0.00     0.049 A 
ATOM     54  N   UNL A   1      44.274  33.042  28.683  1.00  0.00    -0.248 NA
ATOM     55  C   UNL A   1      43.258  31.946  30.433  1.00  0.00     0.031 C 
ATOM     56  C   UNL A   1      42.722  35.304  27.789  1.00  0.00     0.029 A 
ATOM     57  N   UNL A   1      42.272  36.769  29.406  1.00  0.00    -0.354 N 
ATOM     58  C   UNL A   1      44.183  31.711  28.355  1.00  0.00     0.074 A 
ATOM     59  C   UNL A   1      43.735  31.053  29.558  1.00  0.00     0.031 C 
ATOM     60  C   UNL A   1      42.577  36.514  27.224  1.00  0.00     0.029 A 
ATOM     61  C   UNL A   1      42.701  37.491  28.287  1.00  0.00     0.049 A 
ATOM     62  H   UNL A   1      41.743  37.115  30.161  1.00  0.00     0.167 HD
ATOM     63  C   UNL A   1      44.312  31.339  27.052  1.00  0.00     0.034 A 
ATOM     64  C   UNL A   1      43.690  38.434  28.371  1.00  0.00     0.034 A 
ATOM     65  C   UNL A   1      44.697  32.473  26.195  1.00  0.00     0.049 A 
ATOM     66  C   UNL A   1      44.969  38.010  27.651  1.00  0.00     0.074 A 
ATOM     67  C   UNL A   1      44.081  33.160  25.165  1.00  0.00     0.029 A 
ATOM     68  N   UNL A   1      45.818  33.227  26.538  1.00  0.00    -0.354 N 
ATOM     69  N   UNL A   1      45.079  36.951  26.890  1.00  0.00    -0.248 NA
ATOM     70  C   UNL A   1      46.241  38.724  27.757  1.00  0.00     0.031 C 
ATOM     71  C   UNL A   1      44.754  34.413  25.012  1.00  0.00     0.029 A 
ATOM     72  C   UNL A   1      45.816  34.461  25.902  1.00  0.00     0.049 A 
ATOM     73  H   UNL A   1      46.523  32.923  27.154  1.00  0.00     0.167 HD
ATOM     74  C   UNL A   1      46.402  36.681  26.658  1.00  0.00     0.074 A 
ATOM     75  C   UNL A   1      47.070  37.900  27.089  1.00  0.00     0.031 C 
ATOM     76  C   UNL A   1      46.846  35.451  26.241  1.00  0.00     0.034 A 
BRANCH  63  77
ATOM     77  C   UNL A   1      43.968  29.966  26.509  1.00  0.00     0.023 A 
ATOM     78  C   UNL A   1      42.614  29.713  26.209  1.00  0.00     0.012 A 
ATOM     79  C   UNL A   1      44.867  28.886  26.313  1.00  0.00     0.148 A 
ATOM     80  C   UNL A   1      42.180  28.478  25.710  1.00  0.00     0.002 A 
ATOM     81  C   UNL A   1      44.449  27.688  25.726  1.00  0.00     0.091 A 
ATOM     82  F   UNL A   1      46.116  28.959  26.790  1.00  0.00    -0.205 F 
ATOM     83  C   UNL A   1      43.100  27.475  25.437  1.00  0.00     0.022 A 
BRANCH  81  84
ATOM     84  S   UNL A   1      45.611  26.390  25.256  1.00  0.00     0.127 S 
ATOM     85  O   UNL A   1      46.233  26.052  26.535  1.00  0.00    -0.237 OA
ATOM     86  O   UNL A   1      44.727  25.355  24.717  1.00  0.00    -0.237 OA
ATOM     87  O   UNL A   1      46.499  26.988  24.266  1.00  0.00    -0.744 OA
ENDBRANCH  81  84
ENDBRANCH  63  77
BRANCH  64  88
ATOM     88  C   UNL A   1      43.590  39.237  29.632  1.00  0.00     0.023 A 
ATOM     89  C   UNL A   1      44.157  38.641  30.785  1.00  0.00     0.012 A 
ATOM     90  C   UNL A   1      43.442  40.637  29.596  1.00  0.00     0.148 A 
ATOM     91  C   UNL A   1      44.723  39.425  31.792  1.00  0.00     0.002 A 
ATOM     92  C   UNL A   1      44.020  41.414  30.603  1.00  0.00     0.091 A 
ATOM     93  F   UNL A   1      42.847  41.189  28.531  1.00  0.00    -0.205 F 
ATOM     94  C   UNL A   1      44.699  40.811  31.675  1.00  0.00     0.022 A 
BRANCH  92  95
ATOM     95  S   UNL A   1      44.063  43.211  30.506  1.00  0.00     0.127 S 
ATOM     96  O   UNL A   1      44.996  43.538  31.580  1.00  0.00    -0.237 OA
ATOM     97  O   UNL A   1      44.572  43.447  29.157  1.00  0.00    -0.237 OA
ATOM     98  O   UNL A   1      42.684  43.634  30.703  1.00  0.00    -0.744 OA
ENDBRANCH  92  95
ENDBRANCH  64  88
BRANCH  76  99
ATOM     99  C   UNL A   1      48.311  35.026  26.185  1.00  0.00     0.023 A 
ATOM    100  C   UNL A   1      49.080  35.084  25.006  1.00  0.00     0.012 A 
ATOM    101  C   UNL A   1      49.010  34.684  27.374  1.00  0.00     0.148 A 
ATOM    102  C   UNL A   1      50.441  34.751  24.986  1.00  0.00     0.002 A 
ATOM    103  C   UNL A   1      50.389  34.480  27.371  1.00  0.00     0.091 A 
ATOM    104  F   UNL A   1      48.338  34.535  28.525  1.00  0.00    -0.205 F 
ATOM    105  C   UNL A   1      51.104  34.474  26.173  1.00  0.00     0.022 A 
BRANCH 103 106
ATOM    106  S   UNL A   1      51.307  34.396  28.917  1.00  0.00     0.127 S 
ATOM    107  O   UNL A   1      50.956  33.067  29.411  1.00  0.00    -0.237 OA
ATOM    108  O   UNL A   1      52.695  34.532  28.471  1.00  0.00    -0.237 OA
ATOM    109  O   UNL A   1      50.821  35.527  29.698  1.00  0.00    -0.744 OA
ENDBRANCH 103 106
ENDBRANCH  76  99
ENDBRANCH  50  51
ENDBRANCH  42  45
ENDBRANCH  40  41
ENDBRANCH   1  40
TORSDOF 17
ENDMDL
MODEL 3
REMARK VINA RESULT:     -12.9      5.816     11.787
REMARK SMILES Cc1ccccc1C(=O)Nc1ccc(N2CCC(n3c(C)nc4cccnc43)CC2)c(C(=O)NCCCNC(=O)c2ccc(-c3c4nc(c(-c5cccc(S(=O)(=O)[O-])c5F)c5ccc([nH]5)c(-c5cccc(S(=O)(=O)[O-])c5F)c5nc(c(-c6cccc(S(=O)(=O)[O-])c6F)c6ccc3[nH]6)C=C5)C=C4)cc2)c1
REMARK SMILES IDX 36 1 35 2 34 3 32 4 33 5 31 7 11 8 12 9 104 10 13 11 14 12
REMARK SMILES IDX 10 13 8 14 9 15 7 17 1 18 2 19 3 20 4 21 6 22 5 23 15 24
REMARK SMILES IDX 16 25 30 26 17 27 29 28 18 29 19 30 20 31 28 32 21 33 22 34
REMARK SMILES IDX 23 35 27 36 24 37 26 38 25 39 37 40 38 41 39 42 40 44 41 45
REMARK SMILES IDX 42 46 103 47 43 48 102 49 44 50 45 51 46 52 96 53 47 54
REMARK SMILES IDX 101 55 95 56 97 57 48 58 100 59 94 60 93 61 49 63 81 64
REMARK SMILES IDX 61 65 80 66 62 67 65 68 79 69 98 70 63 71 64 72 78 74 99 75
REMARK SMILES IDX 66 76 50 77 51 78 59 79 52 80 54 81 60 82 53 83 55 84 56 85
REMARK SMILES IDX 57 86 58 87 82 88 83 89 91 90 84 91 86 92 92 93 85 94 87 95
REMARK SMILES IDX 88 96 89 97 90 98 67 99 68 100 76 101 69 102 71 103 77 104
REMARK SMILES IDX 70 105 72 106 73 107 74 108 75 109
REMARK H PARENT 34 6 10 16 38 43 97 62 65 73
REMARK Flexibility Score: inf
ROOT
ATOM      1  C   UNL A   1      44.301  29.966  26.962  1.00  0.00     0.042 C 
ENDROOT
BRANCH   1   2
ATOM      2  C   UNL A   1      44.263  28.450  26.965  1.00  0.00     0.118 C 
BRANCH   2   3
ATOM      3  N   UNL A   1      44.483  27.794  28.229  1.00  0.00    -0.352 N 
ATOM      4  C   UNL A   1      43.729  26.924  28.962  1.00  0.00     0.253 C 
ATOM      5  O   UNL A   1      44.357  26.152  29.697  1.00  0.00    -0.269 OA
ATOM      6  H   UNL A   1      45.348  28.015  28.644  1.00  0.00     0.163 HD
BRANCH   4   7
ATOM      7  C   UNL A   1      42.237  26.922  29.048  1.00  0.00     0.065 A 
ATOM      8  C   UNL A   1      40.452  27.863  30.430  1.00  0.00     0.042 A 
ATOM      9  C   UNL A   1      39.500  27.238  29.653  1.00  0.00     0.028 A 
ATOM     10  C   UNL A   1      41.780  27.852  30.018  1.00  0.00     0.042 A 
ATOM     11  C   UNL A   1      39.920  26.384  28.634  1.00  0.00     0.029 A 
ATOM     12  C   UNL A   1      41.291  26.076  28.424  1.00  0.00     0.050 A 
BRANCH   8  13
ATOM     13  N   UNL A   1      40.179  28.369  31.704  1.00  0.00    -0.322 N 
ATOM     14  C   UNL A   1      39.641  29.592  32.064  1.00  0.00     0.255 C 
ATOM     15  O   UNL A   1      39.576  29.870  33.265  1.00  0.00    -0.269 OA
ATOM     16  H   UNL A   1      40.400  27.770  32.452  1.00  0.00     0.170 HD
BRANCH  14  17
ATOM     17  C   UNL A   1      39.077  30.586  31.089  1.00  0.00     0.043 A 
ATOM     18  C   UNL A   1      36.796  29.457  30.674  1.00  0.00     0.045 C 
ATOM     19  C   UNL A   1      37.831  30.511  30.434  1.00  0.00    -0.038 A 
ATOM     20  C   UNL A   1      37.475  31.510  29.503  1.00  0.00     0.004 A 
ATOM     21  C   UNL A   1      38.257  32.648  29.337  1.00  0.00     0.000 A 
ATOM     22  C   UNL A   1      39.830  31.765  30.938  1.00  0.00     0.014 A 
ATOM     23  C   UNL A   1      39.414  32.795  30.087  1.00  0.00     0.001 A 
ENDBRANCH  14  17
ENDBRANCH   8  13
BRANCH  12  24
ATOM     24  N   UNL A   1      41.557  24.837  27.818  1.00  0.00    -0.371 N 
ATOM     25  C   UNL A   1      41.875  23.712  28.685  1.00  0.00     0.118 C 
ATOM     26  C   UNL A   1      41.574  24.777  26.359  1.00  0.00     0.118 C 
ATOM     27  C   UNL A   1      42.165  22.385  28.012  1.00  0.00     0.047 C 
ATOM     28  C   UNL A   1      42.229  23.532  25.804  1.00  0.00     0.047 C 
ATOM     29  C   UNL A   1      41.857  22.237  26.516  1.00  0.00     0.094 C 
BRANCH  29  30
ATOM     30  N   UNL A   1      42.517  21.022  25.988  1.00  0.00    -0.310 N 
ATOM     31  C   UNL A   1      42.038  19.735  25.771  1.00  0.00     0.108 A 
ATOM     32  C   UNL A   1      43.838  21.013  25.573  1.00  0.00     0.160 A 
ATOM     33  C   UNL A   1      40.726  19.177  26.187  1.00  0.00     0.088 C 
ATOM     34  N   UNL A   1      42.928  18.990  25.138  1.00  0.00    -0.232 NA
ATOM     35  C   UNL A   1      44.058  19.747  25.058  1.00  0.00     0.108 A 
ATOM     36  N   UNL A   1      44.728  22.025  25.633  1.00  0.00    -0.237 NA
ATOM     37  C   UNL A   1      45.329  19.441  24.560  1.00  0.00     0.034 A 
ATOM     38  C   UNL A   1      45.964  21.659  25.218  1.00  0.00     0.113 A 
ATOM     39  C   UNL A   1      46.308  20.428  24.670  1.00  0.00     0.022 A 
ENDBRANCH  29  30
ENDBRANCH  12  24
ENDBRANCH   4   7
ENDBRANCH   2   3
ENDBRANCH   1   2
BRANCH   1  40
ATOM     40  C   UNL A   1      45.648  30.424  26.426  1.00  0.00     0.118 C 
BRANCH  40  41
ATOM     41  N   UNL A   1      45.622  31.680  25.630  1.00  0.00    -0.352 N 
ATOM     42  C   UNL A   1      45.427  33.013  26.003  1.00  0.00     0.251 C 
ATOM     43  H   UNL A   1      45.769  31.548  24.666  1.00  0.00     0.163 HD
ATOM     44  O   UNL A   1      45.232  33.864  25.137  1.00  0.00    -0.269 OA
BRANCH  42  45
ATOM     45  C   UNL A   1      45.472  33.407  27.423  1.00  0.00     0.039 A 
ATOM     46  C   UNL A   1      46.556  33.337  28.298  1.00  0.00     0.014 A 
ATOM     47  C   UNL A   1      44.255  33.724  27.962  1.00  0.00     0.014 A 
ATOM     48  C   UNL A   1      46.298  33.498  29.672  1.00  0.00     0.010 A 
ATOM     49  C   UNL A   1      44.146  34.425  29.105  1.00  0.00     0.010 A 
ATOM     50  C   UNL A   1      45.039  33.964  30.050  1.00  0.00    -0.014 A 
BRANCH  50  51
ATOM     51  C   UNL A   1      44.291  33.721  31.281  1.00  0.00     0.031 A 
ATOM     52  C   UNL A   1      43.651  32.409  31.467  1.00  0.00     0.074 A 
ATOM     53  C   UNL A   1      44.842  34.355  32.360  1.00  0.00     0.049 A 
ATOM     54  N   UNL A   1      43.069  32.050  32.558  1.00  0.00    -0.248 NA
ATOM     55  C   UNL A   1      43.668  31.363  30.444  1.00  0.00     0.031 C 
ATOM     56  C   UNL A   1      45.039  33.818  33.706  1.00  0.00     0.029 A 
ATOM     57  N   UNL A   1      45.468  35.607  32.451  1.00  0.00    -0.354 N 
ATOM     58  C   UNL A   1      43.013  30.677  32.524  1.00  0.00     0.074 A 
ATOM     59  C   UNL A   1      43.192  30.322  31.138  1.00  0.00     0.031 C 
ATOM     60  C   UNL A   1      45.432  34.811  34.521  1.00  0.00     0.029 A 
ATOM     61  C   UNL A   1      45.305  36.044  33.771  1.00  0.00     0.049 A 
ATOM     62  H   UNL A   1      45.932  36.086  31.727  1.00  0.00     0.167 HD
ATOM     63  C   UNL A   1      43.012  29.986  33.697  1.00  0.00     0.034 A 
ATOM     64  C   UNL A   1      44.460  37.072  34.093  1.00  0.00     0.034 A 
ATOM     65  C   UNL A   1      42.915  30.883  34.861  1.00  0.00     0.049 A 
ATOM     66  C   UNL A   1      43.244  36.605  34.891  1.00  0.00     0.074 A 
ATOM     67  C   UNL A   1      43.759  31.202  35.909  1.00  0.00     0.029 A 
ATOM     68  N   UNL A   1      41.878  31.813  34.911  1.00  0.00    -0.354 N 
ATOM     69  N   UNL A   1      43.089  35.398  35.373  1.00  0.00    -0.248 NA
ATOM     70  C   UNL A   1      42.086  37.448  35.184  1.00  0.00     0.031 C 
ATOM     71  C   UNL A   1      43.300  32.431  36.480  1.00  0.00     0.029 A 
ATOM     72  C   UNL A   1      42.145  32.825  35.824  1.00  0.00     0.049 A 
ATOM     73  H   UNL A   1      41.059  31.759  34.368  1.00  0.00     0.167 HD
ATOM     74  C   UNL A   1      41.785  35.214  35.752  1.00  0.00     0.074 A 
ATOM     75  C   UNL A   1      41.247  36.566  35.757  1.00  0.00     0.031 C 
ATOM     76  C   UNL A   1      41.231  33.969  35.921  1.00  0.00     0.034 A 
BRANCH  63  77
ATOM     77  C   UNL A   1      43.225  28.489  33.816  1.00  0.00     0.023 A 
ATOM     78  C   UNL A   1      44.262  27.924  33.045  1.00  0.00     0.012 A 
ATOM     79  C   UNL A   1      42.456  27.586  34.593  1.00  0.00     0.148 A 
ATOM     80  C   UNL A   1      44.544  26.552  33.069  1.00  0.00     0.002 A 
ATOM     81  C   UNL A   1      42.799  26.234  34.690  1.00  0.00     0.091 A 
ATOM     82  F   UNL A   1      41.317  27.996  35.164  1.00  0.00    -0.205 F 
ATOM     83  C   UNL A   1      43.836  25.710  33.915  1.00  0.00     0.022 A 
BRANCH  81  84
ATOM     84  S   UNL A   1      41.982  25.114  35.844  1.00  0.00     0.127 S 
ATOM     85  O   UNL A   1      42.479  25.582  37.137  1.00  0.00    -0.237 OA
ATOM     86  O   UNL A   1      40.565  25.389  35.602  1.00  0.00    -0.237 OA
ATOM     87  O   UNL A   1      42.401  23.771  35.461  1.00  0.00    -0.744 OA
ENDBRANCH  81  84
ENDBRANCH  63  77
BRANCH  64  88
ATOM     88  C   UNL A   1      44.500  38.168  33.072  1.00  0.00     0.023 A 
ATOM     89  C   UNL A   1      44.414  37.751  31.721  1.00  0.00     0.012 A 
ATOM     90  C   UNL A   1      44.124  39.485  33.400  1.00  0.00     0.148 A 
ATOM     91  C   UNL A   1      43.805  38.559  30.759  1.00  0.00     0.002 A 
ATOM     92  C   UNL A   1      43.507  40.283  32.434  1.00  0.00     0.091 A 
ATOM     93  F   UNL A   1      44.268  39.893  34.667  1.00  0.00    -0.205 F 
ATOM     94  C   UNL A   1      43.305  39.804  31.128  1.00  0.00     0.022 A 
BRANCH  92  95
ATOM     95  S   UNL A   1      42.801  41.888  32.841  1.00  0.00     0.127 S 
ATOM     96  O   UNL A   1      43.989  42.631  33.252  1.00  0.00    -0.237 OA
ATOM     97  O   UNL A   1      42.220  42.315  31.571  1.00  0.00    -0.237 OA
ATOM     98  O   UNL A   1      41.821  41.618  33.882  1.00  0.00    -0.744 OA
ENDBRANCH  92  95
ENDBRANCH  64  88
BRANCH  76  99
ATOM     99  C   UNL A   1      39.741  33.698  36.118  1.00  0.00     0.023 A 
ATOM    100  C   UNL A   1      39.130  33.667  37.387  1.00  0.00     0.012 A 
ATOM    101  C   UNL A   1      38.869  33.607  35.000  1.00  0.00     0.148 A 
ATOM    102  C   UNL A   1      37.751  33.481  37.546  1.00  0.00     0.002 A 
ATOM    103  C   UNL A   1      37.486  33.551  35.161  1.00  0.00     0.091 A 
ATOM    104  F   UNL A   1      39.377  33.555  33.759  1.00  0.00    -0.205 F 
ATOM    105  C   UNL A   1      36.923  33.449  36.433  1.00  0.00     0.022 A 
BRANCH 103 106
ATOM    106  S   UNL A   1      36.388  33.788  33.755  1.00  0.00     0.127 S 
ATOM    107  O   UNL A   1      36.498  35.225  33.518  1.00  0.00    -0.237 OA
ATOM    108  O   UNL A   1      37.007  32.953  32.723  1.00  0.00    -0.237 OA
ATOM    109  O   UNL A   1      35.091  33.304  34.212  1.00  0.00    -0.744 OA
ENDBRANCH 103 106
ENDBRANCH  76  99
ENDBRANCH  50  51
ENDBRANCH  42  45
ENDBRANCH  40  41
ENDBRANCH   1  40
TORSDOF 17
ENDMDL
