MODEL 1
REMARK VINA RESULT:     -10.3      0.000      0.000
REMARK SMILES COc1ccc([C@H]2CC(c3ccc(S(C)(=O)=O)cc3)=NN2c2ccc(C(=O)NCCCNC(=O)c3ccc(-c4c5nc(c(-c6cccc(S(=O)(=O)[O-])c6F)c6ccc([nH]6)c(-c6cccc(S(=O)(=O)[O-])c6F)c6nc(c(-c7cccc(S(=O)(=O)[O-])c7F)c7ccc4[nH]7)C=C6)C=C5)cc3)cc2)cc1OC
REMARK SMILES IDX 30 1 29 2 28 3 26 4 27 5 25 7 22 8 23 9 99 10 24 11 98 12
REMARK SMILES IDX 21 13 7 14 8 15 9 16 20 17 6 18 3 19 4 20 101 21 5 22 100 23
REMARK SMILES IDX 2 24 1 25 102 26 103 27 10 28 11 29 19 30 12 31 18 32 13 33
REMARK SMILES IDX 14 34 15 35 16 36 17 37 31 38 32 39 33 40 34 42 35 43 36 44
REMARK SMILES IDX 97 45 37 46 96 47 38 48 39 49 40 50 90 51 41 52 95 53 89 54
REMARK SMILES IDX 91 55 42 56 94 57 88 58 87 59 43 61 75 62 55 63 74 64 56 65
REMARK SMILES IDX 59 66 73 67 92 68 57 69 58 70 72 72 93 73 60 74 44 75 45 76
REMARK SMILES IDX 53 77 46 78 48 79 54 80 47 81 49 82 50 83 51 84 52 85 76 86
REMARK SMILES IDX 77 87 85 88 78 89 80 90 86 91 79 92 81 93 82 94 83 95 84 96
REMARK SMILES IDX 61 97 62 98 70 99 63 100 65 101 71 102 64 103 66 104 67 105
REMARK SMILES IDX 68 106 69 107
REMARK H PARENT 28 6 32 41 91 60 59 71
REMARK Flexibility Score: inf
ROOT
ATOM      1  C   UNL A   1      35.542  33.150  28.468  1.00  0.00     0.042 C 
ENDROOT
BRANCH   1   2
ATOM      2  C   UNL A   1      35.642  34.444  29.275  1.00  0.00     0.118 C 
BRANCH   2   3
ATOM      3  N   UNL A   1      34.364  34.794  29.863  1.00  0.00    -0.352 N 
ATOM      4  C   UNL A   1      33.897  34.766  31.151  1.00  0.00     0.251 C 
ATOM      5  O   UNL A   1      32.758  35.197  31.345  1.00  0.00    -0.269 OA
ATOM      6  H   UNL A   1      33.702  35.116  29.209  1.00  0.00     0.163 HD
BRANCH   4   7
ATOM      7  C   UNL A   1      34.707  34.307  32.314  1.00  0.00     0.039 A 
ATOM      8  C   UNL A   1      36.265  33.637  34.583  1.00  0.00     0.060 A 
ATOM      9  C   UNL A   1      35.663  34.894  34.471  1.00  0.00     0.029 A 
ATOM     10  C   UNL A   1      36.034  32.703  33.571  1.00  0.00     0.029 A 
ATOM     11  C   UNL A   1      34.914  35.235  33.343  1.00  0.00     0.016 A 
ATOM     12  C   UNL A   1      35.231  33.021  32.468  1.00  0.00     0.016 A 
BRANCH   8  13
ATOM     13  N   UNL A   1      37.026  33.333  35.698  1.00  0.00    -0.257 N 
ATOM     14  C   UNL A   1      38.371  32.762  35.667  1.00  0.00     0.144 C 
ATOM     15  C   UNL A   1      38.603  32.374  37.135  1.00  0.00     0.091 C 
ATOM     16  C   UNL A   1      37.294  32.806  37.732  1.00  0.00     0.071 C 
ATOM     17  N   UNL A   1      36.437  33.335  36.920  1.00  0.00    -0.176 NA
BRANCH  14  18
ATOM     18  C   UNL A   1      39.391  33.778  35.172  1.00  0.00    -0.019 A 
ATOM     19  C   UNL A   1      41.299  35.634  34.235  1.00  0.00     0.160 A 
ATOM     20  C   UNL A   1      40.799  35.722  35.542  1.00  0.00     0.051 A 
ATOM     21  C   UNL A   1      40.869  34.608  33.388  1.00  0.00     0.161 A 
ATOM     22  C   UNL A   1      39.845  34.807  36.004  1.00  0.00     0.010 A 
ATOM     23  C   UNL A   1      39.919  33.696  33.869  1.00  0.00     0.056 A 
BRANCH  19  24
ATOM     24  O   UNL A   1      42.286  36.505  33.856  1.00  0.00    -0.493 OA
ATOM     25  C   UNL A   1      43.079  36.923  34.965  1.00  0.00     0.278 C 
ENDBRANCH  19  24
BRANCH  21  26
ATOM     26  O   UNL A   1      41.257  34.334  32.105  1.00  0.00    -0.493 OA
ATOM     27  C   UNL A   1      40.257  34.057  31.138  1.00  0.00     0.278 C 
ENDBRANCH  21  26
ENDBRANCH  14  18
BRANCH  16  28
ATOM     28  C   UNL A   1      36.999  32.593  39.148  1.00  0.00    -0.002 A 
ATOM     29  C   UNL A   1      37.573  33.454  40.090  1.00  0.00     0.011 A 
ATOM     30  C   UNL A   1      36.200  31.519  39.543  1.00  0.00     0.011 A 
ATOM     31  C   UNL A   1      37.332  33.249  41.448  1.00  0.00     0.021 A 
ATOM     32  C   UNL A   1      35.978  31.297  40.904  1.00  0.00     0.021 A 
ATOM     33  C   UNL A   1      36.548  32.161  41.848  1.00  0.00     0.067 A 
BRANCH  33  34
ATOM     34  S   UNL A   1      36.273  31.879  43.580  1.00  0.00     0.175 S 
ATOM     35  C   UNL A   1      34.548  31.478  43.693  1.00  0.00     0.163 C 
ATOM     36  O   UNL A   1      37.046  30.703  43.942  1.00  0.00    -0.224 OA
ATOM     37  O   UNL A   1      36.472  33.138  44.268  1.00  0.00    -0.224 OA
ENDBRANCH  33  34
ENDBRANCH  16  28
ENDBRANCH   8  13
ENDBRANCH   4   7
ENDBRANCH   2   3
ENDBRANCH   1   2
BRANCH   1  38
ATOM     38  C   UNL A   1      35.037  31.964  29.289  1.00  0.00     0.118 C 
BRANCH  38  39
ATOM     39  N   UNL A   1      34.554  30.884  28.437  1.00  0.00    -0.352 N 
ATOM     40  C   UNL A   1      35.246  29.876  27.815  1.00  0.00     0.251 C 
ATOM     41  H   UNL A   1      33.581  30.877  28.284  1.00  0.00     0.163 HD
ATOM     42  O   UNL A   1      34.685  29.207  26.951  1.00  0.00    -0.269 OA
BRANCH  40  43
ATOM     43  C   UNL A   1      36.654  29.592  28.173  1.00  0.00     0.039 A 
ATOM     44  C   UNL A   1      36.921  28.909  29.363  1.00  0.00     0.014 A 
ATOM     45  C   UNL A   1      37.708  30.038  27.370  1.00  0.00     0.014 A 
ATOM     46  C   UNL A   1      38.242  28.635  29.725  1.00  0.00     0.010 A 
ATOM     47  C   UNL A   1      39.019  29.708  27.700  1.00  0.00     0.010 A 
ATOM     48  C   UNL A   1      39.301  29.011  28.884  1.00  0.00    -0.014 A 
BRANCH  48  49
ATOM     49  C   UNL A   1      40.708  28.674  29.217  1.00  0.00     0.031 A 
ATOM     50  C   UNL A   1      41.408  27.543  28.514  1.00  0.00     0.074 A 
ATOM     51  C   UNL A   1      41.323  29.329  30.222  1.00  0.00     0.049 A 
ATOM     52  N   UNL A   1      42.610  27.068  28.712  1.00  0.00    -0.248 NA
ATOM     53  C   UNL A   1      40.648  26.837  27.471  1.00  0.00     0.031 C 
ATOM     54  C   UNL A   1      40.723  30.393  31.028  1.00  0.00     0.029 A 
ATOM     55  N   UNL A   1      42.578  29.175  30.755  1.00  0.00    -0.354 N 
ATOM     56  C   UNL A   1      42.737  25.984  27.853  1.00  0.00     0.074 A 
ATOM     57  C   UNL A   1      41.478  25.855  27.149  1.00  0.00     0.031 C 
ATOM     58  C   UNL A   1      41.610  30.799  31.950  1.00  0.00     0.029 A 
ATOM     59  C   UNL A   1      42.829  30.007  31.820  1.00  0.00     0.049 A 
ATOM     60  H   UNL A   1      43.237  28.531  30.407  1.00  0.00     0.167 HD
ATOM     61  C   UNL A   1      43.811  25.184  27.648  1.00  0.00     0.034 A 
ATOM     62  C   UNL A   1      43.917  30.119  32.607  1.00  0.00     0.034 A 
ATOM     63  C   UNL A   1      45.074  25.347  28.314  1.00  0.00     0.049 A 
ATOM     64  C   UNL A   1      45.111  29.247  32.331  1.00  0.00     0.074 A 
ATOM     65  C   UNL A   1      46.257  24.660  28.100  1.00  0.00     0.029 A 
ATOM     66  N   UNL A   1      45.320  26.254  29.335  1.00  0.00    -0.354 N 
ATOM     67  N   UNL A   1      45.272  28.341  31.397  1.00  0.00    -0.248 NA
ATOM     68  C   UNL A   1      46.285  29.436  33.195  1.00  0.00     0.031 C 
ATOM     69  C   UNL A   1      47.211  25.138  29.006  1.00  0.00     0.029 A 
ATOM     70  C   UNL A   1      46.628  26.136  29.771  1.00  0.00     0.049 A 
ATOM     71  H   UNL A   1      44.659  26.889  29.695  1.00  0.00     0.167 HD
ATOM     72  C   UNL A   1      46.574  27.874  31.539  1.00  0.00     0.074 A 
ATOM     73  C   UNL A   1      47.164  28.613  32.637  1.00  0.00     0.031 C 
ATOM     74  C   UNL A   1      47.217  26.910  30.834  1.00  0.00     0.034 A 
BRANCH  61  75
ATOM     75  C   UNL A   1      43.678  24.089  26.620  1.00  0.00     0.023 A 
ATOM     76  C   UNL A   1      44.354  24.208  25.387  1.00  0.00     0.012 A 
ATOM     77  C   UNL A   1      42.925  22.928  26.884  1.00  0.00     0.148 A 
ATOM     78  C   UNL A   1      44.247  23.211  24.419  1.00  0.00     0.002 A 
ATOM     79  C   UNL A   1      42.860  21.918  25.929  1.00  0.00     0.091 A 
ATOM     80  F   UNL A   1      42.271  22.840  28.050  1.00  0.00    -0.205 F 
ATOM     81  C   UNL A   1      43.509  22.062  24.693  1.00  0.00     0.022 A 
BRANCH  79  82
ATOM     82  S   UNL A   1      41.997  20.370  26.224  1.00  0.00     0.127 S 
ATOM     83  O   UNL A   1      42.391  20.070  27.600  1.00  0.00    -0.237 OA
ATOM     84  O   UNL A   1      40.595  20.759  26.064  1.00  0.00    -0.237 OA
ATOM     85  O   UNL A   1      42.486  19.444  25.212  1.00  0.00    -0.744 OA
ENDBRANCH  79  82
ENDBRANCH  61  75
BRANCH  62  86
ATOM     86  C   UNL A   1      43.950  31.156  33.676  1.00  0.00     0.023 A 
ATOM     87  C   UNL A   1      44.305  32.476  33.336  1.00  0.00     0.012 A 
ATOM     88  C   UNL A   1      43.582  30.863  35.003  1.00  0.00     0.148 A 
ATOM     89  C   UNL A   1      44.313  33.482  34.302  1.00  0.00     0.002 A 
ATOM     90  C   UNL A   1      43.542  31.881  35.949  1.00  0.00     0.091 A 
ATOM     91  F   UNL A   1      43.256  29.599  35.307  1.00  0.00    -0.205 F 
ATOM     92  C   UNL A   1      43.921  33.188  35.605  1.00  0.00     0.022 A 
BRANCH  90  93
ATOM     93  S   UNL A   1      42.923  31.626  37.617  1.00  0.00     0.127 S 
ATOM     94  O   UNL A   1      41.666  30.926  37.366  1.00  0.00    -0.237 OA
ATOM     95  O   UNL A   1      43.979  30.803  38.208  1.00  0.00    -0.237 OA
ATOM     96  O   UNL A   1      42.801  32.955  38.201  1.00  0.00    -0.744 OA
ENDBRANCH  90  93
ENDBRANCH  62  86
BRANCH  74  97
ATOM     97  C   UNL A   1      48.644  26.606  31.212  1.00  0.00     0.023 A 
ATOM     98  C   UNL A   1      49.684  27.422  30.725  1.00  0.00     0.012 A 
ATOM     99  C   UNL A   1      48.946  25.560  32.106  1.00  0.00     0.148 A 
ATOM    100  C   UNL A   1      51.005  27.184  31.099  1.00  0.00     0.002 A 
ATOM    101  C   UNL A   1      50.260  25.357  32.511  1.00  0.00     0.091 A 
ATOM    102  F   UNL A   1      47.945  24.781  32.542  1.00  0.00    -0.205 F 
ATOM    103  C   UNL A   1      51.293  26.160  31.999  1.00  0.00     0.022 A 
BRANCH 101 104
ATOM    104  S   UNL A   1      50.708  24.126  33.739  1.00  0.00     0.127 S 
ATOM    105  O   UNL A   1      49.872  24.517  34.873  1.00  0.00    -0.237 OA
ATOM    106  O   UNL A   1      50.309  22.876  33.090  1.00  0.00    -0.237 OA
ATOM    107  O   UNL A   1      52.144  24.266  33.941  1.00  0.00    -0.744 OA
ENDBRANCH 101 104
ENDBRANCH  74  97
ENDBRANCH  48  49
ENDBRANCH  40  43
ENDBRANCH  38  39
ENDBRANCH   1  38
TORSDOF 19
ENDMDL
MODEL 2
REMARK VINA RESULT:     -10.2      4.598     12.106
REMARK SMILES COc1ccc([C@H]2CC(c3ccc(S(C)(=O)=O)cc3)=NN2c2ccc(C(=O)NCCCNC(=O)c3ccc(-c4c5nc(c(-c6cccc(S(=O)(=O)[O-])c6F)c6ccc([nH]6)c(-c6cccc(S(=O)(=O)[O-])c6F)c6nc(c(-c7cccc(S(=O)(=O)[O-])c7F)c7ccc4[nH]7)C=C6)C=C5)cc3)cc2)cc1OC
REMARK SMILES IDX 30 1 29 2 28 3 26 4 27 5 25 7 22 8 23 9 99 10 24 11 98 12
REMARK SMILES IDX 21 13 7 14 8 15 9 16 20 17 6 18 3 19 4 20 101 21 5 22 100 23
REMARK SMILES IDX 2 24 1 25 102 26 103 27 10 28 11 29 19 30 12 31 18 32 13 33
REMARK SMILES IDX 14 34 15 35 16 36 17 37 31 38 32 39 33 40 34 42 35 43 36 44
REMARK SMILES IDX 97 45 37 46 96 47 38 48 39 49 40 50 90 51 41 52 95 53 89 54
REMARK SMILES IDX 91 55 42 56 94 57 88 58 87 59 43 61 75 62 55 63 74 64 56 65
REMARK SMILES IDX 59 66 73 67 92 68 57 69 58 70 72 72 93 73 60 74 44 75 45 76
REMARK SMILES IDX 53 77 46 78 48 79 54 80 47 81 49 82 50 83 51 84 52 85 76 86
REMARK SMILES IDX 77 87 85 88 78 89 80 90 86 91 79 92 81 93 82 94 83 95 84 96
REMARK SMILES IDX 61 97 62 98 70 99 63 100 65 101 71 102 64 103 66 104 67 105
REMARK SMILES IDX 68 106 69 107
REMARK H PARENT 28 6 32 41 91 60 59 71
REMARK Flexibility Score: inf
ROOT
ATOM      1  C   UNL A   1      41.962  21.015  26.564  1.00  0.00     0.042 C 
ENDROOT
BRANCH   1   2
ATOM      2  C   UNL A   1      43.446  21.172  26.238  1.00  0.00     0.118 C 
BRANCH   2   3
ATOM      3  N   UNL A   1      43.654  21.341  24.812  1.00  0.00    -0.352 N 
ATOM      4  C   UNL A   1      44.094  22.396  24.057  1.00  0.00     0.251 C 
ATOM      5  O   UNL A   1      44.226  22.204  22.847  1.00  0.00    -0.269 OA
ATOM      6  H   UNL A   1      43.436  20.539  24.283  1.00  0.00     0.163 HD
BRANCH   4   7
ATOM      7  C   UNL A   1      44.472  23.719  24.628  1.00  0.00     0.039 A 
ATOM      8  C   UNL A   1      45.390  26.159  25.738  1.00  0.00     0.060 A 
ATOM      9  C   UNL A   1      46.292  25.199  25.268  1.00  0.00     0.029 A 
ATOM     10  C   UNL A   1      44.024  25.903  25.597  1.00  0.00     0.029 A 
ATOM     11  C   UNL A   1      45.843  23.986  24.742  1.00  0.00     0.016 A 
ATOM     12  C   UNL A   1      43.571  24.714  25.012  1.00  0.00     0.016 A 
BRANCH   8  13
ATOM     13  N   UNL A   1      45.860  27.341  26.281  1.00  0.00    -0.257 N 
ATOM     14  C   UNL A   1      46.950  27.446  27.249  1.00  0.00     0.144 C 
ATOM     15  C   UNL A   1      46.850  28.909  27.708  1.00  0.00     0.091 C 
ATOM     16  C   UNL A   1      45.674  29.362  26.889  1.00  0.00     0.071 C 
ATOM     17  N   UNL A   1      45.144  28.480  26.106  1.00  0.00    -0.176 NA
BRANCH  14  18
ATOM     18  C   UNL A   1      48.293  27.136  26.604  1.00  0.00    -0.019 A 
ATOM     19  C   UNL A   1      50.767  26.560  25.374  1.00  0.00     0.160 A 
ATOM     20  C   UNL A   1      50.392  25.914  26.561  1.00  0.00     0.051 A 
ATOM     21  C   UNL A   1      49.904  27.484  24.777  1.00  0.00     0.161 A 
ATOM     22  C   UNL A   1      49.169  26.206  27.176  1.00  0.00     0.010 A 
ATOM     23  C   UNL A   1      48.680  27.760  25.403  1.00  0.00     0.056 A 
BRANCH  19  24
ATOM     24  O   UNL A   1      51.937  26.184  24.771  1.00  0.00    -0.493 OA
ATOM     25  C   UNL A   1      52.897  27.239  24.769  1.00  0.00     0.278 C 
ENDBRANCH  19  24
BRANCH  21  26
ATOM     26  O   UNL A   1      50.070  28.188  23.615  1.00  0.00    -0.493 OA
ATOM     27  C   UNL A   1      49.708  27.570  22.391  1.00  0.00     0.278 C 
ENDBRANCH  21  26
ENDBRANCH  14  18
BRANCH  16  28
ATOM     28  C   UNL A   1      45.140  30.717  27.014  1.00  0.00    -0.002 A 
ATOM     29  C   UNL A   1      45.609  31.706  26.141  1.00  0.00     0.011 A 
ATOM     30  C   UNL A   1      44.219  31.017  28.018  1.00  0.00     0.011 A 
ATOM     31  C   UNL A   1      45.138  33.012  26.264  1.00  0.00     0.021 A 
ATOM     32  C   UNL A   1      43.765  32.330  28.158  1.00  0.00     0.021 A 
ATOM     33  C   UNL A   1      44.230  33.320  27.283  1.00  0.00     0.067 A 
BRANCH  33  34
ATOM     34  S   UNL A   1      43.660  34.994  27.462  1.00  0.00     0.175 S 
ATOM     35  C   UNL A   1      45.145  35.964  27.503  1.00  0.00     0.163 C 
ATOM     36  O   UNL A   1      42.928  35.320  26.249  1.00  0.00    -0.224 OA
ATOM     37  O   UNL A   1      43.031  35.108  28.761  1.00  0.00    -0.224 OA
ENDBRANCH  33  34
ENDBRANCH  16  28
ENDBRANCH   8  13
ENDBRANCH   4   7
ENDBRANCH   2   3
ENDBRANCH   1   2
BRANCH   1  38
ATOM     38  C   UNL A   1      41.288  22.328  26.959  1.00  0.00     0.118 C 
BRANCH  38  39
ATOM     39  N   UNL A   1      40.063  22.556  26.203  1.00  0.00    -0.352 N 
ATOM     40  C   UNL A   1      39.152  23.579  26.289  1.00  0.00     0.251 C 
ATOM     41  H   UNL A   1      39.857  21.872  25.526  1.00  0.00     0.163 HD
ATOM     42  O   UNL A   1      38.065  23.464  25.728  1.00  0.00    -0.269 OA
BRANCH  40  43
ATOM     43  C   UNL A   1      39.465  24.809  27.050  1.00  0.00     0.039 A 
ATOM     44  C   UNL A   1      39.015  24.916  28.369  1.00  0.00     0.014 A 
ATOM     45  C   UNL A   1      40.151  25.871  26.456  1.00  0.00     0.014 A 
ATOM     46  C   UNL A   1      39.293  26.070  29.106  1.00  0.00     0.010 A 
ATOM     47  C   UNL A   1      40.483  26.993  27.211  1.00  0.00     0.010 A 
ATOM     48  C   UNL A   1      40.050  27.108  28.540  1.00  0.00    -0.014 A 
BRANCH  48  49
ATOM     49  C   UNL A   1      40.411  28.317  29.324  1.00  0.00     0.031 A 
ATOM     50  C   UNL A   1      41.804  28.483  29.868  1.00  0.00     0.074 A 
ATOM     51  C   UNL A   1      39.456  29.218  29.626  1.00  0.00     0.049 A 
ATOM     52  N   UNL A   1      42.286  29.438  30.620  1.00  0.00    -0.248 NA
ATOM     53  C   UNL A   1      42.776  27.426  29.546  1.00  0.00     0.031 C 
ATOM     54  C   UNL A   1      38.053  29.127  29.220  1.00  0.00     0.029 A 
ATOM     55  N   UNL A   1      39.515  30.370  30.368  1.00  0.00    -0.354 N 
ATOM     56  C   UNL A   1      43.599  29.079  30.899  1.00  0.00     0.074 A 
ATOM     57  C   UNL A   1      43.831  27.803  30.254  1.00  0.00     0.031 C 
ATOM     58  C   UNL A   1      37.384  30.181  29.714  1.00  0.00     0.029 A 
ATOM     59  C   UNL A   1      38.302  31.006  30.494  1.00  0.00     0.049 A 
ATOM     60  H   UNL A   1      40.345  30.711  30.771  1.00  0.00     0.167 HD
ATOM     61  C   UNL A   1      44.535  29.758  31.603  1.00  0.00     0.034 A 
ATOM     62  C   UNL A   1      37.964  32.124  31.164  1.00  0.00     0.034 A 
ATOM     63  C   UNL A   1      44.313  31.048  32.199  1.00  0.00     0.049 A 
ATOM     64  C   UNL A   1      39.032  32.883  31.904  1.00  0.00     0.074 A 
ATOM     65  C   UNL A   1      45.225  31.869  32.840  1.00  0.00     0.029 A 
ATOM     66  N   UNL A   1      43.091  31.701  32.240  1.00  0.00    -0.354 N 
ATOM     67  N   UNL A   1      40.311  32.614  32.011  1.00  0.00    -0.248 NA
ATOM     68  C   UNL A   1      38.618  34.117  32.587  1.00  0.00     0.031 C 
ATOM     69  C   UNL A   1      44.548  33.010  33.286  1.00  0.00     0.029 A 
ATOM     70  C   UNL A   1      43.219  32.908  32.907  1.00  0.00     0.049 A 
ATOM     71  H   UNL A   1      42.254  31.357  31.851  1.00  0.00     0.167 HD
ATOM     72  C   UNL A   1      40.861  33.658  32.744  1.00  0.00     0.074 A 
ATOM     73  C   UNL A   1      39.778  34.576  33.038  1.00  0.00     0.031 C 
ATOM     74  C   UNL A   1      42.143  33.835  33.151  1.00  0.00     0.034 A 
BRANCH  61  75
ATOM     75  C   UNL A   1      45.905  29.140  31.721  1.00  0.00     0.023 A 
ATOM     76  C   UNL A   1      46.956  29.618  30.911  1.00  0.00     0.012 A 
ATOM     77  C   UNL A   1      46.165  28.118  32.656  1.00  0.00     0.148 A 
ATOM     78  C   UNL A   1      48.231  29.063  30.999  1.00  0.00     0.002 A 
ATOM     79  C   UNL A   1      47.451  27.600  32.768  1.00  0.00     0.091 A 
ATOM     80  F   UNL A   1      45.151  27.658  33.402  1.00  0.00    -0.205 F 
ATOM     81  C   UNL A   1      48.482  28.061  31.934  1.00  0.00     0.022 A 
BRANCH  79  82
ATOM     82  S   UNL A   1      47.885  26.362  33.996  1.00  0.00     0.127 S 
ATOM     83  O   UNL A   1      47.536  27.045  35.241  1.00  0.00    -0.237 OA
ATOM     84  O   UNL A   1      47.001  25.250  33.644  1.00  0.00    -0.237 OA
ATOM     85  O   UNL A   1      49.303  26.090  33.802  1.00  0.00    -0.744 OA
ENDBRANCH  79  82
ENDBRANCH  61  75
BRANCH  62  86
ATOM     86  C   UNL A   1      36.566  32.634  31.092  1.00  0.00     0.023 A 
ATOM     87  C   UNL A   1      35.762  32.587  32.247  1.00  0.00     0.012 A 
ATOM     88  C   UNL A   1      36.050  33.211  29.916  1.00  0.00     0.148 A 
ATOM     89  C   UNL A   1      34.459  33.086  32.227  1.00  0.00     0.002 A 
ATOM     90  C   UNL A   1      34.770  33.754  29.919  1.00  0.00     0.091 A 
ATOM     91  F   UNL A   1      36.829  33.238  28.826  1.00  0.00    -0.205 F 
ATOM     92  C   UNL A   1      33.968  33.680  31.068  1.00  0.00     0.022 A 
BRANCH  90  93
ATOM     93  S   UNL A   1      34.100  34.657  28.516  1.00  0.00     0.127 S 
ATOM     94  O   UNL A   1      34.226  33.676  27.441  1.00  0.00    -0.237 OA
ATOM     95  O   UNL A   1      32.728  34.918  28.953  1.00  0.00    -0.237 OA
ATOM     96  O   UNL A   1      34.925  35.850  28.383  1.00  0.00    -0.744 OA
ENDBRANCH  90  93
ENDBRANCH  62  86
BRANCH  74  97
ATOM     97  C   UNL A   1      42.457  35.076  33.945  1.00  0.00     0.023 A 
ATOM     98  C   UNL A   1      42.302  35.066  35.346  1.00  0.00     0.012 A 
ATOM     99  C   UNL A   1      42.976  36.224  33.315  1.00  0.00     0.148 A 
ATOM    100  C   UNL A   1      42.630  36.190  36.102  1.00  0.00     0.002 A 
ATOM    101  C   UNL A   1      43.344  37.324  34.080  1.00  0.00     0.091 A 
ATOM    102  F   UNL A   1      43.096  36.222  31.978  1.00  0.00    -0.205 F 
ATOM    103  C   UNL A   1      43.161  37.314  35.473  1.00  0.00     0.022 A 
BRANCH 101 104
ATOM    104  S   UNL A   1      44.124  38.775  33.364  1.00  0.00     0.127 S 
ATOM    105  O   UNL A   1      45.178  38.176  32.547  1.00  0.00    -0.237 OA
ATOM    106  O   UNL A   1      43.028  39.375  32.601  1.00  0.00    -0.237 OA
ATOM    107  O   UNL A   1      44.582  39.578  34.489  1.00  0.00    -0.744 OA
ENDBRANCH 101 104
ENDBRANCH  74  97
ENDBRANCH  48  49
ENDBRANCH  40  43
ENDBRANCH  38  39
ENDBRANCH   1  38
TORSDOF 19
ENDMDL
MODEL 3
REMARK VINA RESULT:     -10.2      5.007     12.467
REMARK SMILES COc1ccc([C@H]2CC(c3ccc(S(C)(=O)=O)cc3)=NN2c2ccc(C(=O)NCCCNC(=O)c3ccc(-c4c5nc(c(-c6cccc(S(=O)(=O)[O-])c6F)c6ccc([nH]6)c(-c6cccc(S(=O)(=O)[O-])c6F)c6nc(c(-c7cccc(S(=O)(=O)[O-])c7F)c7ccc4[nH]7)C=C6)C=C5)cc3)cc2)cc1OC
REMARK SMILES IDX 30 1 29 2 28 3 26 4 27 5 25 7 22 8 23 9 99 10 24 11 98 12
REMARK SMILES IDX 21 13 7 14 8 15 9 16 20 17 6 18 3 19 4 20 101 21 5 22 100 23
REMARK SMILES IDX 2 24 1 25 102 26 103 27 10 28 11 29 19 30 12 31 18 32 13 33
REMARK SMILES IDX 14 34 15 35 16 36 17 37 31 38 32 39 33 40 34 42 35 43 36 44
REMARK SMILES IDX 97 45 37 46 96 47 38 48 39 49 40 50 90 51 41 52 95 53 89 54
REMARK SMILES IDX 91 55 42 56 94 57 88 58 87 59 43 61 75 62 55 63 74 64 56 65
REMARK SMILES IDX 59 66 73 67 92 68 57 69 58 70 72 72 93 73 60 74 44 75 45 76
REMARK SMILES IDX 53 77 46 78 48 79 54 80 47 81 49 82 50 83 51 84 52 85 76 86
REMARK SMILES IDX 77 87 85 88 78 89 80 90 86 91 79 92 81 93 82 94 83 95 84 96
REMARK SMILES IDX 61 97 62 98 70 99 63 100 65 101 71 102 64 103 66 104 67 105
REMARK SMILES IDX 68 106 69 107
REMARK H PARENT 28 6 32 41 91 60 59 71
REMARK Flexibility Score: inf
ROOT
ATOM      1  C   UNL A   1      41.808  21.364  26.939  1.00  0.00     0.042 C 
ENDROOT
BRANCH   1   2
ATOM      2  C   UNL A   1      43.285  21.445  26.555  1.00  0.00     0.118 C 
BRANCH   2   3
ATOM      3  N   UNL A   1      43.446  21.571  25.119  1.00  0.00    -0.352 N 
ATOM      4  C   UNL A   1      43.879  22.597  24.321  1.00  0.00     0.251 C 
ATOM      5  O   UNL A   1      43.966  22.370  23.113  1.00  0.00    -0.269 OA
ATOM      6  H   UNL A   1      43.197  20.759  24.620  1.00  0.00     0.163 HD
BRANCH   4   7
ATOM      7  C   UNL A   1      44.300  23.928  24.842  1.00  0.00     0.039 A 
ATOM      8  C   UNL A   1      45.287  26.369  25.887  1.00  0.00     0.060 A 
ATOM      9  C   UNL A   1      46.153  25.309  25.599  1.00  0.00     0.029 A 
ATOM     10  C   UNL A   1      43.931  26.210  25.596  1.00  0.00     0.029 A 
ATOM     11  C   UNL A   1      45.666  24.097  25.106  1.00  0.00     0.016 A 
ATOM     12  C   UNL A   1      43.449  25.017  25.042  1.00  0.00     0.016 A 
BRANCH   8  13
ATOM     13  N   UNL A   1      45.790  27.551  26.401  1.00  0.00    -0.257 N 
ATOM     14  C   UNL A   1      46.872  27.649  27.380  1.00  0.00     0.144 C 
ATOM     15  C   UNL A   1      46.815  29.126  27.794  1.00  0.00     0.091 C 
ATOM     16  C   UNL A   1      45.666  29.594  26.946  1.00  0.00     0.071 C 
ATOM     17  N   UNL A   1      45.116  28.707  26.182  1.00  0.00    -0.176 NA
BRANCH  14  18
ATOM     18  C   UNL A   1      48.211  27.274  26.762  1.00  0.00    -0.019 A 
ATOM     19  C   UNL A   1      50.678  26.579  25.583  1.00  0.00     0.160 A 
ATOM     20  C   UNL A   1      50.287  26.014  26.805  1.00  0.00     0.051 A 
ATOM     21  C   UNL A   1      49.835  27.479  24.926  1.00  0.00     0.161 A 
ATOM     22  C   UNL A   1      49.067  26.365  27.395  1.00  0.00     0.010 A 
ATOM     23  C   UNL A   1      48.614  27.816  25.526  1.00  0.00     0.056 A 
BRANCH  19  24
ATOM     24  O   UNL A   1      51.844  26.144  25.010  1.00  0.00    -0.493 OA
ATOM     25  C   UNL A   1      52.390  25.022  25.700  1.00  0.00     0.278 C 
ENDBRANCH  19  24
BRANCH  21  26
ATOM     26  O   UNL A   1      50.019  28.107  23.723  1.00  0.00    -0.493 OA
ATOM     27  C   UNL A   1      49.670  27.414  22.536  1.00  0.00     0.278 C 
ENDBRANCH  21  26
ENDBRANCH  14  18
BRANCH  16  28
ATOM     28  C   UNL A   1      45.176  30.970  27.025  1.00  0.00    -0.002 A 
ATOM     29  C   UNL A   1      44.211  31.284  27.988  1.00  0.00     0.011 A 
ATOM     30  C   UNL A   1      45.634  31.928  26.119  1.00  0.00     0.011 A 
ATOM     31  C   UNL A   1      43.706  32.582  28.058  1.00  0.00     0.021 A 
ATOM     32  C   UNL A   1      45.110  33.222  26.173  1.00  0.00     0.021 A 
ATOM     33  C   UNL A   1      44.148  33.540  27.140  1.00  0.00     0.067 A 
BRANCH  33  34
ATOM     34  S   UNL A   1      43.475  35.183  27.207  1.00  0.00     0.175 S 
ATOM     35  C   UNL A   1      44.894  36.232  27.403  1.00  0.00     0.163 C 
ATOM     36  O   UNL A   1      42.880  35.447  25.908  1.00  0.00    -0.224 OA
ATOM     37  O   UNL A   1      42.688  35.287  28.418  1.00  0.00    -0.224 OA
ENDBRANCH  33  34
ENDBRANCH  16  28
ENDBRANCH   8  13
ENDBRANCH   4   7
ENDBRANCH   2   3
ENDBRANCH   1   2
BRANCH   1  38
ATOM     38  C   UNL A   1      41.207  22.716  27.316  1.00  0.00     0.118 C 
BRANCH  38  39
ATOM     39  N   UNL A   1      40.127  23.098  26.414  1.00  0.00    -0.352 N 
ATOM     40  C   UNL A   1      39.316  24.205  26.431  1.00  0.00     0.251 C 
ATOM     41  H   UNL A   1      39.953  22.465  25.680  1.00  0.00     0.163 HD
ATOM     42  O   UNL A   1      38.313  24.224  25.722  1.00  0.00    -0.269 OA
BRANCH  40  43
ATOM     43  C   UNL A   1      39.636  25.366  27.290  1.00  0.00     0.039 A 
ATOM     44  C   UNL A   1      39.210  25.355  28.622  1.00  0.00     0.014 A 
ATOM     45  C   UNL A   1      40.307  26.480  26.779  1.00  0.00     0.014 A 
ATOM     46  C   UNL A   1      39.496  26.442  29.452  1.00  0.00     0.010 A 
ATOM     47  C   UNL A   1      40.647  27.534  27.624  1.00  0.00     0.010 A 
ATOM     48  C   UNL A   1      40.238  27.530  28.966  1.00  0.00    -0.014 A 
BRANCH  48  49
ATOM     49  C   UNL A   1      40.607  28.667  29.846  1.00  0.00     0.031 A 
ATOM     50  C   UNL A   1      39.565  29.658  30.288  1.00  0.00     0.074 A 
ATOM     51  C   UNL A   1      41.901  28.860  30.167  1.00  0.00     0.049 A 
ATOM     52  N   UNL A   1      39.711  30.742  31.005  1.00  0.00    -0.248 NA
ATOM     53  C   UNL A   1      38.183  29.413  29.846  1.00  0.00     0.031 C 
ATOM     54  C   UNL A   1      43.013  28.011  29.735  1.00  0.00     0.029 A 
ATOM     55  N   UNL A   1      42.503  29.847  30.906  1.00  0.00    -0.354 N 
ATOM     56  C   UNL A   1      38.454  31.331  31.065  1.00  0.00     0.074 A 
ATOM     57  C   UNL A   1      37.561  30.496  30.288  1.00  0.00     0.031 C 
ATOM     58  C   UNL A   1      44.161  28.511  30.220  1.00  0.00     0.029 A 
ATOM     59  C   UNL A   1      43.872  29.728  30.971  1.00  0.00     0.049 A 
ATOM     60  H   UNL A   1      42.004  30.570  31.348  1.00  0.00     0.167 HD
ATOM     61  C   UNL A   1      38.069  32.449  31.726  1.00  0.00     0.034 A 
ATOM     62  C   UNL A   1      44.792  30.513  31.565  1.00  0.00     0.034 A 
ATOM     63  C   UNL A   1      38.950  33.247  32.535  1.00  0.00     0.049 A 
ATOM     64  C   UNL A   1      44.334  31.725  32.328  1.00  0.00     0.074 A 
ATOM     65  C   UNL A   1      38.639  34.335  33.332  1.00  0.00     0.029 A 
ATOM     66  N   UNL A   1      40.319  33.052  32.644  1.00  0.00    -0.354 N 
ATOM     67  N   UNL A   1      43.115  32.170  32.516  1.00  0.00    -0.248 NA
ATOM     68  C   UNL A   1      45.375  32.526  32.989  1.00  0.00     0.031 C 
ATOM     69  C   UNL A   1      39.824  34.810  33.906  1.00  0.00     0.029 A 
ATOM     70  C   UNL A   1      40.871  34.007  33.482  1.00  0.00     0.049 A 
ATOM     71  H   UNL A   1      40.825  32.338  32.191  1.00  0.00     0.167 HD
ATOM     72  C   UNL A   1      43.238  33.282  33.341  1.00  0.00     0.074 A 
ATOM     73  C   UNL A   1      44.650  33.430  33.634  1.00  0.00     0.031 C 
ATOM     74  C   UNL A   1      42.271  34.114  33.802  1.00  0.00     0.034 A 
BRANCH  61  75
ATOM     75  C   UNL A   1      36.617  32.845  31.641  1.00  0.00     0.023 A 
ATOM     76  C   UNL A   1      35.803  32.748  32.789  1.00  0.00     0.012 A 
ATOM     77  C   UNL A   1      36.068  33.350  30.447  1.00  0.00     0.148 A 
ATOM     78  C   UNL A   1      34.457  33.107  32.738  1.00  0.00     0.002 A 
ATOM     79  C   UNL A   1      34.735  33.747  30.416  1.00  0.00     0.091 A 
ATOM     80  F   UNL A   1      36.848  33.415  29.359  1.00  0.00    -0.205 F 
ATOM     81  C   UNL A   1      33.925  33.615  31.556  1.00  0.00     0.022 A 
BRANCH  79  82
ATOM     82  S   UNL A   1      33.984  34.485  28.961  1.00  0.00     0.127 S 
ATOM     83  O   UNL A   1      34.019  33.372  28.013  1.00  0.00    -0.237 OA
ATOM     84  O   UNL A   1      32.646  34.833  29.442  1.00  0.00    -0.237 OA
ATOM     85  O   UNL A   1      34.818  35.630  28.621  1.00  0.00    -0.744 OA
ENDBRANCH  79  82
ENDBRANCH  61  75
BRANCH  62  86
ATOM     86  C   UNL A   1      46.229  30.121  31.529  1.00  0.00     0.023 A 
ATOM     87  C   UNL A   1      46.633  28.947  32.193  1.00  0.00     0.012 A 
ATOM     88  C   UNL A   1      47.179  30.863  30.802  1.00  0.00     0.148 A 
ATOM     89  C   UNL A   1      47.964  28.529  32.153  1.00  0.00     0.002 A 
ATOM     90  C   UNL A   1      48.492  30.412  30.722  1.00  0.00     0.091 A 
ATOM     91  F   UNL A   1      46.775  31.981  30.184  1.00  0.00    -0.205 F 
ATOM     92  C   UNL A   1      48.890  29.254  31.408  1.00  0.00     0.022 A 
BRANCH  90  93
ATOM     93  S   UNL A   1      49.724  31.204  29.680  1.00  0.00     0.127 S 
ATOM     94  O   UNL A   1      50.755  30.172  29.598  1.00  0.00    -0.237 OA
ATOM     95  O   UNL A   1      48.975  31.425  28.442  1.00  0.00    -0.237 OA
ATOM     96  O   UNL A   1      50.105  32.425  30.377  1.00  0.00    -0.744 OA
ENDBRANCH  90  93
ENDBRANCH  62  86
BRANCH  74  97
ATOM     97  C   UNL A   1      42.698  35.254  34.690  1.00  0.00     0.023 A 
ATOM     98  C   UNL A   1      42.849  35.040  36.075  1.00  0.00     0.012 A 
ATOM     99  C   UNL A   1      43.021  36.512  34.146  1.00  0.00     0.148 A 
ATOM    100  C   UNL A   1      43.287  36.069  36.907  1.00  0.00     0.002 A 
ATOM    101  C   UNL A   1      43.500  37.520  34.974  1.00  0.00     0.091 A 
ATOM    102  F   UNL A   1      42.850  36.703  32.829  1.00  0.00    -0.205 F 
ATOM    103  C   UNL A   1      43.623  37.305  36.356  1.00  0.00     0.022 A 
BRANCH 101 104
ATOM    104  S   UNL A   1      44.046  39.109  34.338  1.00  0.00     0.127 S 
ATOM    105  O   UNL A   1      45.249  38.735  33.594  1.00  0.00    -0.237 OA
ATOM    106  O   UNL A   1      42.916  39.517  33.503  1.00  0.00    -0.237 OA
ATOM    107  O   UNL A   1      44.267  39.951  35.505  1.00  0.00    -0.744 OA
ENDBRANCH 101 104
ENDBRANCH  74  97
ENDBRANCH  48  49
ENDBRANCH  40  43
ENDBRANCH  38  39
ENDBRANCH   1  38
TORSDOF 19
ENDMDL
