MODEL 1
REMARK VINA RESULT:     -10.9      0.000      0.000
REMARK SMILES CCC(CC)(NC(=O)NCCc1nccs1)C(=O)NCCCNC(=O)c1ccc(-c2c3nc(c(-c4cccc(S(=O)(=O)[O-])c4F)c4ccc([nH]4)c(-c4cccc(S(=O)(=O)[O-])c4F)c4nc(c(-c5cccc(S(=O)(=O)[O-])c5F)c5ccc2[nH]5)C=C4)C=C3)cc1
REMARK SMILES IDX 20 1 19 2 17 3 18 4 3 6 2 7 1 8 4 9 5 10 6 11 7 12 8 14 9 15
REMARK SMILES IDX 10 17 11 18 12 19 13 20 16 21 14 22 15 23 21 24 22 25 23 26
REMARK SMILES IDX 24 27 25 29 26 30 27 31 88 32 28 33 87 34 29 35 30 36 31 37
REMARK SMILES IDX 81 38 32 39 86 40 80 41 82 42 33 43 85 44 79 45 78 46 34 48
REMARK SMILES IDX 66 49 46 50 65 51 47 52 50 53 64 54 83 55 48 56 49 57 63 59
REMARK SMILES IDX 84 60 51 61 35 62 36 63 44 64 37 65 39 66 45 67 38 68 40 69
REMARK SMILES IDX 41 70 42 71 43 72 67 73 68 74 76 75 69 76 71 77 77 78 70 79
REMARK SMILES IDX 72 80 73 81 74 82 75 83 52 84 53 85 61 86 54 87 56 88 62 89
REMARK SMILES IDX 55 90 57 91 58 92 59 93 60 94
REMARK H PARENT 19 5 6 13 9 16 23 28 82 47 50 58
REMARK Flexibility Score: inf
ROOT
ATOM      1  C   UNL A   1      32.124  29.715  25.936  1.00  0.00     0.117 C 
ENDROOT
BRANCH   1   2
ATOM      2  N   UNL A   1      33.120  29.662  24.867  1.00  0.00    -0.354 N 
ATOM      3  C   UNL A   1      33.282  28.837  23.773  1.00  0.00     0.245 C 
ATOM      4  O   UNL A   1      34.100  29.206  22.922  1.00  0.00    -0.272 OA
ATOM      5  H   UNL A   1      33.816  30.355  24.942  1.00  0.00     0.163 HD
BRANCH   3   6
ATOM      6  C   UNL A   1      32.385  27.587  23.546  1.00  0.00     0.120 C 
BRANCH   6   7
ATOM      7  C   UNL A   1      30.842  27.792  23.538  1.00  0.00     0.035 C 
ATOM      8  C   UNL A   1      30.256  28.845  22.606  1.00  0.00     0.007 C 
ENDBRANCH   6   7
BRANCH   6   9
ATOM      9  C   UNL A   1      32.773  26.640  24.740  1.00  0.00     0.035 C 
ATOM     10  C   UNL A   1      34.133  25.961  24.696  1.00  0.00     0.007 C 
ENDBRANCH   6   9
BRANCH   6  11
ATOM     11  N   UNL A   1      32.746  27.026  22.231  1.00  0.00    -0.324 N 
ATOM     12  C   UNL A   1      32.529  25.871  21.586  1.00  0.00     0.315 C 
ATOM     13  H   UNL A   1      33.278  27.656  21.692  1.00  0.00     0.166 HD
ATOM     14  O   UNL A   1      33.172  25.711  20.545  1.00  0.00    -0.249 OA
ATOM     15  N   UNL A   1      31.625  24.934  21.895  1.00  0.00    -0.338 N 
ATOM     16  H   UNL A   1      31.359  24.422  21.097  1.00  0.00     0.165 HD
BRANCH  15  17
ATOM     17  C   UNL A   1      30.918  24.458  23.083  1.00  0.00     0.125 C 
BRANCH  17  18
ATOM     18  C   UNL A   1      31.073  22.974  23.433  1.00  0.00     0.089 C 
BRANCH  18  19
ATOM     19  C   UNL A   1      32.427  22.545  23.917  1.00  0.00     0.094 A 
ATOM     20  N   UNL A   1      33.558  22.685  23.258  1.00  0.00    -0.250 NA
ATOM     21  S   UNL A   1      32.542  21.641  25.385  1.00  0.00    -0.127 S 
ATOM     22  C   UNL A   1      34.581  22.053  23.946  1.00  0.00     0.123 A 
ATOM     23  C   UNL A   1      34.215  21.419  25.112  1.00  0.00     0.087 A 
ENDBRANCH  18  19
ENDBRANCH  17  18
ENDBRANCH  15  17
ENDBRANCH   6  11
ENDBRANCH   3   6
ENDBRANCH   1   2
BRANCH   1  24
ATOM     24  C   UNL A   1      31.793  31.066  26.572  1.00  0.00     0.042 C 
BRANCH  24  25
ATOM     25  C   UNL A   1      32.914  31.879  27.199  1.00  0.00     0.118 C 
BRANCH  25  26
ATOM     26  N   UNL A   1      32.558  33.257  27.480  1.00  0.00    -0.352 N 
ATOM     27  C   UNL A   1      33.132  34.138  28.369  1.00  0.00     0.251 C 
ATOM     28  H   UNL A   1      31.798  33.612  26.965  1.00  0.00     0.163 HD
ATOM     29  O   UNL A   1      32.645  35.251  28.521  1.00  0.00    -0.269 OA
BRANCH  27  30
ATOM     30  C   UNL A   1      34.313  33.731  29.167  1.00  0.00     0.039 A 
ATOM     31  C   UNL A   1      34.112  32.938  30.300  1.00  0.00     0.014 A 
ATOM     32  C   UNL A   1      35.606  34.122  28.810  1.00  0.00     0.014 A 
ATOM     33  C   UNL A   1      35.211  32.479  31.032  1.00  0.00     0.010 A 
ATOM     34  C   UNL A   1      36.706  33.626  29.516  1.00  0.00     0.010 A 
ATOM     35  C   UNL A   1      36.522  32.787  30.625  1.00  0.00    -0.014 A 
BRANCH  35  36
ATOM     36  C   UNL A   1      37.693  32.163  31.302  1.00  0.00     0.031 A 
ATOM     37  C   UNL A   1      38.444  31.019  30.676  1.00  0.00     0.074 A 
ATOM     38  C   UNL A   1      38.039  32.588  32.534  1.00  0.00     0.049 A 
ATOM     39  N   UNL A   1      39.478  30.362  31.139  1.00  0.00    -0.248 NA
ATOM     40  C   UNL A   1      37.965  30.540  29.371  1.00  0.00     0.031 C 
ATOM     41  C   UNL A   1      37.346  33.635  33.289  1.00  0.00     0.029 A 
ATOM     42  N   UNL A   1      39.040  32.178  33.381  1.00  0.00    -0.354 N 
ATOM     43  C   UNL A   1      39.761  29.378  30.199  1.00  0.00     0.074 A 
ATOM     44  C   UNL A   1      38.771  29.510  29.149  1.00  0.00     0.031 C 
ATOM     45  C   UNL A   1      37.942  33.785  34.482  1.00  0.00     0.029 A 
ATOM     46  C   UNL A   1      39.037  32.826  34.594  1.00  0.00     0.049 A 
ATOM     47  H   UNL A   1      39.697  31.485  33.142  1.00  0.00     0.167 HD
ATOM     48  C   UNL A   1      40.763  28.465  30.197  1.00  0.00     0.034 A 
ATOM     49  C   UNL A   1      39.815  32.662  35.682  1.00  0.00     0.034 A 
ATOM     50  C   UNL A   1      41.757  28.346  31.234  1.00  0.00     0.049 A 
ATOM     51  C   UNL A   1      40.925  31.648  35.650  1.00  0.00     0.074 A 
ATOM     52  C   UNL A   1      42.860  27.511  31.273  1.00  0.00     0.029 A 
ATOM     53  N   UNL A   1      41.757  29.060  32.421  1.00  0.00    -0.354 N 
ATOM     54  N   UNL A   1      41.284  30.849  34.675  1.00  0.00    -0.248 NA
ATOM     55  C   UNL A   1      41.759  31.536  36.855  1.00  0.00     0.031 C 
ATOM     56  C   UNL A   1      43.505  27.691  32.501  1.00  0.00     0.029 A 
ATOM     57  C   UNL A   1      42.827  28.669  33.211  1.00  0.00     0.049 A 
ATOM     58  H   UNL A   1      41.096  29.746  32.668  1.00  0.00     0.167 HD
ATOM     59  C   UNL A   1      42.401  30.161  35.138  1.00  0.00     0.074 A 
ATOM     60  C   UNL A   1      42.677  30.659  36.469  1.00  0.00     0.031 C 
ATOM     61  C   UNL A   1      43.123  29.194  34.520  1.00  0.00     0.034 A 
BRANCH  48  62
ATOM     62  C   UNL A   1      40.867  27.535  29.013  1.00  0.00     0.023 A 
ATOM     63  C   UNL A   1      39.989  26.436  28.912  1.00  0.00     0.012 A 
ATOM     64  C   UNL A   1      41.772  27.793  27.964  1.00  0.00     0.148 A 
ATOM     65  C   UNL A   1      40.036  25.588  27.807  1.00  0.00     0.002 A 
ATOM     66  C   UNL A   1      41.781  26.969  26.844  1.00  0.00     0.091 A 
ATOM     67  F   UNL A   1      42.607  28.835  28.082  1.00  0.00    -0.205 F 
ATOM     68  C   UNL A   1      40.922  25.860  26.770  1.00  0.00     0.022 A 
BRANCH  66  69
ATOM     69  S   UNL A   1      42.830  27.277  25.418  1.00  0.00     0.127 S 
ATOM     70  O   UNL A   1      42.709  26.018  24.686  1.00  0.00    -0.237 OA
ATOM     71  O   UNL A   1      42.162  28.416  24.787  1.00  0.00    -0.237 OA
ATOM     72  O   UNL A   1      44.155  27.565  25.948  1.00  0.00    -0.744 OA
ENDBRANCH  66  69
ENDBRANCH  48  62
BRANCH  49  73
ATOM     73  C   UNL A   1      39.601  33.516  36.886  1.00  0.00     0.023 A 
ATOM     74  C   UNL A   1      40.100  34.833  36.901  1.00  0.00     0.012 A 
ATOM     75  C   UNL A   1      38.890  33.038  38.004  1.00  0.00     0.148 A 
ATOM     76  C   UNL A   1      39.928  35.646  38.022  1.00  0.00     0.002 A 
ATOM     77  C   UNL A   1      38.672  33.873  39.093  1.00  0.00     0.091 A 
ATOM     78  F   UNL A   1      38.433  31.779  37.974  1.00  0.00    -0.205 F 
ATOM     79  C   UNL A   1      39.205  35.171  39.112  1.00  0.00     0.022 A 
BRANCH  77  80
ATOM     80  S   UNL A   1      37.645  33.394  40.487  1.00  0.00     0.127 S 
ATOM     81  O   UNL A   1      38.413  32.290  41.057  1.00  0.00    -0.237 OA
ATOM     82  O   UNL A   1      37.638  34.619  41.288  1.00  0.00    -0.237 OA
ATOM     83  O   UNL A   1      36.353  33.037  39.921  1.00  0.00    -0.744 OA
ENDBRANCH  77  80
ENDBRANCH  49  73
BRANCH  61  84
ATOM     84  C   UNL A   1      44.305  28.619  35.263  1.00  0.00     0.023 A 
ATOM     85  C   UNL A   1      45.598  29.123  35.020  1.00  0.00     0.012 A 
ATOM     86  C   UNL A   1      44.125  27.623  36.242  1.00  0.00     0.148 A 
ATOM     87  C   UNL A   1      46.698  28.620  35.715  1.00  0.00     0.002 A 
ATOM     88  C   UNL A   1      45.218  27.163  36.968  1.00  0.00     0.091 A 
ATOM     89  F   UNL A   1      42.890  27.143  36.448  1.00  0.00    -0.205 F 
ATOM     90  C   UNL A   1      46.507  27.650  36.695  1.00  0.00     0.022 A 
BRANCH  88  91
ATOM     91  S   UNL A   1      45.060  25.984  38.314  1.00  0.00     0.127 S 
ATOM     92  O   UNL A   1      44.070  26.637  39.169  1.00  0.00    -0.237 OA
ATOM     93  O   UNL A   1      44.576  24.789  37.623  1.00  0.00    -0.237 OA
ATOM     94  O   UNL A   1      46.391  25.851  38.892  1.00  0.00    -0.744 OA
ENDBRANCH  88  91
ENDBRANCH  61  84
ENDBRANCH  35  36
ENDBRANCH  27  30
ENDBRANCH  25  26
ENDBRANCH  24  25
ENDBRANCH   1  24
TORSDOF 19
ENDMDL
MODEL 2
REMARK VINA RESULT:     -10.8      5.817     11.578
REMARK SMILES CCC(CC)(NC(=O)NCCc1nccs1)C(=O)NCCCNC(=O)c1ccc(-c2c3nc(c(-c4cccc(S(=O)(=O)[O-])c4F)c4ccc([nH]4)c(-c4cccc(S(=O)(=O)[O-])c4F)c4nc(c(-c5cccc(S(=O)(=O)[O-])c5F)c5ccc2[nH]5)C=C4)C=C3)cc1
REMARK SMILES IDX 20 1 19 2 17 3 18 4 3 6 2 7 1 8 4 9 5 10 6 11 7 12 8 14 9 15
REMARK SMILES IDX 10 17 11 18 12 19 13 20 16 21 14 22 15 23 21 24 22 25 23 26
REMARK SMILES IDX 24 27 25 29 26 30 27 31 88 32 28 33 87 34 29 35 30 36 31 37
REMARK SMILES IDX 81 38 32 39 86 40 80 41 82 42 33 43 85 44 79 45 78 46 34 48
REMARK SMILES IDX 66 49 46 50 65 51 47 52 50 53 64 54 83 55 48 56 49 57 63 59
REMARK SMILES IDX 84 60 51 61 35 62 36 63 44 64 37 65 39 66 45 67 38 68 40 69
REMARK SMILES IDX 41 70 42 71 43 72 67 73 68 74 76 75 69 76 71 77 77 78 70 79
REMARK SMILES IDX 72 80 73 81 74 82 75 83 52 84 53 85 61 86 54 87 56 88 62 89
REMARK SMILES IDX 55 90 57 91 58 92 59 93 60 94
REMARK H PARENT 19 5 6 13 9 16 23 28 82 47 50 58
REMARK Flexibility Score: inf
ROOT
ATOM      1  C   UNL A   1      36.339  20.779  25.276  1.00  0.00     0.117 C 
ENDROOT
BRANCH   1   2
ATOM      2  N   UNL A   1      35.801  21.534  26.407  1.00  0.00    -0.354 N 
ATOM      3  C   UNL A   1      34.856  22.534  26.505  1.00  0.00     0.245 C 
ATOM      4  O   UNL A   1      34.451  22.800  27.643  1.00  0.00    -0.272 OA
ATOM      5  H   UNL A   1      36.192  21.277  27.273  1.00  0.00     0.163 HD
BRANCH   3   6
ATOM      6  C   UNL A   1      34.222  23.193  25.247  1.00  0.00     0.120 C 
BRANCH   6   7
ATOM      7  C   UNL A   1      34.427  22.487  23.875  1.00  0.00     0.035 C 
ATOM      8  C   UNL A   1      34.192  23.291  22.603  1.00  0.00     0.007 C 
ENDBRANCH   6   7
BRANCH   6   9
ATOM      9  C   UNL A   1      34.898  24.613  25.201  1.00  0.00     0.035 C 
ATOM     10  C   UNL A   1      34.012  25.830  25.415  1.00  0.00     0.007 C 
ENDBRANCH   6   9
BRANCH   6  11
ATOM     11  N   UNL A   1      32.767  23.261  25.477  1.00  0.00    -0.324 N 
ATOM     12  C   UNL A   1      31.758  22.379  25.515  1.00  0.00     0.315 C 
ATOM     13  H   UNL A   1      32.461  24.182  25.646  1.00  0.00     0.166 HD
ATOM     14  O   UNL A   1      30.625  22.867  25.556  1.00  0.00    -0.249 OA
ATOM     15  N   UNL A   1      31.855  21.049  25.617  1.00  0.00    -0.338 N 
ATOM     16  H   UNL A   1      31.050  20.667  26.039  1.00  0.00     0.165 HD
BRANCH  15  17
ATOM     17  C   UNL A   1      32.818  20.002  25.281  1.00  0.00     0.125 C 
BRANCH  17  18
ATOM     18  C   UNL A   1      32.282  18.788  24.514  1.00  0.00     0.089 C 
BRANCH  18  19
ATOM     19  C   UNL A   1      32.996  17.490  24.747  1.00  0.00     0.094 A 
ATOM     20  N   UNL A   1      32.489  16.431  25.343  1.00  0.00    -0.250 NA
ATOM     21  S   UNL A   1      34.678  17.380  24.366  1.00  0.00    -0.127 S 
ATOM     22  C   UNL A   1      33.474  15.470  25.506  1.00  0.00     0.123 A 
ATOM     23  C   UNL A   1      34.727  15.814  25.052  1.00  0.00     0.087 A 
ENDBRANCH  18  19
ENDBRANCH  17  18
ENDBRANCH  15  17
ENDBRANCH   6  11
ENDBRANCH   3   6
ENDBRANCH   1   2
BRANCH   1  24
ATOM     24  C   UNL A   1      37.818  20.934  24.919  1.00  0.00     0.042 C 
BRANCH  24  25
ATOM     25  C   UNL A   1      38.851  20.907  26.034  1.00  0.00     0.118 C 
BRANCH  25  26
ATOM     26  N   UNL A   1      39.797  19.812  25.935  1.00  0.00    -0.352 N 
ATOM     27  C   UNL A   1      41.168  19.835  26.058  1.00  0.00     0.251 C 
ATOM     28  H   UNL A   1      39.405  18.927  25.753  1.00  0.00     0.163 HD
ATOM     29  O   UNL A   1      41.812  18.811  25.871  1.00  0.00    -0.269 OA
BRANCH  27  30
ATOM     30  C   UNL A   1      41.868  21.102  26.379  1.00  0.00     0.039 A 
ATOM     31  C   UNL A   1      42.199  21.965  25.331  1.00  0.00     0.014 A 
ATOM     32  C   UNL A   1      42.197  21.442  27.694  1.00  0.00     0.014 A 
ATOM     33  C   UNL A   1      42.795  23.200  25.610  1.00  0.00     0.010 A 
ATOM     34  C   UNL A   1      42.751  22.694  27.974  1.00  0.00     0.010 A 
ATOM     35  C   UNL A   1      43.043  23.593  26.937  1.00  0.00    -0.014 A 
BRANCH  35  36
ATOM     36  C   UNL A   1      43.520  24.970  27.244  1.00  0.00     0.031 A 
ATOM     37  C   UNL A   1      42.586  26.025  27.771  1.00  0.00     0.074 A 
ATOM     38  C   UNL A   1      44.801  25.294  26.973  1.00  0.00     0.049 A 
ATOM     39  N   UNL A   1      42.843  27.271  28.081  1.00  0.00    -0.248 NA
ATOM     40  C   UNL A   1      41.180  25.638  27.962  1.00  0.00     0.031 C 
ATOM     41  C   UNL A   1      45.792  24.389  26.386  1.00  0.00     0.029 A 
ATOM     42  N   UNL A   1      45.484  26.475  27.129  1.00  0.00    -0.354 N 
ATOM     43  C   UNL A   1      41.632  27.826  28.479  1.00  0.00     0.074 A 
ATOM     44  C   UNL A   1      40.634  26.784  28.349  1.00  0.00     0.031 C 
ATOM     45  C   UNL A   1      46.951  25.046  26.233  1.00  0.00     0.029 A 
ATOM     46  C   UNL A   1      46.783  26.425  26.679  1.00  0.00     0.049 A 
ATOM     47  H   UNL A   1      45.081  27.282  27.526  1.00  0.00     0.167 HD
ATOM     48  C   UNL A   1      41.378  29.078  28.932  1.00  0.00     0.034 A 
ATOM     49  C   UNL A   1      47.730  27.381  26.617  1.00  0.00     0.034 A 
ATOM     50  C   UNL A   1      42.374  30.109  29.078  1.00  0.00     0.049 A 
ATOM     51  C   UNL A   1      47.424  28.760  27.135  1.00  0.00     0.074 A 
ATOM     52  C   UNL A   1      42.226  31.378  29.613  1.00  0.00     0.029 A 
ATOM     53  N   UNL A   1      43.693  30.004  28.668  1.00  0.00    -0.354 N 
ATOM     54  N   UNL A   1      46.318  29.211  27.674  1.00  0.00    -0.248 NA
ATOM     55  C   UNL A   1      48.507  29.752  27.068  1.00  0.00     0.031 C 
ATOM     56  C   UNL A   1      43.444  32.053  29.489  1.00  0.00     0.029 A 
ATOM     57  C   UNL A   1      44.364  31.192  28.914  1.00  0.00     0.049 A 
ATOM     58  H   UNL A   1      44.096  29.203  28.261  1.00  0.00     0.167 HD
ATOM     59  C   UNL A   1      46.580  30.528  28.036  1.00  0.00     0.074 A 
ATOM     60  C   UNL A   1      47.959  30.793  27.682  1.00  0.00     0.031 C 
ATOM     61  C   UNL A   1      45.748  31.440  28.597  1.00  0.00     0.034 A 
BRANCH  48  62
ATOM     62  C   UNL A   1      39.964  29.403  29.348  1.00  0.00     0.023 A 
ATOM     63  C   UNL A   1      38.986  29.642  28.360  1.00  0.00     0.012 A 
ATOM     64  C   UNL A   1      39.585  29.393  30.705  1.00  0.00     0.148 A 
ATOM     65  C   UNL A   1      37.663  29.902  28.717  1.00  0.00     0.002 A 
ATOM     66  C   UNL A   1      38.254  29.607  31.050  1.00  0.00     0.091 A 
ATOM     67  F   UNL A   1      40.529  29.176  31.631  1.00  0.00    -0.205 F 
ATOM     68  C   UNL A   1      37.296  29.873  30.058  1.00  0.00     0.022 A 
BRANCH  66  69
ATOM     69  S   UNL A   1      37.662  29.514  32.744  1.00  0.00     0.127 S 
ATOM     70  O   UNL A   1      36.371  30.193  32.642  1.00  0.00    -0.237 OA
ATOM     71  O   UNL A   1      37.576  28.069  32.960  1.00  0.00    -0.237 OA
ATOM     72  O   UNL A   1      38.661  30.193  33.558  1.00  0.00    -0.744 OA
ENDBRANCH  66  69
ENDBRANCH  48  62
BRANCH  49  73
ATOM     73  C   UNL A   1      49.083  27.055  26.081  1.00  0.00     0.023 A 
ATOM     74  C   UNL A   1      50.003  26.362  26.892  1.00  0.00     0.012 A 
ATOM     75  C   UNL A   1      49.454  27.408  24.769  1.00  0.00     0.148 A 
ATOM     76  C   UNL A   1      51.281  26.060  26.420  1.00  0.00     0.002 A 
ATOM     77  C   UNL A   1      50.708  27.052  24.285  1.00  0.00     0.091 A 
ATOM     78  F   UNL A   1      48.569  28.076  24.017  1.00  0.00    -0.205 F 
ATOM     79  C   UNL A   1      51.629  26.395  25.115  1.00  0.00     0.022 A 
BRANCH  77  80
ATOM     80  S   UNL A   1      51.198  27.326  22.579  1.00  0.00     0.127 S 
ATOM     81  O   UNL A   1      50.111  26.679  21.850  1.00  0.00    -0.237 OA
ATOM     82  O   UNL A   1      51.209  28.788  22.503  1.00  0.00    -0.237 OA
ATOM     83  O   UNL A   1      52.508  26.706  22.441  1.00  0.00    -0.744 OA
ENDBRANCH  77  80
ENDBRANCH  49  73
BRANCH  61  84
ATOM     84  C   UNL A   1      46.307  32.811  28.892  1.00  0.00     0.023 A 
ATOM     85  C   UNL A   1      46.984  33.045  30.105  1.00  0.00     0.012 A 
ATOM     86  C   UNL A   1      46.213  33.847  27.942  1.00  0.00     0.148 A 
ATOM     87  C   UNL A   1      47.527  34.300  30.384  1.00  0.00     0.002 A 
ATOM     88  C   UNL A   1      46.803  35.079  28.205  1.00  0.00     0.091 A 
ATOM     89  F   UNL A   1      45.551  33.612  26.801  1.00  0.00    -0.205 F 
ATOM     90  C   UNL A   1      47.447  35.311  29.431  1.00  0.00     0.022 A 
BRANCH  88  91
ATOM     91  S   UNL A   1      46.833  36.413  27.002  1.00  0.00     0.127 S 
ATOM     92  O   UNL A   1      45.415  36.753  26.897  1.00  0.00    -0.237 OA
ATOM     93  O   UNL A   1      47.653  37.419  27.677  1.00  0.00    -0.237 OA
ATOM     94  O   UNL A   1      47.430  35.856  25.796  1.00  0.00    -0.744 OA
ENDBRANCH  88  91
ENDBRANCH  61  84
ENDBRANCH  35  36
ENDBRANCH  27  30
ENDBRANCH  25  26
ENDBRANCH  24  25
ENDBRANCH   1  24
TORSDOF 19
ENDMDL
MODEL 3
REMARK VINA RESULT:     -10.7      5.896      8.644
REMARK SMILES CCC(CC)(NC(=O)NCCc1nccs1)C(=O)NCCCNC(=O)c1ccc(-c2c3nc(c(-c4cccc(S(=O)(=O)[O-])c4F)c4ccc([nH]4)c(-c4cccc(S(=O)(=O)[O-])c4F)c4nc(c(-c5cccc(S(=O)(=O)[O-])c5F)c5ccc2[nH]5)C=C4)C=C3)cc1
REMARK SMILES IDX 20 1 19 2 17 3 18 4 3 6 2 7 1 8 4 9 5 10 6 11 7 12 8 14 9 15
REMARK SMILES IDX 10 17 11 18 12 19 13 20 16 21 14 22 15 23 21 24 22 25 23 26
REMARK SMILES IDX 24 27 25 29 26 30 27 31 88 32 28 33 87 34 29 35 30 36 31 37
REMARK SMILES IDX 81 38 32 39 86 40 80 41 82 42 33 43 85 44 79 45 78 46 34 48
REMARK SMILES IDX 66 49 46 50 65 51 47 52 50 53 64 54 83 55 48 56 49 57 63 59
REMARK SMILES IDX 84 60 51 61 35 62 36 63 44 64 37 65 39 66 45 67 38 68 40 69
REMARK SMILES IDX 41 70 42 71 43 72 67 73 68 74 76 75 69 76 71 77 77 78 70 79
REMARK SMILES IDX 72 80 73 81 74 82 75 83 52 84 53 85 61 86 54 87 56 88 62 89
REMARK SMILES IDX 55 90 57 91 58 92 59 93 60 94
REMARK H PARENT 19 5 6 13 9 16 23 28 82 47 50 58
REMARK Flexibility Score: inf
ROOT
ATOM      1  C   UNL A   1      36.109  23.115  23.754  1.00  0.00     0.117 C 
ENDROOT
BRANCH   1   2
ATOM      2  N   UNL A   1      35.388  23.813  24.818  1.00  0.00    -0.354 N 
ATOM      3  C   UNL A   1      34.048  24.035  25.057  1.00  0.00     0.245 C 
ATOM      4  O   UNL A   1      33.751  24.461  26.179  1.00  0.00    -0.272 OA
ATOM      5  H   UNL A   1      35.978  24.204  25.503  1.00  0.00     0.163 HD
BRANCH   3   6
ATOM      6  C   UNL A   1      32.952  23.636  24.028  1.00  0.00     0.120 C 
BRANCH   6   7
ATOM      7  C   UNL A   1      33.295  22.521  22.998  1.00  0.00     0.035 C 
ATOM      8  C   UNL A   1      32.150  21.842  22.257  1.00  0.00     0.007 C 
ENDBRANCH   6   7
BRANCH   6   9
ATOM      9  C   UNL A   1      32.670  24.979  23.258  1.00  0.00     0.035 C 
ATOM     10  C   UNL A   1      31.247  25.515  23.262  1.00  0.00     0.007 C 
ENDBRANCH   6   9
BRANCH   6  11
ATOM     11  N   UNL A   1      31.785  23.162  24.796  1.00  0.00    -0.324 N 
ATOM     12  C   UNL A   1      31.520  22.117  25.592  1.00  0.00     0.315 C 
ATOM     13  H   UNL A   1      31.011  23.763  24.702  1.00  0.00     0.166 HD
ATOM     14  O   UNL A   1      30.335  21.974  25.906  1.00  0.00    -0.249 OA
ATOM     15  N   UNL A   1      32.406  21.288  26.156  1.00  0.00    -0.338 N 
ATOM     16  H   UNL A   1      32.046  20.898  26.986  1.00  0.00     0.165 HD
BRANCH  15  17
ATOM     17  C   UNL A   1      33.757  20.800  25.889  1.00  0.00     0.125 C 
BRANCH  17  18
ATOM     18  C   UNL A   1      33.933  19.876  24.678  1.00  0.00     0.089 C 
BRANCH  18  19
ATOM     19  C   UNL A   1      33.484  18.456  24.858  1.00  0.00     0.094 A 
ATOM     20  N   UNL A   1      32.459  18.060  25.583  1.00  0.00    -0.250 NA
ATOM     21  S   UNL A   1      34.459  17.183  24.213  1.00  0.00    -0.127 S 
ATOM     22  C   UNL A   1      32.427  16.676  25.631  1.00  0.00     0.123 A 
ATOM     23  C   UNL A   1      33.441  16.030  24.961  1.00  0.00     0.087 A 
ENDBRANCH  18  19
ENDBRANCH  17  18
ENDBRANCH  15  17
ENDBRANCH   6  11
ENDBRANCH   3   6
ENDBRANCH   1   2
BRANCH   1  24
ATOM     24  C   UNL A   1      37.056  21.975  24.128  1.00  0.00     0.042 C 
BRANCH  24  25
ATOM     25  C   UNL A   1      37.347  21.710  25.596  1.00  0.00     0.118 C 
BRANCH  25  26
ATOM     26  N   UNL A   1      38.448  20.793  25.824  1.00  0.00    -0.352 N 
ATOM     27  C   UNL A   1      39.698  21.050  26.340  1.00  0.00     0.251 C 
ATOM     28  H   UNL A   1      38.278  19.856  25.574  1.00  0.00     0.163 HD
ATOM     29  O   UNL A   1      40.530  20.152  26.392  1.00  0.00    -0.269 OA
BRANCH  27  30
ATOM     30  C   UNL A   1      40.053  22.415  26.795  1.00  0.00     0.039 A 
ATOM     31  C   UNL A   1      41.027  22.556  27.788  1.00  0.00     0.014 A 
ATOM     32  C   UNL A   1      39.438  23.548  26.254  1.00  0.00     0.014 A 
ATOM     33  C   UNL A   1      41.434  23.833  28.186  1.00  0.00     0.010 A 
ATOM     34  C   UNL A   1      39.878  24.823  26.621  1.00  0.00     0.010 A 
ATOM     35  C   UNL A   1      40.890  24.980  27.580  1.00  0.00    -0.014 A 
BRANCH  35  36
ATOM     36  C   UNL A   1      41.441  26.331  27.882  1.00  0.00     0.031 A 
ATOM     37  C   UNL A   1      42.865  26.690  27.553  1.00  0.00     0.074 A 
ATOM     38  C   UNL A   1      40.666  27.224  28.530  1.00  0.00     0.049 A 
ATOM     39  N   UNL A   1      43.497  27.818  27.757  1.00  0.00    -0.248 NA
ATOM     40  C   UNL A   1      43.690  25.645  26.927  1.00  0.00     0.031 C 
ATOM     41  C   UNL A   1      39.293  26.977  28.979  1.00  0.00     0.029 A 
ATOM     42  N   UNL A   1      40.924  28.506  28.949  1.00  0.00    -0.354 N 
ATOM     43  C   UNL A   1      44.798  27.616  27.311  1.00  0.00     0.074 A 
ATOM     44  C   UNL A   1      44.870  26.246  26.846  1.00  0.00     0.031 C 
ATOM     45  C   UNL A   1      38.832  28.069  29.606  1.00  0.00     0.029 A 
ATOM     46  C   UNL A   1      39.881  29.083  29.636  1.00  0.00     0.049 A 
ATOM     47  H   UNL A   1      41.775  28.968  28.773  1.00  0.00     0.167 HD
ATOM     48  C   UNL A   1      45.830  28.494  27.271  1.00  0.00     0.034 A 
ATOM     49  C   UNL A   1      39.780  30.285  30.236  1.00  0.00     0.034 A 
ATOM     50  C   UNL A   1      45.753  29.862  27.718  1.00  0.00     0.049 A 
ATOM     51  C   UNL A   1      40.938  31.244  30.168  1.00  0.00     0.074 A 
ATOM     52  C   UNL A   1      46.720  30.849  27.633  1.00  0.00     0.029 A 
ATOM     53  N   UNL A   1      44.661  30.430  28.355  1.00  0.00    -0.354 N 
ATOM     54  N   UNL A   1      42.100  31.093  29.582  1.00  0.00    -0.248 NA
ATOM     55  C   UNL A   1      40.758  32.551  30.816  1.00  0.00     0.031 C 
ATOM     56  C   UNL A   1      46.228  32.002  28.254  1.00  0.00     0.029 A 
ATOM     57  C   UNL A   1      44.939  31.746  28.690  1.00  0.00     0.049 A 
ATOM     58  H   UNL A   1      43.813  29.968  28.541  1.00  0.00     0.167 HD
ATOM     59  C   UNL A   1      42.778  32.294  29.764  1.00  0.00     0.074 A 
ATOM     60  C   UNL A   1      41.884  33.172  30.490  1.00  0.00     0.031 C 
ATOM     61  C   UNL A   1      44.033  32.632  29.378  1.00  0.00     0.034 A 
BRANCH  48  62
ATOM     62  C   UNL A   1      47.137  28.019  26.684  1.00  0.00     0.023 A 
ATOM     63  C   UNL A   1      48.140  27.515  27.537  1.00  0.00     0.012 A 
ATOM     64  C   UNL A   1      47.341  27.995  25.290  1.00  0.00     0.148 A 
ATOM     65  C   UNL A   1      49.339  27.029  27.016  1.00  0.00     0.002 A 
ATOM     66  C   UNL A   1      48.521  27.467  24.775  1.00  0.00     0.091 A 
ATOM     67  F   UNL A   1      46.382  28.490  24.494  1.00  0.00    -0.205 F 
ATOM     68  C   UNL A   1      49.524  26.996  25.637  1.00  0.00     0.022 A 
BRANCH  66  69
ATOM     69  S   UNL A   1      48.826  27.306  23.012  1.00  0.00     0.127 S 
ATOM     70  O   UNL A   1      48.096  28.456  22.481  1.00  0.00    -0.237 OA
ATOM     71  O   UNL A   1      50.283  27.423  22.941  1.00  0.00    -0.237 OA
ATOM     72  O   UNL A   1      48.300  26.003  22.630  1.00  0.00    -0.744 OA
ENDBRANCH  66  69
ENDBRANCH  48  62
BRANCH  49  73
ATOM     73  C   UNL A   1      38.513  30.673  30.918  1.00  0.00     0.023 A 
ATOM     74  C   UNL A   1      38.319  30.329  32.271  1.00  0.00     0.012 A 
ATOM     75  C   UNL A   1      37.509  31.394  30.243  1.00  0.00     0.148 A 
ATOM     76  C   UNL A   1      37.134  30.665  32.927  1.00  0.00     0.002 A 
ATOM     77  C   UNL A   1      36.357  31.776  30.919  1.00  0.00     0.091 A 
ATOM     78  F   UNL A   1      37.708  31.702  28.953  1.00  0.00    -0.205 F 
ATOM     79  C   UNL A   1      36.159  31.397  32.255  1.00  0.00     0.022 A 
BRANCH  77  80
ATOM     80  S   UNL A   1      35.105  32.829  30.177  1.00  0.00     0.127 S 
ATOM     81  O   UNL A   1      34.633  31.997  29.074  1.00  0.00    -0.237 OA
ATOM     82  O   UNL A   1      34.157  32.988  31.280  1.00  0.00    -0.237 OA
ATOM     83  O   UNL A   1      35.795  34.052  29.794  1.00  0.00    -0.744 OA
ENDBRANCH  77  80
ENDBRANCH  49  73
BRANCH  61  84
ATOM     84  C   UNL A   1      44.516  34.023  29.707  1.00  0.00     0.023 A 
ATOM     85  C   UNL A   1      45.296  34.241  30.860  1.00  0.00     0.012 A 
ATOM     86  C   UNL A   1      44.248  35.102  28.841  1.00  0.00     0.148 A 
ATOM     87  C   UNL A   1      45.772  35.516  31.165  1.00  0.00     0.002 A 
ATOM     88  C   UNL A   1      44.769  36.360  29.125  1.00  0.00     0.091 A 
ATOM     89  F   UNL A   1      43.491  34.881  27.758  1.00  0.00    -0.205 F 
ATOM     90  C   UNL A   1      45.518  36.572  30.294  1.00  0.00     0.022 A 
BRANCH  88  91
ATOM     91  S   UNL A   1      44.576  37.760  28.016  1.00  0.00     0.127 S 
ATOM     92  O   UNL A   1      45.353  37.330  26.854  1.00  0.00    -0.237 OA
ATOM     93  O   UNL A   1      43.129  37.790  27.805  1.00  0.00    -0.237 OA
ATOM     94  O   UNL A   1      45.108  38.915  28.727  1.00  0.00    -0.744 OA
ENDBRANCH  88  91
ENDBRANCH  61  84
ENDBRANCH  35  36
ENDBRANCH  27  30
ENDBRANCH  25  26
ENDBRANCH  24  25
ENDBRANCH   1  24
TORSDOF 19
ENDMDL
