MODEL 1
REMARK VINA RESULT:     -11.5      0.000      0.000
REMARK SMILES Cc1nc(C[NH2+][C@@H](C(=O)NCCCNC(=O)c2ccc(-c3c4nc(c(-c5cccc(S(=O)(=O)[O-])c5F)c5ccc([nH]5)c(-c5cccc(S(=O)(=O)[O-])c5F)c5nc(c(-c6cccc(S(=O)(=O)[O-])c6F)c6ccc3[nH]6)C=C5)C=C4)cc2)c2ccccc2)sc1C
REMARK SMILES IDX 12 1 11 2 10 3 8 4 9 5 7 7 6 8 5 11 4 12 1 13 2 14 3 15
REMARK SMILES IDX 87 16 86 17 88 18 80 19 81 20 85 21 82 22 84 23 83 24 13 25
REMARK SMILES IDX 14 26 15 27 16 29 17 30 18 31 79 32 19 33 78 34 20 35 21 36
REMARK SMILES IDX 22 37 72 38 23 39 77 40 71 41 73 42 24 43 76 44 70 45 69 46
REMARK SMILES IDX 25 48 57 49 37 50 56 51 38 52 41 53 55 54 74 55 39 56 40 57
REMARK SMILES IDX 54 59 75 60 42 61 26 62 27 63 35 64 28 65 30 66 36 67 29 68
REMARK SMILES IDX 31 69 32 70 33 71 34 72 58 73 59 74 67 75 60 76 62 77 68 78
REMARK SMILES IDX 61 79 63 80 64 81 65 82 66 83 43 84 44 85 52 86 45 87 47 88
REMARK SMILES IDX 53 89 46 90 48 91 49 92 50 93 51 94
REMARK H PARENT 10 6 6 9 6 10 14 28 73 47 41 58
REMARK Flexibility Score: inf
ROOT
ATOM      1  C   UNL A   1      33.985  28.672  24.213  1.00  0.00     0.042 C 
ENDROOT
BRANCH   1   2
ATOM      2  C   UNL A   1      33.111  29.068  23.010  1.00  0.00     0.118 C 
BRANCH   2   3
ATOM      3  N   UNL A   1      32.486  27.917  22.367  1.00  0.00    -0.351 N 
ATOM      4  C   UNL A   1      31.468  27.073  22.720  1.00  0.00     0.283 C 
ATOM      5  O   UNL A   1      31.357  26.073  22.002  1.00  0.00    -0.268 OA
ATOM      6  H   UNL A   1      32.883  27.701  21.493  1.00  0.00     0.163 HD
BRANCH   4   7
ATOM      7  C   UNL A   1      30.518  27.346  23.943  1.00  0.00     0.304 C 
BRANCH   7   8
ATOM      8  N   UNL A   1      29.724  26.144  24.327  1.00  0.00    -0.326 N 
ATOM      9  H   UNL A   1      28.731  26.359  24.234  1.00  0.00     0.347 HD
ATOM     10  H   UNL A   1      29.987  25.375  23.712  1.00  0.00     0.347 HD
BRANCH   8  11
ATOM     11  C   UNL A   1      29.995  25.745  25.703  1.00  0.00     0.330 C 
BRANCH  11  12
ATOM     12  C   UNL A   1      30.750  24.464  25.916  1.00  0.00     0.148 A 
ATOM     13  C   UNL A   1      32.997  22.495  27.920  1.00  0.00     0.068 C 
ATOM     14  C   UNL A   1      32.199  23.030  26.785  1.00  0.00     0.052 A 
ATOM     15  N   UNL A   1      31.340  24.097  27.033  1.00  0.00    -0.240 NA
ATOM     16  C   UNL A   1      32.252  22.614  25.465  1.00  0.00     0.025 A 
ATOM     17  S   UNL A   1      31.105  23.481  24.542  1.00  0.00    -0.118 S 
ATOM     18  C   UNL A   1      33.127  21.588  24.824  1.00  0.00     0.058 C 
ENDBRANCH  11  12
ENDBRANCH   8  11
ENDBRANCH   7   8
BRANCH   7  19
ATOM     19  C   UNL A   1      29.544  28.491  23.628  1.00  0.00     0.019 A 
ATOM     20  C   UNL A   1      28.235  28.226  23.182  1.00  0.00     0.010 A 
ATOM     21  C   UNL A   1      29.926  29.832  23.788  1.00  0.00     0.010 A 
ATOM     22  C   UNL A   1      27.342  29.259  22.892  1.00  0.00     0.001 A 
ATOM     23  C   UNL A   1      29.029  30.868  23.500  1.00  0.00     0.001 A 
ATOM     24  C   UNL A   1      27.740  30.581  23.050  1.00  0.00     0.000 A 
ENDBRANCH   7  19
ENDBRANCH   4   7
ENDBRANCH   2   3
ENDBRANCH   1   2
BRANCH   1  25
ATOM     25  C   UNL A   1      33.316  28.805  25.579  1.00  0.00     0.118 C 
BRANCH  25  26
ATOM     26  N   UNL A   1      32.956  30.179  25.876  1.00  0.00    -0.352 N 
ATOM     27  C   UNL A   1      33.444  31.030  26.839  1.00  0.00     0.251 C 
ATOM     28  H   UNL A   1      32.254  30.560  25.299  1.00  0.00     0.163 HD
ATOM     29  O   UNL A   1      32.833  32.071  27.069  1.00  0.00    -0.269 OA
BRANCH  27  30
ATOM     30  C   UNL A   1      34.675  30.715  27.612  1.00  0.00     0.039 A 
ATOM     31  C   UNL A   1      34.755  29.480  28.265  1.00  0.00     0.014 A 
ATOM     32  C   UNL A   1      35.716  31.636  27.764  1.00  0.00     0.014 A 
ATOM     33  C   UNL A   1      35.882  29.156  29.030  1.00  0.00     0.010 A 
ATOM     34  C   UNL A   1      36.874  31.282  28.464  1.00  0.00     0.010 A 
ATOM     35  C   UNL A   1      36.965  30.046  29.120  1.00  0.00    -0.014 A 
BRANCH  35  36
ATOM     36  C   UNL A   1      38.183  29.696  29.903  1.00  0.00     0.031 A 
ATOM     37  C   UNL A   1      38.410  30.276  31.278  1.00  0.00     0.074 A 
ATOM     38  C   UNL A   1      39.127  28.902  29.356  1.00  0.00     0.049 A 
ATOM     39  N   UNL A   1      39.418  30.096  32.094  1.00  0.00    -0.248 NA
ATOM     40  C   UNL A   1      37.382  31.194  31.794  1.00  0.00     0.031 C 
ATOM     41  C   UNL A   1      39.078  28.341  28.006  1.00  0.00     0.029 A 
ATOM     42  N   UNL A   1      40.323  28.449  29.860  1.00  0.00    -0.354 N 
ATOM     43  C   UNL A   1      39.168  30.904  33.197  1.00  0.00     0.074 A 
ATOM     44  C   UNL A   1      37.926  31.599  32.934  1.00  0.00     0.031 C 
ATOM     45  C   UNL A   1      40.186  27.614  27.790  1.00  0.00     0.029 A 
ATOM     46  C   UNL A   1      41.038  27.676  28.974  1.00  0.00     0.049 A 
ATOM     47  H   UNL A   1      40.638  28.659  30.768  1.00  0.00     0.167 HD
ATOM     48  C   UNL A   1      39.882  31.033  34.341  1.00  0.00     0.034 A 
ATOM     49  C   UNL A   1      42.243  27.083  29.098  1.00  0.00     0.034 A 
ATOM     50  C   UNL A   1      41.086  30.301  34.630  1.00  0.00     0.049 A 
ATOM     51  C   UNL A   1      42.989  27.194  30.400  1.00  0.00     0.074 A 
ATOM     52  C   UNL A   1      41.826  30.290  35.800  1.00  0.00     0.029 A 
ATOM     53  N   UNL A   1      41.730  29.452  33.744  1.00  0.00    -0.354 N 
ATOM     54  N   UNL A   1      42.645  27.826  31.495  1.00  0.00    -0.248 NA
ATOM     55  C   UNL A   1      44.269  26.476  30.499  1.00  0.00     0.031 C 
ATOM     56  C   UNL A   1      42.927  29.447  35.613  1.00  0.00     0.029 A 
ATOM     57  C   UNL A   1      42.861  28.918  34.335  1.00  0.00     0.049 A 
ATOM     58  H   UNL A   1      41.426  29.257  32.827  1.00  0.00     0.167 HD
ATOM     59  C   UNL A   1      43.646  27.556  32.423  1.00  0.00     0.074 A 
ATOM     60  C   UNL A   1      44.599  26.684  31.767  1.00  0.00     0.031 C 
ATOM     61  C   UNL A   1      43.772  28.006  33.695  1.00  0.00     0.034 A 
BRANCH  48  62
ATOM     62  C   UNL A   1      39.345  31.958  35.403  1.00  0.00     0.023 A 
ATOM     63  C   UNL A   1      38.393  31.475  36.324  1.00  0.00     0.012 A 
ATOM     64  C   UNL A   1      39.826  33.276  35.536  1.00  0.00     0.148 A 
ATOM     65  C   UNL A   1      37.902  32.297  37.337  1.00  0.00     0.002 A 
ATOM     66  C   UNL A   1      39.363  34.076  36.575  1.00  0.00     0.091 A 
ATOM     67  F   UNL A   1      40.718  33.725  34.641  1.00  0.00    -0.205 F 
ATOM     68  C   UNL A   1      38.394  33.592  37.469  1.00  0.00     0.022 A 
BRANCH  66  69
ATOM     69  S   UNL A   1      39.992  35.732  36.876  1.00  0.00     0.127 S 
ATOM     70  O   UNL A   1      39.278  36.102  38.097  1.00  0.00    -0.237 OA
ATOM     71  O   UNL A   1      41.424  35.490  37.057  1.00  0.00    -0.237 OA
ATOM     72  O   UNL A   1      39.656  36.510  35.691  1.00  0.00    -0.744 OA
ENDBRANCH  66  69
ENDBRANCH  48  62
BRANCH  49  73
ATOM     73  C   UNL A   1      42.781  26.266  27.973  1.00  0.00     0.023 A 
ATOM     74  C   UNL A   1      43.780  26.807  27.140  1.00  0.00     0.012 A 
ATOM     75  C   UNL A   1      42.345  24.946  27.751  1.00  0.00     0.148 A 
ATOM     76  C   UNL A   1      44.315  26.059  26.091  1.00  0.00     0.002 A 
ATOM     77  C   UNL A   1      42.923  24.185  26.742  1.00  0.00     0.091 A 
ATOM     78  F   UNL A   1      41.382  24.452  28.542  1.00  0.00    -0.205 F 
ATOM     79  C   UNL A   1      43.895  24.745  25.899  1.00  0.00     0.022 A 
BRANCH  77  80
ATOM     80  S   UNL A   1      42.545  22.441  26.528  1.00  0.00     0.127 S 
ATOM     81  O   UNL A   1      43.480  22.056  25.476  1.00  0.00    -0.237 OA
ATOM     82  O   UNL A   1      42.847  21.897  27.853  1.00  0.00    -0.237 OA
ATOM     83  O   UNL A   1      41.131  22.391  26.178  1.00  0.00    -0.744 OA
ENDBRANCH  77  80
ENDBRANCH  49  73
BRANCH  61  84
ATOM     84  C   UNL A   1      44.969  27.544  34.488  1.00  0.00     0.023 A 
ATOM     85  C   UNL A   1      46.140  28.327  34.502  1.00  0.00     0.012 A 
ATOM     86  C   UNL A   1      44.904  26.382  35.281  1.00  0.00     0.148 A 
ATOM     87  C   UNL A   1      47.238  27.946  35.272  1.00  0.00     0.002 A 
ATOM     88  C   UNL A   1      45.985  26.032  36.081  1.00  0.00     0.091 A 
ATOM     89  F   UNL A   1      43.789  25.640  35.239  1.00  0.00    -0.205 F 
ATOM     90  C   UNL A   1      47.157  26.807  36.070  1.00  0.00     0.022 A 
BRANCH  88  91
ATOM     91  S   UNL A   1      45.935  24.634  37.209  1.00  0.00     0.127 S 
ATOM     92  O   UNL A   1      47.265  24.691  37.813  1.00  0.00    -0.237 OA
ATOM     93  O   UNL A   1      44.840  24.998  38.109  1.00  0.00    -0.237 OA
ATOM     94  O   UNL A   1      45.672  23.463  36.383  1.00  0.00    -0.744 OA
ENDBRANCH  88  91
ENDBRANCH  61  84
ENDBRANCH  35  36
ENDBRANCH  27  30
ENDBRANCH  25  26
ENDBRANCH   1  25
TORSDOF 17
ENDMDL
MODEL 2
REMARK VINA RESULT:     -11.4      1.302      1.991
REMARK SMILES Cc1nc(C[NH2+][C@@H](C(=O)NCCCNC(=O)c2ccc(-c3c4nc(c(-c5cccc(S(=O)(=O)[O-])c5F)c5ccc([nH]5)c(-c5cccc(S(=O)(=O)[O-])c5F)c5nc(c(-c6cccc(S(=O)(=O)[O-])c6F)c6ccc3[nH]6)C=C5)C=C4)cc2)c2ccccc2)sc1C
REMARK SMILES IDX 12 1 11 2 10 3 8 4 9 5 7 7 6 8 5 11 4 12 1 13 2 14 3 15
REMARK SMILES IDX 87 16 86 17 88 18 80 19 81 20 85 21 82 22 84 23 83 24 13 25
REMARK SMILES IDX 14 26 15 27 16 29 17 30 18 31 79 32 19 33 78 34 20 35 21 36
REMARK SMILES IDX 22 37 72 38 23 39 77 40 71 41 73 42 24 43 76 44 70 45 69 46
REMARK SMILES IDX 25 48 57 49 37 50 56 51 38 52 41 53 55 54 74 55 39 56 40 57
REMARK SMILES IDX 54 59 75 60 42 61 26 62 27 63 35 64 28 65 30 66 36 67 29 68
REMARK SMILES IDX 31 69 32 70 33 71 34 72 58 73 59 74 67 75 60 76 62 77 68 78
REMARK SMILES IDX 61 79 63 80 64 81 65 82 66 83 43 84 44 85 52 86 45 87 47 88
REMARK SMILES IDX 53 89 46 90 48 91 49 92 50 93 51 94
REMARK H PARENT 10 6 6 9 6 10 14 28 73 47 41 58
REMARK Flexibility Score: inf
ROOT
ATOM      1  C   UNL A   1      31.744  28.520  26.283  1.00  0.00     0.042 C 
ENDROOT
BRANCH   1   2
ATOM      2  C   UNL A   1      32.261  27.083  26.472  1.00  0.00     0.118 C 
BRANCH   2   3
ATOM      3  N   UNL A   1      31.203  26.150  26.842  1.00  0.00    -0.351 N 
ATOM      4  C   UNL A   1      30.342  25.363  26.126  1.00  0.00     0.283 C 
ATOM      5  O   UNL A   1      29.434  24.856  26.793  1.00  0.00    -0.268 OA
ATOM      6  H   UNL A   1      31.082  26.069  27.815  1.00  0.00     0.163 HD
BRANCH   4   7
ATOM      7  C   UNL A   1      30.488  25.126  24.578  1.00  0.00     0.304 C 
BRANCH   7   8
ATOM      8  N   UNL A   1      31.844  24.634  24.202  1.00  0.00    -0.326 N 
ATOM      9  H   UNL A   1      31.960  24.719  23.192  1.00  0.00     0.347 HD
ATOM     10  H   UNL A   1      32.538  25.195  24.694  1.00  0.00     0.347 HD
BRANCH   8  11
ATOM     11  C   UNL A   1      32.027  23.239  24.584  1.00  0.00     0.330 C 
BRANCH  11  12
ATOM     12  C   UNL A   1      33.392  22.824  25.054  1.00  0.00     0.148 A 
ATOM     13  C   UNL A   1      36.791  23.704  25.842  1.00  0.00     0.068 C 
ATOM     14  C   UNL A   1      35.563  22.945  25.484  1.00  0.00     0.052 A 
ATOM     15  N   UNL A   1      34.358  23.639  25.421  1.00  0.00    -0.240 NA
ATOM     16  C   UNL A   1      35.486  21.604  25.147  1.00  0.00     0.025 A 
ATOM     17  S   UNL A   1      33.855  21.171  24.878  1.00  0.00    -0.118 S 
ATOM     18  C   UNL A   1      36.576  20.594  25.001  1.00  0.00     0.058 C 
ENDBRANCH  11  12
ENDBRANCH   8  11
ENDBRANCH   7   8
BRANCH   7  19
ATOM     19  C   UNL A   1      30.210  26.423  23.803  1.00  0.00     0.019 A 
ATOM     20  C   UNL A   1      28.935  27.022  23.827  1.00  0.00     0.010 A 
ATOM     21  C   UNL A   1      31.220  27.056  23.062  1.00  0.00     0.010 A 
ATOM     22  C   UNL A   1      28.672  28.200  23.126  1.00  0.00     0.001 A 
ATOM     23  C   UNL A   1      30.956  28.239  22.362  1.00  0.00     0.001 A 
ATOM     24  C   UNL A   1      29.683  28.808  22.392  1.00  0.00     0.000 A 
ENDBRANCH   7  19
ENDBRANCH   4   7
ENDBRANCH   2   3
ENDBRANCH   1   2
BRANCH   1  25
ATOM     25  C   UNL A   1      32.709  29.476  25.586  1.00  0.00     0.118 C 
BRANCH  25  26
ATOM     26  N   UNL A   1      32.469  30.857  25.959  1.00  0.00    -0.352 N 
ATOM     27  C   UNL A   1      33.037  31.612  26.959  1.00  0.00     0.251 C 
ATOM     28  H   UNL A   1      31.797  31.326  25.413  1.00  0.00     0.163 HD
ATOM     29  O   UNL A   1      32.518  32.687  27.250  1.00  0.00    -0.269 OA
BRANCH  27  30
ATOM     30  C   UNL A   1      34.244  31.154  27.697  1.00  0.00     0.039 A 
ATOM     31  C   UNL A   1      35.266  32.078  27.942  1.00  0.00     0.014 A 
ATOM     32  C   UNL A   1      34.420  29.823  28.086  1.00  0.00     0.014 A 
ATOM     33  C   UNL A   1      36.434  31.682  28.604  1.00  0.00     0.010 A 
ATOM     34  C   UNL A   1      35.552  29.445  28.816  1.00  0.00     0.010 A 
ATOM     35  C   UNL A   1      36.581  30.364  29.068  1.00  0.00    -0.014 A 
BRANCH  35  36
ATOM     36  C   UNL A   1      37.805  29.941  29.805  1.00  0.00     0.031 A 
ATOM     37  C   UNL A   1      38.095  30.469  31.188  1.00  0.00     0.074 A 
ATOM     38  C   UNL A   1      38.698  29.125  29.207  1.00  0.00     0.049 A 
ATOM     39  N   UNL A   1      39.117  30.224  31.968  1.00  0.00    -0.248 NA
ATOM     40  C   UNL A   1      37.122  31.414  31.761  1.00  0.00     0.031 C 
ATOM     41  C   UNL A   1      38.587  28.607  27.843  1.00  0.00     0.029 A 
ATOM     42  N   UNL A   1      39.888  28.608  29.662  1.00  0.00    -0.354 N 
ATOM     43  C   UNL A   1      38.933  31.008  33.101  1.00  0.00     0.074 A 
ATOM     44  C   UNL A   1      37.714  31.762  32.895  1.00  0.00     0.031 C 
ATOM     45  C   UNL A   1      39.657  27.841  27.574  1.00  0.00     0.029 A 
ATOM     46  C   UNL A   1      40.543  27.832  28.734  1.00  0.00     0.049 A 
ATOM     47  H   UNL A   1      40.237  28.777  30.566  1.00  0.00     0.167 HD
ATOM     48  C   UNL A   1      39.684  31.073  34.226  1.00  0.00     0.034 A 
ATOM     49  C   UNL A   1      41.725  27.186  28.805  1.00  0.00     0.034 A 
ATOM     50  C   UNL A   1      40.863  30.283  34.459  1.00  0.00     0.049 A 
ATOM     51  C   UNL A   1      42.511  27.226  30.087  1.00  0.00     0.074 A 
ATOM     52  C   UNL A   1      41.635  30.206  35.605  1.00  0.00     0.029 A 
ATOM     53  N   UNL A   1      41.445  29.435  33.530  1.00  0.00    -0.354 N 
ATOM     54  N   UNL A   1      42.226  27.840  31.210  1.00  0.00    -0.248 NA
ATOM     55  C   UNL A   1      43.763  26.453  30.128  1.00  0.00     0.031 C 
ATOM     56  C   UNL A   1      42.693  29.323  35.362  1.00  0.00     0.029 A 
ATOM     57  C   UNL A   1      42.568  28.836  34.072  1.00  0.00     0.049 A 
ATOM     58  H   UNL A   1      41.108  29.280  32.618  1.00  0.00     0.167 HD
ATOM     59  C   UNL A   1      43.241  27.500  32.099  1.00  0.00     0.074 A 
ATOM     60  C   UNL A   1      44.137  26.610  31.390  1.00  0.00     0.031 C 
ATOM     61  C   UNL A   1      43.422  27.906  33.380  1.00  0.00     0.034 A 
BRANCH  48  62
ATOM     62  C   UNL A   1      39.217  31.987  35.331  1.00  0.00     0.023 A 
ATOM     63  C   UNL A   1      38.291  31.508  36.280  1.00  0.00     0.012 A 
ATOM     64  C   UNL A   1      39.739  33.288  35.471  1.00  0.00     0.148 A 
ATOM     65  C   UNL A   1      37.866  32.320  37.331  1.00  0.00     0.002 A 
ATOM     66  C   UNL A   1      39.341  34.077  36.546  1.00  0.00     0.091 A 
ATOM     67  F   UNL A   1      40.604  33.734  34.549  1.00  0.00    -0.205 F 
ATOM     68  C   UNL A   1      38.398  33.598  37.470  1.00  0.00     0.022 A 
BRANCH  66  69
ATOM     69  S   UNL A   1      40.028  35.708  36.855  1.00  0.00     0.127 S 
ATOM     70  O   UNL A   1      41.455  35.411  36.969  1.00  0.00    -0.237 OA
ATOM     71  O   UNL A   1      39.652  36.437  35.643  1.00  0.00    -0.237 OA
ATOM     72  O   UNL A   1      39.387  36.188  38.072  1.00  0.00    -0.744 OA
ENDBRANCH  66  69
ENDBRANCH  48  62
BRANCH  49  73
ATOM     73  C   UNL A   1      42.196  26.381  27.642  1.00  0.00     0.023 A 
ATOM     74  C   UNL A   1      43.070  26.964  26.704  1.00  0.00     0.012 A 
ATOM     75  C   UNL A   1      41.821  25.033  27.482  1.00  0.00     0.148 A 
ATOM     76  C   UNL A   1      43.541  26.230  25.615  1.00  0.00     0.002 A 
ATOM     77  C   UNL A   1      42.340  24.289  26.430  1.00  0.00     0.091 A 
ATOM     78  F   UNL A   1      40.975  24.498  28.375  1.00  0.00    -0.205 F 
ATOM     79  C   UNL A   1      43.186  24.890  25.485  1.00  0.00     0.022 A 
BRANCH  77  80
ATOM     80  S   UNL A   1      42.050  22.522  26.279  1.00  0.00     0.127 S 
ATOM     81  O   UNL A   1      40.594  22.461  26.210  1.00  0.00    -0.237 OA
ATOM     82  O   UNL A   1      42.742  22.203  25.029  1.00  0.00    -0.237 OA
ATOM     83  O   UNL A   1      42.660  21.926  27.461  1.00  0.00    -0.744 OA
ENDBRANCH  77  80
ENDBRANCH  49  73
BRANCH  61  84
ATOM     84  C   UNL A   1      44.619  27.371  34.123  1.00  0.00     0.023 A 
ATOM     85  C   UNL A   1      45.835  28.084  34.091  1.00  0.00     0.012 A 
ATOM     86  C   UNL A   1      44.518  26.212  34.917  1.00  0.00     0.148 A 
ATOM     87  C   UNL A   1      46.938  27.635  34.816  1.00  0.00     0.002 A 
ATOM     88  C   UNL A   1      45.608  25.796  35.672  1.00  0.00     0.091 A 
ATOM     89  F   UNL A   1      43.359  25.538  34.918  1.00  0.00    -0.205 F 
ATOM     90  C   UNL A   1      46.822  26.500  35.615  1.00  0.00     0.022 A 
BRANCH  88  91
ATOM     91  S   UNL A   1      45.520  24.399  36.800  1.00  0.00     0.127 S 
ATOM     92  O   UNL A   1      44.466  24.824  37.718  1.00  0.00    -0.237 OA
ATOM     93  O   UNL A   1      45.147  23.301  35.908  1.00  0.00    -0.237 OA
ATOM     94  O   UNL A   1      46.849  24.275  37.385  1.00  0.00    -0.744 OA
ENDBRANCH  88  91
ENDBRANCH  61  84
ENDBRANCH  35  36
ENDBRANCH  27  30
ENDBRANCH  25  26
ENDBRANCH   1  25
TORSDOF 17
ENDMDL
MODEL 3
REMARK VINA RESULT:     -11.4      1.831      2.356
REMARK SMILES Cc1nc(C[NH2+][C@@H](C(=O)NCCCNC(=O)c2ccc(-c3c4nc(c(-c5cccc(S(=O)(=O)[O-])c5F)c5ccc([nH]5)c(-c5cccc(S(=O)(=O)[O-])c5F)c5nc(c(-c6cccc(S(=O)(=O)[O-])c6F)c6ccc3[nH]6)C=C5)C=C4)cc2)c2ccccc2)sc1C
REMARK SMILES IDX 12 1 11 2 10 3 8 4 9 5 7 7 6 8 5 11 4 12 1 13 2 14 3 15
REMARK SMILES IDX 87 16 86 17 88 18 80 19 81 20 85 21 82 22 84 23 83 24 13 25
REMARK SMILES IDX 14 26 15 27 16 29 17 30 18 31 79 32 19 33 78 34 20 35 21 36
REMARK SMILES IDX 22 37 72 38 23 39 77 40 71 41 73 42 24 43 76 44 70 45 69 46
REMARK SMILES IDX 25 48 57 49 37 50 56 51 38 52 41 53 55 54 74 55 39 56 40 57
REMARK SMILES IDX 54 59 75 60 42 61 26 62 27 63 35 64 28 65 30 66 36 67 29 68
REMARK SMILES IDX 31 69 32 70 33 71 34 72 58 73 59 74 67 75 60 76 62 77 68 78
REMARK SMILES IDX 61 79 63 80 64 81 65 82 66 83 43 84 44 85 52 86 45 87 47 88
REMARK SMILES IDX 53 89 46 90 48 91 49 92 50 93 51 94
REMARK H PARENT 10 6 6 9 6 10 14 28 73 47 41 58
REMARK Flexibility Score: inf
ROOT
ATOM      1  C   UNL A   1      31.790  28.634  26.246  1.00  0.00     0.042 C 
ENDROOT
BRANCH   1   2
ATOM      2  C   UNL A   1      32.274  27.175  26.178  1.00  0.00     0.118 C 
BRANCH   2   3
ATOM      3  N   UNL A   1      31.220  26.218  26.498  1.00  0.00    -0.351 N 
ATOM      4  C   UNL A   1      30.232  25.619  25.765  1.00  0.00     0.283 C 
ATOM      5  O   UNL A   1      29.388  25.015  26.436  1.00  0.00    -0.268 OA
ATOM      6  H   UNL A   1      31.219  25.947  27.444  1.00  0.00     0.163 HD
BRANCH   4   7
ATOM      7  C   UNL A   1      30.167  25.696  24.195  1.00  0.00     0.304 C 
BRANCH   7   8
ATOM      8  N   UNL A   1      31.519  25.767  23.572  1.00  0.00    -0.326 N 
ATOM      9  H   UNL A   1      31.481  26.395  22.769  1.00  0.00     0.347 HD
ATOM     10  H   UNL A   1      32.177  26.112  24.270  1.00  0.00     0.347 HD
BRANCH   8  11
ATOM     11  C   UNL A   1      31.969  24.454  23.125  1.00  0.00     0.330 C 
BRANCH  11  12
ATOM     12  C   UNL A   1      33.257  23.933  23.696  1.00  0.00     0.148 A 
ATOM     13  C   UNL A   1      36.668  22.903  23.197  1.00  0.00     0.068 C 
ATOM     14  C   UNL A   1      35.305  23.089  23.762  1.00  0.00     0.052 A 
ATOM     15  N   UNL A   1      34.419  23.918  23.079  1.00  0.00    -0.240 NA
ATOM     16  C   UNL A   1      34.784  22.476  24.890  1.00  0.00     0.025 A 
ATOM     17  S   UNL A   1      33.202  23.053  25.179  1.00  0.00    -0.118 S 
ATOM     18  C   UNL A   1      35.400  21.457  25.790  1.00  0.00     0.058 C 
ENDBRANCH  11  12
ENDBRANCH   8  11
ENDBRANCH   7   8
BRANCH   7  19
ATOM     19  C   UNL A   1      29.359  26.922  23.746  1.00  0.00     0.019 A 
ATOM     20  C   UNL A   1      30.000  28.047  23.190  1.00  0.00     0.010 A 
ATOM     21  C   UNL A   1      27.961  26.952  23.863  1.00  0.00     0.010 A 
ATOM     22  C   UNL A   1      29.275  29.167  22.779  1.00  0.00     0.001 A 
ATOM     23  C   UNL A   1      27.234  28.075  23.448  1.00  0.00     0.001 A 
ATOM     24  C   UNL A   1      27.891  29.181  22.909  1.00  0.00     0.000 A 
ENDBRANCH   7  19
ENDBRANCH   4   7
ENDBRANCH   2   3
ENDBRANCH   1   2
BRANCH   1  25
ATOM     25  C   UNL A   1      32.639  29.641  25.476  1.00  0.00     0.118 C 
BRANCH  25  26
ATOM     26  N   UNL A   1      32.375  31.005  25.891  1.00  0.00    -0.352 N 
ATOM     27  C   UNL A   1      32.928  31.739  26.914  1.00  0.00     0.251 C 
ATOM     28  H   UNL A   1      31.695  31.479  25.358  1.00  0.00     0.163 HD
ATOM     29  O   UNL A   1      32.390  32.795  27.238  1.00  0.00    -0.269 OA
BRANCH  27  30
ATOM     30  C   UNL A   1      34.142  31.280  27.639  1.00  0.00     0.039 A 
ATOM     31  C   UNL A   1      35.141  32.217  27.927  1.00  0.00     0.014 A 
ATOM     32  C   UNL A   1      34.348  29.938  27.976  1.00  0.00     0.014 A 
ATOM     33  C   UNL A   1      36.315  31.821  28.579  1.00  0.00     0.010 A 
ATOM     34  C   UNL A   1      35.484  29.558  28.697  1.00  0.00     0.010 A 
ATOM     35  C   UNL A   1      36.491  30.490  28.991  1.00  0.00    -0.014 A 
BRANCH  35  36
ATOM     36  C   UNL A   1      37.721  30.065  29.716  1.00  0.00     0.031 A 
ATOM     37  C   UNL A   1      38.003  30.562  31.113  1.00  0.00     0.074 A 
ATOM     38  C   UNL A   1      38.626  29.278  29.098  1.00  0.00     0.049 A 
ATOM     39  N   UNL A   1      39.029  30.311  31.887  1.00  0.00    -0.248 NA
ATOM     40  C   UNL A   1      37.017  31.476  31.710  1.00  0.00     0.031 C 
ATOM     41  C   UNL A   1      38.522  28.794  27.721  1.00  0.00     0.029 A 
ATOM     42  N   UNL A   1      39.823  28.767  29.539  1.00  0.00    -0.354 N 
ATOM     43  C   UNL A   1      38.833  31.062  33.040  1.00  0.00     0.074 A 
ATOM     44  C   UNL A   1      37.604  31.803  32.853  1.00  0.00     0.031 C 
ATOM     45  C   UNL A   1      39.603  28.052  27.432  1.00  0.00     0.029 A 
ATOM     46  C   UNL A   1      40.490  28.026  28.591  1.00  0.00     0.049 A 
ATOM     47  H   UNL A   1      40.170  28.917  30.448  1.00  0.00     0.167 HD
ATOM     48  C   UNL A   1      39.584  31.109  34.167  1.00  0.00     0.034 A 
ATOM     49  C   UNL A   1      41.681  27.396  28.646  1.00  0.00     0.034 A 
ATOM     50  C   UNL A   1      40.775  30.330  34.378  1.00  0.00     0.049 A 
ATOM     51  C   UNL A   1      42.467  27.414  29.929  1.00  0.00     0.074 A 
ATOM     52  C   UNL A   1      41.548  30.235  35.523  1.00  0.00     0.029 A 
ATOM     53  N   UNL A   1      41.368  29.515  33.428  1.00  0.00    -0.354 N 
ATOM     54  N   UNL A   1      42.173  27.994  31.067  1.00  0.00    -0.248 NA
ATOM     55  C   UNL A   1      43.729  26.659  29.949  1.00  0.00     0.031 C 
ATOM     56  C   UNL A   1      42.618  29.375  35.257  1.00  0.00     0.029 A 
ATOM     57  C   UNL A   1      42.501  28.920  33.955  1.00  0.00     0.049 A 
ATOM     58  H   UNL A   1      41.033  29.380  32.512  1.00  0.00     0.167 HD
ATOM     59  C   UNL A   1      43.193  27.646  31.947  1.00  0.00     0.074 A 
ATOM     60  C   UNL A   1      44.101  26.787  31.216  1.00  0.00     0.031 C 
ATOM     61  C   UNL A   1      43.368  28.021  33.238  1.00  0.00     0.034 A 
BRANCH  48  62
ATOM     62  C   UNL A   1      39.103  31.987  35.294  1.00  0.00     0.023 A 
ATOM     63  C   UNL A   1      39.244  33.386  35.190  1.00  0.00     0.012 A 
ATOM     64  C   UNL A   1      38.456  31.440  36.420  1.00  0.00     0.148 A 
ATOM     65  C   UNL A   1      38.781  34.225  36.202  1.00  0.00     0.002 A 
ATOM     66  C   UNL A   1      37.959  32.287  37.406  1.00  0.00     0.091 A 
ATOM     67  F   UNL A   1      38.347  30.107  36.512  1.00  0.00    -0.205 F 
ATOM     68  C   UNL A   1      38.129  33.677  37.303  1.00  0.00     0.022 A 
BRANCH  66  69
ATOM     69  S   UNL A   1      37.036  31.683  38.825  1.00  0.00     0.127 S 
ATOM     70  O   UNL A   1      36.801  30.289  38.452  1.00  0.00    -0.237 OA
ATOM     71  O   UNL A   1      37.992  31.868  39.917  1.00  0.00    -0.237 OA
ATOM     72  O   UNL A   1      35.846  32.518  38.914  1.00  0.00    -0.744 OA
ENDBRANCH  66  69
ENDBRANCH  48  62
BRANCH  49  73
ATOM     73  C   UNL A   1      42.164  26.628  27.462  1.00  0.00     0.023 A 
ATOM     74  C   UNL A   1      42.938  27.280  26.483  1.00  0.00     0.012 A 
ATOM     75  C   UNL A   1      41.900  25.252  27.323  1.00  0.00     0.148 A 
ATOM     76  C   UNL A   1      43.418  26.584  25.373  1.00  0.00     0.002 A 
ATOM     77  C   UNL A   1      42.431  24.550  26.247  1.00  0.00     0.091 A 
ATOM     78  F   UNL A   1      41.148  24.650  28.255  1.00  0.00    -0.205 F 
ATOM     79  C   UNL A   1      43.174  25.217  25.261  1.00  0.00     0.022 A 
BRANCH  77  80
ATOM     80  S   UNL A   1      42.288  22.764  26.112  1.00  0.00     0.127 S 
ATOM     81  O   UNL A   1      42.923  22.507  24.823  1.00  0.00    -0.237 OA
ATOM     82  O   UNL A   1      43.047  22.306  27.277  1.00  0.00    -0.237 OA
ATOM     83  O   UNL A   1      40.860  22.481  26.189  1.00  0.00    -0.744 OA
ENDBRANCH  77  80
ENDBRANCH  49  73
BRANCH  61  84
ATOM     84  C   UNL A   1      44.573  27.485  33.968  1.00  0.00     0.023 A 
ATOM     85  C   UNL A   1      45.762  28.241  34.000  1.00  0.00     0.012 A 
ATOM     86  C   UNL A   1      44.503  26.275  34.687  1.00  0.00     0.148 A 
ATOM     87  C   UNL A   1      46.870  27.788  34.715  1.00  0.00     0.002 A 
ATOM     88  C   UNL A   1      45.596  25.853  35.433  1.00  0.00     0.091 A 
ATOM     89  F   UNL A   1      43.370  25.561  34.627  1.00  0.00    -0.205 F 
ATOM     90  C   UNL A   1      46.784  26.602  35.441  1.00  0.00     0.022 A 
BRANCH  88  91
ATOM     91  S   UNL A   1      45.543  24.387  36.472  1.00  0.00     0.127 S 
ATOM     92  O   UNL A   1      46.960  24.042  36.572  1.00  0.00    -0.237 OA
ATOM     93  O   UNL A   1      44.950  24.900  37.707  1.00  0.00    -0.237 OA
ATOM     94  O   UNL A   1      44.713  23.424  35.760  1.00  0.00    -0.744 OA
ENDBRANCH  88  91
ENDBRANCH  61  84
ENDBRANCH  35  36
ENDBRANCH  27  30
ENDBRANCH  25  26
ENDBRANCH   1  25
TORSDOF 17
ENDMDL
