MODEL 1
REMARK VINA RESULT:     -12.8      0.000      0.000
REMARK SMILES O=C(NCCCNC(=O)c1ccc2nc(-c3c[nH]nc3-c3ccc(F)cc3F)[nH]c2c1)c1ccc(-c2c3nc(c(-c4cccc(S(=O)(=O)[O-])c4F)c4ccc([nH]4)c(-c4cccc(S(=O)(=O)[O-])c4F)c4nc(c(-c5cccc(S(=O)(=O)[O-])c5F)c5ccc2[nH]5)C=C4)C=C3)cc1
REMARK SMILES IDX 4 1 3 2 1 3 2 4 32 6 33 7 94 8 34 9 93 10 35 11 36 12 37 13
REMARK SMILES IDX 87 14 38 15 92 16 86 17 88 18 39 19 91 20 85 21 84 22 40 24
REMARK SMILES IDX 72 25 52 26 71 27 53 28 56 29 70 30 89 31 54 32 55 33 69 35
REMARK SMILES IDX 90 36 57 37 41 38 42 39 50 40 43 41 45 42 51 43 44 44 46 45
REMARK SMILES IDX 47 46 48 47 49 48 73 49 74 50 82 51 75 52 77 53 83 54 76 55
REMARK SMILES IDX 78 56 79 57 80 58 81 59 58 60 59 61 67 62 60 63 62 64 68 65
REMARK SMILES IDX 61 66 63 67 64 68 65 69 66 70 5 71 6 72 7 73 8 74 9 76 10 77
REMARK SMILES IDX 11 78 31 79 12 80 30 81 13 82 29 83 14 84 15 85 16 87 17 88
REMARK SMILES IDX 20 89 18 90 19 91 21 93 22 94 27 95 23 96 26 97 28 98 24 99
REMARK SMILES IDX 25 100
REMARK H PARENT 3 5 88 23 56 34 7 75 29 86 18 92
REMARK Flexibility Score: inf
ROOT
ATOM      1  C   UNL A   1      36.610  23.395  25.996  1.00  0.00     0.118 C 
ENDROOT
BRANCH   1   2
ATOM      2  N   UNL A   1      37.744  22.491  26.136  1.00  0.00    -0.352 N 
ATOM      3  O   UNL A   1      39.895  21.867  26.309  1.00  0.00    -0.269 OA
ATOM      4  C   UNL A   1      39.057  22.754  26.447  1.00  0.00     0.251 C 
ATOM      5  H   UNL A   1      37.537  21.540  25.984  1.00  0.00     0.163 HD
BRANCH   4   6
ATOM      6  C   UNL A   1      39.459  24.097  26.917  1.00  0.00     0.039 A 
ATOM      7  C   UNL A   1      39.979  25.041  26.028  1.00  0.00     0.014 A 
ATOM      8  C   UNL A   1      39.294  24.429  28.265  1.00  0.00     0.014 A 
ATOM      9  C   UNL A   1      40.491  26.238  26.509  1.00  0.00     0.010 A 
ATOM     10  C   UNL A   1      39.713  25.679  28.729  1.00  0.00     0.010 A 
ATOM     11  C   UNL A   1      40.351  26.580  27.863  1.00  0.00    -0.014 A 
BRANCH  11  12
ATOM     12  C   UNL A   1      40.814  27.912  28.329  1.00  0.00     0.031 A 
ATOM     13  C   UNL A   1      42.272  28.283  28.313  1.00  0.00     0.074 A 
ATOM     14  C   UNL A   1      39.897  28.794  28.775  1.00  0.00     0.049 A 
ATOM     15  N   UNL A   1      42.838  29.405  28.679  1.00  0.00    -0.248 NA
ATOM     16  C   UNL A   1      43.220  27.265  27.831  1.00  0.00     0.031 C 
ATOM     17  C   UNL A   1      38.458  28.532  28.876  1.00  0.00     0.029 A 
ATOM     18  N   UNL A   1      40.032  30.080  29.229  1.00  0.00    -0.354 N 
ATOM     19  C   UNL A   1      44.205  29.216  28.516  1.00  0.00     0.074 A 
ATOM     20  C   UNL A   1      44.386  27.868  28.023  1.00  0.00     0.031 C 
ATOM     21  C   UNL A   1      37.842  29.628  29.340  1.00  0.00     0.029 A 
ATOM     22  C   UNL A   1      38.844  30.648  29.626  1.00  0.00     0.049 A 
ATOM     23  H   UNL A   1      40.896  30.552  29.269  1.00  0.00     0.167 HD
ATOM     24  C   UNL A   1      45.214  30.092  28.744  1.00  0.00     0.034 A 
ATOM     25  C   UNL A   1      38.586  31.848  30.179  1.00  0.00     0.034 A 
ATOM     26  C   UNL A   1      45.022  31.442  29.205  1.00  0.00     0.049 A 
ATOM     27  C   UNL A   1      39.722  32.802  30.405  1.00  0.00     0.074 A 
ATOM     28  C   UNL A   1      45.975  32.426  29.402  1.00  0.00     0.029 A 
ATOM     29  N   UNL A   1      43.799  31.996  29.551  1.00  0.00    -0.354 N 
ATOM     30  N   UNL A   1      40.993  32.649  30.124  1.00  0.00    -0.248 NA
ATOM     31  C   UNL A   1      39.386  34.103  30.998  1.00  0.00     0.031 C 
ATOM     32  C   UNL A   1      45.331  33.567  29.894  1.00  0.00     0.029 A 
ATOM     33  C   UNL A   1      43.974  33.305  29.974  1.00  0.00     0.049 A 
ATOM     34  H   UNL A   1      42.935  31.529  29.505  1.00  0.00     0.167 HD
ATOM     35  C   UNL A   1      41.606  33.843  30.480  1.00  0.00     0.074 A 
ATOM     36  C   UNL A   1      40.562  34.718  30.974  1.00  0.00     0.031 C 
ATOM     37  C   UNL A   1      42.918  34.179  30.417  1.00  0.00     0.034 A 
BRANCH  24  38
ATOM     38  C   UNL A   1      46.622  29.630  28.468  1.00  0.00     0.023 A 
ATOM     39  C   UNL A   1      47.206  29.881  27.210  1.00  0.00     0.012 A 
ATOM     40  C   UNL A   1      47.390  29.007  29.472  1.00  0.00     0.148 A 
ATOM     41  C   UNL A   1      48.520  29.493  26.945  1.00  0.00     0.002 A 
ATOM     42  C   UNL A   1      48.712  28.661  29.215  1.00  0.00     0.091 A 
ATOM     43  F   UNL A   1      46.813  28.757  30.656  1.00  0.00    -0.205 F 
ATOM     44  C   UNL A   1      49.275  28.893  27.948  1.00  0.00     0.022 A 
BRANCH  42  45
ATOM     45  S   UNL A   1      49.791  27.955  30.467  1.00  0.00     0.127 S 
ATOM     46  O   UNL A   1      49.842  29.033  31.453  1.00  0.00    -0.237 OA
ATOM     47  O   UNL A   1      49.039  26.774  30.892  1.00  0.00    -0.237 OA
ATOM     48  O   UNL A   1      51.047  27.662  29.791  1.00  0.00    -0.744 OA
ENDBRANCH  42  45
ENDBRANCH  24  38
BRANCH  25  49
ATOM     49  C   UNL A   1      37.183  32.216  30.517  1.00  0.00     0.023 A 
ATOM     50  C   UNL A   1      36.717  32.039  31.833  1.00  0.00     0.012 A 
ATOM     51  C   UNL A   1      36.330  32.793  29.557  1.00  0.00     0.148 A 
ATOM     52  C   UNL A   1      35.416  32.408  32.181  1.00  0.00     0.002 A 
ATOM     53  C   UNL A   1      35.057  33.212  29.923  1.00  0.00     0.091 A 
ATOM     54  F   UNL A   1      36.791  32.941  28.305  1.00  0.00    -0.205 F 
ATOM     55  C   UNL A   1      34.593  33.005  31.231  1.00  0.00     0.022 A 
BRANCH  53  56
ATOM     56  S   UNL A   1      33.985  34.119  28.804  1.00  0.00     0.127 S 
ATOM     57  O   UNL A   1      34.885  35.150  28.298  1.00  0.00    -0.237 OA
ATOM     58  O   UNL A   1      33.619  33.087  27.833  1.00  0.00    -0.237 OA
ATOM     59  O   UNL A   1      32.875  34.591  29.621  1.00  0.00    -0.744 OA
ENDBRANCH  53  56
ENDBRANCH  25  49
BRANCH  37  60
ATOM     60  C   UNL A   1      43.300  35.566  30.863  1.00  0.00     0.023 A 
ATOM     61  C   UNL A   1      43.649  35.801  32.208  1.00  0.00     0.012 A 
ATOM     62  C   UNL A   1      43.376  36.622  29.934  1.00  0.00     0.148 A 
ATOM     63  C   UNL A   1      44.037  37.072  32.627  1.00  0.00     0.002 A 
ATOM     64  C   UNL A   1      43.811  37.875  30.349  1.00  0.00     0.091 A 
ATOM     65  F   UNL A   1      43.020  36.384  28.664  1.00  0.00    -0.205 F 
ATOM     66  C   UNL A   1      44.128  38.105  31.698  1.00  0.00     0.022 A 
BRANCH  64  67
ATOM     67  S   UNL A   1      44.051  39.238  29.204  1.00  0.00     0.127 S 
ATOM     68  O   UNL A   1      42.685  39.490  28.750  1.00  0.00    -0.237 OA
ATOM     69  O   UNL A   1      44.609  40.276  30.069  1.00  0.00    -0.237 OA
ATOM     70  O   UNL A   1      44.969  38.747  28.184  1.00  0.00    -0.744 OA
ENDBRANCH  64  67
ENDBRANCH  37  60
ENDBRANCH  11  12
ENDBRANCH   4   6
ENDBRANCH   1   2
BRANCH   1  71
ATOM     71  C   UNL A   1      35.366  22.696  25.462  1.00  0.00     0.042 C 
BRANCH  71  72
ATOM     72  C   UNL A   1      34.792  21.659  26.416  1.00  0.00     0.118 C 
BRANCH  72  73
ATOM     73  N   UNL A   1      33.985  20.668  25.718  1.00  0.00    -0.352 N 
ATOM     74  C   UNL A   1      32.662  20.725  25.370  1.00  0.00     0.251 C 
ATOM     75  H   UNL A   1      34.455  19.841  25.461  1.00  0.00     0.163 HD
ATOM     76  O   UNL A   1      32.069  19.722  24.982  1.00  0.00    -0.269 OA
BRANCH  74  77
ATOM     77  C   UNL A   1      31.944  22.008  25.459  1.00  0.00     0.042 A 
ATOM     78  C   UNL A   1      31.244  22.329  26.630  1.00  0.00     0.016 A 
ATOM     79  C   UNL A   1      32.022  22.891  24.371  1.00  0.00     0.042 A 
ATOM     80  C   UNL A   1      30.581  23.553  26.745  1.00  0.00     0.031 A 
ATOM     81  C   UNL A   1      31.336  24.098  24.513  1.00  0.00     0.067 A 
ATOM     82  C   UNL A   1      30.658  24.453  25.675  1.00  0.00     0.089 A 
ATOM     83  N   UNL A   1      31.140  25.165  23.672  1.00  0.00    -0.338 N 
ATOM     84  N   UNL A   1      30.174  25.725  25.584  1.00  0.00    -0.228 NA
ATOM     85  C   UNL A   1      30.480  26.139  24.374  1.00  0.00     0.142 A 
ATOM     86  H   UNL A   1      31.425  25.220  22.731  1.00  0.00     0.168 HD
BRANCH  85  87
ATOM     87  C   UNL A   1      30.181  27.503  23.887  1.00  0.00     0.063 A 
ATOM     88  C   UNL A   1      29.297  27.853  22.898  1.00  0.00     0.117 A 
ATOM     89  C   UNL A   1      30.764  28.719  24.340  1.00  0.00     0.106 A 
ATOM     90  N   UNL A   1      29.315  29.217  22.872  1.00  0.00    -0.284 N 
ATOM     91  N   UNL A   1      30.233  29.766  23.685  1.00  0.00    -0.175 NA
ATOM     92  H   UNL A   1      28.710  29.752  22.309  1.00  0.00     0.189 HD
BRANCH  89  93
ATOM     93  C   UNL A   1      31.894  28.872  25.249  1.00  0.00     0.039 A 
ATOM     94  C   UNL A   1      31.704  29.539  26.474  1.00  0.00     0.016 A 
ATOM     95  C   UNL A   1      33.167  28.398  24.930  1.00  0.00     0.135 A 
ATOM     96  C   UNL A   1      32.774  29.734  27.348  1.00  0.00     0.040 A 
ATOM     97  C   UNL A   1      34.238  28.584  25.802  1.00  0.00     0.079 A 
ATOM     98  F   UNL A   1      33.398  27.770  23.767  1.00  0.00    -0.206 F 
ATOM     99  C   UNL A   1      34.029  29.254  27.002  1.00  0.00     0.126 A 
ATOM    100  F   UNL A   1      35.057  29.440  27.841  1.00  0.00    -0.207 F 
ENDBRANCH  89  93
ENDBRANCH  85  87
ENDBRANCH  74  77
ENDBRANCH  72  73
ENDBRANCH  71  72
ENDBRANCH   1  71
TORSDOF 15
ENDMDL
MODEL 2
REMARK VINA RESULT:     -12.7      2.544      3.249
REMARK SMILES O=C(NCCCNC(=O)c1ccc2nc(-c3c[nH]nc3-c3ccc(F)cc3F)[nH]c2c1)c1ccc(-c2c3nc(c(-c4cccc(S(=O)(=O)[O-])c4F)c4ccc([nH]4)c(-c4cccc(S(=O)(=O)[O-])c4F)c4nc(c(-c5cccc(S(=O)(=O)[O-])c5F)c5ccc2[nH]5)C=C4)C=C3)cc1
REMARK SMILES IDX 4 1 3 2 1 3 2 4 32 6 33 7 94 8 34 9 93 10 35 11 36 12 37 13
REMARK SMILES IDX 87 14 38 15 92 16 86 17 88 18 39 19 91 20 85 21 84 22 40 24
REMARK SMILES IDX 72 25 52 26 71 27 53 28 56 29 70 30 89 31 54 32 55 33 69 35
REMARK SMILES IDX 90 36 57 37 41 38 42 39 50 40 43 41 45 42 51 43 44 44 46 45
REMARK SMILES IDX 47 46 48 47 49 48 73 49 74 50 82 51 75 52 77 53 83 54 76 55
REMARK SMILES IDX 78 56 79 57 80 58 81 59 58 60 59 61 67 62 60 63 62 64 68 65
REMARK SMILES IDX 61 66 63 67 64 68 65 69 66 70 5 71 6 72 7 73 8 74 9 76 10 77
REMARK SMILES IDX 11 78 31 79 12 80 30 81 13 82 29 83 14 84 15 85 16 87 17 88
REMARK SMILES IDX 20 89 18 90 19 91 21 93 22 94 27 95 23 96 26 97 28 98 24 99
REMARK SMILES IDX 25 100
REMARK H PARENT 3 5 88 23 56 34 7 75 29 86 18 92
REMARK Flexibility Score: inf
ROOT
ATOM      1  C   UNL A   1      35.543  22.144  26.156  1.00  0.00     0.118 C 
ENDROOT
BRANCH   1   2
ATOM      2  N   UNL A   1      36.533  21.134  25.802  1.00  0.00    -0.352 N 
ATOM      3  O   UNL A   1      38.522  20.307  25.169  1.00  0.00    -0.269 OA
ATOM      4  C   UNL A   1      37.898  21.233  25.681  1.00  0.00     0.251 C 
ATOM      5  H   UNL A   1      36.164  20.239  25.622  1.00  0.00     0.163 HD
BRANCH   4   6
ATOM      6  C   UNL A   1      38.604  22.449  26.137  1.00  0.00     0.039 A 
ATOM      7  C   UNL A   1      38.128  23.720  25.805  1.00  0.00     0.014 A 
ATOM      8  C   UNL A   1      39.747  22.321  26.931  1.00  0.00     0.014 A 
ATOM      9  C   UNL A   1      38.883  24.844  26.111  1.00  0.00     0.010 A 
ATOM     10  C   UNL A   1      40.448  23.462  27.330  1.00  0.00     0.010 A 
ATOM     11  C   UNL A   1      40.044  24.733  26.891  1.00  0.00    -0.014 A 
BRANCH  11  12
ATOM     12  C   UNL A   1      40.773  25.962  27.292  1.00  0.00     0.031 A 
ATOM     13  C   UNL A   1      42.201  26.195  26.879  1.00  0.00     0.074 A 
ATOM     14  C   UNL A   1      40.130  26.878  28.044  1.00  0.00     0.049 A 
ATOM     15  N   UNL A   1      42.975  27.217  27.140  1.00  0.00    -0.248 NA
ATOM     16  C   UNL A   1      42.848  25.146  26.075  1.00  0.00     0.031 C 
ATOM     17  C   UNL A   1      38.757  26.744  28.540  1.00  0.00     0.029 A 
ATOM     18  N   UNL A   1      40.537  28.094  28.525  1.00  0.00    -0.354 N 
ATOM     19  C   UNL A   1      44.209  26.919  26.576  1.00  0.00     0.074 A 
ATOM     20  C   UNL A   1      44.083  25.614  25.961  1.00  0.00     0.031 C 
ATOM     21  C   UNL A   1      38.429  27.840  29.236  1.00  0.00     0.029 A 
ATOM     22  C   UNL A   1      39.584  28.730  29.287  1.00  0.00     0.049 A 
ATOM     23  H   UNL A   1      41.427  28.477  28.345  1.00  0.00     0.167 HD
ATOM     24  C   UNL A   1      45.338  27.669  26.560  1.00  0.00     0.034 A 
ATOM     25  C   UNL A   1      39.635  29.887  29.972  1.00  0.00     0.034 A 
ATOM     26  C   UNL A   1      45.444  28.979  27.147  1.00  0.00     0.049 A 
ATOM     27  C   UNL A   1      40.894  30.704  29.922  1.00  0.00     0.074 A 
ATOM     28  C   UNL A   1      46.523  29.845  27.126  1.00  0.00     0.029 A 
ATOM     29  N   UNL A   1      44.442  29.608  27.870  1.00  0.00    -0.354 N 
ATOM     30  N   UNL A   1      42.007  30.461  29.275  1.00  0.00    -0.248 NA
ATOM     31  C   UNL A   1      40.894  31.966  30.674  1.00  0.00     0.031 C 
ATOM     32  C   UNL A   1      46.183  30.987  27.859  1.00  0.00     0.029 A 
ATOM     33  C   UNL A   1      44.881  30.846  28.311  1.00  0.00     0.049 A 
ATOM     34  H   UNL A   1      43.550  29.231  28.045  1.00  0.00     0.167 HD
ATOM     35  C   UNL A   1      42.832  31.551  29.517  1.00  0.00     0.074 A 
ATOM     36  C   UNL A   1      42.080  32.467  30.352  1.00  0.00     0.031 C 
ATOM     37  C   UNL A   1      44.104  31.768  29.100  1.00  0.00     0.034 A 
BRANCH  24  38
ATOM     38  C   UNL A   1      46.546  27.107  25.856  1.00  0.00     0.023 A 
ATOM     39  C   UNL A   1      47.279  26.060  26.453  1.00  0.00     0.012 A 
ATOM     40  C   UNL A   1      46.920  27.567  24.578  1.00  0.00     0.148 A 
ATOM     41  C   UNL A   1      48.381  25.502  25.804  1.00  0.00     0.002 A 
ATOM     42  C   UNL A   1      47.993  26.978  23.918  1.00  0.00     0.091 A 
ATOM     43  F   UNL A   1      46.226  28.576  24.033  1.00  0.00    -0.205 F 
ATOM     44  C   UNL A   1      48.731  25.953  24.535  1.00  0.00     0.022 A 
BRANCH  42  45
ATOM     45  S   UNL A   1      48.474  27.435  22.248  1.00  0.00     0.127 S 
ATOM     46  O   UNL A   1      49.698  28.196  22.493  1.00  0.00    -0.237 OA
ATOM     47  O   UNL A   1      48.682  26.131  21.619  1.00  0.00    -0.237 OA
ATOM     48  O   UNL A   1      47.358  28.198  21.706  1.00  0.00    -0.744 OA
ENDBRANCH  42  45
ENDBRANCH  24  38
BRANCH  25  49
ATOM     49  C   UNL A   1      38.438  30.350  30.726  1.00  0.00     0.023 A 
ATOM     50  C   UNL A   1      38.325  30.055  32.098  1.00  0.00     0.012 A 
ATOM     51  C   UNL A   1      37.442  31.128  30.105  1.00  0.00     0.148 A 
ATOM     52  C   UNL A   1      37.228  30.507  32.832  1.00  0.00     0.002 A 
ATOM     53  C   UNL A   1      36.383  31.625  30.855  1.00  0.00     0.091 A 
ATOM     54  F   UNL A   1      37.564  31.388  28.794  1.00  0.00    -0.205 F 
ATOM     55  C   UNL A   1      36.265  31.300  32.215  1.00  0.00     0.022 A 
BRANCH  53  56
ATOM     56  S   UNL A   1      35.179  32.771  30.176  1.00  0.00     0.127 S 
ATOM     57  O   UNL A   1      34.555  31.965  29.131  1.00  0.00    -0.237 OA
ATOM     58  O   UNL A   1      34.330  33.041  31.338  1.00  0.00    -0.237 OA
ATOM     59  O   UNL A   1      35.947  33.920  29.717  1.00  0.00    -0.744 OA
ENDBRANCH  53  56
ENDBRANCH  25  49
BRANCH  37  60
ATOM     60  C   UNL A   1      44.757  33.062  29.509  1.00  0.00     0.023 A 
ATOM     61  C   UNL A   1      45.538  33.115  30.681  1.00  0.00     0.012 A 
ATOM     62  C   UNL A   1      44.648  34.207  28.696  1.00  0.00     0.148 A 
ATOM     63  C   UNL A   1      46.175  34.298  31.053  1.00  0.00     0.002 A 
ATOM     64  C   UNL A   1      45.327  35.368  29.047  1.00  0.00     0.091 A 
ATOM     65  F   UNL A   1      43.884  34.142  27.597  1.00  0.00    -0.205 F 
ATOM     66  C   UNL A   1      46.079  35.419  30.233  1.00  0.00     0.022 A 
BRANCH  64  67
ATOM     67  S   UNL A   1      45.338  36.829  28.003  1.00  0.00     0.127 S 
ATOM     68  O   UNL A   1      45.809  36.284  26.731  1.00  0.00    -0.237 OA
ATOM     69  O   UNL A   1      43.931  37.229  28.012  1.00  0.00    -0.237 OA
ATOM     70  O   UNL A   1      46.237  37.776  28.649  1.00  0.00    -0.744 OA
ENDBRANCH  64  67
ENDBRANCH  37  60
ENDBRANCH  11  12
ENDBRANCH   4   6
ENDBRANCH   1   2
BRANCH   1  71
ATOM     71  C   UNL A   1      34.804  21.813  27.446  1.00  0.00     0.042 C 
BRANCH  71  72
ATOM     72  C   UNL A   1      33.312  21.588  27.255  1.00  0.00     0.118 C 
BRANCH  72  73
ATOM     73  N   UNL A   1      33.042  20.507  26.318  1.00  0.00    -0.352 N 
ATOM     74  C   UNL A   1      32.513  20.573  25.057  1.00  0.00     0.251 C 
ATOM     75  H   UNL A   1      33.270  19.602  26.635  1.00  0.00     0.163 HD
ATOM     76  O   UNL A   1      32.140  19.557  24.476  1.00  0.00    -0.269 OA
BRANCH  74  77
ATOM     77  C   UNL A   1      32.395  21.880  24.388  1.00  0.00     0.042 A 
ATOM     78  C   UNL A   1      32.884  22.035  23.083  1.00  0.00     0.016 A 
ATOM     79  C   UNL A   1      31.751  22.923  25.072  1.00  0.00     0.042 A 
ATOM     80  C   UNL A   1      32.755  23.258  22.421  1.00  0.00     0.031 A 
ATOM     81  C   UNL A   1      31.654  24.134  24.387  1.00  0.00     0.067 A 
ATOM     82  C   UNL A   1      32.105  24.306  23.082  1.00  0.00     0.089 A 
ATOM     83  N   UNL A   1      31.153  25.364  24.733  1.00  0.00    -0.338 N 
ATOM     84  N   UNL A   1      31.786  25.549  22.619  1.00  0.00    -0.228 NA
ATOM     85  C   UNL A   1      31.207  26.168  23.625  1.00  0.00     0.142 A 
ATOM     86  H   UNL A   1      30.814  25.623  25.621  1.00  0.00     0.168 HD
BRANCH  85  87
ATOM     87  C   UNL A   1      30.653  27.535  23.521  1.00  0.00     0.063 A 
ATOM     88  C   UNL A   1      29.726  27.986  22.616  1.00  0.00     0.117 A 
ATOM     89  C   UNL A   1      30.986  28.657  24.332  1.00  0.00     0.106 A 
ATOM     90  N   UNL A   1      29.479  29.280  22.974  1.00  0.00    -0.284 N 
ATOM     91  N   UNL A   1      30.267  29.731  23.964  1.00  0.00    -0.175 NA
ATOM     92  H   UNL A   1      28.786  29.833  22.546  1.00  0.00     0.189 HD
BRANCH  89  93
ATOM     93  C   UNL A   1      32.057  28.747  25.317  1.00  0.00     0.039 A 
ATOM     94  C   UNL A   1      31.734  28.726  26.687  1.00  0.00     0.016 A 
ATOM     95  C   UNL A   1      33.395  28.880  24.942  1.00  0.00     0.135 A 
ATOM     96  C   UNL A   1      32.734  28.848  27.653  1.00  0.00     0.040 A 
ATOM     97  C   UNL A   1      34.398  28.996  25.902  1.00  0.00     0.079 A 
ATOM     98  F   UNL A   1      33.748  28.920  23.648  1.00  0.00    -0.206 F 
ATOM     99  C   UNL A   1      34.055  28.982  27.249  1.00  0.00     0.126 A 
ATOM    100  F   UNL A   1      35.016  29.099  28.176  1.00  0.00    -0.207 F 
ENDBRANCH  89  93
ENDBRANCH  85  87
ENDBRANCH  74  77
ENDBRANCH  72  73
ENDBRANCH  71  72
ENDBRANCH   1  71
TORSDOF 15
ENDMDL
MODEL 3
REMARK VINA RESULT:     -12.7      4.443      9.500
REMARK SMILES O=C(NCCCNC(=O)c1ccc2nc(-c3c[nH]nc3-c3ccc(F)cc3F)[nH]c2c1)c1ccc(-c2c3nc(c(-c4cccc(S(=O)(=O)[O-])c4F)c4ccc([nH]4)c(-c4cccc(S(=O)(=O)[O-])c4F)c4nc(c(-c5cccc(S(=O)(=O)[O-])c5F)c5ccc2[nH]5)C=C4)C=C3)cc1
REMARK SMILES IDX 4 1 3 2 1 3 2 4 32 6 33 7 94 8 34 9 93 10 35 11 36 12 37 13
REMARK SMILES IDX 87 14 38 15 92 16 86 17 88 18 39 19 91 20 85 21 84 22 40 24
REMARK SMILES IDX 72 25 52 26 71 27 53 28 56 29 70 30 89 31 54 32 55 33 69 35
REMARK SMILES IDX 90 36 57 37 41 38 42 39 50 40 43 41 45 42 51 43 44 44 46 45
REMARK SMILES IDX 47 46 48 47 49 48 73 49 74 50 82 51 75 52 77 53 83 54 76 55
REMARK SMILES IDX 78 56 79 57 80 58 81 59 58 60 59 61 67 62 60 63 62 64 68 65
REMARK SMILES IDX 61 66 63 67 64 68 65 69 66 70 5 71 6 72 7 73 8 74 9 76 10 77
REMARK SMILES IDX 11 78 31 79 12 80 30 81 13 82 29 83 14 84 15 85 16 87 17 88
REMARK SMILES IDX 20 89 18 90 19 91 21 93 22 94 27 95 23 96 26 97 28 98 24 99
REMARK SMILES IDX 25 100
REMARK H PARENT 3 5 88 23 56 34 7 75 29 86 18 92
REMARK Flexibility Score: inf
ROOT
ATOM      1  C   UNL A   1      33.955  29.284  26.213  1.00  0.00     0.118 C 
ENDROOT
BRANCH   1   2
ATOM      2  N   UNL A   1      33.741  30.553  26.897  1.00  0.00    -0.352 N 
ATOM      3  O   UNL A   1      33.970  32.119  28.490  1.00  0.00    -0.269 OA
ATOM      4  C   UNL A   1      34.446  31.141  27.920  1.00  0.00     0.251 C 
ATOM      5  H   UNL A   1      32.969  31.072  26.574  1.00  0.00     0.163 HD
BRANCH   4   6
ATOM      6  C   UNL A   1      35.749  30.586  28.346  1.00  0.00     0.039 A 
ATOM      7  C   UNL A   1      35.828  29.680  29.406  1.00  0.00     0.014 A 
ATOM      8  C   UNL A   1      36.909  30.958  27.660  1.00  0.00     0.014 A 
ATOM      9  C   UNL A   1      37.069  29.287  29.890  1.00  0.00     0.010 A 
ATOM     10  C   UNL A   1      38.151  30.475  28.083  1.00  0.00     0.010 A 
ATOM     11  C   UNL A   1      38.246  29.667  29.226  1.00  0.00    -0.014 A 
BRANCH  11  12
ATOM     12  C   UNL A   1      39.552  29.146  29.704  1.00  0.00     0.031 A 
ATOM     13  C   UNL A   1      40.284  29.799  30.844  1.00  0.00     0.074 A 
ATOM     14  C   UNL A   1      40.080  28.067  29.091  1.00  0.00     0.049 A 
ATOM     15  N   UNL A   1      41.428  29.463  31.384  1.00  0.00    -0.248 NA
ATOM     16  C   UNL A   1      39.661  30.983  31.454  1.00  0.00     0.031 C 
ATOM     17  C   UNL A   1      39.480  27.373  27.947  1.00  0.00     0.029 A 
ATOM     18  N   UNL A   1      41.232  27.367  29.334  1.00  0.00    -0.354 N 
ATOM     19  C   UNL A   1      41.685  30.415  32.363  1.00  0.00     0.074 A 
ATOM     20  C   UNL A   1      40.578  31.348  32.340  1.00  0.00     0.031 C 
ATOM     21  C   UNL A   1      40.257  26.337  27.602  1.00  0.00     0.029 A 
ATOM     22  C   UNL A   1      41.437  26.326  28.459  1.00  0.00     0.049 A 
ATOM     23  H   UNL A   1      41.855  27.589  30.065  1.00  0.00     0.167 HD
ATOM     24  C   UNL A   1      42.738  30.496  33.212  1.00  0.00     0.034 A 
ATOM     25  C   UNL A   1      42.468  25.469  28.339  1.00  0.00     0.034 A 
ATOM     26  C   UNL A   1      43.819  29.545  33.249  1.00  0.00     0.049 A 
ATOM     27  C   UNL A   1      43.613  25.573  29.304  1.00  0.00     0.074 A 
ATOM     28  C   UNL A   1      44.897  29.504  34.116  1.00  0.00     0.029 A 
ATOM     29  N   UNL A   1      43.967  28.478  32.377  1.00  0.00    -0.354 N 
ATOM     30  N   UNL A   1      43.772  26.404  30.305  1.00  0.00    -0.248 NA
ATOM     31  C   UNL A   1      44.706  24.606  29.140  1.00  0.00     0.031 C 
ATOM     32  C   UNL A   1      45.711  28.425  33.751  1.00  0.00     0.029 A 
ATOM     33  C   UNL A   1      45.125  27.778  32.676  1.00  0.00     0.049 A 
ATOM     34  H   UNL A   1      43.342  28.250  31.652  1.00  0.00     0.167 HD
ATOM     35  C   UNL A   1      44.970  26.044  30.909  1.00  0.00     0.074 A 
ATOM     36  C   UNL A   1      45.481  24.904  30.175  1.00  0.00     0.031 C 
ATOM     37  C   UNL A   1      45.597  26.616  31.967  1.00  0.00     0.034 A 
BRANCH  24  38
ATOM     38  C   UNL A   1      42.762  31.635  34.198  1.00  0.00     0.023 A 
ATOM     39  C   UNL A   1      43.358  32.861  33.836  1.00  0.00     0.012 A 
ATOM     40  C   UNL A   1      42.137  31.518  35.456  1.00  0.00     0.148 A 
ATOM     41  C   UNL A   1      43.361  33.939  34.721  1.00  0.00     0.002 A 
ATOM     42  C   UNL A   1      42.107  32.610  36.316  1.00  0.00     0.091 A 
ATOM     43  F   UNL A   1      41.592  30.340  35.792  1.00  0.00    -0.205 F 
ATOM     44  C   UNL A   1      42.728  33.818  35.954  1.00  0.00     0.022 A 
BRANCH  42  45
ATOM     45  S   UNL A   1      41.248  32.578  37.894  1.00  0.00     0.127 S 
ATOM     46  O   UNL A   1      42.059  31.625  38.651  1.00  0.00    -0.237 OA
ATOM     47  O   UNL A   1      41.366  33.967  38.338  1.00  0.00    -0.237 OA
ATOM     48  O   UNL A   1      39.887  32.150  37.600  1.00  0.00    -0.744 OA
ENDBRANCH  42  45
ENDBRANCH  24  38
BRANCH  25  49
ATOM     49  C   UNL A   1      42.433  24.419  27.286  1.00  0.00     0.023 A 
ATOM     50  C   UNL A   1      43.246  24.553  26.144  1.00  0.00     0.012 A 
ATOM     51  C   UNL A   1      41.643  23.262  27.436  1.00  0.00     0.148 A 
ATOM     52  C   UNL A   1      43.254  23.564  25.159  1.00  0.00     0.002 A 
ATOM     53  C   UNL A   1      41.701  22.254  26.481  1.00  0.00     0.091 A 
ATOM     54  F   UNL A   1      40.867  23.160  28.526  1.00  0.00    -0.205 F 
ATOM     55  C   UNL A   1      42.493  22.411  25.333  1.00  0.00     0.022 A 
BRANCH  53  56
ATOM     56  S   UNL A   1      40.868  20.678  26.695  1.00  0.00     0.127 S 
ATOM     57  O   UNL A   1      39.547  20.961  26.142  1.00  0.00    -0.237 OA
ATOM     58  O   UNL A   1      41.698  19.785  25.886  1.00  0.00    -0.237 OA
ATOM     59  O   UNL A   1      40.911  20.403  28.125  1.00  0.00    -0.744 OA
ENDBRANCH  53  56
ENDBRANCH  25  49
BRANCH  37  60
ATOM     60  C   UNL A   1      46.893  25.998  32.421  1.00  0.00     0.023 A 
ATOM     61  C   UNL A   1      48.113  26.447  31.877  1.00  0.00     0.012 A 
ATOM     62  C   UNL A   1      46.905  25.018  33.433  1.00  0.00     0.148 A 
ATOM     63  C   UNL A   1      49.323  25.907  32.313  1.00  0.00     0.002 A 
ATOM     64  C   UNL A   1      48.116  24.521  33.897  1.00  0.00     0.091 A 
ATOM     65  F   UNL A   1      45.732  24.590  33.922  1.00  0.00    -0.205 F 
ATOM     66  C   UNL A   1      49.325  24.955  33.328  1.00  0.00     0.022 A 
BRANCH  64  67
ATOM     67  S   UNL A   1      48.220  23.363  35.266  1.00  0.00     0.127 S 
ATOM     68  O   UNL A   1      47.543  22.190  34.718  1.00  0.00    -0.237 OA
ATOM     69  O   UNL A   1      49.665  23.211  35.435  1.00  0.00    -0.237 OA
ATOM     70  O   UNL A   1      47.547  24.007  36.387  1.00  0.00    -0.744 OA
ENDBRANCH  64  67
ENDBRANCH  37  60
ENDBRANCH  11  12
ENDBRANCH   4   6
ENDBRANCH   1   2
BRANCH   1  71
ATOM     71  C   UNL A   1      33.151  29.170  24.924  1.00  0.00     0.042 C 
BRANCH  71  72
ATOM     72  C   UNL A   1      31.691  29.567  25.077  1.00  0.00     0.118 C 
BRANCH  72  73
ATOM     73  N   UNL A   1      30.970  29.483  23.815  1.00  0.00    -0.352 N 
ATOM     74  C   UNL A   1      30.629  28.372  23.092  1.00  0.00     0.251 C 
ATOM     75  H   UNL A   1      30.690  30.344  23.427  1.00  0.00     0.163 HD
ATOM     76  O   UNL A   1      30.217  28.473  21.939  1.00  0.00    -0.269 OA
BRANCH  74  77
ATOM     77  C   UNL A   1      30.754  27.040  23.707  1.00  0.00     0.042 A 
ATOM     78  C   UNL A   1      29.830  26.639  24.682  1.00  0.00     0.016 A 
ATOM     79  C   UNL A   1      31.780  26.193  23.259  1.00  0.00     0.042 A 
ATOM     80  C   UNL A   1      29.913  25.368  25.256  1.00  0.00     0.031 A 
ATOM     81  C   UNL A   1      31.844  24.938  23.865  1.00  0.00     0.067 A 
ATOM     82  C   UNL A   1      30.923  24.505  24.813  1.00  0.00     0.089 A 
ATOM     83  N   UNL A   1      32.712  23.882  23.734  1.00  0.00    -0.338 N 
ATOM     84  N   UNL A   1      31.153  23.204  25.154  1.00  0.00    -0.228 NA
ATOM     85  C   UNL A   1      32.230  22.846  24.490  1.00  0.00     0.142 A 
ATOM     86  H   UNL A   1      33.534  23.872  23.193  1.00  0.00     0.168 HD
BRANCH  85  87
ATOM     87  C   UNL A   1      32.789  21.477  24.536  1.00  0.00     0.063 A 
ATOM     88  C   UNL A   1      32.094  20.296  24.465  1.00  0.00     0.117 A 
ATOM     89  C   UNL A   1      34.159  21.117  24.678  1.00  0.00     0.106 A 
ATOM     90  N   UNL A   1      33.049  19.321  24.467  1.00  0.00    -0.284 N 
ATOM     91  N   UNL A   1      34.297  19.781  24.656  1.00  0.00    -0.175 NA
ATOM     92  H   UNL A   1      32.843  18.367  24.341  1.00  0.00     0.189 HD
BRANCH  89  93
ATOM     93  C   UNL A   1      35.277  22.003  24.980  1.00  0.00     0.039 A 
ATOM     94  C   UNL A   1      36.235  22.264  23.982  1.00  0.00     0.016 A 
ATOM     95  C   UNL A   1      35.441  22.581  26.240  1.00  0.00     0.135 A 
ATOM     96  C   UNL A   1      37.336  23.077  24.252  1.00  0.00     0.040 A 
ATOM     97  C   UNL A   1      36.536  23.399  26.512  1.00  0.00     0.079 A 
ATOM     98  F   UNL A   1      34.562  22.348  27.226  1.00  0.00    -0.206 F 
ATOM     99  C   UNL A   1      37.474  23.635  25.515  1.00  0.00     0.126 A 
ATOM    100  F   UNL A   1      38.531  24.416  25.775  1.00  0.00    -0.207 F 
ENDBRANCH  89  93
ENDBRANCH  85  87
ENDBRANCH  74  77
ENDBRANCH  72  73
ENDBRANCH  71  72
ENDBRANCH   1  71
TORSDOF 15
ENDMDL
