MODEL 1
REMARK VINA RESULT:     -11.7      0.000      0.000
REMARK SMILES CC/C(C(=O)NCCCNC(=O)c1ccc(-c2c3nc(c(-c4cccc(S(=O)(=O)[O-])c4F)c4ccc([nH]4)c(-c4cccc(S(=O)(=O)[O-])c4F)c4nc(c(-c5cccc(S(=O)(=O)[O-])c5F)c5ccc2[nH]5)C=C4)C=C3)cc1)=C1\CCc2ccccc21
REMARK SMILES IDX 9 1 8 2 7 3 6 4 4 5 5 6 3 8 76 9 77 10 84 11 78 12 79 13
REMARK SMILES IDX 83 14 80 15 82 16 81 17 2 18 1 19 10 20 11 21 12 23 13 24
REMARK SMILES IDX 14 25 75 26 15 27 74 28 16 29 17 30 18 31 68 32 19 33 73 34
REMARK SMILES IDX 67 35 69 36 20 37 72 38 66 39 65 40 21 42 53 43 33 44 52 45
REMARK SMILES IDX 34 46 37 47 51 48 70 49 35 50 36 51 50 53 71 54 38 55 22 56
REMARK SMILES IDX 23 57 31 58 24 59 26 60 32 61 25 62 27 63 28 64 29 65 30 66
REMARK SMILES IDX 54 67 55 68 63 69 56 70 58 71 64 72 57 73 59 74 60 75 61 76
REMARK SMILES IDX 62 77 39 78 40 79 48 80 41 81 43 82 49 83 42 84 44 85 45 86
REMARK SMILES IDX 46 87 47 88
REMARK H PARENT 6 7 10 22 69 41 37 52
REMARK Flexibility Score: inf
ROOT
ATOM      1  C   UNL A   1      33.744  29.241  26.182  1.00  0.00     0.118 C 
ENDROOT
BRANCH   1   2
ATOM      2  C   UNL A   1      33.271  28.141  27.115  1.00  0.00     0.042 C 
BRANCH   2   3
ATOM      3  C   UNL A   1      31.788  28.207  27.501  1.00  0.00     0.118 C 
BRANCH   3   4
ATOM      4  N   UNL A   1      31.160  26.948  27.165  1.00  0.00    -0.352 N 
ATOM      5  C   UNL A   1      30.718  26.350  26.040  1.00  0.00     0.247 C 
ATOM      6  O   UNL A   1      29.928  25.422  26.268  1.00  0.00    -0.270 OA
ATOM      7  H   UNL A   1      31.017  26.384  27.961  1.00  0.00     0.163 HD
BRANCH   5   8
ATOM      8  C   UNL A   1      31.226  26.538  24.619  1.00  0.00     0.020 C 
ATOM      9  C   UNL A   1      32.303  26.095  23.921  1.00  0.00    -0.031 C 
ATOM     10  C   UNL A   1      32.428  26.205  22.396  1.00  0.00     0.041 C 
ATOM     11  C   UNL A   1      33.471  25.268  24.241  1.00  0.00    -0.019 A 
ATOM     12  C   UNL A   1      32.978  24.847  21.943  1.00  0.00     0.041 C 
ATOM     13  C   UNL A   1      33.768  24.449  23.145  1.00  0.00    -0.040 A 
ATOM     14  C   UNL A   1      34.333  25.276  25.316  1.00  0.00     0.009 A 
ATOM     15  C   UNL A   1      34.722  23.444  23.215  1.00  0.00     0.004 A 
ATOM     16  C   UNL A   1      35.321  24.281  25.399  1.00  0.00     0.001 A 
ATOM     17  C   UNL A   1      35.476  23.336  24.378  1.00  0.00     0.000 A 
BRANCH   8  18
ATOM     18  C   UNL A   1      30.247  27.478  23.885  1.00  0.00     0.038 C 
ATOM     19  C   UNL A   1      30.643  28.943  24.005  1.00  0.00     0.009 C 
ENDBRANCH   8  18
ENDBRANCH   5   8
ENDBRANCH   3   4
ENDBRANCH   2   3
ENDBRANCH   1   2
BRANCH   1  20
ATOM     20  N   UNL A   1      33.727  30.548  26.825  1.00  0.00    -0.352 N 
ATOM     21  C   UNL A   1      34.528  31.146  27.768  1.00  0.00     0.251 C 
ATOM     22  H   UNL A   1      32.987  31.122  26.523  1.00  0.00     0.163 HD
ATOM     23  O   UNL A   1      34.124  32.197  28.267  1.00  0.00    -0.269 OA
BRANCH  21  24
ATOM     24  C   UNL A   1      35.832  30.588  28.212  1.00  0.00     0.039 A 
ATOM     25  C   UNL A   1      35.845  29.729  29.321  1.00  0.00     0.014 A 
ATOM     26  C   UNL A   1      37.050  30.938  27.632  1.00  0.00     0.014 A 
ATOM     27  C   UNL A   1      37.051  29.215  29.812  1.00  0.00     0.010 A 
ATOM     28  C   UNL A   1      38.232  30.315  28.028  1.00  0.00     0.010 A 
ATOM     29  C   UNL A   1      38.259  29.480  29.150  1.00  0.00    -0.014 A 
BRANCH  29  30
ATOM     30  C   UNL A   1      39.557  28.936  29.637  1.00  0.00     0.031 A 
ATOM     31  C   UNL A   1      40.282  29.601  30.785  1.00  0.00     0.074 A 
ATOM     32  C   UNL A   1      40.124  27.891  29.002  1.00  0.00     0.049 A 
ATOM     33  N   UNL A   1      41.444  29.308  31.310  1.00  0.00    -0.248 NA
ATOM     34  C   UNL A   1      39.635  30.774  31.400  1.00  0.00     0.031 C 
ATOM     35  C   UNL A   1      39.575  27.217  27.823  1.00  0.00     0.029 A 
ATOM     36  N   UNL A   1      41.299  27.223  29.246  1.00  0.00    -0.354 N 
ATOM     37  C   UNL A   1      41.687  30.285  32.271  1.00  0.00     0.074 A 
ATOM     38  C   UNL A   1      40.576  31.206  32.226  1.00  0.00     0.031 C 
ATOM     39  C   UNL A   1      40.397  26.219  27.461  1.00  0.00     0.029 A 
ATOM     40  C   UNL A   1      41.548  26.203  28.357  1.00  0.00     0.049 A 
ATOM     41  H   UNL A   1      41.905  27.452  29.987  1.00  0.00     0.167 HD
ATOM     42  C   UNL A   1      42.721  30.388  33.142  1.00  0.00     0.034 A 
ATOM     43  C   UNL A   1      42.588  25.350  28.272  1.00  0.00     0.034 A 
ATOM     44  C   UNL A   1      43.791  29.433  33.227  1.00  0.00     0.049 A 
ATOM     45  C   UNL A   1      43.685  25.438  29.297  1.00  0.00     0.074 A 
ATOM     46  C   UNL A   1      44.836  29.387  34.133  1.00  0.00     0.029 A 
ATOM     47  N   UNL A   1      43.954  28.352  32.374  1.00  0.00    -0.354 N 
ATOM     48  N   UNL A   1      43.818  26.280  30.295  1.00  0.00    -0.248 NA
ATOM     49  C   UNL A   1      44.752  24.431  29.214  1.00  0.00     0.031 C 
ATOM     50  C   UNL A   1      45.645  28.292  33.812  1.00  0.00     0.029 A 
ATOM     51  C   UNL A   1      45.083  27.634  32.728  1.00  0.00     0.049 A 
ATOM     52  H   UNL A   1      43.355  28.128  31.626  1.00  0.00     0.167 HD
ATOM     53  C   UNL A   1      44.959  25.881  30.980  1.00  0.00     0.074 A 
ATOM     54  C   UNL A   1      45.465  24.707  30.297  1.00  0.00     0.031 C 
ATOM     55  C   UNL A   1      45.545  26.441  32.068  1.00  0.00     0.034 A 
BRANCH  42  56
ATOM     56  C   UNL A   1      42.712  31.545  34.112  1.00  0.00     0.023 A 
ATOM     57  C   UNL A   1      43.328  32.763  33.754  1.00  0.00     0.012 A 
ATOM     58  C   UNL A   1      42.055  31.447  35.354  1.00  0.00     0.148 A 
ATOM     59  C   UNL A   1      43.331  33.847  34.632  1.00  0.00     0.002 A 
ATOM     60  C   UNL A   1      42.016  32.548  36.203  1.00  0.00     0.091 A 
ATOM     61  F   UNL A   1      41.491  30.278  35.689  1.00  0.00    -0.205 F 
ATOM     62  C   UNL A   1      42.666  33.743  35.850  1.00  0.00     0.022 A 
BRANCH  60  63
ATOM     63  S   UNL A   1      41.114  32.544  37.756  1.00  0.00     0.127 S 
ATOM     64  O   UNL A   1      41.951  31.671  38.581  1.00  0.00    -0.237 OA
ATOM     65  O   UNL A   1      41.154  33.959  38.136  1.00  0.00    -0.237 OA
ATOM     66  O   UNL A   1      39.788  32.033  37.452  1.00  0.00    -0.744 OA
ENDBRANCH  60  63
ENDBRANCH  42  56
BRANCH  43  67
ATOM     67  C   UNL A   1      42.599  24.290  27.224  1.00  0.00     0.023 A 
ATOM     68  C   UNL A   1      43.283  24.519  26.014  1.00  0.00     0.012 A 
ATOM     69  C   UNL A   1      41.965  23.050  27.430  1.00  0.00     0.148 A 
ATOM     70  C   UNL A   1      43.304  23.547  25.012  1.00  0.00     0.002 A 
ATOM     71  C   UNL A   1      42.040  22.064  26.452  1.00  0.00     0.091 A 
ATOM     72  F   UNL A   1      41.315  22.853  28.585  1.00  0.00    -0.205 F 
ATOM     73  C   UNL A   1      42.692  22.318  25.235  1.00  0.00     0.022 A 
BRANCH  71  74
ATOM     74  S   UNL A   1      41.398  20.406  26.705  1.00  0.00     0.127 S 
ATOM     75  O   UNL A   1      42.121  19.984  27.902  1.00  0.00    -0.237 OA
ATOM     76  O   UNL A   1      39.971  20.663  26.906  1.00  0.00    -0.237 OA
ATOM     77  O   UNL A   1      41.710  19.674  25.486  1.00  0.00    -0.744 OA
ENDBRANCH  71  74
ENDBRANCH  43  67
BRANCH  55  78
ATOM     78  C   UNL A   1      46.771  25.764  32.620  1.00  0.00     0.023 A 
ATOM     79  C   UNL A   1      48.053  26.150  32.177  1.00  0.00     0.012 A 
ATOM     80  C   UNL A   1      46.653  24.776  33.617  1.00  0.00     0.148 A 
ATOM     81  C   UNL A   1      49.193  25.530  32.684  1.00  0.00     0.002 A 
ATOM     82  C   UNL A   1      47.796  24.202  34.157  1.00  0.00     0.091 A 
ATOM     83  F   UNL A   1      45.425  24.408  34.013  1.00  0.00    -0.205 F 
ATOM     84  C   UNL A   1      49.067  24.564  33.681  1.00  0.00     0.022 A 
BRANCH  82  85
ATOM     85  S   UNL A   1      47.728  23.028  35.514  1.00  0.00     0.127 S 
ATOM     86  O   UNL A   1      47.092  23.821  36.564  1.00  0.00    -0.237 OA
ATOM     87  O   UNL A   1      46.889  21.962  34.962  1.00  0.00    -0.237 OA
ATOM     88  O   UNL A   1      49.106  22.635  35.771  1.00  0.00    -0.744 OA
ENDBRANCH  82  85
ENDBRANCH  55  78
ENDBRANCH  29  30
ENDBRANCH  21  24
ENDBRANCH   1  20
TORSDOF 14
ENDMDL
MODEL 2
REMARK VINA RESULT:     -11.5      2.228      3.124
REMARK SMILES CC/C(C(=O)NCCCNC(=O)c1ccc(-c2c3nc(c(-c4cccc(S(=O)(=O)[O-])c4F)c4ccc([nH]4)c(-c4cccc(S(=O)(=O)[O-])c4F)c4nc(c(-c5cccc(S(=O)(=O)[O-])c5F)c5ccc2[nH]5)C=C4)C=C3)cc1)=C1\CCc2ccccc21
REMARK SMILES IDX 9 1 8 2 7 3 6 4 4 5 5 6 3 8 76 9 77 10 84 11 78 12 79 13
REMARK SMILES IDX 83 14 80 15 82 16 81 17 2 18 1 19 10 20 11 21 12 23 13 24
REMARK SMILES IDX 14 25 75 26 15 27 74 28 16 29 17 30 18 31 68 32 19 33 73 34
REMARK SMILES IDX 67 35 69 36 20 37 72 38 66 39 65 40 21 42 53 43 33 44 52 45
REMARK SMILES IDX 34 46 37 47 51 48 70 49 35 50 36 51 50 53 71 54 38 55 22 56
REMARK SMILES IDX 23 57 31 58 24 59 26 60 32 61 25 62 27 63 28 64 29 65 30 66
REMARK SMILES IDX 54 67 55 68 63 69 56 70 58 71 64 72 57 73 59 74 60 75 61 76
REMARK SMILES IDX 62 77 39 78 40 79 48 80 41 81 43 82 49 83 42 84 44 85 45 86
REMARK SMILES IDX 46 87 47 88
REMARK H PARENT 6 7 10 22 69 41 37 52
REMARK Flexibility Score: inf
ROOT
ATOM      1  C   UNL A   1      33.084  29.221  25.071  1.00  0.00     0.118 C 
ENDROOT
BRANCH   1   2
ATOM      2  C   UNL A   1      33.004  29.251  23.557  1.00  0.00     0.042 C 
BRANCH   2   3
ATOM      3  C   UNL A   1      34.168  28.568  22.829  1.00  0.00     0.118 C 
BRANCH   3   4
ATOM      4  N   UNL A   1      33.637  27.572  21.924  1.00  0.00    -0.352 N 
ATOM      5  C   UNL A   1      33.291  26.271  22.003  1.00  0.00     0.247 C 
ATOM      6  O   UNL A   1      33.215  25.727  20.891  1.00  0.00    -0.270 OA
ATOM      7  H   UNL A   1      33.491  27.937  21.021  1.00  0.00     0.163 HD
BRANCH   5   8
ATOM      8  C   UNL A   1      32.801  25.504  23.220  1.00  0.00     0.020 C 
ATOM      9  C   UNL A   1      33.345  24.578  24.050  1.00  0.00    -0.031 C 
ATOM     10  C   UNL A   1      32.721  24.172  25.392  1.00  0.00     0.041 C 
ATOM     11  C   UNL A   1      34.633  23.880  24.116  1.00  0.00    -0.019 A 
ATOM     12  C   UNL A   1      33.897  24.111  26.375  1.00  0.00     0.041 C 
ATOM     13  C   UNL A   1      35.013  23.741  25.456  1.00  0.00    -0.040 A 
ATOM     14  C   UNL A   1      35.395  23.268  23.144  1.00  0.00     0.009 A 
ATOM     15  C   UNL A   1      36.263  23.264  25.821  1.00  0.00     0.004 A 
ATOM     16  C   UNL A   1      36.656  22.759  23.493  1.00  0.00     0.001 A 
ATOM     17  C   UNL A   1      37.110  22.810  24.816  1.00  0.00     0.000 A 
BRANCH   8  18
ATOM     18  C   UNL A   1      31.339  25.918  23.487  1.00  0.00     0.038 C 
ATOM     19  C   UNL A   1      30.346  24.821  23.128  1.00  0.00     0.009 C 
ENDBRANCH   8  18
ENDBRANCH   5   8
ENDBRANCH   3   4
ENDBRANCH   2   3
ENDBRANCH   1   2
BRANCH   1  20
ATOM     20  N   UNL A   1      32.736  30.507  25.662  1.00  0.00    -0.352 N 
ATOM     21  C   UNL A   1      33.177  31.184  26.774  1.00  0.00     0.251 C 
ATOM     22  H   UNL A   1      32.040  30.990  25.163  1.00  0.00     0.163 HD
ATOM     23  O   UNL A   1      32.530  32.171  27.127  1.00  0.00    -0.269 OA
BRANCH  21  24
ATOM     24  C   UNL A   1      34.374  30.784  27.559  1.00  0.00     0.039 A 
ATOM     25  C   UNL A   1      35.397  31.727  27.739  1.00  0.00     0.014 A 
ATOM     26  C   UNL A   1      34.567  29.497  28.056  1.00  0.00     0.014 A 
ATOM     27  C   UNL A   1      36.567  31.388  28.428  1.00  0.00     0.010 A 
ATOM     28  C   UNL A   1      35.663  29.202  28.864  1.00  0.00     0.010 A 
ATOM     29  C   UNL A   1      36.701  30.126  29.025  1.00  0.00    -0.014 A 
BRANCH  29  30
ATOM     30  C   UNL A   1      37.926  29.739  29.777  1.00  0.00     0.031 A 
ATOM     31  C   UNL A   1      38.183  30.295  31.159  1.00  0.00     0.074 A 
ATOM     32  C   UNL A   1      38.847  28.947  29.192  1.00  0.00     0.049 A 
ATOM     33  N   UNL A   1      39.216  30.119  31.943  1.00  0.00    -0.248 NA
ATOM     34  C   UNL A   1      37.164  31.200  31.721  1.00  0.00     0.031 C 
ATOM     35  C   UNL A   1      38.766  28.419  27.828  1.00  0.00     0.029 A 
ATOM     36  N   UNL A   1      40.043  28.463  29.662  1.00  0.00    -0.354 N 
ATOM     37  C   UNL A   1      38.995  30.926  33.055  1.00  0.00     0.074 A 
ATOM     38  C   UNL A   1      37.755  31.629  32.825  1.00  0.00     0.031 C 
ATOM     39  C   UNL A   1      39.850  27.667  27.579  1.00  0.00     0.029 A 
ATOM     40  C   UNL A   1      40.721  27.687  28.749  1.00  0.00     0.049 A 
ATOM     41  H   UNL A   1      40.383  28.653  30.566  1.00  0.00     0.167 HD
ATOM     42  C   UNL A   1      39.735  31.045  34.184  1.00  0.00     0.034 A 
ATOM     43  C   UNL A   1      41.911  27.063  28.844  1.00  0.00     0.034 A 
ATOM     44  C   UNL A   1      40.934  30.295  34.436  1.00  0.00     0.049 A 
ATOM     45  C   UNL A   1      42.676  27.150  30.136  1.00  0.00     0.074 A 
ATOM     46  C   UNL A   1      41.709  30.266  35.582  1.00  0.00     0.029 A 
ATOM     47  N   UNL A   1      41.536  29.439  33.526  1.00  0.00    -0.354 N 
ATOM     48  N   UNL A   1      42.372  27.801  31.234  1.00  0.00    -0.248 NA
ATOM     49  C   UNL A   1      43.925  26.381  30.220  1.00  0.00     0.031 C 
ATOM     50  C   UNL A   1      42.793  29.411  35.356  1.00  0.00     0.029 A 
ATOM     51  C   UNL A   1      42.672  28.878  34.081  1.00  0.00     0.049 A 
ATOM     52  H   UNL A   1      41.202  29.257  32.617  1.00  0.00     0.167 HD
ATOM     53  C   UNL A   1      43.369  27.489  32.150  1.00  0.00     0.074 A 
ATOM     54  C   UNL A   1      44.273  26.571  31.485  1.00  0.00     0.031 C 
ATOM     55  C   UNL A   1      43.532  27.930  33.423  1.00  0.00     0.034 A 
BRANCH  42  56
ATOM     56  C   UNL A   1      39.234  31.981  35.258  1.00  0.00     0.023 A 
ATOM     57  C   UNL A   1      38.262  31.536  36.178  1.00  0.00     0.012 A 
ATOM     58  C   UNL A   1      39.759  33.283  35.390  1.00  0.00     0.148 A 
ATOM     59  C   UNL A   1      37.787  32.380  37.181  1.00  0.00     0.002 A 
ATOM     60  C   UNL A   1      39.318  34.102  36.423  1.00  0.00     0.091 A 
ATOM     61  F   UNL A   1      40.668  33.699  34.497  1.00  0.00    -0.205 F 
ATOM     62  C   UNL A   1      38.323  33.659  37.310  1.00  0.00     0.022 A 
BRANCH  60  63
ATOM     63  S   UNL A   1      40.006  35.734  36.728  1.00  0.00     0.127 S 
ATOM     64  O   UNL A   1      41.433  35.432  36.860  1.00  0.00    -0.237 OA
ATOM     65  O   UNL A   1      39.648  36.450  35.501  1.00  0.00    -0.237 OA
ATOM     66  O   UNL A   1      39.358  36.227  37.932  1.00  0.00    -0.744 OA
ENDBRANCH  60  63
ENDBRANCH  42  56
BRANCH  43  67
ATOM     67  C   UNL A   1      42.412  26.236  27.709  1.00  0.00     0.023 A 
ATOM     68  C   UNL A   1      43.351  26.785  26.814  1.00  0.00     0.012 A 
ATOM     69  C   UNL A   1      41.990  24.905  27.531  1.00  0.00     0.148 A 
ATOM     70  C   UNL A   1      43.831  26.036  25.738  1.00  0.00     0.002 A 
ATOM     71  C   UNL A   1      42.517  24.145  26.492  1.00  0.00     0.091 A 
ATOM     72  F   UNL A   1      41.092  24.403  28.389  1.00  0.00    -0.205 F 
ATOM     73  C   UNL A   1      43.423  24.715  25.584  1.00  0.00     0.022 A 
BRANCH  71  74
ATOM     74  S   UNL A   1      42.152  22.398  26.295  1.00  0.00     0.127 S 
ATOM     75  O   UNL A   1      42.619  21.849  27.565  1.00  0.00    -0.237 OA
ATOM     76  O   UNL A   1      40.698  22.411  26.128  1.00  0.00    -0.237 OA
ATOM     77  O   UNL A   1      42.887  21.974  25.113  1.00  0.00    -0.744 OA
ENDBRANCH  71  74
ENDBRANCH  43  67
BRANCH  55  78
ATOM     78  C   UNL A   1      44.703  27.389  34.199  1.00  0.00     0.023 A 
ATOM     79  C   UNL A   1      45.937  28.072  34.186  1.00  0.00     0.012 A 
ATOM     80  C   UNL A   1      44.565  26.227  34.982  1.00  0.00     0.148 A 
ATOM     81  C   UNL A   1      47.026  27.579  34.903  1.00  0.00     0.002 A 
ATOM     82  C   UNL A   1      45.638  25.773  35.738  1.00  0.00     0.091 A 
ATOM     83  F   UNL A   1      43.389  25.580  34.968  1.00  0.00    -0.205 F 
ATOM     84  C   UNL A   1      46.875  26.437  35.687  1.00  0.00     0.022 A 
BRANCH  82  85
ATOM     85  S   UNL A   1      45.499  24.372  36.853  1.00  0.00     0.127 S 
ATOM     86  O   UNL A   1      46.834  24.330  37.447  1.00  0.00    -0.237 OA
ATOM     87  O   UNL A   1      44.438  24.804  37.765  1.00  0.00    -0.237 OA
ATOM     88  O   UNL A   1      45.147  23.231  36.019  1.00  0.00    -0.744 OA
ENDBRANCH  82  85
ENDBRANCH  55  78
ENDBRANCH  29  30
ENDBRANCH  21  24
ENDBRANCH   1  20
TORSDOF 14
ENDMDL
MODEL 3
REMARK VINA RESULT:     -11.4      1.689      2.117
REMARK SMILES CC/C(C(=O)NCCCNC(=O)c1ccc(-c2c3nc(c(-c4cccc(S(=O)(=O)[O-])c4F)c4ccc([nH]4)c(-c4cccc(S(=O)(=O)[O-])c4F)c4nc(c(-c5cccc(S(=O)(=O)[O-])c5F)c5ccc2[nH]5)C=C4)C=C3)cc1)=C1\CCc2ccccc21
REMARK SMILES IDX 9 1 8 2 7 3 6 4 4 5 5 6 3 8 76 9 77 10 84 11 78 12 79 13
REMARK SMILES IDX 83 14 80 15 82 16 81 17 2 18 1 19 10 20 11 21 12 23 13 24
REMARK SMILES IDX 14 25 75 26 15 27 74 28 16 29 17 30 18 31 68 32 19 33 73 34
REMARK SMILES IDX 67 35 69 36 20 37 72 38 66 39 65 40 21 42 53 43 33 44 52 45
REMARK SMILES IDX 34 46 37 47 51 48 70 49 35 50 36 51 50 53 71 54 38 55 22 56
REMARK SMILES IDX 23 57 31 58 24 59 26 60 32 61 25 62 27 63 28 64 29 65 30 66
REMARK SMILES IDX 54 67 55 68 63 69 56 70 58 71 64 72 57 73 59 74 60 75 61 76
REMARK SMILES IDX 62 77 39 78 40 79 48 80 41 81 43 82 49 83 42 84 44 85 45 86
REMARK SMILES IDX 46 87 47 88
REMARK H PARENT 6 7 10 22 69 41 37 52
REMARK Flexibility Score: inf
ROOT
ATOM      1  C   UNL A   1      33.023  29.754  25.868  1.00  0.00     0.118 C 
ENDROOT
BRANCH   1   2
ATOM      2  C   UNL A   1      31.913  28.865  26.396  1.00  0.00     0.042 C 
BRANCH   2   3
ATOM      3  C   UNL A   1      32.383  27.587  27.103  1.00  0.00     0.118 C 
BRANCH   3   4
ATOM      4  N   UNL A   1      31.371  26.565  26.946  1.00  0.00    -0.352 N 
ATOM      5  C   UNL A   1      30.665  26.043  25.922  1.00  0.00     0.247 C 
ATOM      6  O   UNL A   1      29.654  25.432  26.299  1.00  0.00    -0.270 OA
ATOM      7  H   UNL A   1      31.138  26.144  27.805  1.00  0.00     0.163 HD
BRANCH   5   8
ATOM      8  C   UNL A   1      31.071  25.942  24.461  1.00  0.00     0.020 C 
ATOM      9  C   UNL A   1      32.163  25.477  23.801  1.00  0.00    -0.031 C 
ATOM     10  C   UNL A   1      32.196  25.230  22.287  1.00  0.00     0.041 C 
ATOM     11  C   UNL A   1      33.449  24.901  24.209  1.00  0.00    -0.019 A 
ATOM     12  C   UNL A   1      32.906  23.880  22.120  1.00  0.00     0.041 C 
ATOM     13  C   UNL A   1      33.801  23.884  23.315  1.00  0.00    -0.040 A 
ATOM     14  C   UNL A   1      34.353  25.274  25.179  1.00  0.00     0.009 A 
ATOM     15  C   UNL A   1      34.887  23.050  23.539  1.00  0.00     0.004 A 
ATOM     16  C   UNL A   1      35.472  24.457  25.412  1.00  0.00     0.001 A 
ATOM     17  C   UNL A   1      35.704  23.319  24.631  1.00  0.00     0.000 A 
BRANCH   8  18
ATOM     18  C   UNL A   1      29.938  26.549  23.609  1.00  0.00     0.038 C 
ATOM     19  C   UNL A   1      30.050  28.063  23.480  1.00  0.00     0.009 C 
ENDBRANCH   8  18
ENDBRANCH   5   8
ENDBRANCH   3   4
ENDBRANCH   2   3
ENDBRANCH   1   2
BRANCH   1  20
ATOM     20  N   UNL A   1      32.916  31.118  26.369  1.00  0.00    -0.352 N 
ATOM     21  C   UNL A   1      33.600  31.828  27.327  1.00  0.00     0.251 C 
ATOM     22  H   UNL A   1      32.205  31.640  25.932  1.00  0.00     0.163 HD
ATOM     23  O   UNL A   1      33.128  32.913  27.670  1.00  0.00    -0.269 OA
BRANCH  21  24
ATOM     24  C   UNL A   1      34.857  31.352  27.962  1.00  0.00     0.039 A 
ATOM     25  C   UNL A   1      34.876  30.061  28.510  1.00  0.00     0.014 A 
ATOM     26  C   UNL A   1      35.988  32.151  28.112  1.00  0.00     0.014 A 
ATOM     27  C   UNL A   1      36.017  29.580  29.164  1.00  0.00     0.010 A 
ATOM     28  C   UNL A   1      37.169  31.625  28.632  1.00  0.00     0.010 A 
ATOM     29  C   UNL A   1      37.190  30.349  29.207  1.00  0.00    -0.014 A 
BRANCH  29  30
ATOM     30  C   UNL A   1      38.424  29.862  29.881  1.00  0.00     0.031 A 
ATOM     31  C   UNL A   1      38.797  30.371  31.254  1.00  0.00     0.074 A 
ATOM     32  C   UNL A   1      39.252  29.018  29.231  1.00  0.00     0.049 A 
ATOM     33  N   UNL A   1      39.857  30.107  31.975  1.00  0.00    -0.248 NA
ATOM     34  C   UNL A   1      37.879  31.335  31.887  1.00  0.00     0.031 C 
ATOM     35  C   UNL A   1      39.056  28.524  27.867  1.00  0.00     0.029 A 
ATOM     36  N   UNL A   1      40.434  28.442  29.624  1.00  0.00    -0.354 N 
ATOM     37  C   UNL A   1      39.757  30.906  33.110  1.00  0.00     0.074 A 
ATOM     38  C   UNL A   1      38.560  31.699  32.963  1.00  0.00     0.031 C 
ATOM     39  C   UNL A   1      40.068  27.702  27.545  1.00  0.00     0.029 A 
ATOM     40  C   UNL A   1      41.002  27.638  28.663  1.00  0.00     0.049 A 
ATOM     41  H   UNL A   1      40.837  28.590  30.510  1.00  0.00     0.167 HD
ATOM     42  C   UNL A   1      40.566  30.951  34.196  1.00  0.00     0.034 A 
ATOM     43  C   UNL A   1      42.148  26.929  28.680  1.00  0.00     0.034 A 
ATOM     44  C   UNL A   1      41.721  30.113  34.368  1.00  0.00     0.049 A 
ATOM     45  C   UNL A   1      42.988  26.936  29.927  1.00  0.00     0.074 A 
ATOM     46  C   UNL A   1      42.555  30.007  35.467  1.00  0.00     0.029 A 
ATOM     47  N   UNL A   1      42.207  29.234  33.412  1.00  0.00    -0.354 N 
ATOM     48  N   UNL A   1      42.794  27.585  31.050  1.00  0.00    -0.248 NA
ATOM     49  C   UNL A   1      44.182  26.079  29.927  1.00  0.00     0.031 C 
ATOM     50  C   UNL A   1      43.560  29.081  35.165  1.00  0.00     0.029 A 
ATOM     51  C   UNL A   1      43.330  28.584  33.892  1.00  0.00     0.049 A 
ATOM     52  H   UNL A   1      41.811  29.093  32.521  1.00  0.00     0.167 HD
ATOM     53  C   UNL A   1      43.816  27.186  31.903  1.00  0.00     0.074 A 
ATOM     54  C   UNL A   1      44.613  26.220  31.173  1.00  0.00     0.031 C 
ATOM     55  C   UNL A   1      44.082  27.590  33.170  1.00  0.00     0.034 A 
BRANCH  42  56
ATOM     56  C   UNL A   1      40.196  31.899  35.312  1.00  0.00     0.023 A 
ATOM     57  C   UNL A   1      40.840  33.150  35.411  1.00  0.00     0.012 A 
ATOM     58  C   UNL A   1      39.179  31.575  36.232  1.00  0.00     0.148 A 
ATOM     59  C   UNL A   1      40.513  34.043  36.430  1.00  0.00     0.002 A 
ATOM     60  C   UNL A   1      38.821  32.492  37.215  1.00  0.00     0.091 A 
ATOM     61  F   UNL A   1      38.588  30.375  36.138  1.00  0.00    -0.205 F 
ATOM     62  C   UNL A   1      39.497  33.719  37.325  1.00  0.00     0.022 A 
BRANCH  60  63
ATOM     63  S   UNL A   1      37.468  32.207  38.361  1.00  0.00     0.127 S 
ATOM     64  O   UNL A   1      38.011  32.762  39.603  1.00  0.00    -0.237 OA
ATOM     65  O   UNL A   1      36.389  32.998  37.764  1.00  0.00    -0.237 OA
ATOM     66  O   UNL A   1      37.239  30.771  38.367  1.00  0.00    -0.744 OA
ENDBRANCH  60  63
ENDBRANCH  42  56
BRANCH  43  67
ATOM     67  C   UNL A   1      42.523  26.090  27.505  1.00  0.00     0.023 A 
ATOM     68  C   UNL A   1      43.344  26.637  26.499  1.00  0.00     0.012 A 
ATOM     69  C   UNL A   1      42.100  24.753  27.395  1.00  0.00     0.148 A 
ATOM     70  C   UNL A   1      43.706  25.877  25.385  1.00  0.00     0.002 A 
ATOM     71  C   UNL A   1      42.512  23.984  26.312  1.00  0.00     0.091 A 
ATOM     72  F   UNL A   1      41.315  24.253  28.359  1.00  0.00    -0.205 F 
ATOM     73  C   UNL A   1      43.299  24.550  25.297  1.00  0.00     0.022 A 
BRANCH  71  74
ATOM     74  S   UNL A   1      42.148  22.230  26.182  1.00  0.00     0.127 S 
ATOM     75  O   UNL A   1      42.896  21.857  24.984  1.00  0.00    -0.237 OA
ATOM     76  O   UNL A   1      42.699  21.715  27.437  1.00  0.00    -0.237 OA
ATOM     77  O   UNL A   1      40.699  22.135  26.080  1.00  0.00    -0.744 OA
ENDBRANCH  71  74
ENDBRANCH  43  67
BRANCH  55  78
ATOM     78  C   UNL A   1      45.253  26.952  33.869  1.00  0.00     0.023 A 
ATOM     79  C   UNL A   1      46.531  27.541  33.789  1.00  0.00     0.012 A 
ATOM     80  C   UNL A   1      45.074  25.793  34.649  1.00  0.00     0.148 A 
ATOM     81  C   UNL A   1      47.621  26.958  34.434  1.00  0.00     0.002 A 
ATOM     82  C   UNL A   1      46.152  25.250  35.335  1.00  0.00     0.091 A 
ATOM     83  F   UNL A   1      43.854  25.236  34.700  1.00  0.00    -0.205 F 
ATOM     84  C   UNL A   1      47.430  25.820  35.215  1.00  0.00     0.022 A 
BRANCH  82  85
ATOM     85  S   UNL A   1      45.975  23.848  36.443  1.00  0.00     0.127 S 
ATOM     86  O   UNL A   1      45.052  24.376  37.447  1.00  0.00    -0.237 OA
ATOM     87  O   UNL A   1      45.401  22.827  35.564  1.00  0.00    -0.237 OA
ATOM     88  O   UNL A   1      47.316  23.544  36.921  1.00  0.00    -0.744 OA
ENDBRANCH  82  85
ENDBRANCH  55  78
ENDBRANCH  29  30
ENDBRANCH  21  24
ENDBRANCH   1  20
TORSDOF 14
ENDMDL
