MODEL 1
REMARK VINA RESULT:     -12.1      0.000      0.000
REMARK SMILES O=C(CC1(NC(=O)c2ccccc2[N+](=O)[O-])CCC1)NCCCNC(=O)c1ccc(-c2c3nc(c(-c4cccc(S(=O)(=O)[O-])c4F)c4ccc([nH]4)c(-c4cccc(S(=O)(=O)[O-])c4F)c4nc(c(-c5cccc(S(=O)(=O)[O-])c5F)c5ccc2[nH]5)C=C4)C=C3)cc1
REMARK SMILES IDX 21 1 20 2 1 3 2 4 3 6 4 7 17 8 19 9 18 10 5 11 6 12 7 14
REMARK SMILES IDX 8 15 9 16 13 17 10 18 12 19 11 20 14 21 15 22 16 23 22 24
REMARK SMILES IDX 23 25 24 26 25 27 26 29 27 30 28 31 89 32 29 33 88 34 30 35
REMARK SMILES IDX 31 36 32 37 82 38 33 39 87 40 81 41 83 42 34 43 86 44 80 45
REMARK SMILES IDX 79 46 35 48 67 49 47 50 66 51 48 52 51 53 65 54 84 55 49 56
REMARK SMILES IDX 50 57 64 59 85 60 52 61 36 62 37 63 45 64 38 65 40 66 46 67
REMARK SMILES IDX 39 68 41 69 42 70 43 71 44 72 68 73 69 74 77 75 70 76 72 77
REMARK SMILES IDX 78 78 71 79 73 80 74 81 75 82 76 83 53 84 54 85 62 86 55 87
REMARK SMILES IDX 57 88 63 89 56 90 58 91 59 92 60 93 61 94
REMARK H PARENT 20 5 5 13 24 28 83 47 51 58
REMARK Flexibility Score: inf
ROOT
ATOM      1  C   UNL A   1      31.961  30.542  26.705  1.00  0.00     0.117 C 
ENDROOT
BRANCH   1   2
ATOM      2  N   UNL A   1      31.911  30.125  25.318  1.00  0.00    -0.356 N 
ATOM      3  O   UNL A   1      33.663  28.654  25.483  1.00  0.00    -0.275 OA
ATOM      4  C   UNL A   1      32.792  29.203  24.815  1.00  0.00     0.222 C 
ATOM      5  H   UNL A   1      31.230  30.513  24.723  1.00  0.00     0.163 HD
BRANCH   4   6
ATOM      6  C   UNL A   1      32.675  28.962  23.333  1.00  0.00     0.128 C 
BRANCH   6   7
ATOM      7  C   UNL A   1      31.781  27.810  22.867  1.00  0.00     0.049 C 
ATOM      8  C   UNL A   1      30.972  27.126  24.021  1.00  0.00     0.029 C 
ATOM      9  C   UNL A   1      30.395  28.296  22.314  1.00  0.00     0.029 C 
ATOM     10  C   UNL A   1      29.694  27.246  23.179  1.00  0.00     0.005 C 
BRANCH   7  11
ATOM     11  N   UNL A   1      32.377  26.779  21.957  1.00  0.00    -0.346 N 
ATOM     12  C   UNL A   1      32.880  25.505  22.087  1.00  0.00     0.258 C 
ATOM     13  H   UNL A   1      32.421  27.095  21.026  1.00  0.00     0.164 HD
ATOM     14  O   UNL A   1      33.194  24.877  21.078  1.00  0.00    -0.269 OA
BRANCH  12  15
ATOM     15  C   UNL A   1      33.198  24.919  23.391  1.00  0.00     0.117 A 
ATOM     16  C   UNL A   1      34.243  25.532  24.098  1.00  0.00     0.021 A 
ATOM     17  C   UNL A   1      32.503  23.859  23.975  1.00  0.00     0.282 A 
ATOM     18  C   UNL A   1      34.513  25.155  25.413  1.00  0.00     0.001 A 
ATOM     19  C   UNL A   1      32.757  23.489  25.305  1.00  0.00     0.086 A 
ATOM     20  C   UNL A   1      33.753  24.154  26.023  1.00  0.00     0.007 A 
BRANCH  17  21
ATOM     21  N   UNL A   1      31.449  23.178  23.253  1.00  0.00     0.063 N 
ATOM     22  O   UNL A   1      31.743  22.105  22.709  1.00  0.00    -0.258 OA
ATOM     23  O   UNL A   1      30.332  23.707  23.223  1.00  0.00    -0.258 OA
ENDBRANCH  17  21
ENDBRANCH  12  15
ENDBRANCH   7  11
ENDBRANCH   6   7
ENDBRANCH   4   6
ENDBRANCH   1   2
BRANCH   1  24
ATOM     24  C   UNL A   1      31.716  32.035  26.863  1.00  0.00     0.042 C 
BRANCH  24  25
ATOM     25  C   UNL A   1      32.935  32.818  27.340  1.00  0.00     0.118 C 
BRANCH  25  26
ATOM     26  N   UNL A   1      32.617  34.188  27.715  1.00  0.00    -0.352 N 
ATOM     27  C   UNL A   1      33.125  34.974  28.722  1.00  0.00     0.251 C 
ATOM     28  H   UNL A   1      31.928  34.620  27.161  1.00  0.00     0.163 HD
ATOM     29  O   UNL A   1      32.579  36.040  28.991  1.00  0.00    -0.269 OA
BRANCH  27  30
ATOM     30  C   UNL A   1      34.306  34.531  29.493  1.00  0.00     0.039 A 
ATOM     31  C   UNL A   1      34.110  33.874  30.711  1.00  0.00     0.014 A 
ATOM     32  C   UNL A   1      35.601  34.765  29.025  1.00  0.00     0.014 A 
ATOM     33  C   UNL A   1      35.209  33.378  31.416  1.00  0.00     0.010 A 
ATOM     34  C   UNL A   1      36.689  34.203  29.689  1.00  0.00     0.010 A 
ATOM     35  C   UNL A   1      36.505  33.496  30.887  1.00  0.00    -0.014 A 
BRANCH  35  36
ATOM     36  C   UNL A   1      37.673  32.853  31.542  1.00  0.00     0.031 A 
ATOM     37  C   UNL A   1      38.362  31.681  30.899  1.00  0.00     0.074 A 
ATOM     38  C   UNL A   1      38.045  33.259  32.773  1.00  0.00     0.049 A 
ATOM     39  N   UNL A   1      39.334  30.940  31.366  1.00  0.00    -0.248 NA
ATOM     40  C   UNL A   1      37.881  31.270  29.570  1.00  0.00     0.031 C 
ATOM     41  C   UNL A   1      37.408  34.334  33.538  1.00  0.00     0.029 A 
ATOM     42  N   UNL A   1      39.026  32.793  33.614  1.00  0.00    -0.354 N 
ATOM     43  C   UNL A   1      39.557  29.958  30.410  1.00  0.00     0.074 A 
ATOM     44  C   UNL A   1      38.599  30.178  29.348  1.00  0.00     0.031 C 
ATOM     45  C   UNL A   1      38.011  34.444  34.731  1.00  0.00     0.029 A 
ATOM     46  C   UNL A   1      39.051  33.426  34.835  1.00  0.00     0.049 A 
ATOM     47  H   UNL A   1      39.651  32.075  33.366  1.00  0.00     0.167 HD
ATOM     48  C   UNL A   1      40.491  28.976  30.403  1.00  0.00     0.034 A 
ATOM     49  C   UNL A   1      39.812  33.201  35.925  1.00  0.00     0.034 A 
ATOM     50  C   UNL A   1      41.467  28.781  31.441  1.00  0.00     0.049 A 
ATOM     51  C   UNL A   1      40.856  32.119  35.880  1.00  0.00     0.074 A 
ATOM     52  C   UNL A   1      42.511  27.874  31.479  1.00  0.00     0.029 A 
ATOM     53  N   UNL A   1      41.514  29.493  32.629  1.00  0.00    -0.354 N 
ATOM     54  N   UNL A   1      41.158  31.305  34.899  1.00  0.00    -0.248 NA
ATOM     55  C   UNL A   1      41.682  31.944  37.083  1.00  0.00     0.031 C 
ATOM     56  C   UNL A   1      43.173  28.018  32.703  1.00  0.00     0.029 A 
ATOM     57  C   UNL A   1      42.557  29.034  33.416  1.00  0.00     0.049 A 
ATOM     58  H   UNL A   1      40.896  30.218  32.877  1.00  0.00     0.167 HD
ATOM     59  C   UNL A   1      42.229  30.544  35.353  1.00  0.00     0.074 A 
ATOM     60  C   UNL A   1      42.538  31.010  36.688  1.00  0.00     0.031 C 
ATOM     61  C   UNL A   1      42.886  29.537  34.725  1.00  0.00     0.034 A 
BRANCH  48  62
ATOM     62  C   UNL A   1      40.535  28.059  29.207  1.00  0.00     0.023 A 
ATOM     63  C   UNL A   1      39.602  27.007  29.103  1.00  0.00     0.012 A 
ATOM     64  C   UNL A   1      41.450  28.276  28.159  1.00  0.00     0.148 A 
ATOM     65  C   UNL A   1      39.602  26.164  27.993  1.00  0.00     0.002 A 
ATOM     66  C   UNL A   1      41.415  27.460  27.035  1.00  0.00     0.091 A 
ATOM     67  F   UNL A   1      42.343  29.269  28.284  1.00  0.00    -0.205 F 
ATOM     68  C   UNL A   1      40.501  26.396  26.955  1.00  0.00     0.022 A 
BRANCH  66  69
ATOM     69  S   UNL A   1      42.476  27.724  25.610  1.00  0.00     0.127 S 
ATOM     70  O   UNL A   1      43.800  27.751  26.229  1.00  0.00    -0.237 OA
ATOM     71  O   UNL A   1      42.206  26.536  24.801  1.00  0.00    -0.237 OA
ATOM     72  O   UNL A   1      42.040  28.978  25.012  1.00  0.00    -0.744 OA
ENDBRANCH  66  69
ENDBRANCH  48  62
BRANCH  49  73
ATOM     73  C   UNL A   1      39.648  34.056  37.135  1.00  0.00     0.023 A 
ATOM     74  C   UNL A   1      40.107  35.386  37.110  1.00  0.00     0.012 A 
ATOM     75  C   UNL A   1      39.019  33.568  38.297  1.00  0.00     0.148 A 
ATOM     76  C   UNL A   1      39.972  36.207  38.230  1.00  0.00     0.002 A 
ATOM     77  C   UNL A   1      38.837  34.407  39.390  1.00  0.00     0.091 A 
ATOM     78  F   UNL A   1      38.600  32.294  38.305  1.00  0.00    -0.205 F 
ATOM     79  C   UNL A   1      39.328  35.721  39.365  1.00  0.00     0.022 A 
BRANCH  77  80
ATOM     80  S   UNL A   1      37.902  33.909  40.840  1.00  0.00     0.127 S 
ATOM     81  O   UNL A   1      36.742  33.257  40.239  1.00  0.00    -0.237 OA
ATOM     82  O   UNL A   1      38.839  33.006  41.508  1.00  0.00    -0.237 OA
ATOM     83  O   UNL A   1      37.628  35.138  41.573  1.00  0.00    -0.744 OA
ENDBRANCH  77  80
ENDBRANCH  49  73
BRANCH  61  84
ATOM     84  C   UNL A   1      44.025  28.881  35.461  1.00  0.00     0.023 A 
ATOM     85  C   UNL A   1      45.324  29.418  35.365  1.00  0.00     0.012 A 
ATOM     86  C   UNL A   1      43.795  27.777  36.307  1.00  0.00     0.148 A 
ATOM     87  C   UNL A   1      46.382  28.849  36.074  1.00  0.00     0.002 A 
ATOM     88  C   UNL A   1      44.844  27.246  37.049  1.00  0.00     0.091 A 
ATOM     89  F   UNL A   1      42.556  27.269  36.372  1.00  0.00    -0.205 F 
ATOM     90  C   UNL A   1      46.140  27.773  36.924  1.00  0.00     0.022 A 
BRANCH  88  91
ATOM     91  S   UNL A   1      44.611  25.922  38.239  1.00  0.00     0.127 S 
ATOM     92  O   UNL A   1      43.639  26.514  39.158  1.00  0.00    -0.237 OA
ATOM     93  O   UNL A   1      44.082  24.843  37.404  1.00  0.00    -0.237 OA
ATOM     94  O   UNL A   1      45.925  25.657  38.809  1.00  0.00    -0.744 OA
ENDBRANCH  88  91
ENDBRANCH  61  84
ENDBRANCH  35  36
ENDBRANCH  27  30
ENDBRANCH  25  26
ENDBRANCH  24  25
ENDBRANCH   1  24
TORSDOF 17
ENDMDL
MODEL 2
REMARK VINA RESULT:     -12.0      2.501      8.283
REMARK SMILES O=C(CC1(NC(=O)c2ccccc2[N+](=O)[O-])CCC1)NCCCNC(=O)c1ccc(-c2c3nc(c(-c4cccc(S(=O)(=O)[O-])c4F)c4ccc([nH]4)c(-c4cccc(S(=O)(=O)[O-])c4F)c4nc(c(-c5cccc(S(=O)(=O)[O-])c5F)c5ccc2[nH]5)C=C4)C=C3)cc1
REMARK SMILES IDX 21 1 20 2 1 3 2 4 3 6 4 7 17 8 19 9 18 10 5 11 6 12 7 14
REMARK SMILES IDX 8 15 9 16 13 17 10 18 12 19 11 20 14 21 15 22 16 23 22 24
REMARK SMILES IDX 23 25 24 26 25 27 26 29 27 30 28 31 89 32 29 33 88 34 30 35
REMARK SMILES IDX 31 36 32 37 82 38 33 39 87 40 81 41 83 42 34 43 86 44 80 45
REMARK SMILES IDX 79 46 35 48 67 49 47 50 66 51 48 52 51 53 65 54 84 55 49 56
REMARK SMILES IDX 50 57 64 59 85 60 52 61 36 62 37 63 45 64 38 65 40 66 46 67
REMARK SMILES IDX 39 68 41 69 42 70 43 71 44 72 68 73 69 74 77 75 70 76 72 77
REMARK SMILES IDX 78 78 71 79 73 80 74 81 75 82 76 83 53 84 54 85 62 86 55 87
REMARK SMILES IDX 57 88 63 89 56 90 58 91 59 92 60 93 61 94
REMARK H PARENT 20 5 5 13 24 28 83 47 51 58
REMARK Flexibility Score: inf
ROOT
ATOM      1  C   UNL A   1      32.780  29.294  24.602  1.00  0.00     0.117 C 
ENDROOT
BRANCH   1   2
ATOM      2  N   UNL A   1      33.344  28.093  25.185  1.00  0.00    -0.356 N 
ATOM      3  O   UNL A   1      32.983  26.780  23.339  1.00  0.00    -0.275 OA
ATOM      4  C   UNL A   1      33.390  26.912  24.490  1.00  0.00     0.222 C 
ATOM      5  H   UNL A   1      33.702  28.125  26.101  1.00  0.00     0.163 HD
BRANCH   4   6
ATOM      6  C   UNL A   1      33.908  25.737  25.277  1.00  0.00     0.128 C 
BRANCH   6   7
ATOM      7  C   UNL A   1      32.989  24.524  25.432  1.00  0.00     0.049 C 
ATOM      8  C   UNL A   1      33.343  23.611  26.655  1.00  0.00     0.029 C 
ATOM      9  C   UNL A   1      31.656  24.858  26.190  1.00  0.00     0.029 C 
ATOM     10  C   UNL A   1      31.868  23.631  27.081  1.00  0.00     0.005 C 
BRANCH   7  11
ATOM     11  N   UNL A   1      32.707  23.693  24.217  1.00  0.00    -0.346 N 
ATOM     12  C   UNL A   1      33.282  22.609  23.593  1.00  0.00     0.258 C 
ATOM     13  H   UNL A   1      31.902  24.003  23.741  1.00  0.00     0.164 HD
ATOM     14  O   UNL A   1      32.705  22.087  22.643  1.00  0.00    -0.269 OA
BRANCH  12  15
ATOM     15  C   UNL A   1      34.631  22.144  23.922  1.00  0.00     0.117 A 
ATOM     16  C   UNL A   1      35.680  22.993  23.542  1.00  0.00     0.021 A 
ATOM     17  C   UNL A   1      34.917  20.971  24.622  1.00  0.00     0.282 A 
ATOM     18  C   UNL A   1      36.985  22.720  23.953  1.00  0.00     0.001 A 
ATOM     19  C   UNL A   1      36.224  20.701  25.055  1.00  0.00     0.086 A 
ATOM     20  C   UNL A   1      37.251  21.591  24.731  1.00  0.00     0.007 A 
BRANCH  17  21
ATOM     21  N   UNL A   1      33.859  20.052  24.990  1.00  0.00     0.063 N 
ATOM     22  O   UNL A   1      33.770  19.005  24.333  1.00  0.00    -0.258 OA
ATOM     23  O   UNL A   1      33.116  20.369  25.926  1.00  0.00    -0.258 OA
ENDBRANCH  17  21
ENDBRANCH  12  15
ENDBRANCH   7  11
ENDBRANCH   6   7
ENDBRANCH   4   6
ENDBRANCH   1   2
BRANCH   1  24
ATOM     24  C   UNL A   1      31.821  29.995  25.553  1.00  0.00     0.042 C 
BRANCH  24  25
ATOM     25  C   UNL A   1      32.456  30.418  26.874  1.00  0.00     0.118 C 
BRANCH  25  26
ATOM     26  N   UNL A   1      32.621  31.860  26.987  1.00  0.00    -0.352 N 
ATOM     27  C   UNL A   1      33.608  32.596  27.599  1.00  0.00     0.251 C 
ATOM     28  H   UNL A   1      31.914  32.393  26.557  1.00  0.00     0.163 HD
ATOM     29  O   UNL A   1      33.457  33.806  27.747  1.00  0.00    -0.269 OA
BRANCH  27  30
ATOM     30  C   UNL A   1      34.833  31.935  28.098  1.00  0.00     0.039 A 
ATOM     31  C   UNL A   1      36.006  32.686  28.213  1.00  0.00     0.014 A 
ATOM     32  C   UNL A   1      34.830  30.582  28.445  1.00  0.00     0.014 A 
ATOM     33  C   UNL A   1      37.153  32.101  28.755  1.00  0.00     0.010 A 
ATOM     34  C   UNL A   1      35.950  30.023  29.058  1.00  0.00     0.010 A 
ATOM     35  C   UNL A   1      37.121  30.779  29.227  1.00  0.00    -0.014 A 
BRANCH  35  36
ATOM     36  C   UNL A   1      38.279  30.180  29.939  1.00  0.00     0.031 A 
ATOM     37  C   UNL A   1      38.644  30.634  31.326  1.00  0.00     0.074 A 
ATOM     38  C   UNL A   1      39.069  29.301  29.290  1.00  0.00     0.049 A 
ATOM     39  N   UNL A   1      39.670  30.291  32.062  1.00  0.00    -0.248 NA
ATOM     40  C   UNL A   1      37.755  31.621  31.961  1.00  0.00     0.031 C 
ATOM     41  C   UNL A   1      38.868  28.836  27.915  1.00  0.00     0.029 A 
ATOM     42  N   UNL A   1      40.221  28.666  29.687  1.00  0.00    -0.354 N 
ATOM     43  C   UNL A   1      39.573  31.042  33.226  1.00  0.00     0.074 A 
ATOM     44  C   UNL A   1      38.402  31.882  33.088  1.00  0.00     0.031 C 
ATOM     45  C   UNL A   1      39.860  27.996  27.584  1.00  0.00     0.029 A 
ATOM     46  C   UNL A   1      40.788  27.889  28.704  1.00  0.00     0.049 A 
ATOM     47  H   UNL A   1      40.604  28.759  30.589  1.00  0.00     0.167 HD
ATOM     48  C   UNL A   1      40.370  31.018  34.321  1.00  0.00     0.034 A 
ATOM     49  C   UNL A   1      41.936  27.182  28.696  1.00  0.00     0.034 A 
ATOM     50  C   UNL A   1      41.510  30.155  34.472  1.00  0.00     0.049 A 
ATOM     51  C   UNL A   1      42.789  27.156  29.934  1.00  0.00     0.074 A 
ATOM     52  C   UNL A   1      42.323  29.992  35.580  1.00  0.00     0.029 A 
ATOM     53  N   UNL A   1      42.009  29.321  33.485  1.00  0.00    -0.354 N 
ATOM     54  N   UNL A   1      42.591  27.749  31.085  1.00  0.00    -0.248 NA
ATOM     55  C   UNL A   1      44.011  26.339  29.882  1.00  0.00     0.031 C 
ATOM     56  C   UNL A   1      43.331  29.079  35.253  1.00  0.00     0.029 A 
ATOM     57  C   UNL A   1      43.130  28.653  33.950  1.00  0.00     0.049 A 
ATOM     58  H   UNL A   1      41.624  29.218  32.584  1.00  0.00     0.167 HD
ATOM     59  C   UNL A   1      43.642  27.353  31.904  1.00  0.00     0.074 A 
ATOM     60  C   UNL A   1      44.463  26.450  31.125  1.00  0.00     0.031 C 
ATOM     61  C   UNL A   1      43.913  27.719  33.182  1.00  0.00     0.034 A 
BRANCH  48  62
ATOM     62  C   UNL A   1      40.007  31.923  35.471  1.00  0.00     0.023 A 
ATOM     63  C   UNL A   1      40.632  33.181  35.589  1.00  0.00     0.012 A 
ATOM     64  C   UNL A   1      39.007  31.559  36.394  1.00  0.00     0.148 A 
ATOM     65  C   UNL A   1      40.293  34.049  36.626  1.00  0.00     0.002 A 
ATOM     66  C   UNL A   1      38.642  32.448  37.398  1.00  0.00     0.091 A 
ATOM     67  F   UNL A   1      38.438  30.350  36.279  1.00  0.00    -0.205 F 
ATOM     68  C   UNL A   1      39.292  33.687  37.524  1.00  0.00     0.022 A 
BRANCH  66  69
ATOM     69  S   UNL A   1      37.312  32.109  38.556  1.00  0.00     0.127 S 
ATOM     70  O   UNL A   1      37.886  32.584  39.813  1.00  0.00    -0.237 OA
ATOM     71  O   UNL A   1      36.228  32.939  38.029  1.00  0.00    -0.237 OA
ATOM     72  O   UNL A   1      37.069  30.675  38.481  1.00  0.00    -0.744 OA
ENDBRANCH  66  69
ENDBRANCH  48  62
BRANCH  49  73
ATOM     73  C   UNL A   1      42.319  26.399  27.487  1.00  0.00     0.023 A 
ATOM     74  C   UNL A   1      43.007  27.037  26.438  1.00  0.00     0.012 A 
ATOM     75  C   UNL A   1      42.029  25.024  27.382  1.00  0.00     0.148 A 
ATOM     76  C   UNL A   1      43.373  26.331  25.293  1.00  0.00     0.002 A 
ATOM     77  C   UNL A   1      42.445  24.313  26.263  1.00  0.00     0.091 A 
ATOM     78  F   UNL A   1      41.362  24.437  28.386  1.00  0.00    -0.205 F 
ATOM     79  C   UNL A   1      43.101  24.968  25.210  1.00  0.00     0.022 A 
BRANCH  77  80
ATOM     80  S   UNL A   1      42.258  22.532  26.131  1.00  0.00     0.127 S 
ATOM     81  O   UNL A   1      40.805  22.381  26.151  1.00  0.00    -0.237 OA
ATOM     82  O   UNL A   1      42.889  22.256  24.840  1.00  0.00    -0.237 OA
ATOM     83  O   UNL A   1      42.968  21.976  27.275  1.00  0.00    -0.744 OA
ENDBRANCH  77  80
ENDBRANCH  49  73
BRANCH  61  84
ATOM     84  C   UNL A   1      45.134  27.127  33.834  1.00  0.00     0.023 A 
ATOM     85  C   UNL A   1      46.360  27.820  33.787  1.00  0.00     0.012 A 
ATOM     86  C   UNL A   1      45.051  25.920  34.558  1.00  0.00     0.148 A 
ATOM     87  C   UNL A   1      47.491  27.307  34.423  1.00  0.00     0.002 A 
ATOM     88  C   UNL A   1      46.169  25.440  35.230  1.00  0.00     0.091 A 
ATOM     89  F   UNL A   1      43.880  25.266  34.577  1.00  0.00    -0.205 F 
ATOM     90  C   UNL A   1      47.392  26.126  35.153  1.00  0.00     0.022 A 
BRANCH  88  91
ATOM     91  S   UNL A   1      46.115  23.979  36.273  1.00  0.00     0.127 S 
ATOM     92  O   UNL A   1      47.500  23.890  36.734  1.00  0.00    -0.237 OA
ATOM     93  O   UNL A   1      45.152  24.368  37.303  1.00  0.00    -0.237 OA
ATOM     94  O   UNL A   1      45.673  22.888  35.414  1.00  0.00    -0.744 OA
ENDBRANCH  88  91
ENDBRANCH  61  84
ENDBRANCH  35  36
ENDBRANCH  27  30
ENDBRANCH  25  26
ENDBRANCH  24  25
ENDBRANCH   1  24
TORSDOF 17
ENDMDL
MODEL 3
REMARK VINA RESULT:     -12.0      2.478      8.083
REMARK SMILES O=C(CC1(NC(=O)c2ccccc2[N+](=O)[O-])CCC1)NCCCNC(=O)c1ccc(-c2c3nc(c(-c4cccc(S(=O)(=O)[O-])c4F)c4ccc([nH]4)c(-c4cccc(S(=O)(=O)[O-])c4F)c4nc(c(-c5cccc(S(=O)(=O)[O-])c5F)c5ccc2[nH]5)C=C4)C=C3)cc1
REMARK SMILES IDX 21 1 20 2 1 3 2 4 3 6 4 7 17 8 19 9 18 10 5 11 6 12 7 14
REMARK SMILES IDX 8 15 9 16 13 17 10 18 12 19 11 20 14 21 15 22 16 23 22 24
REMARK SMILES IDX 23 25 24 26 25 27 26 29 27 30 28 31 89 32 29 33 88 34 30 35
REMARK SMILES IDX 31 36 32 37 82 38 33 39 87 40 81 41 83 42 34 43 86 44 80 45
REMARK SMILES IDX 79 46 35 48 67 49 47 50 66 51 48 52 51 53 65 54 84 55 49 56
REMARK SMILES IDX 50 57 64 59 85 60 52 61 36 62 37 63 45 64 38 65 40 66 46 67
REMARK SMILES IDX 39 68 41 69 42 70 43 71 44 72 68 73 69 74 77 75 70 76 72 77
REMARK SMILES IDX 78 78 71 79 73 80 74 81 75 82 76 83 53 84 54 85 62 86 55 87
REMARK SMILES IDX 57 88 63 89 56 90 58 91 59 92 60 93 61 94
REMARK H PARENT 20 5 5 13 24 28 83 47 51 58
REMARK Flexibility Score: inf
ROOT
ATOM      1  C   UNL A   1      33.001  29.266  24.766  1.00  0.00     0.117 C 
ENDROOT
BRANCH   1   2
ATOM      2  N   UNL A   1      33.283  28.038  25.484  1.00  0.00    -0.356 N 
ATOM      3  O   UNL A   1      33.427  26.731  23.605  1.00  0.00    -0.275 OA
ATOM      4  C   UNL A   1      33.468  26.850  24.826  1.00  0.00     0.222 C 
ATOM      5  H   UNL A   1      33.343  28.058  26.466  1.00  0.00     0.163 HD
BRANCH   4   6
ATOM      6  C   UNL A   1      33.645  25.654  25.723  1.00  0.00     0.128 C 
BRANCH   6   7
ATOM      7  C   UNL A   1      32.673  24.484  25.550  1.00  0.00     0.049 C 
ATOM      8  C   UNL A   1      32.865  23.338  26.600  1.00  0.00     0.029 C 
ATOM      9  C   UNL A   1      31.281  24.740  26.228  1.00  0.00     0.029 C 
ATOM     10  C   UNL A   1      31.356  23.357  26.878  1.00  0.00     0.005 C 
BRANCH   7  11
ATOM     11  N   UNL A   1      32.490  23.916  24.175  1.00  0.00    -0.346 N 
ATOM     12  C   UNL A   1      32.972  22.838  23.469  1.00  0.00     0.258 C 
ATOM     13  H   UNL A   1      31.865  24.454  23.638  1.00  0.00     0.164 HD
ATOM     14  O   UNL A   1      32.509  22.592  22.358  1.00  0.00    -0.269 OA
BRANCH  12  15
ATOM     15  C   UNL A   1      34.124  22.057  23.925  1.00  0.00     0.117 A 
ATOM     16  C   UNL A   1      35.358  22.723  23.912  1.00  0.00     0.021 A 
ATOM     17  C   UNL A   1      34.054  20.751  24.412  1.00  0.00     0.282 A 
ATOM     18  C   UNL A   1      36.483  22.123  24.478  1.00  0.00     0.001 A 
ATOM     19  C   UNL A   1      35.177  20.150  25.001  1.00  0.00     0.086 A 
ATOM     20  C   UNL A   1      36.385  20.850  25.046  1.00  0.00     0.007 A 
BRANCH  17  21
ATOM     21  N   UNL A   1      32.803  20.022  24.399  1.00  0.00     0.063 N 
ATOM     22  O   UNL A   1      32.070  20.145  25.390  1.00  0.00    -0.258 OA
ATOM     23  O   UNL A   1      32.549  19.325  23.409  1.00  0.00    -0.258 OA
ENDBRANCH  17  21
ENDBRANCH  12  15
ENDBRANCH   7  11
ENDBRANCH   6   7
ENDBRANCH   4   6
ENDBRANCH   1   2
BRANCH   1  24
ATOM     24  C   UNL A   1      31.776  29.981  25.318  1.00  0.00     0.042 C 
BRANCH  24  25
ATOM     25  C   UNL A   1      31.934  30.464  26.756  1.00  0.00     0.118 C 
BRANCH  25  26
ATOM     26  N   UNL A   1      32.063  31.911  26.857  1.00  0.00    -0.352 N 
ATOM     27  C   UNL A   1      33.015  32.677  27.486  1.00  0.00     0.251 C 
ATOM     28  H   UNL A   1      31.355  32.423  26.402  1.00  0.00     0.163 HD
ATOM     29  O   UNL A   1      32.832  33.884  27.616  1.00  0.00    -0.269 OA
BRANCH  27  30
ATOM     30  C   UNL A   1      34.241  32.051  28.025  1.00  0.00     0.039 A 
ATOM     31  C   UNL A   1      35.359  32.854  28.266  1.00  0.00     0.014 A 
ATOM     32  C   UNL A   1      34.294  30.680  28.287  1.00  0.00     0.014 A 
ATOM     33  C   UNL A   1      36.501  32.296  28.848  1.00  0.00     0.010 A 
ATOM     34  C   UNL A   1      35.402  30.142  28.939  1.00  0.00     0.010 A 
ATOM     35  C   UNL A   1      36.514  30.946  29.234  1.00  0.00    -0.014 A 
BRANCH  35  36
ATOM     36  C   UNL A   1      37.657  30.364  29.984  1.00  0.00     0.031 A 
ATOM     37  C   UNL A   1      37.953  30.806  31.391  1.00  0.00     0.074 A 
ATOM     38  C   UNL A   1      38.494  29.513  29.356  1.00  0.00     0.049 A 
ATOM     39  N   UNL A   1      38.957  30.476  32.163  1.00  0.00    -0.248 NA
ATOM     40  C   UNL A   1      37.017  31.762  32.002  1.00  0.00     0.031 C 
ATOM     41  C   UNL A   1      38.360  29.065  27.968  1.00  0.00     0.029 A 
ATOM     42  N   UNL A   1      39.643  28.901  29.791  1.00  0.00    -0.354 N 
ATOM     43  C   UNL A   1      38.794  31.208  33.333  1.00  0.00     0.074 A 
ATOM     44  C   UNL A   1      37.610  32.022  33.159  1.00  0.00     0.031 C 
ATOM     45  C   UNL A   1      39.384  28.254  27.666  1.00  0.00     0.029 A 
ATOM     46  C   UNL A   1      40.268  28.151  28.822  1.00  0.00     0.049 A 
ATOM     47  H   UNL A   1      39.987  28.989  30.709  1.00  0.00     0.167 HD
ATOM     48  C   UNL A   1      39.546  31.186  34.459  1.00  0.00     0.034 A 
ATOM     49  C   UNL A   1      41.433  27.472  28.851  1.00  0.00     0.034 A 
ATOM     50  C   UNL A   1      40.700  30.348  34.645  1.00  0.00     0.049 A 
ATOM     51  C   UNL A   1      42.235  27.448  30.122  1.00  0.00     0.074 A 
ATOM     52  C   UNL A   1      41.471  30.187  35.783  1.00  0.00     0.029 A 
ATOM     53  N   UNL A   1      41.259  29.541  33.668  1.00  0.00    -0.354 N 
ATOM     54  N   UNL A   1      41.976  28.019  31.272  1.00  0.00    -0.248 NA
ATOM     55  C   UNL A   1      43.477  26.661  30.109  1.00  0.00     0.031 C 
ATOM     56  C   UNL A   1      42.514  29.303  35.485  1.00  0.00     0.029 A 
ATOM     57  C   UNL A   1      42.376  28.893  34.169  1.00  0.00     0.049 A 
ATOM     58  H   UNL A   1      40.914  29.442  32.751  1.00  0.00     0.167 HD
ATOM     59  C   UNL A   1      43.002  27.636  32.128  1.00  0.00     0.074 A 
ATOM     60  C   UNL A   1      43.875  26.764  31.371  1.00  0.00     0.031 C 
ATOM     61  C   UNL A   1      43.211  27.989  33.421  1.00  0.00     0.034 A 
BRANCH  48  62
ATOM     62  C   UNL A   1      39.115  32.065  35.606  1.00  0.00     0.023 A 
ATOM     63  C   UNL A   1      38.209  31.564  36.563  1.00  0.00     0.012 A 
ATOM     64  C   UNL A   1      39.653  33.355  35.774  1.00  0.00     0.148 A 
ATOM     65  C   UNL A   1      37.818  32.345  37.649  1.00  0.00     0.002 A 
ATOM     66  C   UNL A   1      39.294  34.111  36.884  1.00  0.00     0.091 A 
ATOM     67  F   UNL A   1      40.499  33.823  34.844  1.00  0.00    -0.205 F 
ATOM     68  C   UNL A   1      38.367  33.614  37.814  1.00  0.00     0.022 A 
BRANCH  66  69
ATOM     69  S   UNL A   1      40.005  35.724  37.230  1.00  0.00     0.127 S 
ATOM     70  O   UNL A   1      39.655  36.467  36.021  1.00  0.00    -0.237 OA
ATOM     71  O   UNL A   1      39.272  36.131  38.430  1.00  0.00    -0.237 OA
ATOM     72  O   UNL A   1      41.429  35.499  37.436  1.00  0.00    -0.744 OA
ENDBRANCH  66  69
ENDBRANCH  48  62
BRANCH  49  73
ATOM     73  C   UNL A   1      41.883  26.716  27.648  1.00  0.00     0.023 A 
ATOM     74  C   UNL A   1      42.542  27.399  26.608  1.00  0.00     0.012 A 
ATOM     75  C   UNL A   1      41.686  25.325  27.539  1.00  0.00     0.148 A 
ATOM     76  C   UNL A   1      42.970  26.719  25.468  1.00  0.00     0.002 A 
ATOM     77  C   UNL A   1      42.164  24.644  26.427  1.00  0.00     0.091 A 
ATOM     78  F   UNL A   1      41.046  24.695  28.535  1.00  0.00    -0.205 F 
ATOM     79  C   UNL A   1      42.790  25.340  25.382  1.00  0.00     0.022 A 
BRANCH  77  80
ATOM     80  S   UNL A   1      42.097  22.854  26.294  1.00  0.00     0.127 S 
ATOM     81  O   UNL A   1      42.874  22.437  27.458  1.00  0.00    -0.237 OA
ATOM     82  O   UNL A   1      40.659  22.598  26.389  1.00  0.00    -0.237 OA
ATOM     83  O   UNL A   1      42.678  22.534  24.997  1.00  0.00    -0.744 OA
ENDBRANCH  77  80
ENDBRANCH  49  73
BRANCH  61  84
ATOM     84  C   UNL A   1      44.420  27.416  34.115  1.00  0.00     0.023 A 
ATOM     85  C   UNL A   1      45.652  28.095  34.050  1.00  0.00     0.012 A 
ATOM     86  C   UNL A   1      44.316  26.244  34.892  1.00  0.00     0.148 A 
ATOM     87  C   UNL A   1      46.770  27.601  34.722  1.00  0.00     0.002 A 
ATOM     88  C   UNL A   1      45.421  25.786  35.599  1.00  0.00     0.091 A 
ATOM     89  F   UNL A   1      43.139  25.603  34.927  1.00  0.00    -0.205 F 
ATOM     90  C   UNL A   1      46.652  26.456  35.505  1.00  0.00     0.022 A 
BRANCH  88  91
ATOM     91  S   UNL A   1      45.340  24.375  36.707  1.00  0.00     0.127 S 
ATOM     92  O   UNL A   1      44.955  23.300  35.794  1.00  0.00    -0.237 OA
ATOM     93  O   UNL A   1      46.714  24.291  37.203  1.00  0.00    -0.237 OA
ATOM     94  O   UNL A   1      44.351  24.715  37.721  1.00  0.00    -0.744 OA
ENDBRANCH  88  91
ENDBRANCH  61  84
ENDBRANCH  35  36
ENDBRANCH  27  30
ENDBRANCH  25  26
ENDBRANCH  24  25
ENDBRANCH   1  24
TORSDOF 17
ENDMDL
