MODEL 1
REMARK VINA RESULT:     -11.8      0.000      0.000
REMARK SMILES CC[C@@](O)(C(=O)NCCCNC(=O)c1ccc(-c2c3nc(c(-c4cccc(S(=O)(=O)[O-])c4F)c4ccc([nH]4)c(-c4cccc(S(=O)(=O)[O-])c4F)c4nc(c(-c5cccc(S(=O)(=O)[O-])c5F)c5ccc2[nH]5)C=C4)C=C3)cc1)[C@@H]1CCOc2ccccc21
REMARK SMILES IDX 10 1 9 2 8 3 7 4 5 5 6 6 3 8 2 9 1 10 4 11 77 13 78 14 86 15
REMARK SMILES IDX 79 16 81 17 85 18 80 19 82 20 84 21 83 22 11 23 12 24 13 26
REMARK SMILES IDX 14 27 15 28 76 29 16 30 75 31 17 32 18 33 19 34 69 35 20 36
REMARK SMILES IDX 74 37 68 38 70 39 21 40 73 41 67 42 66 43 22 45 54 46 34 47
REMARK SMILES IDX 53 48 35 49 38 50 52 51 71 52 36 53 37 54 51 56 72 57 39 58
REMARK SMILES IDX 23 59 24 60 32 61 25 62 27 63 33 64 26 65 28 66 29 67 30 68
REMARK SMILES IDX 31 69 55 70 56 71 64 72 57 73 59 74 65 75 58 76 60 77 61 78
REMARK SMILES IDX 62 79 63 80 40 81 41 82 49 83 42 84 44 85 50 86 43 87 45 88
REMARK SMILES IDX 46 89 47 90 48 91
REMARK H PARENT 7 7 4 12 11 25 70 44 38 55
REMARK Flexibility Score: inf
ROOT
ATOM      1  C   UNL A   1      32.721  29.711  25.649  1.00  0.00     0.118 C 
ENDROOT
BRANCH   1   2
ATOM      2  C   UNL A   1      31.537  28.770  25.837  1.00  0.00     0.042 C 
BRANCH   2   3
ATOM      3  C   UNL A   1      31.637  27.835  27.034  1.00  0.00     0.117 C 
BRANCH   3   4
ATOM      4  N   UNL A   1      31.089  26.516  26.785  1.00  0.00    -0.354 N 
ATOM      5  C   UNL A   1      31.790  25.384  26.483  1.00  0.00     0.252 C 
ATOM      6  O   UNL A   1      31.409  24.371  27.078  1.00  0.00    -0.272 OA
ATOM      7  H   UNL A   1      30.110  26.427  26.839  1.00  0.00     0.163 HD
BRANCH   5   8
ATOM      8  C   UNL A   1      33.016  25.391  25.504  1.00  0.00     0.149 C 
BRANCH   8   9
ATOM      9  C   UNL A   1      32.676  25.816  24.049  1.00  0.00     0.043 C 
ATOM     10  C   UNL A   1      33.653  26.822  23.415  1.00  0.00     0.007 C 
ENDBRANCH   8   9
BRANCH   8  11
ATOM     11  O   UNL A   1      33.839  26.459  26.061  1.00  0.00    -0.379 OA
ATOM     12  H   UNL A   1      33.745  27.257  25.518  1.00  0.00     0.212 HD
ENDBRANCH   8  11
BRANCH   8  13
ATOM     13  C   UNL A   1      33.834  24.038  25.613  1.00  0.00     0.068 C 
ATOM     14  C   UNL A   1      35.350  24.167  25.455  1.00  0.00     0.053 C 
ATOM     15  C   UNL A   1      33.529  22.754  24.857  1.00  0.00     0.001 A 
ATOM     16  C   UNL A   1      36.035  22.971  26.122  1.00  0.00     0.230 C 
ATOM     17  C   UNL A   1      34.247  21.627  25.292  1.00  0.00     0.122 A 
ATOM     18  C   UNL A   1      32.550  22.569  23.879  1.00  0.00     0.008 A 
ATOM     19  O   UNL A   1      35.336  21.721  26.114  1.00  0.00    -0.493 OA
ATOM     20  C   UNL A   1      33.842  20.339  24.950  1.00  0.00     0.047 A 
ATOM     21  C   UNL A   1      32.156  21.275  23.513  1.00  0.00     0.001 A 
ATOM     22  C   UNL A   1      32.771  20.161  24.081  1.00  0.00     0.004 A 
ENDBRANCH   8  13
ENDBRANCH   5   8
ENDBRANCH   3   4
ENDBRANCH   2   3
ENDBRANCH   1   2
BRANCH   1  23
ATOM     23  N   UNL A   1      32.459  31.067  26.111  1.00  0.00    -0.352 N 
ATOM     24  C   UNL A   1      33.092  31.808  27.082  1.00  0.00     0.251 C 
ATOM     25  H   UNL A   1      31.714  31.524  25.660  1.00  0.00     0.163 HD
ATOM     26  O   UNL A   1      32.612  32.879  27.436  1.00  0.00    -0.269 OA
BRANCH  24  27
ATOM     27  C   UNL A   1      34.334  31.309  27.714  1.00  0.00     0.039 A 
ATOM     28  C   UNL A   1      35.364  32.214  27.986  1.00  0.00     0.014 A 
ATOM     29  C   UNL A   1      34.493  29.957  28.028  1.00  0.00     0.014 A 
ATOM     30  C   UNL A   1      36.523  31.774  28.631  1.00  0.00     0.010 A 
ATOM     31  C   UNL A   1      35.607  29.539  28.752  1.00  0.00     0.010 A 
ATOM     32  C   UNL A   1      36.640  30.439  29.052  1.00  0.00    -0.014 A 
BRANCH  32  33
ATOM     33  C   UNL A   1      37.833  29.969  29.805  1.00  0.00     0.031 A 
ATOM     34  C   UNL A   1      38.095  30.465  31.204  1.00  0.00     0.074 A 
ATOM     35  C   UNL A   1      38.724  29.155  29.203  1.00  0.00     0.049 A 
ATOM     36  N   UNL A   1      39.097  30.195  32.000  1.00  0.00    -0.248 NA
ATOM     37  C   UNL A   1      37.121  31.410  31.772  1.00  0.00     0.031 C 
ATOM     38  C   UNL A   1      38.627  28.667  27.825  1.00  0.00     0.029 A 
ATOM     39  N   UNL A   1      39.897  28.613  29.664  1.00  0.00    -0.354 N 
ATOM     40  C   UNL A   1      38.896  30.962  33.141  1.00  0.00     0.074 A 
ATOM     41  C   UNL A   1      37.695  31.738  32.920  1.00  0.00     0.031 C 
ATOM     42  C   UNL A   1      39.686  27.886  27.559  1.00  0.00     0.029 A 
ATOM     43  C   UNL A   1      40.555  27.844  28.730  1.00  0.00     0.049 A 
ATOM     44  H   UNL A   1      40.236  28.759  30.576  1.00  0.00     0.167 HD
ATOM     45  C   UNL A   1      39.625  30.999  34.282  1.00  0.00     0.034 A 
ATOM     46  C   UNL A   1      41.728  27.186  28.807  1.00  0.00     0.034 A 
ATOM     47  C   UNL A   1      40.795  30.196  34.514  1.00  0.00     0.049 A 
ATOM     48  C   UNL A   1      42.500  27.215  30.097  1.00  0.00     0.074 A 
ATOM     49  C   UNL A   1      41.550  30.089  35.669  1.00  0.00     0.029 A 
ATOM     50  N   UNL A   1      41.390  29.373  33.570  1.00  0.00    -0.354 N 
ATOM     51  N   UNL A   1      42.205  27.819  31.223  1.00  0.00    -0.248 NA
ATOM     52  C   UNL A   1      43.750  26.442  30.142  1.00  0.00     0.031 C 
ATOM     53  C   UNL A   1      42.623  29.230  35.411  1.00  0.00     0.029 A 
ATOM     54  C   UNL A   1      42.512  28.768  34.111  1.00  0.00     0.049 A 
ATOM     55  H   UNL A   1      41.064  29.239  32.651  1.00  0.00     0.167 HD
ATOM     56  C   UNL A   1      43.207  27.466  32.120  1.00  0.00     0.074 A 
ATOM     57  C   UNL A   1      44.106  26.580  31.411  1.00  0.00     0.031 C 
ATOM     58  C   UNL A   1      43.373  27.849  33.410  1.00  0.00     0.034 A 
BRANCH  45  59
ATOM     59  C   UNL A   1      39.155  31.912  35.386  1.00  0.00     0.023 A 
ATOM     60  C   UNL A   1      38.213  31.448  36.328  1.00  0.00     0.012 A 
ATOM     61  C   UNL A   1      39.685  33.210  35.524  1.00  0.00     0.148 A 
ATOM     62  C   UNL A   1      37.774  32.273  37.362  1.00  0.00     0.002 A 
ATOM     63  C   UNL A   1      39.281  34.010  36.588  1.00  0.00     0.091 A 
ATOM     64  F   UNL A   1      40.565  33.642  34.610  1.00  0.00    -0.205 F 
ATOM     65  C   UNL A   1      38.316  33.548  37.498  1.00  0.00     0.022 A 
BRANCH  63  66
ATOM     66  S   UNL A   1      39.980  35.634  36.900  1.00  0.00     0.127 S 
ATOM     67  O   UNL A   1      39.302  36.014  38.138  1.00  0.00    -0.237 OA
ATOM     68  O   UNL A   1      41.404  35.331  37.053  1.00  0.00    -0.237 OA
ATOM     69  O   UNL A   1      39.653  36.443  35.735  1.00  0.00    -0.744 OA
ENDBRANCH  63  66
ENDBRANCH  45  59
BRANCH  46  70
ATOM     70  C   UNL A   1      42.214  26.385  27.646  1.00  0.00     0.023 A 
ATOM     71  C   UNL A   1      43.055  26.989  26.692  1.00  0.00     0.012 A 
ATOM     72  C   UNL A   1      41.863  25.030  27.492  1.00  0.00     0.148 A 
ATOM     73  C   UNL A   1      43.507  26.271  25.584  1.00  0.00     0.002 A 
ATOM     74  C   UNL A   1      42.363  24.304  26.417  1.00  0.00     0.091 A 
ATOM     75  F   UNL A   1      41.055  24.475  28.406  1.00  0.00    -0.205 F 
ATOM     76  C   UNL A   1      43.169  24.927  25.452  1.00  0.00     0.022 A 
BRANCH  74  77
ATOM     77  S   UNL A   1      42.088  22.539  26.234  1.00  0.00     0.127 S 
ATOM     78  O   UNL A   1      42.690  22.014  27.458  1.00  0.00    -0.237 OA
ATOM     79  O   UNL A   1      40.628  22.465  26.183  1.00  0.00    -0.237 OA
ATOM     80  O   UNL A   1      42.752  22.162  24.993  1.00  0.00    -0.744 OA
ENDBRANCH  74  77
ENDBRANCH  46  70
BRANCH  58  81
ATOM     81  C   UNL A   1      44.546  27.276  34.165  1.00  0.00     0.023 A 
ATOM     82  C   UNL A   1      45.777  27.962  34.185  1.00  0.00     0.012 A 
ATOM     83  C   UNL A   1      44.403  26.088  34.908  1.00  0.00     0.148 A 
ATOM     84  C   UNL A   1      46.859  27.452  34.902  1.00  0.00     0.002 A 
ATOM     85  C   UNL A   1      45.469  25.616  35.664  1.00  0.00     0.091 A 
ATOM     86  F   UNL A   1      43.231  25.440  34.862  1.00  0.00    -0.205 F 
ATOM     87  C   UNL A   1      46.702  26.287  35.650  1.00  0.00     0.022 A 
BRANCH  85  88
ATOM     88  S   UNL A   1      45.329  24.182  36.737  1.00  0.00     0.127 S 
ATOM     89  O   UNL A   1      44.628  23.232  35.874  1.00  0.00    -0.237 OA
ATOM     90  O   UNL A   1      46.730  23.851  36.996  1.00  0.00    -0.237 OA
ATOM     91  O   UNL A   1      44.587  24.627  37.908  1.00  0.00    -0.744 OA
ENDBRANCH  85  88
ENDBRANCH  58  81
ENDBRANCH  32  33
ENDBRANCH  24  27
ENDBRANCH   1  23
TORSDOF 16
ENDMDL
MODEL 2
REMARK VINA RESULT:     -11.8      5.546      8.813
REMARK SMILES CC[C@@](O)(C(=O)NCCCNC(=O)c1ccc(-c2c3nc(c(-c4cccc(S(=O)(=O)[O-])c4F)c4ccc([nH]4)c(-c4cccc(S(=O)(=O)[O-])c4F)c4nc(c(-c5cccc(S(=O)(=O)[O-])c5F)c5ccc2[nH]5)C=C4)C=C3)cc1)[C@@H]1CCOc2ccccc21
REMARK SMILES IDX 10 1 9 2 8 3 7 4 5 5 6 6 3 8 2 9 1 10 4 11 77 13 78 14 86 15
REMARK SMILES IDX 79 16 81 17 85 18 80 19 82 20 84 21 83 22 11 23 12 24 13 26
REMARK SMILES IDX 14 27 15 28 76 29 16 30 75 31 17 32 18 33 19 34 69 35 20 36
REMARK SMILES IDX 74 37 68 38 70 39 21 40 73 41 67 42 66 43 22 45 54 46 34 47
REMARK SMILES IDX 53 48 35 49 38 50 52 51 71 52 36 53 37 54 51 56 72 57 39 58
REMARK SMILES IDX 23 59 24 60 32 61 25 62 27 63 33 64 26 65 28 66 29 67 30 68
REMARK SMILES IDX 31 69 55 70 56 71 64 72 57 73 59 74 65 75 58 76 60 77 61 78
REMARK SMILES IDX 62 79 63 80 40 81 41 82 49 83 42 84 44 85 50 86 43 87 45 88
REMARK SMILES IDX 46 89 47 90 48 91
REMARK H PARENT 7 7 4 12 11 25 70 44 38 55
REMARK Flexibility Score: inf
ROOT
ATOM      1  C   UNL A   1      38.763  20.279  25.753  1.00  0.00     0.118 C 
ENDROOT
BRANCH   1   2
ATOM      2  C   UNL A   1      37.775  19.918  24.649  1.00  0.00     0.042 C 
BRANCH   2   3
ATOM      3  C   UNL A   1      36.307  20.069  25.020  1.00  0.00     0.117 C 
BRANCH   3   4
ATOM      4  N   UNL A   1      36.034  21.230  25.843  1.00  0.00    -0.354 N 
ATOM      5  C   UNL A   1      34.868  21.514  26.495  1.00  0.00     0.252 C 
ATOM      6  O   UNL A   1      35.013  21.934  27.647  1.00  0.00    -0.272 OA
ATOM      7  H   UNL A   1      36.765  21.881  25.943  1.00  0.00     0.163 HD
BRANCH   5   8
ATOM      8  C   UNL A   1      33.462  21.268  25.845  1.00  0.00     0.149 C 
BRANCH   8   9
ATOM      9  C   UNL A   1      33.503  20.908  24.333  1.00  0.00     0.043 C 
ATOM     10  C   UNL A   1      32.736  19.634  23.942  1.00  0.00     0.007 C 
ENDBRANCH   8   9
BRANCH   8  11
ATOM     11  O   UNL A   1      33.015  20.065  26.540  1.00  0.00    -0.379 OA
ATOM     12  H   UNL A   1      32.073  20.147  26.754  1.00  0.00     0.212 HD
ENDBRANCH   8  11
BRANCH   8  13
ATOM     13  C   UNL A   1      32.459  22.441  26.207  1.00  0.00     0.068 C 
ATOM     14  C   UNL A   1      30.996  22.199  25.832  1.00  0.00     0.053 C 
ATOM     15  C   UNL A   1      32.652  23.910  25.864  1.00  0.00     0.001 A 
ATOM     16  C   UNL A   1      30.095  23.079  26.702  1.00  0.00     0.230 C 
ATOM     17  C   UNL A   1      31.749  24.787  26.490  1.00  0.00     0.122 A 
ATOM     18  C   UNL A   1      33.680  24.465  25.100  1.00  0.00     0.008 A 
ATOM     19  O   UNL A   1      30.613  24.350  27.115  1.00  0.00    -0.493 OA
ATOM     20  C   UNL A   1      32.002  26.155  26.556  1.00  0.00     0.047 A 
ATOM     21  C   UNL A   1      33.924  25.844  25.143  1.00  0.00     0.001 A 
ATOM     22  C   UNL A   1      33.113  26.682  25.906  1.00  0.00     0.004 A 
ENDBRANCH   8  13
ENDBRANCH   5   8
ENDBRANCH   3   4
ENDBRANCH   2   3
ENDBRANCH   1   2
BRANCH   1  23
ATOM     23  N   UNL A   1      39.813  19.286  25.935  1.00  0.00    -0.352 N 
ATOM     24  C   UNL A   1      41.157  19.453  26.173  1.00  0.00     0.251 C 
ATOM     25  H   UNL A   1      39.514  18.350  25.877  1.00  0.00     0.163 HD
ATOM     26  O   UNL A   1      41.905  18.482  26.133  1.00  0.00    -0.269 OA
BRANCH  24  27
ATOM     27  C   UNL A   1      41.706  20.799  26.455  1.00  0.00     0.039 A 
ATOM     28  C   UNL A   1      42.013  21.641  25.383  1.00  0.00     0.014 A 
ATOM     29  C   UNL A   1      41.930  21.228  27.765  1.00  0.00     0.014 A 
ATOM     30  C   UNL A   1      42.480  22.935  25.628  1.00  0.00     0.010 A 
ATOM     31  C   UNL A   1      42.307  22.546  28.009  1.00  0.00     0.010 A 
ATOM     32  C   UNL A   1      42.598  23.412  26.944  1.00  0.00    -0.014 A 
BRANCH  32  33
ATOM     33  C   UNL A   1      43.023  24.809  27.223  1.00  0.00     0.031 A 
ATOM     34  C   UNL A   1      42.072  25.779  27.876  1.00  0.00     0.074 A 
ATOM     35  C   UNL A   1      44.239  25.230  26.819  1.00  0.00     0.049 A 
ATOM     36  N   UNL A   1      42.253  27.041  28.166  1.00  0.00    -0.248 NA
ATOM     37  C   UNL A   1      40.735  25.273  28.224  1.00  0.00     0.031 C 
ATOM     38  C   UNL A   1      45.223  24.413  26.104  1.00  0.00     0.029 A 
ATOM     39  N   UNL A   1      44.847  26.455  26.930  1.00  0.00    -0.354 N 
ATOM     40  C   UNL A   1      41.046  27.488  28.691  1.00  0.00     0.074 A 
ATOM     41  C   UNL A   1      40.128  26.372  28.646  1.00  0.00     0.031 C 
ATOM     42  C   UNL A   1      46.315  25.153  25.857  1.00  0.00     0.029 A 
ATOM     43  C   UNL A   1      46.099  26.505  26.361  1.00  0.00     0.049 A 
ATOM     44  H   UNL A   1      44.427  27.226  27.376  1.00  0.00     0.167 HD
ATOM     45  C   UNL A   1      40.736  28.708  29.192  1.00  0.00     0.034 A 
ATOM     46  C   UNL A   1      46.971  27.526  26.251  1.00  0.00     0.034 A 
ATOM     47  C   UNL A   1      41.663  29.804  29.273  1.00  0.00     0.049 A 
ATOM     48  C   UNL A   1      46.615  28.860  26.847  1.00  0.00     0.074 A 
ATOM     49  C   UNL A   1      41.476  31.048  29.849  1.00  0.00     0.029 A 
ATOM     50  N   UNL A   1      42.948  29.794  28.752  1.00  0.00    -0.354 N 
ATOM     51  N   UNL A   1      45.527  29.215  27.486  1.00  0.00    -0.248 NA
ATOM     52  C   UNL A   1      47.622  29.926  26.740  1.00  0.00     0.031 C 
ATOM     53  C   UNL A   1      42.635  31.803  29.642  1.00  0.00     0.029 A 
ATOM     54  C   UNL A   1      43.559  31.015  28.977  1.00  0.00     0.049 A 
ATOM     55  H   UNL A   1      43.363  29.030  28.289  1.00  0.00     0.167 HD
ATOM     56  C   UNL A   1      45.734  30.528  27.893  1.00  0.00     0.074 A 
ATOM     57  C   UNL A   1      47.060  30.898  27.445  1.00  0.00     0.031 C 
ATOM     58  C   UNL A   1      44.898  31.356  28.568  1.00  0.00     0.034 A 
BRANCH  45  59
ATOM     59  C   UNL A   1      39.342  28.912  29.730  1.00  0.00     0.023 A 
ATOM     60  C   UNL A   1      39.025  28.488  31.038  1.00  0.00     0.012 A 
ATOM     61  C   UNL A   1      38.360  29.569  28.963  1.00  0.00     0.148 A 
ATOM     62  C   UNL A   1      37.745  28.676  31.557  1.00  0.00     0.002 A 
ATOM     63  C   UNL A   1      37.101  29.800  29.506  1.00  0.00     0.091 A 
ATOM     64  F   UNL A   1      38.672  29.949  27.716  1.00  0.00    -0.205 F 
ATOM     65  C   UNL A   1      36.788  29.341  30.797  1.00  0.00     0.022 A 
BRANCH  63  66
ATOM     66  S   UNL A   1      35.826  30.721  28.640  1.00  0.00     0.127 S 
ATOM     67  O   UNL A   1      35.153  29.661  27.891  1.00  0.00    -0.237 OA
ATOM     68  O   UNL A   1      35.045  31.277  29.746  1.00  0.00    -0.237 OA
ATOM     69  O   UNL A   1      36.523  31.711  27.832  1.00  0.00    -0.744 OA
ENDBRANCH  63  66
ENDBRANCH  45  59
BRANCH  46  70
ATOM     70  C   UNL A   1      48.299  27.309  25.606  1.00  0.00     0.023 A 
ATOM     71  C   UNL A   1      49.394  26.904  26.394  1.00  0.00     0.012 A 
ATOM     72  C   UNL A   1      48.478  27.485  24.220  1.00  0.00     0.148 A 
ATOM     73  C   UNL A   1      50.652  26.715  25.822  1.00  0.00     0.002 A 
ATOM     74  C   UNL A   1      49.721  27.240  23.647  1.00  0.00     0.091 A 
ATOM     75  F   UNL A   1      47.427  27.878  23.489  1.00  0.00    -0.205 F 
ATOM     76  C   UNL A   1      50.813  26.873  24.449  1.00  0.00     0.022 A 
BRANCH  74  77
ATOM     77  S   UNL A   1      49.992  27.291  21.873  1.00  0.00     0.127 S 
ATOM     78  O   UNL A   1      48.948  26.394  21.385  1.00  0.00    -0.237 OA
ATOM     79  O   UNL A   1      49.778  28.707  21.577  1.00  0.00    -0.237 OA
ATOM     80  O   UNL A   1      51.361  26.836  21.669  1.00  0.00    -0.744 OA
ENDBRANCH  74  77
ENDBRANCH  46  70
BRANCH  58  81
ATOM     81  C   UNL A   1      45.405  32.734  28.911  1.00  0.00     0.023 A 
ATOM     82  C   UNL A   1      46.090  32.955  30.121  1.00  0.00     0.012 A 
ATOM     83  C   UNL A   1      45.255  33.796  27.996  1.00  0.00     0.148 A 
ATOM     84  C   UNL A   1      46.584  34.221  30.435  1.00  0.00     0.002 A 
ATOM     85  C   UNL A   1      45.798  35.040  28.291  1.00  0.00     0.091 A 
ATOM     86  F   UNL A   1      44.585  33.571  26.857  1.00  0.00    -0.205 F 
ATOM     87  C   UNL A   1      46.449  35.259  29.515  1.00  0.00     0.022 A 
BRANCH  85  88
ATOM     88  S   UNL A   1      45.762  36.407  27.125  1.00  0.00     0.127 S 
ATOM     89  O   UNL A   1      44.326  36.645  26.990  1.00  0.00    -0.237 OA
ATOM     90  O   UNL A   1      46.488  37.450  27.849  1.00  0.00    -0.237 OA
ATOM     91  O   UNL A   1      46.432  35.928  25.923  1.00  0.00    -0.744 OA
ENDBRANCH  85  88
ENDBRANCH  58  81
ENDBRANCH  32  33
ENDBRANCH  24  27
ENDBRANCH   1  23
TORSDOF 16
ENDMDL
MODEL 3
REMARK VINA RESULT:     -11.7      2.041      2.769
REMARK SMILES CC[C@@](O)(C(=O)NCCCNC(=O)c1ccc(-c2c3nc(c(-c4cccc(S(=O)(=O)[O-])c4F)c4ccc([nH]4)c(-c4cccc(S(=O)(=O)[O-])c4F)c4nc(c(-c5cccc(S(=O)(=O)[O-])c5F)c5ccc2[nH]5)C=C4)C=C3)cc1)[C@@H]1CCOc2ccccc21
REMARK SMILES IDX 10 1 9 2 8 3 7 4 5 5 6 6 3 8 2 9 1 10 4 11 77 13 78 14 86 15
REMARK SMILES IDX 79 16 81 17 85 18 80 19 82 20 84 21 83 22 11 23 12 24 13 26
REMARK SMILES IDX 14 27 15 28 76 29 16 30 75 31 17 32 18 33 19 34 69 35 20 36
REMARK SMILES IDX 74 37 68 38 70 39 21 40 73 41 67 42 66 43 22 45 54 46 34 47
REMARK SMILES IDX 53 48 35 49 38 50 52 51 71 52 36 53 37 54 51 56 72 57 39 58
REMARK SMILES IDX 23 59 24 60 32 61 25 62 27 63 33 64 26 65 28 66 29 67 30 68
REMARK SMILES IDX 31 69 55 70 56 71 64 72 57 73 59 74 65 75 58 76 60 77 61 78
REMARK SMILES IDX 62 79 63 80 40 81 41 82 49 83 42 84 44 85 50 86 43 87 45 88
REMARK SMILES IDX 46 89 47 90 48 91
REMARK H PARENT 7 7 4 12 11 25 70 44 38 55
REMARK Flexibility Score: inf
ROOT
ATOM      1  C   UNL A   1      33.211  28.634  27.613  1.00  0.00     0.118 C 
ENDROOT
BRANCH   1   2
ATOM      2  C   UNL A   1      31.756  28.185  27.547  1.00  0.00     0.042 C 
BRANCH   2   3
ATOM      3  C   UNL A   1      31.347  27.503  26.250  1.00  0.00     0.117 C 
BRANCH   3   4
ATOM      4  N   UNL A   1      31.053  26.092  26.407  1.00  0.00    -0.354 N 
ATOM      5  C   UNL A   1      31.950  25.062  26.372  1.00  0.00     0.252 C 
ATOM      6  O   UNL A   1      31.780  24.204  27.244  1.00  0.00    -0.272 OA
ATOM      7  H   UNL A   1      30.110  25.851  26.553  1.00  0.00     0.163 HD
BRANCH   5   8
ATOM      8  C   UNL A   1      33.131  25.012  25.341  1.00  0.00     0.149 C 
BRANCH   8   9
ATOM      9  C   UNL A   1      32.732  25.374  23.884  1.00  0.00     0.043 C 
ATOM     10  C   UNL A   1      33.552  26.506  23.242  1.00  0.00     0.007 C 
ENDBRANCH   8   9
BRANCH   8  11
ATOM     11  O   UNL A   1      33.987  26.095  25.813  1.00  0.00    -0.379 OA
ATOM     12  H   UNL A   1      34.604  26.350  25.109  1.00  0.00     0.212 HD
ENDBRANCH   8  11
BRANCH   8  13
ATOM     13  C   UNL A   1      33.941  23.657  25.477  1.00  0.00     0.068 C 
ATOM     14  C   UNL A   1      35.457  23.772  25.301  1.00  0.00     0.053 C 
ATOM     15  C   UNL A   1      33.621  22.357  24.755  1.00  0.00     0.001 A 
ATOM     16  C   UNL A   1      36.140  22.589  25.992  1.00  0.00     0.230 C 
ATOM     17  C   UNL A   1      34.336  21.236  25.212  1.00  0.00     0.122 A 
ATOM     18  C   UNL A   1      32.632  22.154  23.791  1.00  0.00     0.008 A 
ATOM     19  O   UNL A   1      35.433  21.343  26.022  1.00  0.00    -0.493 OA
ATOM     20  C   UNL A   1      33.920  19.942  24.906  1.00  0.00     0.047 A 
ATOM     21  C   UNL A   1      32.227  20.854  23.461  1.00  0.00     0.001 A 
ATOM     22  C   UNL A   1      32.840  19.750  24.051  1.00  0.00     0.004 A 
ENDBRANCH   8  13
ENDBRANCH   5   8
ENDBRANCH   3   4
ENDBRANCH   2   3
ENDBRANCH   1   2
BRANCH   1  23
ATOM     23  N   UNL A   1      33.373  30.079  27.532  1.00  0.00    -0.352 N 
ATOM     24  C   UNL A   1      34.433  30.873  27.907  1.00  0.00     0.251 C 
ATOM     25  H   UNL A   1      32.605  30.563  27.152  1.00  0.00     0.163 HD
ATOM     26  O   UNL A   1      34.306  32.092  27.906  1.00  0.00    -0.269 OA
BRANCH  24  27
ATOM     27  C   UNL A   1      35.713  30.262  28.330  1.00  0.00     0.039 A 
ATOM     28  C   UNL A   1      36.787  30.258  27.434  1.00  0.00     0.014 A 
ATOM     29  C   UNL A   1      35.856  29.684  29.593  1.00  0.00     0.014 A 
ATOM     30  C   UNL A   1      38.020  29.735  27.832  1.00  0.00     0.010 A 
ATOM     31  C   UNL A   1      37.109  29.249  30.019  1.00  0.00     0.010 A 
ATOM     32  C   UNL A   1      38.203  29.258  29.141  1.00  0.00    -0.014 A 
BRANCH  32  33
ATOM     33  C   UNL A   1      39.526  28.765  29.605  1.00  0.00     0.031 A 
ATOM     34  C   UNL A   1      40.257  29.477  30.715  1.00  0.00     0.074 A 
ATOM     35  C   UNL A   1      40.109  27.724  28.977  1.00  0.00     0.049 A 
ATOM     36  N   UNL A   1      41.431  29.215  31.229  1.00  0.00    -0.248 NA
ATOM     37  C   UNL A   1      39.596  30.652  31.306  1.00  0.00     0.031 C 
ATOM     38  C   UNL A   1      39.542  26.999  27.837  1.00  0.00     0.029 A 
ATOM     39  N   UNL A   1      41.315  27.107  29.193  1.00  0.00    -0.354 N 
ATOM     40  C   UNL A   1      41.666  30.210  32.170  1.00  0.00     0.074 A 
ATOM     41  C   UNL A   1      40.529  31.103  32.131  1.00  0.00     0.031 C 
ATOM     42  C   UNL A   1      40.391  26.028  27.465  1.00  0.00     0.029 A 
ATOM     43  C   UNL A   1      41.577  26.081  28.314  1.00  0.00     0.049 A 
ATOM     44  H   UNL A   1      41.936  27.373  29.909  1.00  0.00     0.167 HD
ATOM     45  C   UNL A   1      42.717  30.355  33.012  1.00  0.00     0.034 A 
ATOM     46  C   UNL A   1      42.654  25.279  28.199  1.00  0.00     0.034 A 
ATOM     47  C   UNL A   1      43.827  29.443  33.076  1.00  0.00     0.049 A 
ATOM     48  C   UNL A   1      43.792  25.438  29.169  1.00  0.00     0.074 A 
ATOM     49  C   UNL A   1      44.894  29.447  33.956  1.00  0.00     0.029 A 
ATOM     50  N   UNL A   1      44.022  28.371  32.218  1.00  0.00    -0.354 N 
ATOM     51  N   UNL A   1      43.920  26.287  30.160  1.00  0.00    -0.248 NA
ATOM     52  C   UNL A   1      44.920  24.507  29.029  1.00  0.00     0.031 C 
ATOM     53  C   UNL A   1      45.754  28.400  33.606  1.00  0.00     0.029 A 
ATOM     54  C   UNL A   1      45.200  27.718  32.536  1.00  0.00     0.049 A 
ATOM     55  H   UNL A   1      43.412  28.114  31.488  1.00  0.00     0.167 HD
ATOM     56  C   UNL A   1      45.118  25.965  30.787  1.00  0.00     0.074 A 
ATOM     57  C   UNL A   1      45.668  24.831  30.074  1.00  0.00     0.031 C 
ATOM     58  C   UNL A   1      45.713  26.560  31.850  1.00  0.00     0.034 A 
BRANCH  45  59
ATOM     59  C   UNL A   1      42.700  31.526  33.962  1.00  0.00     0.023 A 
ATOM     60  C   UNL A   1      43.253  32.761  33.563  1.00  0.00     0.012 A 
ATOM     61  C   UNL A   1      42.089  31.421  35.227  1.00  0.00     0.148 A 
ATOM     62  C   UNL A   1      43.237  33.858  34.423  1.00  0.00     0.002 A 
ATOM     63  C   UNL A   1      42.031  32.533  36.058  1.00  0.00     0.091 A 
ATOM     64  F   UNL A   1      41.585  30.235  35.597  1.00  0.00    -0.205 F 
ATOM     65  C   UNL A   1      42.617  33.748  35.664  1.00  0.00     0.022 A 
BRANCH  63  66
ATOM     66  S   UNL A   1      41.181  32.518  37.640  1.00  0.00     0.127 S 
ATOM     67  O   UNL A   1      42.026  31.615  38.420  1.00  0.00    -0.237 OA
ATOM     68  O   UNL A   1      41.256  33.923  38.043  1.00  0.00    -0.237 OA
ATOM     69  O   UNL A   1      39.835  32.035  37.369  1.00  0.00    -0.744 OA
ENDBRANCH  63  66
ENDBRANCH  45  59
BRANCH  46  70
ATOM     70  C   UNL A   1      42.678  24.203  27.165  1.00  0.00     0.023 A 
ATOM     71  C   UNL A   1      43.354  24.427  25.949  1.00  0.00     0.012 A 
ATOM     72  C   UNL A   1      42.054  22.961  27.385  1.00  0.00     0.148 A 
ATOM     73  C   UNL A   1      43.376  23.448  24.955  1.00  0.00     0.002 A 
ATOM     74  C   UNL A   1      42.128  21.968  26.413  1.00  0.00     0.091 A 
ATOM     75  F   UNL A   1      41.409  22.770  28.543  1.00  0.00    -0.205 F 
ATOM     76  C   UNL A   1      42.771  22.217  25.191  1.00  0.00     0.022 A 
BRANCH  74  77
ATOM     77  S   UNL A   1      41.492  20.310  26.679  1.00  0.00     0.127 S 
ATOM     78  O   UNL A   1      41.863  19.644  25.432  1.00  0.00    -0.237 OA
ATOM     79  O   UNL A   1      42.248  19.883  27.856  1.00  0.00    -0.237 OA
ATOM     80  O   UNL A   1      40.062  20.467  26.909  1.00  0.00    -0.744 OA
ENDBRANCH  74  77
ENDBRANCH  46  70
BRANCH  58  81
ATOM     81  C   UNL A   1      47.010  25.972  32.345  1.00  0.00     0.023 A 
ATOM     82  C   UNL A   1      48.237  26.417  31.816  1.00  0.00     0.012 A 
ATOM     83  C   UNL A   1      47.010  25.021  33.386  1.00  0.00     0.148 A 
ATOM     84  C   UNL A   1      49.443  25.897  32.287  1.00  0.00     0.002 A 
ATOM     85  C   UNL A   1      48.216  24.548  33.887  1.00  0.00     0.091 A 
ATOM     86  F   UNL A   1      45.832  24.596  33.865  1.00  0.00    -0.205 F 
ATOM     87  C   UNL A   1      49.432  24.972  33.329  1.00  0.00     0.022 A 
BRANCH  85  88
ATOM     88  S   UNL A   1      48.303  23.435  35.294  1.00  0.00     0.127 S 
ATOM     89  O   UNL A   1      47.641  22.241  34.771  1.00  0.00    -0.237 OA
ATOM     90  O   UNL A   1      49.746  23.296  35.490  1.00  0.00    -0.237 OA
ATOM     91  O   UNL A   1      47.609  24.108  36.384  1.00  0.00    -0.744 OA
ENDBRANCH  85  88
ENDBRANCH  58  81
ENDBRANCH  32  33
ENDBRANCH  24  27
ENDBRANCH   1  23
TORSDOF 16
ENDMDL
