MODEL 1
REMARK VINA RESULT:     -11.6      0.000      0.000
REMARK SMILES CCC[C@H]1CC[C@H](C(=O)NCCCNC(=O)c2ccc(-c3c4nc(c(-c5cccc(S(=O)(=O)[O-])c5F)c5ccc([nH]5)c(-c5cccc(S(=O)(=O)[O-])c5F)c5nc(c(-c6cccc(S(=O)(=O)[O-])c6F)c6ccc3[nH]6)C=C5)C=C4)cc2)[C@H](Sc2ccncc2)C1
REMARK SMILES IDX 12 1 11 2 10 3 8 4 9 5 7 7 4 8 5 9 88 10 6 11 80 12 3 13
REMARK SMILES IDX 2 14 1 15 81 16 82 17 83 18 87 19 84 20 86 21 85 22 13 23
REMARK SMILES IDX 14 24 15 25 16 27 17 28 18 29 79 30 19 31 78 32 20 33 21 34
REMARK SMILES IDX 22 35 72 36 23 37 77 38 71 39 73 40 24 41 76 42 70 43 69 44
REMARK SMILES IDX 25 46 57 47 37 48 56 49 38 50 41 51 55 52 74 53 39 54 40 55
REMARK SMILES IDX 54 57 75 58 42 59 26 60 27 61 35 62 28 63 30 64 36 65 29 66
REMARK SMILES IDX 31 67 32 68 33 69 34 70 58 71 59 72 67 73 60 74 62 75 68 76
REMARK SMILES IDX 61 77 63 78 64 79 65 80 66 81 43 82 44 83 52 84 45 85 47 86
REMARK SMILES IDX 53 87 46 88 48 89 49 90 50 91 51 92
REMARK H PARENT 10 6 14 26 73 45 41 56
REMARK Flexibility Score: inf
ROOT
ATOM      1  C   UNL A   1      33.413  27.779  26.410  1.00  0.00     0.042 C 
ENDROOT
BRANCH   1   2
ATOM      2  C   UNL A   1      31.941  27.537  26.137  1.00  0.00     0.117 C 
BRANCH   2   3
ATOM      3  N   UNL A   1      31.480  26.317  26.753  1.00  0.00    -0.356 N 
ATOM      4  C   UNL A   1      31.794  25.019  26.554  1.00  0.00     0.224 C 
ATOM      5  O   UNL A   1      31.221  24.213  27.301  1.00  0.00    -0.275 OA
ATOM      6  H   UNL A   1      30.803  26.458  27.453  1.00  0.00     0.163 HD
BRANCH   4   7
ATOM      7  C   UNL A   1      32.724  24.472  25.469  1.00  0.00     0.092 C 
ATOM      8  C   UNL A   1      33.772  21.610  25.613  1.00  0.00    -0.010 C 
ATOM      9  C   UNL A   1      34.153  22.702  26.609  1.00  0.00     0.004 C 
ATOM     10  C   UNL A   1      32.590  21.956  24.665  1.00  0.00     0.019 C 
ATOM     11  C   UNL A   1      34.085  24.122  26.078  1.00  0.00     0.015 C 
ATOM     12  C   UNL A   1      32.323  23.448  24.395  1.00  0.00     0.064 C 
BRANCH   8  13
ATOM     13  C   UNL A   1      34.990  20.970  24.903  1.00  0.00     0.003 C 
BRANCH  13  14
ATOM     14  C   UNL A   1      36.405  21.391  25.317  1.00  0.00    -0.003 C 
ATOM     15  C   UNL A   1      37.111  22.323  24.333  1.00  0.00     0.004 C 
ENDBRANCH  13  14
ENDBRANCH   8  13
BRANCH  12  16
ATOM     16  S   UNL A   1      30.779  23.714  23.379  1.00  0.00    -0.122 SA
BRANCH  16  17
ATOM     17  C   UNL A   1      30.558  25.474  23.238  1.00  0.00     0.011 A 
ATOM     18  C   UNL A   1      31.446  26.237  22.482  1.00  0.00     0.035 A 
ATOM     19  C   UNL A   1      29.428  26.099  23.763  1.00  0.00     0.035 A 
ATOM     20  C   UNL A   1      31.245  27.604  22.394  1.00  0.00     0.112 A 
ATOM     21  C   UNL A   1      29.287  27.469  23.585  1.00  0.00     0.112 A 
ATOM     22  N   UNL A   1      30.186  28.239  22.937  1.00  0.00    -0.265 NA
ENDBRANCH  16  17
ENDBRANCH  12  16
ENDBRANCH   4   7
ENDBRANCH   2   3
ENDBRANCH   1   2
BRANCH   1  23
ATOM     23  C   UNL A   1      33.964  28.933  25.608  1.00  0.00     0.118 C 
BRANCH  23  24
ATOM     24  N   UNL A   1      33.461  30.211  26.087  1.00  0.00    -0.352 N 
ATOM     25  C   UNL A   1      33.848  30.944  27.182  1.00  0.00     0.251 C 
ATOM     26  H   UNL A   1      32.739  30.608  25.549  1.00  0.00     0.163 HD
ATOM     27  O   UNL A   1      33.141  31.871  27.565  1.00  0.00    -0.269 OA
BRANCH  25  28
ATOM     28  C   UNL A   1      35.103  30.610  27.895  1.00  0.00     0.039 A 
ATOM     29  C   UNL A   1      36.236  31.396  27.688  1.00  0.00     0.014 A 
ATOM     30  C   UNL A   1      35.172  29.506  28.747  1.00  0.00     0.014 A 
ATOM     31  C   UNL A   1      37.425  31.076  28.346  1.00  0.00     0.010 A 
ATOM     32  C   UNL A   1      36.300  29.290  29.521  1.00  0.00     0.010 A 
ATOM     33  C   UNL A   1      37.462  30.024  29.276  1.00  0.00    -0.014 A 
BRANCH  33  34
ATOM     34  C   UNL A   1      38.729  29.609  29.925  1.00  0.00     0.031 A 
ATOM     35  C   UNL A   1      39.097  30.172  31.276  1.00  0.00     0.074 A 
ATOM     36  C   UNL A   1      39.562  28.765  29.286  1.00  0.00     0.049 A 
ATOM     37  N   UNL A   1      40.149  29.926  32.014  1.00  0.00    -0.248 NA
ATOM     38  C   UNL A   1      38.190  31.177  31.862  1.00  0.00     0.031 C 
ATOM     39  C   UNL A   1      39.362  28.238  27.933  1.00  0.00     0.029 A 
ATOM     40  N   UNL A   1      40.746  28.207  29.687  1.00  0.00    -0.354 N 
ATOM     41  C   UNL A   1      40.047  30.769  33.115  1.00  0.00     0.074 A 
ATOM     42  C   UNL A   1      38.870  31.581  32.923  1.00  0.00     0.031 C 
ATOM     43  C   UNL A   1      40.372  27.407  27.631  1.00  0.00     0.029 A 
ATOM     44  C   UNL A   1      41.300  27.360  28.756  1.00  0.00     0.049 A 
ATOM     45  H   UNL A   1      41.163  28.396  30.559  1.00  0.00     0.167 HD
ATOM     46  C   UNL A   1      40.831  30.830  34.216  1.00  0.00     0.034 A 
ATOM     47  C   UNL A   1      42.422  26.618  28.815  1.00  0.00     0.034 A 
ATOM     48  C   UNL A   1      41.961  29.971  34.428  1.00  0.00     0.049 A 
ATOM     49  C   UNL A   1      43.228  26.635  30.086  1.00  0.00     0.074 A 
ATOM     50  C   UNL A   1      42.778  29.878  35.540  1.00  0.00     0.029 A 
ATOM     51  N   UNL A   1      42.430  29.048  33.506  1.00  0.00    -0.354 N 
ATOM     52  N   UNL A   1      43.027  27.324  31.183  1.00  0.00    -0.248 NA
ATOM     53  C   UNL A   1      44.385  25.732  30.145  1.00  0.00     0.031 C 
ATOM     54  C   UNL A   1      43.756  28.913  35.279  1.00  0.00     0.029 A 
ATOM     55  C   UNL A   1      43.524  28.380  34.021  1.00  0.00     0.049 A 
ATOM     56  H   UNL A   1      42.041  28.894  32.614  1.00  0.00     0.167 HD
ATOM     57  C   UNL A   1      44.004  26.908  32.079  1.00  0.00     0.074 A 
ATOM     58  C   UNL A   1      44.781  25.891  31.401  1.00  0.00     0.031 C 
ATOM     59  C   UNL A   1      44.246  27.334  33.344  1.00  0.00     0.034 A 
BRANCH  46  60
ATOM     60  C   UNL A   1      40.454  31.817  35.292  1.00  0.00     0.023 A 
ATOM     61  C   UNL A   1      41.174  33.025  35.418  1.00  0.00     0.012 A 
ATOM     62  C   UNL A   1      39.370  31.570  36.155  1.00  0.00     0.148 A 
ATOM     63  C   UNL A   1      40.850  33.948  36.412  1.00  0.00     0.002 A 
ATOM     64  C   UNL A   1      39.020  32.519  37.109  1.00  0.00     0.091 A 
ATOM     65  F   UNL A   1      38.711  30.408  36.038  1.00  0.00    -0.205 F 
ATOM     66  C   UNL A   1      39.767  33.699  37.249  1.00  0.00     0.022 A 
BRANCH  64  67
ATOM     67  S   UNL A   1      37.589  32.334  38.180  1.00  0.00     0.127 S 
ATOM     68  O   UNL A   1      38.075  32.926  39.426  1.00  0.00    -0.237 OA
ATOM     69  O   UNL A   1      36.580  33.130  37.481  1.00  0.00    -0.237 OA
ATOM     70  O   UNL A   1      37.308  30.907  38.235  1.00  0.00    -0.744 OA
ENDBRANCH  64  67
ENDBRANCH  46  60
BRANCH  47  71
ATOM     71  C   UNL A   1      42.789  25.728  27.677  1.00  0.00     0.023 A 
ATOM     72  C   UNL A   1      43.742  26.162  26.736  1.00  0.00     0.012 A 
ATOM     73  C   UNL A   1      42.223  24.446  27.540  1.00  0.00     0.148 A 
ATOM     74  C   UNL A   1      44.096  25.352  25.655  1.00  0.00     0.002 A 
ATOM     75  C   UNL A   1      42.621  23.622  26.494  1.00  0.00     0.091 A 
ATOM     76  F   UNL A   1      41.315  24.054  28.444  1.00  0.00    -0.205 F 
ATOM     77  C   UNL A   1      43.543  24.080  25.539  1.00  0.00     0.022 A 
BRANCH  75  78
ATOM     78  S   UNL A   1      42.065  21.922  26.344  1.00  0.00     0.127 S 
ATOM     79  O   UNL A   1      42.876  21.439  25.230  1.00  0.00    -0.237 OA
ATOM     80  O   UNL A   1      42.421  21.371  27.652  1.00  0.00    -0.237 OA
ATOM     81  O   UNL A   1      40.631  21.998  26.098  1.00  0.00    -0.744 OA
ENDBRANCH  75  78
ENDBRANCH  47  71
BRANCH  59  82
ATOM     82  C   UNL A   1      45.363  26.662  34.098  1.00  0.00     0.023 A 
ATOM     83  C   UNL A   1      46.676  27.164  34.013  1.00  0.00     0.012 A 
ATOM     84  C   UNL A   1      45.094  25.560  34.932  1.00  0.00     0.148 A 
ATOM     85  C   UNL A   1      47.714  26.549  34.711  1.00  0.00     0.002 A 
ATOM     86  C   UNL A   1      46.123  24.987  35.668  1.00  0.00     0.091 A 
ATOM     87  F   UNL A   1      43.842  25.085  34.985  1.00  0.00    -0.205 F 
ATOM     88  C   UNL A   1      47.436  25.469  35.546  1.00  0.00     0.022 A 
BRANCH  86  89
ATOM     89  S   UNL A   1      45.830  23.664  36.846  1.00  0.00     0.127 S 
ATOM     90  O   UNL A   1      47.176  23.424  37.365  1.00  0.00    -0.237 OA
ATOM     91  O   UNL A   1      44.913  24.291  37.799  1.00  0.00    -0.237 OA
ATOM     92  O   UNL A   1      45.246  22.572  36.079  1.00  0.00    -0.744 OA
ENDBRANCH  86  89
ENDBRANCH  59  82
ENDBRANCH  33  34
ENDBRANCH  25  28
ENDBRANCH  23  24
ENDBRANCH   1  23
TORSDOF 17
ENDMDL
MODEL 2
REMARK VINA RESULT:     -11.4      2.129      2.516
REMARK SMILES CCC[C@H]1CC[C@H](C(=O)NCCCNC(=O)c2ccc(-c3c4nc(c(-c5cccc(S(=O)(=O)[O-])c5F)c5ccc([nH]5)c(-c5cccc(S(=O)(=O)[O-])c5F)c5nc(c(-c6cccc(S(=O)(=O)[O-])c6F)c6ccc3[nH]6)C=C5)C=C4)cc2)[C@H](Sc2ccncc2)C1
REMARK SMILES IDX 12 1 11 2 10 3 8 4 9 5 7 7 4 8 5 9 88 10 6 11 80 12 3 13
REMARK SMILES IDX 2 14 1 15 81 16 82 17 83 18 87 19 84 20 86 21 85 22 13 23
REMARK SMILES IDX 14 24 15 25 16 27 17 28 18 29 79 30 19 31 78 32 20 33 21 34
REMARK SMILES IDX 22 35 72 36 23 37 77 38 71 39 73 40 24 41 76 42 70 43 69 44
REMARK SMILES IDX 25 46 57 47 37 48 56 49 38 50 41 51 55 52 74 53 39 54 40 55
REMARK SMILES IDX 54 57 75 58 42 59 26 60 27 61 35 62 28 63 30 64 36 65 29 66
REMARK SMILES IDX 31 67 32 68 33 69 34 70 58 71 59 72 67 73 60 74 62 75 68 76
REMARK SMILES IDX 61 77 63 78 64 79 65 80 66 81 43 82 44 83 52 84 45 85 47 86
REMARK SMILES IDX 53 87 46 88 48 89 49 90 50 91 51 92
REMARK H PARENT 10 6 14 26 73 45 41 56
REMARK Flexibility Score: inf
ROOT
ATOM      1  C   UNL A   1      33.041  28.170  27.233  1.00  0.00     0.042 C 
ENDROOT
BRANCH   1   2
ATOM      2  C   UNL A   1      31.703  27.798  26.624  1.00  0.00     0.117 C 
BRANCH   2   3
ATOM      3  N   UNL A   1      31.329  26.443  26.946  1.00  0.00    -0.356 N 
ATOM      4  C   UNL A   1      31.781  25.245  26.515  1.00  0.00     0.224 C 
ATOM      5  O   UNL A   1      31.247  24.256  27.040  1.00  0.00    -0.275 OA
ATOM      6  H   UNL A   1      30.604  26.378  27.608  1.00  0.00     0.163 HD
BRANCH   4   7
ATOM      7  C   UNL A   1      32.819  25.015  25.415  1.00  0.00     0.092 C 
ATOM      8  C   UNL A   1      33.989  22.238  24.934  1.00  0.00    -0.010 C 
ATOM      9  C   UNL A   1      34.236  23.052  26.201  1.00  0.00     0.004 C 
ATOM     10  C   UNL A   1      32.871  22.781  24.001  1.00  0.00     0.019 C 
ATOM     11  C   UNL A   1      34.142  24.558  26.037  1.00  0.00     0.015 C 
ATOM     12  C   UNL A   1      32.555  24.285  24.089  1.00  0.00     0.064 C 
BRANCH   8  13
ATOM     13  C   UNL A   1      35.289  21.830  24.198  1.00  0.00     0.003 C 
BRANCH  13  14
ATOM     14  C   UNL A   1      36.536  21.482  25.018  1.00  0.00    -0.003 C 
ATOM     15  C   UNL A   1      36.924  20.003  25.000  1.00  0.00     0.004 C 
ENDBRANCH  13  14
ENDBRANCH   8  13
BRANCH  12  16
ATOM     16  S   UNL A   1      31.086  24.758  23.037  1.00  0.00    -0.122 SA
BRANCH  16  17
ATOM     17  C   UNL A   1      30.928  26.527  23.148  1.00  0.00     0.011 A 
ATOM     18  C   UNL A   1      31.982  27.353  22.761  1.00  0.00     0.035 A 
ATOM     19  C   UNL A   1      29.714  27.119  23.491  1.00  0.00     0.035 A 
ATOM     20  C   UNL A   1      31.826  28.726  22.861  1.00  0.00     0.112 A 
ATOM     21  C   UNL A   1      29.638  28.505  23.519  1.00  0.00     0.112 A 
ATOM     22  N   UNL A   1      30.676  29.321  23.240  1.00  0.00    -0.265 NA
ENDBRANCH  16  17
ENDBRANCH  12  16
ENDBRANCH   4   7
ENDBRANCH   2   3
ENDBRANCH   1   2
BRANCH   1  23
ATOM     23  C   UNL A   1      33.914  28.943  26.276  1.00  0.00     0.118 C 
BRANCH  23  24
ATOM     24  N   UNL A   1      33.948  30.360  26.604  1.00  0.00    -0.352 N 
ATOM     25  C   UNL A   1      34.772  31.033  27.472  1.00  0.00     0.251 C 
ATOM     26  H   UNL A   1      33.285  30.917  26.135  1.00  0.00     0.163 HD
ATOM     27  O   UNL A   1      34.490  32.180  27.801  1.00  0.00    -0.269 OA
BRANCH  25  28
ATOM     28  C   UNL A   1      35.986  30.374  28.006  1.00  0.00     0.039 A 
ATOM     29  C   UNL A   1      35.918  29.702  29.227  1.00  0.00     0.014 A 
ATOM     30  C   UNL A   1      37.200  30.439  27.319  1.00  0.00     0.014 A 
ATOM     31  C   UNL A   1      37.063  29.092  29.742  1.00  0.00     0.010 A 
ATOM     32  C   UNL A   1      38.288  29.697  27.750  1.00  0.00     0.010 A 
ATOM     33  C   UNL A   1      38.256  29.077  29.000  1.00  0.00    -0.014 A 
BRANCH  33  34
ATOM     34  C   UNL A   1      39.508  28.513  29.558  1.00  0.00     0.031 A 
ATOM     35  C   UNL A   1      40.083  29.085  30.832  1.00  0.00     0.074 A 
ATOM     36  C   UNL A   1      40.145  27.523  28.904  1.00  0.00     0.049 A 
ATOM     37  N   UNL A   1      41.156  28.723  31.487  1.00  0.00    -0.248 NA
ATOM     38  C   UNL A   1      39.391  30.241  31.430  1.00  0.00     0.031 C 
ATOM     39  C   UNL A   1      39.740  26.962  27.612  1.00  0.00     0.029 A 
ATOM     40  N   UNL A   1      41.271  26.817  29.233  1.00  0.00    -0.354 N 
ATOM     41  C   UNL A   1      41.284  29.628  32.535  1.00  0.00     0.074 A 
ATOM     42  C   UNL A   1      40.221  30.595  32.397  1.00  0.00     0.031 C 
ATOM     43  C   UNL A   1      40.587  25.976  27.276  1.00  0.00     0.029 A 
ATOM     44  C   UNL A   1      41.604  25.851  28.314  1.00  0.00     0.049 A 
ATOM     45  H   UNL A   1      41.794  26.987  30.051  1.00  0.00     0.167 HD
ATOM     46  C   UNL A   1      42.173  29.629  33.556  1.00  0.00     0.034 A 
ATOM     47  C   UNL A   1      42.609  24.954  28.321  1.00  0.00     0.034 A 
ATOM     48  C   UNL A   1      43.183  28.624  33.722  1.00  0.00     0.049 A 
ATOM     49  C   UNL A   1      43.530  24.917  29.511  1.00  0.00     0.074 A 
ATOM     50  C   UNL A   1      44.084  28.469  34.760  1.00  0.00     0.029 A 
ATOM     51  N   UNL A   1      43.423  27.596  32.824  1.00  0.00    -0.354 N 
ATOM     52  N   UNL A   1      43.538  25.684  30.575  1.00  0.00    -0.248 NA
ATOM     53  C   UNL A   1      44.547  23.857  29.526  1.00  0.00     0.031 C 
ATOM     54  C   UNL A   1      44.884  27.357  34.476  1.00  0.00     0.029 A 
ATOM     55  C   UNL A   1      44.456  26.800  33.281  1.00  0.00     0.049 A 
ATOM     56  H   UNL A   1      42.931  27.454  31.983  1.00  0.00     0.167 HD
ATOM     57  C   UNL A   1      44.529  25.175  31.405  1.00  0.00     0.074 A 
ATOM     58  C   UNL A   1      45.082  24.019  30.728  1.00  0.00     0.031 C 
ATOM     59  C   UNL A   1      44.952  25.624  32.613  1.00  0.00     0.034 A 
BRANCH  46  60
ATOM     60  C   UNL A   1      42.048  30.715  34.594  1.00  0.00     0.023 A 
ATOM     61  C   UNL A   1      41.229  30.513  35.726  1.00  0.00     0.012 A 
ATOM     62  C   UNL A   1      42.764  31.921  34.470  1.00  0.00     0.148 A 
ATOM     63  C   UNL A   1      41.091  31.508  36.693  1.00  0.00     0.002 A 
ATOM     64  C   UNL A   1      42.662  32.887  35.465  1.00  0.00     0.091 A 
ATOM     65  F   UNL A   1      43.518  32.108  33.378  1.00  0.00    -0.205 F 
ATOM     66  C   UNL A   1      41.815  32.689  36.568  1.00  0.00     0.022 A 
BRANCH  64  67
ATOM     67  S   UNL A   1      43.619  34.407  35.442  1.00  0.00     0.127 S 
ATOM     68  O   UNL A   1      43.763  34.643  34.006  1.00  0.00    -0.237 OA
ATOM     69  O   UNL A   1      42.725  35.342  36.127  1.00  0.00    -0.237 OA
ATOM     70  O   UNL A   1      44.855  34.116  36.154  1.00  0.00    -0.744 OA
ENDBRANCH  64  67
ENDBRANCH  46  60
BRANCH  47  71
ATOM     71  C   UNL A   1      42.732  23.962  27.216  1.00  0.00     0.023 A 
ATOM     72  C   UNL A   1      43.506  24.278  26.082  1.00  0.00     0.012 A 
ATOM     73  C   UNL A   1      42.113  22.700  27.295  1.00  0.00     0.148 A 
ATOM     74  C   UNL A   1      43.629  23.371  25.028  1.00  0.00     0.002 A 
ATOM     75  C   UNL A   1      42.286  21.779  26.268  1.00  0.00     0.091 A 
ATOM     76  F   UNL A   1      41.378  22.420  28.380  1.00  0.00    -0.205 F 
ATOM     77  C   UNL A   1      43.027  22.119  25.125  1.00  0.00     0.022 A 
BRANCH  75  78
ATOM     78  S   UNL A   1      41.662  20.099  26.368  1.00  0.00     0.127 S 
ATOM     79  O   UNL A   1      40.227  20.301  26.186  1.00  0.00    -0.237 OA
ATOM     80  O   UNL A   1      42.343  19.456  25.244  1.00  0.00    -0.237 OA
ATOM     81  O   UNL A   1      42.071  19.605  27.676  1.00  0.00    -0.744 OA
ENDBRANCH  75  78
ENDBRANCH  47  71
BRANCH  59  82
ATOM     82  C   UNL A   1      46.030  24.834  33.306  1.00  0.00     0.023 A 
ATOM     83  C   UNL A   1      47.376  25.237  33.208  1.00  0.00     0.012 A 
ATOM     84  C   UNL A   1      45.694  23.719  34.098  1.00  0.00     0.148 A 
ATOM     85  C   UNL A   1      48.378  24.511  33.851  1.00  0.00     0.002 A 
ATOM     86  C   UNL A   1      46.692  23.035  34.780  1.00  0.00     0.091 A 
ATOM     87  F   UNL A   1      44.410  23.340  34.163  1.00  0.00    -0.205 F 
ATOM     88  C   UNL A   1      48.036  23.419  34.644  1.00  0.00     0.022 A 
BRANCH  86  89
ATOM     89  S   UNL A   1      46.323  21.686  35.906  1.00  0.00     0.127 S 
ATOM     90  O   UNL A   1      47.663  21.257  36.305  1.00  0.00    -0.237 OA
ATOM     91  O   UNL A   1      45.560  22.357  36.958  1.00  0.00    -0.237 OA
ATOM     92  O   UNL A   1      45.557  20.719  35.131  1.00  0.00    -0.744 OA
ENDBRANCH  86  89
ENDBRANCH  59  82
ENDBRANCH  33  34
ENDBRANCH  25  28
ENDBRANCH  23  24
ENDBRANCH   1  23
TORSDOF 17
ENDMDL
MODEL 3
REMARK VINA RESULT:     -11.3      5.167     10.188
REMARK SMILES CCC[C@H]1CC[C@H](C(=O)NCCCNC(=O)c2ccc(-c3c4nc(c(-c5cccc(S(=O)(=O)[O-])c5F)c5ccc([nH]5)c(-c5cccc(S(=O)(=O)[O-])c5F)c5nc(c(-c6cccc(S(=O)(=O)[O-])c6F)c6ccc3[nH]6)C=C5)C=C4)cc2)[C@H](Sc2ccncc2)C1
REMARK SMILES IDX 12 1 11 2 10 3 8 4 9 5 7 7 4 8 5 9 88 10 6 11 80 12 3 13
REMARK SMILES IDX 2 14 1 15 81 16 82 17 83 18 87 19 84 20 86 21 85 22 13 23
REMARK SMILES IDX 14 24 15 25 16 27 17 28 18 29 79 30 19 31 78 32 20 33 21 34
REMARK SMILES IDX 22 35 72 36 23 37 77 38 71 39 73 40 24 41 76 42 70 43 69 44
REMARK SMILES IDX 25 46 57 47 37 48 56 49 38 50 41 51 55 52 74 53 39 54 40 55
REMARK SMILES IDX 54 57 75 58 42 59 26 60 27 61 35 62 28 63 30 64 36 65 29 66
REMARK SMILES IDX 31 67 32 68 33 69 34 70 58 71 59 72 67 73 60 74 62 75 68 76
REMARK SMILES IDX 61 77 63 78 64 79 65 80 66 81 43 82 44 83 52 84 45 85 47 86
REMARK SMILES IDX 53 87 46 88 48 89 49 90 50 91 51 92
REMARK H PARENT 10 6 14 26 73 45 41 56
REMARK Flexibility Score: inf
ROOT
ATOM      1  C   UNL A   1      36.070  22.327  24.434  1.00  0.00     0.042 C 
ENDROOT
BRANCH   1   2
ATOM      2  C   UNL A   1      35.725  23.722  23.948  1.00  0.00     0.117 C 
BRANCH   2   3
ATOM      3  N   UNL A   1      34.430  23.758  23.312  1.00  0.00    -0.356 N 
ATOM      4  C   UNL A   1      33.308  24.463  23.567  1.00  0.00     0.224 C 
ATOM      5  O   UNL A   1      32.368  24.270  22.781  1.00  0.00    -0.275 OA
ATOM      6  H   UNL A   1      34.350  23.148  22.543  1.00  0.00     0.163 HD
BRANCH   4   7
ATOM      7  C   UNL A   1      33.084  25.405  24.752  1.00  0.00     0.092 C 
ATOM      8  C   UNL A   1      31.605  28.049  24.383  1.00  0.00    -0.010 C 
ATOM      9  C   UNL A   1      32.967  27.747  23.763  1.00  0.00     0.004 C 
ATOM     10  C   UNL A   1      30.866  26.826  24.996  1.00  0.00     0.019 C 
ATOM     11  C   UNL A   1      33.811  26.730  24.508  1.00  0.00     0.015 C 
ATOM     12  C   UNL A   1      31.736  25.639  25.452  1.00  0.00     0.064 C 
BRANCH   8  13
ATOM     13  C   UNL A   1      31.601  29.309  25.283  1.00  0.00     0.003 C 
BRANCH  13  14
ATOM     14  C   UNL A   1      31.797  29.150  26.795  1.00  0.00    -0.003 C 
ATOM     15  C   UNL A   1      33.255  29.100  27.252  1.00  0.00     0.004 C 
ENDBRANCH  13  14
ENDBRANCH   8  13
BRANCH  12  16
ATOM     16  S   UNL A   1      30.705  24.185  26.010  1.00  0.00    -0.122 SA
BRANCH  16  17
ATOM     17  C   UNL A   1      31.833  22.836  26.283  1.00  0.00     0.011 A 
ATOM     18  C   UNL A   1      31.919  21.793  25.361  1.00  0.00     0.035 A 
ATOM     19  C   UNL A   1      32.739  22.861  27.341  1.00  0.00     0.035 A 
ATOM     20  C   UNL A   1      32.806  20.759  25.605  1.00  0.00     0.112 A 
ATOM     21  C   UNL A   1      33.624  21.801  27.479  1.00  0.00     0.112 A 
ATOM     22  N   UNL A   1      33.657  20.736  26.651  1.00  0.00    -0.265 NA
ENDBRANCH  16  17
ENDBRANCH  12  16
ENDBRANCH   4   7
ENDBRANCH   2   3
ENDBRANCH   1   2
BRANCH   1  23
ATOM     23  C   UNL A   1      36.724  22.338  25.794  1.00  0.00     0.118 C 
BRANCH  23  24
ATOM     24  N   UNL A   1      37.763  21.326  25.900  1.00  0.00    -0.352 N 
ATOM     25  C   UNL A   1      39.106  21.479  26.139  1.00  0.00     0.251 C 
ATOM     26  H   UNL A   1      37.459  20.397  25.784  1.00  0.00     0.163 HD
ATOM     27  O   UNL A   1      39.863  20.533  25.947  1.00  0.00    -0.269 OA
BRANCH  25  28
ATOM     28  C   UNL A   1      39.633  22.778  26.619  1.00  0.00     0.039 A 
ATOM     29  C   UNL A   1      39.144  23.961  26.063  1.00  0.00     0.014 A 
ATOM     30  C   UNL A   1      40.628  22.832  27.597  1.00  0.00     0.014 A 
ATOM     31  C   UNL A   1      39.648  25.187  26.501  1.00  0.00     0.010 A 
ATOM     32  C   UNL A   1      41.005  24.048  28.144  1.00  0.00     0.010 A 
ATOM     33  C   UNL A   1      40.577  25.239  27.554  1.00  0.00    -0.014 A 
BRANCH  33  34
ATOM     34  C   UNL A   1      41.192  26.518  27.981  1.00  0.00     0.031 A 
ATOM     35  C   UNL A   1      42.636  26.802  27.646  1.00  0.00     0.074 A 
ATOM     36  C   UNL A   1      40.472  27.398  28.702  1.00  0.00     0.049 A 
ATOM     37  N   UNL A   1      43.352  27.863  27.915  1.00  0.00    -0.248 NA
ATOM     38  C   UNL A   1      43.393  25.743  26.953  1.00  0.00     0.031 C 
ATOM     39  C   UNL A   1      39.101  27.187  29.175  1.00  0.00     0.029 A 
ATOM     40  N   UNL A   1      40.794  28.645  29.167  1.00  0.00    -0.354 N 
ATOM     41  C   UNL A   1      44.637  27.578  27.467  1.00  0.00     0.074 A 
ATOM     42  C   UNL A   1      44.625  26.224  26.967  1.00  0.00     0.031 C 
ATOM     43  C   UNL A   1      38.689  28.282  29.834  1.00  0.00     0.029 A 
ATOM     44  C   UNL A   1      39.771  29.260  29.850  1.00  0.00     0.049 A 
ATOM     45  H   UNL A   1      41.675  29.061  29.027  1.00  0.00     0.167 HD
ATOM     46  C   UNL A   1      45.723  28.385  27.424  1.00  0.00     0.034 A 
ATOM     47  C   UNL A   1      39.712  30.484  30.409  1.00  0.00     0.034 A 
ATOM     48  C   UNL A   1      45.707  29.752  27.862  1.00  0.00     0.049 A 
ATOM     49  C   UNL A   1      40.901  31.395  30.270  1.00  0.00     0.074 A 
ATOM     50  C   UNL A   1      46.717  30.694  27.788  1.00  0.00     0.029 A 
ATOM     51  N   UNL A   1      44.619  30.374  28.453  1.00  0.00    -0.354 N 
ATOM     52  N   UNL A   1      42.060  31.162  29.700  1.00  0.00    -0.248 NA
ATOM     53  C   UNL A   1      40.756  32.756  30.803  1.00  0.00     0.031 C 
ATOM     54  C   UNL A   1      46.244  31.881  28.356  1.00  0.00     0.029 A 
ATOM     55  C   UNL A   1      44.928  31.688  28.748  1.00  0.00     0.049 A 
ATOM     56  H   UNL A   1      43.752  29.943  28.636  1.00  0.00     0.167 HD
ATOM     57  C   UNL A   1      42.765  32.357  29.767  1.00  0.00     0.074 A 
ATOM     58  C   UNL A   1      41.893  33.317  30.413  1.00  0.00     0.031 C 
ATOM     59  C   UNL A   1      44.023  32.637  29.343  1.00  0.00     0.034 A 
BRANCH  46  60
ATOM     60  C   UNL A   1      46.992  27.824  26.833  1.00  0.00     0.023 A 
ATOM     61  C   UNL A   1      47.968  27.255  27.680  1.00  0.00     0.012 A 
ATOM     62  C   UNL A   1      47.206  27.828  25.442  1.00  0.00     0.148 A 
ATOM     63  C   UNL A   1      49.153  26.740  27.156  1.00  0.00     0.002 A 
ATOM     64  C   UNL A   1      48.367  27.264  24.923  1.00  0.00     0.091 A 
ATOM     65  F   UNL A   1      46.281  28.393  24.653  1.00  0.00    -0.205 F 
ATOM     66  C   UNL A   1      49.347  26.735  25.779  1.00  0.00     0.022 A 
BRANCH  64  67
ATOM     67  S   UNL A   1      48.675  27.130  23.158  1.00  0.00     0.127 S 
ATOM     68  O   UNL A   1      50.115  27.376  23.090  1.00  0.00    -0.237 OA
ATOM     69  O   UNL A   1      48.279  25.749  22.883  1.00  0.00    -0.237 OA
ATOM     70  O   UNL A   1      47.838  28.141  22.526  1.00  0.00    -0.744 OA
ENDBRANCH  64  67
ENDBRANCH  46  60
BRANCH  47  71
ATOM     71  C   UNL A   1      38.454  30.946  31.061  1.00  0.00     0.023 A 
ATOM     72  C   UNL A   1      38.302  30.806  32.454  1.00  0.00     0.012 A 
ATOM     73  C   UNL A   1      37.424  31.550  30.315  1.00  0.00     0.148 A 
ATOM     74  C   UNL A   1      37.129  31.222  33.088  1.00  0.00     0.002 A 
ATOM     75  C   UNL A   1      36.284  32.014  30.960  1.00  0.00     0.091 A 
ATOM     76  F   UNL A   1      37.587  31.671  28.990  1.00  0.00    -0.205 F 
ATOM     77  C   UNL A   1      36.125  31.833  32.343  1.00  0.00     0.022 A 
BRANCH  75  78
ATOM     78  S   UNL A   1      35.001  32.933  30.102  1.00  0.00     0.127 S 
ATOM     79  O   UNL A   1      35.763  34.034  29.517  1.00  0.00    -0.237 OA
ATOM     80  O   UNL A   1      34.510  31.944  29.143  1.00  0.00    -0.237 OA
ATOM     81  O   UNL A   1      34.034  33.306  31.126  1.00  0.00    -0.744 OA
ENDBRANCH  75  78
ENDBRANCH  47  71
BRANCH  59  82
ATOM     82  C   UNL A   1      44.512  34.050  29.515  1.00  0.00     0.023 A 
ATOM     83  C   UNL A   1      45.166  34.433  30.702  1.00  0.00     0.012 A 
ATOM     84  C   UNL A   1      44.367  34.983  28.470  1.00  0.00     0.148 A 
ATOM     85  C   UNL A   1      45.624  35.740  30.865  1.00  0.00     0.002 A 
ATOM     86  C   UNL A   1      44.876  36.267  28.619  1.00  0.00     0.091 A 
ATOM     87  F   UNL A   1      43.726  34.605  27.355  1.00  0.00    -0.205 F 
ATOM     88  C   UNL A   1      45.490  36.652  29.821  1.00  0.00     0.022 A 
BRANCH  86  89
ATOM     89  S   UNL A   1      44.839  37.467  27.284  1.00  0.00     0.127 S 
ATOM     90  O   UNL A   1      45.405  38.650  27.931  1.00  0.00    -0.237 OA
ATOM     91  O   UNL A   1      45.707  36.847  26.282  1.00  0.00    -0.237 OA
ATOM     92  O   UNL A   1      43.442  37.575  26.885  1.00  0.00    -0.744 OA
ENDBRANCH  86  89
ENDBRANCH  59  82
ENDBRANCH  33  34
ENDBRANCH  25  28
ENDBRANCH  23  24
ENDBRANCH   1  23
TORSDOF 17
ENDMDL
