MODEL 1
REMARK VINA RESULT:     -11.5      0.000      0.000
REMARK SMILES C[NH+](C)Cc1noc(C[C@@](C)(C(=O)NCCCNC(=O)c2ccc(-c3c4nc(c(-c5cccc(S(=O)(=O)[O-])c5F)c5ccc([nH]5)c(-c5cccc(S(=O)(=O)[O-])c5F)c5nc(c(-c6cccc(S(=O)(=O)[O-])c6F)c6ccc3[nH]6)C=C5)C=C4)cc2)c2ccccc2)n1
REMARK SMILES IDX 15 1 14 2 12 3 13 4 10 6 11 7 9 8 8 9 5 10 6 11 90 12 7 13
REMARK SMILES IDX 4 14 2 15 1 16 3 17 84 19 85 20 89 21 86 22 88 23 87 24
REMARK SMILES IDX 16 25 17 26 18 27 19 28 20 30 21 31 22 32 83 33 23 34 82 35
REMARK SMILES IDX 24 36 25 37 26 38 76 39 27 40 81 41 75 42 77 43 28 44 80 45
REMARK SMILES IDX 74 46 73 47 29 49 61 50 41 51 60 52 42 53 45 54 59 55 78 56
REMARK SMILES IDX 43 57 44 58 58 60 79 61 46 62 30 63 31 64 39 65 32 66 34 67
REMARK SMILES IDX 40 68 33 69 35 70 36 71 37 72 38 73 62 74 63 75 71 76 64 77
REMARK SMILES IDX 66 78 72 79 65 80 67 81 68 82 69 83 70 84 47 85 48 86 56 87
REMARK SMILES IDX 49 88 51 89 57 90 50 91 52 92 53 93 54 94 55 95
REMARK H PARENT 14 5 2 18 18 29 77 48 45 59
REMARK Flexibility Score: inf
ROOT
ATOM      1  C   UNL A   1      31.047  27.952  26.598  1.00  0.00     0.117 C 
ENDROOT
BRANCH   1   2
ATOM      2  N   UNL A   1      30.785  26.531  26.777  1.00  0.00    -0.355 N 
ATOM      3  C   UNL A   1      30.748  25.460  25.932  1.00  0.00     0.230 C 
ATOM      4  O   UNL A   1      30.461  24.387  26.475  1.00  0.00    -0.274 OA
ATOM      5  H   UNL A   1      30.592  26.290  27.712  1.00  0.00     0.163 HD
BRANCH   3   6
ATOM      6  C   UNL A   1      31.058  25.560  24.408  1.00  0.00     0.080 C 
ATOM      7  C   UNL A   1      30.659  24.221  23.728  1.00  0.00     0.027 C 
BRANCH   6   8
ATOM      8  C   UNL A   1      32.584  25.826  24.258  1.00  0.00     0.122 C 
BRANCH   8   9
ATOM      9  C   UNL A   1      33.441  24.624  24.413  1.00  0.00     0.228 A 
ATOM     10  C   UNL A   1      34.574  22.975  25.010  1.00  0.00     0.226 A 
ATOM     11  N   UNL A   1      34.702  22.967  23.673  1.00  0.00    -0.056 NA
ATOM     12  N   UNL A   1      33.789  23.987  25.506  1.00  0.00    -0.190 NA
ATOM     13  O   UNL A   1      33.934  24.060  23.274  1.00  0.00    -0.339 OA
BRANCH  10  14
ATOM     14  C   UNL A   1      35.252  21.983  25.902  1.00  0.00     0.344 C 
BRANCH  14  15
ATOM     15  N   UNL A   1      36.702  22.223  26.113  1.00  0.00    -0.333 N 
ATOM     16  C   UNL A   1      37.530  21.398  25.237  1.00  0.00     0.332 C 
ATOM     17  C   UNL A   1      37.051  23.637  25.985  1.00  0.00     0.332 C 
ATOM     18  H   UNL A   1      36.900  21.944  27.073  1.00  0.00     0.348 HD
ENDBRANCH  14  15
ENDBRANCH  10  14
ENDBRANCH   8   9
ENDBRANCH   6   8
BRANCH   6  19
ATOM     19  C   UNL A   1      30.177  26.684  23.766  1.00  0.00    -0.032 A 
ATOM     20  C   UNL A   1      30.778  27.744  23.051  1.00  0.00     0.005 A 
ATOM     21  C   UNL A   1      28.776  26.716  23.881  1.00  0.00     0.005 A 
ATOM     22  C   UNL A   1      30.030  28.829  22.585  1.00  0.00     0.000 A 
ATOM     23  C   UNL A   1      28.028  27.805  23.424  1.00  0.00     0.000 A 
ATOM     24  C   UNL A   1      28.656  28.872  22.793  1.00  0.00     0.000 A 
ENDBRANCH   6  19
ENDBRANCH   3   6
ENDBRANCH   1   2
BRANCH   1  25
ATOM     25  C   UNL A   1      32.491  28.321  26.923  1.00  0.00     0.042 C 
BRANCH  25  26
ATOM     26  C   UNL A   1      33.093  29.351  25.974  1.00  0.00     0.118 C 
BRANCH  26  27
ATOM     27  N   UNL A   1      32.798  30.722  26.377  1.00  0.00    -0.352 N 
ATOM     28  C   UNL A   1      33.459  31.551  27.251  1.00  0.00     0.251 C 
ATOM     29  H   UNL A   1      31.999  31.114  25.957  1.00  0.00     0.163 HD
ATOM     30  O   UNL A   1      32.925  32.598  27.614  1.00  0.00    -0.269 OA
BRANCH  28  31
ATOM     31  C   UNL A   1      34.792  31.181  27.768  1.00  0.00     0.039 A 
ATOM     32  C   UNL A   1      35.761  32.177  27.926  1.00  0.00     0.014 A 
ATOM     33  C   UNL A   1      35.089  29.858  28.103  1.00  0.00     0.014 A 
ATOM     34  C   UNL A   1      36.990  31.861  28.512  1.00  0.00     0.010 A 
ATOM     35  C   UNL A   1      36.281  29.560  28.756  1.00  0.00     0.010 A 
ATOM     36  C   UNL A   1      37.237  30.562  28.983  1.00  0.00    -0.014 A 
BRANCH  36  37
ATOM     37  C   UNL A   1      38.451  30.237  29.775  1.00  0.00     0.031 A 
ATOM     38  C   UNL A   1      39.451  29.236  29.265  1.00  0.00     0.074 A 
ATOM     39  C   UNL A   1      38.589  30.760  31.011  1.00  0.00     0.049 A 
ATOM     40  N   UNL A   1      40.499  28.739  29.868  1.00  0.00    -0.248 NA
ATOM     41  C   UNL A   1      39.231  28.704  27.909  1.00  0.00     0.031 C 
ATOM     42  C   UNL A   1      37.653  31.692  31.645  1.00  0.00     0.029 A 
ATOM     43  N   UNL A   1      39.549  30.556  31.971  1.00  0.00    -0.354 N 
ATOM     44  C   UNL A   1      41.049  27.820  28.983  1.00  0.00     0.074 A 
ATOM     45  C   UNL A   1      40.201  27.805  27.810  1.00  0.00     0.031 C 
ATOM     46  C   UNL A   1      38.079  31.971  32.886  1.00  0.00     0.029 A 
ATOM     47  C   UNL A   1      39.292  31.208  33.156  1.00  0.00     0.049 A 
ATOM     48  H   UNL A   1      40.346  29.994  31.827  1.00  0.00     0.167 HD
ATOM     49  C   UNL A   1      42.172  27.075  29.121  1.00  0.00     0.034 A 
ATOM     50  C   UNL A   1      39.942  31.175  34.335  1.00  0.00     0.034 A 
ATOM     51  C   UNL A   1      43.027  27.115  30.277  1.00  0.00     0.049 A 
ATOM     52  C   UNL A   1      41.179  30.327  34.465  1.00  0.00     0.074 A 
ATOM     53  C   UNL A   1      44.229  26.459  30.477  1.00  0.00     0.029 A 
ATOM     54  N   UNL A   1      42.768  27.836  31.432  1.00  0.00    -0.354 N 
ATOM     55  N   UNL A   1      41.770  29.588  33.559  1.00  0.00    -0.248 NA
ATOM     56  C   UNL A   1      41.851  30.325  35.772  1.00  0.00     0.031 C 
ATOM     57  C   UNL A   1      44.682  26.759  31.766  1.00  0.00     0.029 A 
ATOM     58  C   UNL A   1      43.776  27.625  32.357  1.00  0.00     0.049 A 
ATOM     59  H   UNL A   1      41.984  28.415  31.573  1.00  0.00     0.167 HD
ATOM     60  C   UNL A   1      42.896  29.056  34.177  1.00  0.00     0.074 A 
ATOM     61  C   UNL A   1      42.921  29.581  35.526  1.00  0.00     0.031 C 
ATOM     62  C   UNL A   1      43.814  28.192  33.681  1.00  0.00     0.034 A 
BRANCH  49  63
ATOM     63  C   UNL A   1      42.576  26.188  27.974  1.00  0.00     0.023 A 
ATOM     64  C   UNL A   1      43.561  26.634  27.069  1.00  0.00     0.012 A 
ATOM     65  C   UNL A   1      42.052  24.887  27.841  1.00  0.00     0.148 A 
ATOM     66  C   UNL A   1      43.999  25.810  26.033  1.00  0.00     0.002 A 
ATOM     67  C   UNL A   1      42.525  24.056  26.832  1.00  0.00     0.091 A 
ATOM     68  F   UNL A   1      41.106  24.488  28.702  1.00  0.00    -0.205 F 
ATOM     69  C   UNL A   1      43.490  24.518  25.921  1.00  0.00     0.022 A 
BRANCH  67  70
ATOM     70  S   UNL A   1      41.993  22.350  26.646  1.00  0.00     0.127 S 
ATOM     71  O   UNL A   1      42.637  21.976  25.388  1.00  0.00    -0.237 OA
ATOM     72  O   UNL A   1      42.566  21.720  27.836  1.00  0.00    -0.237 OA
ATOM     73  O   UNL A   1      40.537  22.383  26.612  1.00  0.00    -0.744 OA
ENDBRANCH  67  70
ENDBRANCH  49  63
BRANCH  50  74
ATOM     74  C   UNL A   1      39.456  31.990  35.487  1.00  0.00     0.023 A 
ATOM     75  C   UNL A   1      38.550  31.422  36.403  1.00  0.00     0.012 A 
ATOM     76  C   UNL A   1      39.885  33.318  35.680  1.00  0.00     0.148 A 
ATOM     77  C   UNL A   1      38.051  32.173  37.467  1.00  0.00     0.002 A 
ATOM     78  C   UNL A   1      39.429  34.041  36.775  1.00  0.00     0.091 A 
ATOM     79  F   UNL A   1      40.737  33.847  34.790  1.00  0.00    -0.205 F 
ATOM     80  C   UNL A   1      38.496  33.478  37.659  1.00  0.00     0.022 A 
BRANCH  78  81
ATOM     81  S   UNL A   1      40.054  35.677  37.173  1.00  0.00     0.127 S 
ATOM     82  O   UNL A   1      41.489  35.429  37.287  1.00  0.00    -0.237 OA
ATOM     83  O   UNL A   1      39.652  36.451  35.998  1.00  0.00    -0.237 OA
ATOM     84  O   UNL A   1      39.377  36.065  38.404  1.00  0.00    -0.744 OA
ENDBRANCH  78  81
ENDBRANCH  50  74
BRANCH  62  85
ATOM     85  C   UNL A   1      44.940  27.770  34.587  1.00  0.00     0.023 A 
ATOM     86  C   UNL A   1      46.114  28.548  34.647  1.00  0.00     0.012 A 
ATOM     87  C   UNL A   1      44.802  26.657  35.440  1.00  0.00     0.148 A 
ATOM     88  C   UNL A   1      47.145  28.209  35.523  1.00  0.00     0.002 A 
ATOM     89  C   UNL A   1      45.812  26.353  36.344  1.00  0.00     0.091 A 
ATOM     90  F   UNL A   1      43.683  25.924  35.356  1.00  0.00    -0.205 F 
ATOM     91  C   UNL A   1      46.989  27.121  36.379  1.00  0.00     0.022 A 
BRANCH  89  92
ATOM     92  S   UNL A   1      45.669  25.030  37.550  1.00  0.00     0.127 S 
ATOM     93  O   UNL A   1      46.955  25.114  38.239  1.00  0.00    -0.237 OA
ATOM     94  O   UNL A   1      44.521  25.463  38.347  1.00  0.00    -0.237 OA
ATOM     95  O   UNL A   1      45.454  23.808  36.787  1.00  0.00    -0.744 OA
ENDBRANCH  89  92
ENDBRANCH  62  85
ENDBRANCH  36  37
ENDBRANCH  28  31
ENDBRANCH  26  27
ENDBRANCH  25  26
ENDBRANCH   1  25
TORSDOF 18
ENDMDL
MODEL 2
REMARK VINA RESULT:     -11.4      5.113      9.881
REMARK SMILES C[NH+](C)Cc1noc(C[C@@](C)(C(=O)NCCCNC(=O)c2ccc(-c3c4nc(c(-c5cccc(S(=O)(=O)[O-])c5F)c5ccc([nH]5)c(-c5cccc(S(=O)(=O)[O-])c5F)c5nc(c(-c6cccc(S(=O)(=O)[O-])c6F)c6ccc3[nH]6)C=C5)C=C4)cc2)c2ccccc2)n1
REMARK SMILES IDX 15 1 14 2 12 3 13 4 10 6 11 7 9 8 8 9 5 10 6 11 90 12 7 13
REMARK SMILES IDX 4 14 2 15 1 16 3 17 84 19 85 20 89 21 86 22 88 23 87 24
REMARK SMILES IDX 16 25 17 26 18 27 19 28 20 30 21 31 22 32 83 33 23 34 82 35
REMARK SMILES IDX 24 36 25 37 26 38 76 39 27 40 81 41 75 42 77 43 28 44 80 45
REMARK SMILES IDX 74 46 73 47 29 49 61 50 41 51 60 52 42 53 45 54 59 55 78 56
REMARK SMILES IDX 43 57 44 58 58 60 79 61 46 62 30 63 31 64 39 65 32 66 34 67
REMARK SMILES IDX 40 68 33 69 35 70 36 71 37 72 38 73 62 74 63 75 71 76 64 77
REMARK SMILES IDX 66 78 72 79 65 80 67 81 68 82 69 83 70 84 47 85 48 86 56 87
REMARK SMILES IDX 49 88 51 89 57 90 50 91 52 92 53 93 54 94 55 95
REMARK H PARENT 14 5 2 18 18 29 77 48 45 59
REMARK Flexibility Score: inf
ROOT
ATOM      1  C   UNL A   1      35.703  22.540  25.942  1.00  0.00     0.117 C 
ENDROOT
BRANCH   1   2
ATOM      2  N   UNL A   1      34.665  22.304  26.936  1.00  0.00    -0.355 N 
ATOM      3  C   UNL A   1      33.320  22.527  26.972  1.00  0.00     0.230 C 
ATOM      4  O   UNL A   1      32.773  22.201  28.032  1.00  0.00    -0.274 OA
ATOM      5  H   UNL A   1      35.010  21.895  27.763  1.00  0.00     0.163 HD
BRANCH   3   6
ATOM      6  C   UNL A   1      32.518  23.125  25.777  1.00  0.00     0.080 C 
ATOM      7  C   UNL A   1      30.999  22.961  26.063  1.00  0.00     0.027 C 
BRANCH   6   8
ATOM      8  C   UNL A   1      32.931  22.342  24.498  1.00  0.00     0.122 C 
BRANCH   8   9
ATOM      9  C   UNL A   1      32.915  20.865  24.644  1.00  0.00     0.228 A 
ATOM     10  C   UNL A   1      33.210  18.798  24.630  1.00  0.00     0.226 A 
ATOM     11  N   UNL A   1      32.114  18.945  25.392  1.00  0.00    -0.056 NA
ATOM     12  N   UNL A   1      33.741  19.971  24.155  1.00  0.00    -0.190 NA
ATOM     13  O   UNL A   1      31.925  20.326  25.413  1.00  0.00    -0.339 OA
BRANCH  10  14
ATOM     14  C   UNL A   1      33.800  17.464  24.295  1.00  0.00     0.344 C 
BRANCH  14  15
ATOM     15  N   UNL A   1      33.998  16.560  25.456  1.00  0.00    -0.333 N 
ATOM     16  C   UNL A   1      32.958  15.539  25.543  1.00  0.00     0.332 C 
ATOM     17  C   UNL A   1      35.329  15.955  25.462  1.00  0.00     0.332 C 
ATOM     18  H   UNL A   1      33.923  17.145  26.288  1.00  0.00     0.348 HD
ENDBRANCH  14  15
ENDBRANCH  10  14
ENDBRANCH   8   9
ENDBRANCH   6   8
BRANCH   6  19
ATOM     19  C   UNL A   1      32.804  24.662  25.670  1.00  0.00    -0.032 A 
ATOM     20  C   UNL A   1      32.204  25.566  26.574  1.00  0.00     0.005 A 
ATOM     21  C   UNL A   1      33.633  25.217  24.680  1.00  0.00     0.005 A 
ATOM     22  C   UNL A   1      32.333  26.950  26.419  1.00  0.00     0.000 A 
ATOM     23  C   UNL A   1      33.755  26.601  24.518  1.00  0.00     0.000 A 
ATOM     24  C   UNL A   1      33.089  27.468  25.375  1.00  0.00     0.000 A 
ENDBRANCH   6  19
ENDBRANCH   3   6
ENDBRANCH   1   2
BRANCH   1  25
ATOM     25  C   UNL A   1      36.356  21.245  25.468  1.00  0.00     0.042 C 
BRANCH  25  26
ATOM     26  C   UNL A   1      37.792  21.419  24.986  1.00  0.00     0.118 C 
BRANCH  26  27
ATOM     27  N   UNL A   1      38.691  20.406  25.531  1.00  0.00    -0.352 N 
ATOM     28  C   UNL A   1      39.847  20.546  26.259  1.00  0.00     0.251 C 
ATOM     29  H   UNL A   1      38.427  19.476  25.346  1.00  0.00     0.163 HD
ATOM     30  O   UNL A   1      40.571  19.569  26.440  1.00  0.00    -0.269 OA
BRANCH  28  31
ATOM     31  C   UNL A   1      40.231  21.865  26.805  1.00  0.00     0.039 A 
ATOM     32  C   UNL A   1      41.106  21.921  27.894  1.00  0.00     0.014 A 
ATOM     33  C   UNL A   1      39.737  23.044  26.244  1.00  0.00     0.014 A 
ATOM     34  C   UNL A   1      41.560  23.160  28.354  1.00  0.00     0.010 A 
ATOM     35  C   UNL A   1      40.249  24.272  26.651  1.00  0.00     0.010 A 
ATOM     36  C   UNL A   1      41.179  24.342  27.699  1.00  0.00    -0.014 A 
BRANCH  36  37
ATOM     37  C   UNL A   1      41.787  25.654  28.041  1.00  0.00     0.031 A 
ATOM     38  C   UNL A   1      40.967  26.726  28.703  1.00  0.00     0.074 A 
ATOM     39  C   UNL A   1      43.049  25.917  27.644  1.00  0.00     0.049 A 
ATOM     40  N   UNL A   1      41.289  27.966  28.965  1.00  0.00    -0.248 NA
ATOM     41  C   UNL A   1      39.595  26.367  29.104  1.00  0.00     0.031 C 
ATOM     42  C   UNL A   1      43.925  24.981  26.934  1.00  0.00     0.029 A 
ATOM     43  N   UNL A   1      43.804  27.059  27.746  1.00  0.00    -0.354 N 
ATOM     44  C   UNL A   1      40.160  28.543  29.532  1.00  0.00     0.074 A 
ATOM     45  C   UNL A   1      39.131  27.526  29.551  1.00  0.00     0.031 C 
ATOM     46  C   UNL A   1      45.090  25.588  26.659  1.00  0.00     0.029 A 
ATOM     47  C   UNL A   1      45.032  26.966  27.132  1.00  0.00     0.049 A 
ATOM     48  H   UNL A   1      43.495  27.870  28.214  1.00  0.00     0.167 HD
ATOM     49  C   UNL A   1      40.001  29.798  30.018  1.00  0.00     0.034 A 
ATOM     50  C   UNL A   1      45.992  27.892  26.944  1.00  0.00     0.034 A 
ATOM     51  C   UNL A   1      41.037  30.797  30.023  1.00  0.00     0.049 A 
ATOM     52  C   UNL A   1      45.781  29.283  27.481  1.00  0.00     0.074 A 
ATOM     53  C   UNL A   1      40.998  32.069  30.565  1.00  0.00     0.029 A 
ATOM     54  N   UNL A   1      42.288  30.645  29.448  1.00  0.00    -0.354 N 
ATOM     55  N   UNL A   1      44.766  29.760  28.157  1.00  0.00    -0.248 NA
ATOM     56  C   UNL A   1      46.859  30.256  27.249  1.00  0.00     0.031 C 
ATOM     57  C   UNL A   1      42.216  32.699  30.291  1.00  0.00     0.029 A 
ATOM     58  C   UNL A   1      43.024  31.808  29.603  1.00  0.00     0.049 A 
ATOM     59  H   UNL A   1      42.609  29.830  28.997  1.00  0.00     0.167 HD
ATOM     60  C   UNL A   1      45.093  31.078  28.454  1.00  0.00     0.074 A 
ATOM     61  C   UNL A   1      46.414  31.315  27.911  1.00  0.00     0.031 C 
ATOM     62  C   UNL A   1      44.357  32.016  29.099  1.00  0.00     0.034 A 
BRANCH  49  63
ATOM     63  C   UNL A   1      38.675  30.153  30.636  1.00  0.00     0.023 A 
ATOM     64  C   UNL A   1      38.433  29.829  31.986  1.00  0.00     0.012 A 
ATOM     65  C   UNL A   1      37.708  30.880  29.914  1.00  0.00     0.148 A 
ATOM     66  C   UNL A   1      37.237  30.199  32.602  1.00  0.00     0.002 A 
ATOM     67  C   UNL A   1      36.538  31.282  30.547  1.00  0.00     0.091 A 
ATOM     68  F   UNL A   1      37.951  31.163  28.627  1.00  0.00    -0.205 F 
ATOM     69  C   UNL A   1      36.296  30.935  31.886  1.00  0.00     0.022 A 
BRANCH  67  70
ATOM     70  S   UNL A   1      35.295  32.298  29.740  1.00  0.00     0.127 S 
ATOM     71  O   UNL A   1      34.345  32.521  30.829  1.00  0.00    -0.237 OA
ATOM     72  O   UNL A   1      36.068  33.479  29.354  1.00  0.00    -0.237 OA
ATOM     73  O   UNL A   1      34.788  31.508  28.627  1.00  0.00    -0.744 OA
ENDBRANCH  67  70
ENDBRANCH  49  63
BRANCH  50  74
ATOM     74  C   UNL A   1      47.256  27.534  26.236  1.00  0.00     0.023 A 
ATOM     75  C   UNL A   1      47.372  27.785  24.855  1.00  0.00     0.012 A 
ATOM     76  C   UNL A   1      48.341  26.952  26.920  1.00  0.00     0.148 A 
ATOM     77  C   UNL A   1      48.527  27.427  24.162  1.00  0.00     0.002 A 
ATOM     78  C   UNL A   1      49.511  26.651  26.234  1.00  0.00     0.091 A 
ATOM     79  F   UNL A   1      48.208  26.706  28.232  1.00  0.00    -0.205 F 
ATOM     80  C   UNL A   1      49.600  26.868  24.851  1.00  0.00     0.022 A 
BRANCH  78  81
ATOM     81  S   UNL A   1      50.987  26.056  27.069  1.00  0.00     0.127 S 
ATOM     82  O   UNL A   1      51.969  26.074  25.988  1.00  0.00    -0.237 OA
ATOM     83  O   UNL A   1      51.184  27.076  28.100  1.00  0.00    -0.237 OA
ATOM     84  O   UNL A   1      50.638  24.740  27.589  1.00  0.00    -0.744 OA
ENDBRANCH  78  81
ENDBRANCH  50  74
BRANCH  62  85
ATOM     85  C   UNL A   1      44.963  33.383  29.275  1.00  0.00     0.023 A 
ATOM     86  C   UNL A   1      45.675  33.682  30.455  1.00  0.00     0.012 A 
ATOM     87  C   UNL A   1      44.903  34.338  28.242  1.00  0.00     0.148 A 
ATOM     88  C   UNL A   1      46.294  34.921  30.614  1.00  0.00     0.002 A 
ATOM     89  C   UNL A   1      45.564  35.551  28.387  1.00  0.00     0.091 A 
ATOM     90  F   UNL A   1      44.210  34.038  27.134  1.00  0.00    -0.205 F 
ATOM     91  C   UNL A   1      46.250  35.849  29.577  1.00  0.00     0.022 A 
BRANCH  89  92
ATOM     92  S   UNL A   1      45.644  36.776  27.075  1.00  0.00     0.127 S 
ATOM     93  O   UNL A   1      46.237  36.006  25.984  1.00  0.00    -0.237 OA
ATOM     94  O   UNL A   1      44.233  37.115  26.886  1.00  0.00    -0.237 OA
ATOM     95  O   UNL A   1      46.468  37.863  27.586  1.00  0.00    -0.744 OA
ENDBRANCH  89  92
ENDBRANCH  62  85
ENDBRANCH  36  37
ENDBRANCH  28  31
ENDBRANCH  26  27
ENDBRANCH  25  26
ENDBRANCH   1  25
TORSDOF 18
ENDMDL
MODEL 3
REMARK VINA RESULT:     -11.2      4.879     10.074
REMARK SMILES C[NH+](C)Cc1noc(C[C@@](C)(C(=O)NCCCNC(=O)c2ccc(-c3c4nc(c(-c5cccc(S(=O)(=O)[O-])c5F)c5ccc([nH]5)c(-c5cccc(S(=O)(=O)[O-])c5F)c5nc(c(-c6cccc(S(=O)(=O)[O-])c6F)c6ccc3[nH]6)C=C5)C=C4)cc2)c2ccccc2)n1
REMARK SMILES IDX 15 1 14 2 12 3 13 4 10 6 11 7 9 8 8 9 5 10 6 11 90 12 7 13
REMARK SMILES IDX 4 14 2 15 1 16 3 17 84 19 85 20 89 21 86 22 88 23 87 24
REMARK SMILES IDX 16 25 17 26 18 27 19 28 20 30 21 31 22 32 83 33 23 34 82 35
REMARK SMILES IDX 24 36 25 37 26 38 76 39 27 40 81 41 75 42 77 43 28 44 80 45
REMARK SMILES IDX 74 46 73 47 29 49 61 50 41 51 60 52 42 53 45 54 59 55 78 56
REMARK SMILES IDX 43 57 44 58 58 60 79 61 46 62 30 63 31 64 39 65 32 66 34 67
REMARK SMILES IDX 40 68 33 69 35 70 36 71 37 72 38 73 62 74 63 75 71 76 64 77
REMARK SMILES IDX 66 78 72 79 65 80 67 81 68 82 69 83 70 84 47 85 48 86 56 87
REMARK SMILES IDX 49 88 51 89 57 90 50 91 52 92 53 93 54 94 55 95
REMARK H PARENT 14 5 2 18 18 29 77 48 45 59
REMARK Flexibility Score: inf
ROOT
ATOM      1  C   UNL A   1      35.867  23.062  23.833  1.00  0.00     0.117 C 
ENDROOT
BRANCH   1   2
ATOM      2  N   UNL A   1      35.013  23.302  24.988  1.00  0.00    -0.355 N 
ATOM      3  C   UNL A   1      33.671  23.207  25.210  1.00  0.00     0.230 C 
ATOM      4  O   UNL A   1      33.315  23.525  26.351  1.00  0.00    -0.274 OA
ATOM      5  H   UNL A   1      35.515  23.598  25.782  1.00  0.00     0.163 HD
BRANCH   3   6
ATOM      6  C   UNL A   1      32.656  22.720  24.132  1.00  0.00     0.080 C 
ATOM      7  C   UNL A   1      33.097  23.268  22.747  1.00  0.00     0.027 C 
BRANCH   6   8
ATOM      8  C   UNL A   1      31.255  23.271  24.528  1.00  0.00     0.122 C 
BRANCH   8   9
ATOM      9  C   UNL A   1      31.050  24.711  24.232  1.00  0.00     0.228 A 
ATOM     10  C   UNL A   1      31.089  26.788  24.017  1.00  0.00     0.226 A 
ATOM     11  N   UNL A   1      29.986  26.431  23.339  1.00  0.00    -0.056 NA
ATOM     12  N   UNL A   1      31.782  25.744  24.579  1.00  0.00    -0.190 NA
ATOM     13  O   UNL A   1      29.969  25.043  23.471  1.00  0.00    -0.339 OA
BRANCH  10  14
ATOM     14  C   UNL A   1      31.525  28.210  24.180  1.00  0.00     0.344 C 
BRANCH  14  15
ATOM     15  N   UNL A   1      32.995  28.408  24.252  1.00  0.00    -0.333 N 
ATOM     16  C   UNL A   1      33.521  29.070  23.061  1.00  0.00     0.332 C 
ATOM     17  C   UNL A   1      33.396  29.117  25.466  1.00  0.00     0.332 C 
ATOM     18  H   UNL A   1      33.406  27.476  24.291  1.00  0.00     0.348 HD
ENDBRANCH  14  15
ENDBRANCH  10  14
ENDBRANCH   8   9
ENDBRANCH   6   8
BRANCH   6  19
ATOM     19  C   UNL A   1      32.693  21.156  24.044  1.00  0.00    -0.032 A 
ATOM     20  C   UNL A   1      33.304  20.397  25.066  1.00  0.00     0.005 A 
ATOM     21  C   UNL A   1      32.156  20.440  22.961  1.00  0.00     0.005 A 
ATOM     22  C   UNL A   1      33.471  19.014  24.949  1.00  0.00     0.000 A 
ATOM     23  C   UNL A   1      32.331  19.058  22.838  1.00  0.00     0.000 A 
ATOM     24  C   UNL A   1      33.007  18.346  23.822  1.00  0.00     0.000 A 
ENDBRANCH   6  19
ENDBRANCH   3   6
ENDBRANCH   1   2
BRANCH   1  25
ATOM     25  C   UNL A   1      36.679  21.778  23.968  1.00  0.00     0.042 C 
BRANCH  25  26
ATOM     26  C   UNL A   1      36.927  21.354  25.412  1.00  0.00     0.118 C 
BRANCH  26  27
ATOM     27  N   UNL A   1      37.998  20.369  25.529  1.00  0.00    -0.352 N 
ATOM     28  C   UNL A   1      39.308  20.526  25.910  1.00  0.00     0.251 C 
ATOM     29  H   UNL A   1      37.740  19.448  25.297  1.00  0.00     0.163 HD
ATOM     30  O   UNL A   1      40.103  19.604  25.738  1.00  0.00    -0.269 OA
BRANCH  28  31
ATOM     31  C   UNL A   1      39.767  21.798  26.506  1.00  0.00     0.039 A 
ATOM     32  C   UNL A   1      40.742  21.768  27.507  1.00  0.00     0.014 A 
ATOM     33  C   UNL A   1      39.242  23.019  26.078  1.00  0.00     0.014 A 
ATOM     34  C   UNL A   1      41.260  22.966  28.005  1.00  0.00     0.010 A 
ATOM     35  C   UNL A   1      39.813  24.210  26.517  1.00  0.00     0.010 A 
ATOM     36  C   UNL A   1      40.840  24.196  27.473  1.00  0.00    -0.014 A 
BRANCH  36  37
ATOM     37  C   UNL A   1      41.501  25.474  27.844  1.00  0.00     0.031 A 
ATOM     38  C   UNL A   1      40.728  26.560  28.540  1.00  0.00     0.074 A 
ATOM     39  C   UNL A   1      42.769  25.697  27.444  1.00  0.00     0.049 A 
ATOM     40  N   UNL A   1      41.101  27.778  28.831  1.00  0.00    -0.248 NA
ATOM     41  C   UNL A   1      39.346  26.244  28.942  1.00  0.00     0.031 C 
ATOM     42  C   UNL A   1      43.603  24.746  26.703  1.00  0.00     0.029 A 
ATOM     43  N   UNL A   1      43.569  26.806  27.570  1.00  0.00    -0.354 N 
ATOM     44  C   UNL A   1      39.999  28.384  29.422  1.00  0.00     0.074 A 
ATOM     45  C   UNL A   1      38.931  27.408  29.422  1.00  0.00     0.031 C 
ATOM     46  C   UNL A   1      44.790  25.314  26.435  1.00  0.00     0.029 A 
ATOM     47  C   UNL A   1      44.789  26.681  26.944  1.00  0.00     0.049 A 
ATOM     48  H   UNL A   1      43.296  27.616  28.061  1.00  0.00     0.167 HD
ATOM     49  C   UNL A   1      39.893  29.631  29.941  1.00  0.00     0.034 A 
ATOM     50  C   UNL A   1      45.783  27.573  26.772  1.00  0.00     0.034 A 
ATOM     51  C   UNL A   1      40.967  30.588  29.963  1.00  0.00     0.049 A 
ATOM     52  C   UNL A   1      45.631  28.957  27.347  1.00  0.00     0.074 A 
ATOM     53  C   UNL A   1      40.982  31.847  30.538  1.00  0.00     0.029 A 
ATOM     54  N   UNL A   1      42.208  30.403  29.375  1.00  0.00    -0.354 N 
ATOM     55  N   UNL A   1      44.640  29.456  28.043  1.00  0.00    -0.248 NA
ATOM     56  C   UNL A   1      46.745  29.892  27.132  1.00  0.00     0.031 C 
ATOM     57  C   UNL A   1      42.221  32.435  30.271  1.00  0.00     0.029 A 
ATOM     58  C   UNL A   1      42.989  31.532  29.554  1.00  0.00     0.049 A 
ATOM     59  H   UNL A   1      42.493  29.588  28.901  1.00  0.00     0.167 HD
ATOM     60  C   UNL A   1      45.020  30.752  28.372  1.00  0.00     0.074 A 
ATOM     61  C   UNL A   1      46.346  30.951  27.824  1.00  0.00     0.031 C 
ATOM     62  C   UNL A   1      44.326  31.700  29.046  1.00  0.00     0.034 A 
BRANCH  49  63
ATOM     63  C   UNL A   1      38.586  30.021  30.578  1.00  0.00     0.023 A 
ATOM     64  C   UNL A   1      38.332  29.655  31.915  1.00  0.00     0.012 A 
ATOM     65  C   UNL A   1      37.651  30.821  29.890  1.00  0.00     0.148 A 
ATOM     66  C   UNL A   1      37.156  30.054  32.550  1.00  0.00     0.002 A 
ATOM     67  C   UNL A   1      36.503  31.251  30.543  1.00  0.00     0.091 A 
ATOM     68  F   UNL A   1      37.904  31.144  28.614  1.00  0.00    -0.205 F 
ATOM     69  C   UNL A   1      36.248  30.861  31.868  1.00  0.00     0.022 A 
BRANCH  67  70
ATOM     70  S   UNL A   1      35.306  32.354  29.783  1.00  0.00     0.127 S 
ATOM     71  O   UNL A   1      34.778  31.519  28.705  1.00  0.00    -0.237 OA
ATOM     72  O   UNL A   1      34.370  32.594  30.883  1.00  0.00    -0.237 OA
ATOM     73  O   UNL A   1      36.054  33.526  29.351  1.00  0.00    -0.744 OA
ENDBRANCH  67  70
ENDBRANCH  49  63
BRANCH  50  74
ATOM     74  C   UNL A   1      47.028  27.185  26.046  1.00  0.00     0.023 A 
ATOM     75  C   UNL A   1      47.135  27.448  24.667  1.00  0.00     0.012 A 
ATOM     76  C   UNL A   1      48.101  26.561  26.711  1.00  0.00     0.148 A 
ATOM     77  C   UNL A   1      48.271  27.063  23.956  1.00  0.00     0.002 A 
ATOM     78  C   UNL A   1      49.254  26.232  26.008  1.00  0.00     0.091 A 
ATOM     79  F   UNL A   1      47.976  26.304  28.021  1.00  0.00    -0.205 F 
ATOM     80  C   UNL A   1      49.334  26.463  24.627  1.00  0.00     0.022 A 
BRANCH  78  81
ATOM     81  S   UNL A   1      50.720  25.582  26.818  1.00  0.00     0.127 S 
ATOM     82  O   UNL A   1      51.632  25.409  25.691  1.00  0.00    -0.237 OA
ATOM     83  O   UNL A   1      51.068  26.670  27.733  1.00  0.00    -0.237 OA
ATOM     84  O   UNL A   1      50.289  24.359  27.481  1.00  0.00    -0.744 OA
ENDBRANCH  78  81
ENDBRANCH  50  74
BRANCH  62  85
ATOM     85  C   UNL A   1      44.987  33.037  29.253  1.00  0.00     0.023 A 
ATOM     86  C   UNL A   1      45.791  33.247  30.391  1.00  0.00     0.012 A 
ATOM     87  C   UNL A   1      44.882  34.052  28.281  1.00  0.00     0.148 A 
ATOM     88  C   UNL A   1      46.460  34.457  30.573  1.00  0.00     0.002 A 
ATOM     89  C   UNL A   1      45.590  35.236  28.445  1.00  0.00     0.091 A 
ATOM     90  F   UNL A   1      44.102  33.836  27.214  1.00  0.00    -0.205 F 
ATOM     91  C   UNL A   1      46.370  35.445  29.595  1.00  0.00     0.022 A 
BRANCH  89  92
ATOM     92  S   UNL A   1      45.613  36.532  27.202  1.00  0.00     0.127 S 
ATOM     93  O   UNL A   1      46.207  35.840  26.059  1.00  0.00    -0.237 OA
ATOM     94  O   UNL A   1      44.191  36.842  27.054  1.00  0.00    -0.237 OA
ATOM     95  O   UNL A   1      46.418  37.612  27.757  1.00  0.00    -0.744 OA
ENDBRANCH  89  92
ENDBRANCH  62  85
ENDBRANCH  36  37
ENDBRANCH  28  31
ENDBRANCH  26  27
ENDBRANCH  25  26
ENDBRANCH   1  25
TORSDOF 18
ENDMDL
