MODEL 1
REMARK VINA RESULT:     -12.7      0.000      0.000
REMARK SMILES COc1ccc(NC(=O)[C@@H]2[C@@H](C(=O)NCCCNC(=O)c3ccc(-c4c5nc(c(-c6cccc(S(=O)(=O)[O-])c6F)c6ccc([nH]6)c(-c6cccc(S(=O)(=O)[O-])c6F)c6nc(c(-c7cccc(S(=O)(=O)[O-])c7F)c7ccc4[nH]7)C=C6)C=C5)cc3)[C@@H]3CC[C@H]2C3=C(C)C)cc1
REMARK SMILES IDX 16 1 15 2 14 3 12 4 13 5 11 7 10 8 87 9 84 10 86 11 88 12
REMARK SMILES IDX 85 13 89 14 90 15 91 16 8 17 7 18 9 20 6 21 3 22 4 23 93 24
REMARK SMILES IDX 5 25 92 26 2 27 1 28 17 29 18 30 19 31 20 33 21 34 22 35
REMARK SMILES IDX 83 36 23 37 82 38 24 39 25 40 26 41 76 42 27 43 81 44 75 45
REMARK SMILES IDX 77 46 28 47 80 48 74 49 73 50 29 52 61 53 41 54 60 55 42 56
REMARK SMILES IDX 45 57 59 58 78 59 43 60 44 61 58 63 79 64 46 65 30 66 31 67
REMARK SMILES IDX 39 68 32 69 34 70 40 71 33 72 35 73 36 74 37 75 38 76 62 77
REMARK SMILES IDX 63 78 71 79 64 80 66 81 72 82 65 83 67 84 68 85 69 86 70 87
REMARK SMILES IDX 47 88 48 89 56 90 49 91 51 92 57 93 50 94 52 95 53 96 54 97
REMARK SMILES IDX 55 98
REMARK H PARENT 14 6 7 19 18 32 77 51 45 62
REMARK Flexibility Score: inf
ROOT
ATOM      1  C   UNL A   1      36.949  21.950  24.281  1.00  0.00     0.042 C 
ENDROOT
BRANCH   1   2
ATOM      2  C   UNL A   1      36.527  23.306  23.760  1.00  0.00     0.117 C 
BRANCH   2   3
ATOM      3  N   UNL A   1      35.240  23.261  23.076  1.00  0.00    -0.356 N 
ATOM      4  C   UNL A   1      34.008  23.757  23.347  1.00  0.00     0.224 C 
ATOM      5  O   UNL A   1      33.148  23.560  22.478  1.00  0.00    -0.275 OA
ATOM      6  H   UNL A   1      35.274  22.760  22.229  1.00  0.00     0.163 HD
BRANCH   4   7
ATOM      7  C   UNL A   1      33.593  24.452  24.639  1.00  0.00     0.098 C 
ATOM      8  C   UNL A   1      32.112  24.440  25.071  1.00  0.00     0.099 C 
ATOM      9  C   UNL A   1      31.779  25.967  25.115  1.00  0.00     0.028 C 
ATOM     10  C   UNL A   1      33.963  25.948  24.518  1.00  0.00     0.028 C 
ATOM     11  C   UNL A   1      32.488  26.711  26.262  1.00  0.00     0.009 C 
ATOM     12  C   UNL A   1      32.666  26.498  24.002  1.00  0.00    -0.064 C 
ATOM     13  C   UNL A   1      33.979  26.605  25.902  1.00  0.00     0.009 C 
ATOM     14  C   UNL A   1      32.421  27.267  22.924  1.00  0.00    -0.077 C 
ATOM     15  C   UNL A   1      33.507  27.763  21.998  1.00  0.00     0.039 C 
ATOM     16  C   UNL A   1      31.037  27.707  22.536  1.00  0.00     0.039 C 
BRANCH   8  17
ATOM     17  C   UNL A   1      31.826  23.662  26.360  1.00  0.00     0.228 C 
ATOM     18  N   UNL A   1      32.189  22.354  26.539  1.00  0.00    -0.326 N 
ATOM     19  H   UNL A   1      32.071  22.051  27.468  1.00  0.00     0.169 HD
ATOM     20  O   UNL A   1      31.233  24.186  27.308  1.00  0.00    -0.274 OA
BRANCH  18  21
ATOM     21  C   UNL A   1      32.690  21.342  25.699  1.00  0.00     0.041 A 
ATOM     22  C   UNL A   1      33.430  19.168  24.084  1.00  0.00     0.119 A 
ATOM     23  C   UNL A   1      34.259  19.583  25.116  1.00  0.00     0.048 A 
ATOM     24  C   UNL A   1      32.274  19.883  23.793  1.00  0.00     0.048 A 
ATOM     25  C   UNL A   1      33.905  20.696  25.887  1.00  0.00     0.030 A 
ATOM     26  C   UNL A   1      31.915  20.977  24.590  1.00  0.00     0.030 A 
BRANCH  22  27
ATOM     27  O   UNL A   1      33.683  17.991  23.440  1.00  0.00    -0.497 OA
ATOM     28  C   UNL A   1      34.596  17.181  24.171  1.00  0.00     0.278 C 
ENDBRANCH  22  27
ENDBRANCH  18  21
ENDBRANCH   8  17
ENDBRANCH   4   7
ENDBRANCH   2   3
ENDBRANCH   1   2
BRANCH   1  29
ATOM     29  C   UNL A   1      37.328  22.002  25.746  1.00  0.00     0.118 C 
BRANCH  29  30
ATOM     30  N   UNL A   1      38.382  21.047  26.074  1.00  0.00    -0.352 N 
ATOM     31  C   UNL A   1      39.671  21.279  26.494  1.00  0.00     0.251 C 
ATOM     32  H   UNL A   1      38.135  20.099  25.981  1.00  0.00     0.163 HD
ATOM     33  O   UNL A   1      40.486  20.358  26.506  1.00  0.00    -0.269 OA
BRANCH  31  34
ATOM     34  C   UNL A   1      40.077  22.641  26.903  1.00  0.00     0.039 A 
ATOM     35  C   UNL A   1      40.973  22.814  27.960  1.00  0.00     0.014 A 
ATOM     36  C   UNL A   1      39.580  23.753  26.224  1.00  0.00     0.014 A 
ATOM     37  C   UNL A   1      41.425  24.098  28.281  1.00  0.00     0.010 A 
ATOM     38  C   UNL A   1      40.139  25.002  26.444  1.00  0.00     0.010 A 
ATOM     39  C   UNL A   1      41.040  25.199  27.499  1.00  0.00    -0.014 A 
BRANCH  39  40
ATOM     40  C   UNL A   1      41.497  26.585  27.780  1.00  0.00     0.031 A 
ATOM     41  C   UNL A   1      42.920  26.966  27.455  1.00  0.00     0.074 A 
ATOM     42  C   UNL A   1      40.693  27.453  28.424  1.00  0.00     0.049 A 
ATOM     43  N   UNL A   1      43.579  28.051  27.769  1.00  0.00    -0.248 NA
ATOM     44  C   UNL A   1      43.726  25.971  26.722  1.00  0.00     0.031 C 
ATOM     45  C   UNL A   1      39.318  27.185  28.849  1.00  0.00     0.029 A 
ATOM     46  N   UNL A   1      40.933  28.731  28.865  1.00  0.00    -0.354 N 
ATOM     47  C   UNL A   1      44.880  27.844  27.326  1.00  0.00     0.074 A 
ATOM     48  C   UNL A   1      44.932  26.513  26.767  1.00  0.00     0.031 C 
ATOM     49  C   UNL A   1      38.834  28.267  29.482  1.00  0.00     0.029 A 
ATOM     50  C   UNL A   1      39.876  29.285  29.550  1.00  0.00     0.049 A 
ATOM     51  H   UNL A   1      41.781  29.205  28.706  1.00  0.00     0.167 HD
ATOM     52  C   UNL A   1      45.932  28.695  27.348  1.00  0.00     0.034 A 
ATOM     53  C   UNL A   1      39.768  30.474  30.177  1.00  0.00     0.034 A 
ATOM     54  C   UNL A   1      45.859  30.038  27.849  1.00  0.00     0.049 A 
ATOM     55  C   UNL A   1      40.941  31.417  30.159  1.00  0.00     0.074 A 
ATOM     56  C   UNL A   1      46.838  31.013  27.840  1.00  0.00     0.029 A 
ATOM     57  N   UNL A   1      44.741  30.594  28.449  1.00  0.00    -0.354 N 
ATOM     58  N   UNL A   1      42.126  31.253  29.623  1.00  0.00    -0.248 NA
ATOM     59  C   UNL A   1      40.753  32.726  30.805  1.00  0.00     0.031 C 
ATOM     60  C   UNL A   1      46.321  32.153  28.463  1.00  0.00     0.029 A 
ATOM     61  C   UNL A   1      45.006  31.900  28.820  1.00  0.00     0.049 A 
ATOM     62  H   UNL A   1      43.884  30.130  28.592  1.00  0.00     0.167 HD
ATOM     63  C   UNL A   1      42.805  32.450  29.820  1.00  0.00     0.074 A 
ATOM     64  C   UNL A   1      41.897  33.334  30.522  1.00  0.00     0.031 C 
ATOM     65  C   UNL A   1      44.067  32.786  29.459  1.00  0.00     0.034 A 
BRANCH  52  66
ATOM     66  C   UNL A   1      47.237  28.210  26.771  1.00  0.00     0.023 A 
ATOM     67  C   UNL A   1      48.307  27.882  27.630  1.00  0.00     0.012 A 
ATOM     68  C   UNL A   1      47.395  28.042  25.381  1.00  0.00     0.148 A 
ATOM     69  C   UNL A   1      49.526  27.443  27.115  1.00  0.00     0.002 A 
ATOM     70  C   UNL A   1      48.595  27.553  24.879  1.00  0.00     0.091 A 
ATOM     71  F   UNL A   1      46.377  28.378  24.576  1.00  0.00    -0.205 F 
ATOM     72  C   UNL A   1      49.667  27.269  25.742  1.00  0.00     0.022 A 
BRANCH  70  73
ATOM     73  S   UNL A   1      48.847  27.211  23.134  1.00  0.00     0.127 S 
ATOM     74  O   UNL A   1      50.306  27.158  23.052  1.00  0.00    -0.237 OA
ATOM     75  O   UNL A   1      48.180  25.918  22.976  1.00  0.00    -0.237 OA
ATOM     76  O   UNL A   1      48.221  28.310  22.414  1.00  0.00    -0.744 OA
ENDBRANCH  70  73
ENDBRANCH  52  66
BRANCH  53  77
ATOM     77  C   UNL A   1      38.482  30.866  30.820  1.00  0.00     0.023 A 
ATOM     78  C   UNL A   1      38.276  30.579  32.184  1.00  0.00     0.012 A 
ATOM     79  C   UNL A   1      37.473  31.536  30.101  1.00  0.00     0.148 A 
ATOM     80  C   UNL A   1      37.077  30.918  32.811  1.00  0.00     0.002 A 
ATOM     81  C   UNL A   1      36.304  31.921  30.746  1.00  0.00     0.091 A 
ATOM     82  F   UNL A   1      37.685  31.796  28.803  1.00  0.00    -0.205 F 
ATOM     83  C   UNL A   1      36.095  31.597  32.096  1.00  0.00     0.022 A 
BRANCH  81  84
ATOM     84  S   UNL A   1      35.036  32.908  29.942  1.00  0.00     0.127 S 
ATOM     85  O   UNL A   1      35.824  33.993  29.364  1.00  0.00    -0.237 OA
ATOM     86  O   UNL A   1      34.487  31.959  28.973  1.00  0.00    -0.237 OA
ATOM     87  O   UNL A   1      34.109  33.294  30.998  1.00  0.00    -0.744 OA
ENDBRANCH  81  84
ENDBRANCH  53  77
BRANCH  65  88
ATOM     88  C   UNL A   1      44.533  34.190  29.740  1.00  0.00     0.023 A 
ATOM     89  C   UNL A   1      45.222  34.484  30.932  1.00  0.00     0.012 A 
ATOM     90  C   UNL A   1      44.376  35.193  28.763  1.00  0.00     0.148 A 
ATOM     91  C   UNL A   1      45.726  35.765  31.158  1.00  0.00     0.002 A 
ATOM     92  C   UNL A   1      44.927  36.451  28.971  1.00  0.00     0.091 A 
ATOM     93  F   UNL A   1      43.703  34.893  27.642  1.00  0.00    -0.205 F 
ATOM     94  C   UNL A   1      45.592  36.741  30.173  1.00  0.00     0.022 A 
BRANCH  92  95
ATOM     95  S   UNL A   1      44.897  37.736  27.717  1.00  0.00     0.127 S 
ATOM     96  O   UNL A   1      45.506  38.858  28.428  1.00  0.00    -0.237 OA
ATOM     97  O   UNL A   1      45.730  37.157  26.663  1.00  0.00    -0.237 OA
ATOM     98  O   UNL A   1      43.497  37.915  27.354  1.00  0.00    -0.744 OA
ENDBRANCH  92  95
ENDBRANCH  65  88
ENDBRANCH  39  40
ENDBRANCH  31  34
ENDBRANCH  29  30
ENDBRANCH   1  29
TORSDOF 16
ENDMDL
MODEL 2
REMARK VINA RESULT:     -12.6      4.863      9.616
REMARK SMILES COc1ccc(NC(=O)[C@@H]2[C@@H](C(=O)NCCCNC(=O)c3ccc(-c4c5nc(c(-c6cccc(S(=O)(=O)[O-])c6F)c6ccc([nH]6)c(-c6cccc(S(=O)(=O)[O-])c6F)c6nc(c(-c7cccc(S(=O)(=O)[O-])c7F)c7ccc4[nH]7)C=C6)C=C5)cc3)[C@@H]3CC[C@H]2C3=C(C)C)cc1
REMARK SMILES IDX 16 1 15 2 14 3 12 4 13 5 11 7 10 8 87 9 84 10 86 11 88 12
REMARK SMILES IDX 85 13 89 14 90 15 91 16 8 17 7 18 9 20 6 21 3 22 4 23 93 24
REMARK SMILES IDX 5 25 92 26 2 27 1 28 17 29 18 30 19 31 20 33 21 34 22 35
REMARK SMILES IDX 83 36 23 37 82 38 24 39 25 40 26 41 76 42 27 43 81 44 75 45
REMARK SMILES IDX 77 46 28 47 80 48 74 49 73 50 29 52 61 53 41 54 60 55 42 56
REMARK SMILES IDX 45 57 59 58 78 59 43 60 44 61 58 63 79 64 46 65 30 66 31 67
REMARK SMILES IDX 39 68 32 69 34 70 40 71 33 72 35 73 36 74 37 75 38 76 62 77
REMARK SMILES IDX 63 78 71 79 64 80 66 81 72 82 65 83 67 84 68 85 69 86 70 87
REMARK SMILES IDX 47 88 48 89 56 90 49 91 51 92 57 93 50 94 52 95 53 96 54 97
REMARK SMILES IDX 55 98
REMARK H PARENT 14 6 7 19 18 32 77 51 45 62
REMARK Flexibility Score: inf
ROOT
ATOM      1  C   UNL A   1      34.234  28.322  25.837  1.00  0.00     0.042 C 
ENDROOT
BRANCH   1   2
ATOM      2  C   UNL A   1      34.185  26.839  25.543  1.00  0.00     0.117 C 
BRANCH   2   3
ATOM      3  N   UNL A   1      33.815  26.561  24.160  1.00  0.00    -0.356 N 
ATOM      4  C   UNL A   1      33.089  25.589  23.554  1.00  0.00     0.224 C 
ATOM      5  O   UNL A   1      32.938  25.718  22.332  1.00  0.00    -0.275 OA
ATOM      6  H   UNL A   1      34.170  27.225  23.527  1.00  0.00     0.163 HD
BRANCH   4   7
ATOM      7  C   UNL A   1      32.526  24.345  24.232  1.00  0.00     0.098 C 
ATOM      8  C   UNL A   1      32.544  24.241  25.771  1.00  0.00     0.099 C 
ATOM      9  C   UNL A   1      33.413  22.959  25.994  1.00  0.00     0.028 C 
ATOM     10  C   UNL A   1      33.334  23.124  23.738  1.00  0.00     0.028 C 
ATOM     11  C   UNL A   1      32.711  21.664  25.548  1.00  0.00     0.009 C 
ATOM     12  C   UNL A   1      34.372  23.040  24.819  1.00  0.00    -0.064 C 
ATOM     13  C   UNL A   1      32.569  21.828  24.027  1.00  0.00     0.009 C 
ATOM     14  C   UNL A   1      35.713  22.991  24.728  1.00  0.00    -0.077 C 
ATOM     15  C   UNL A   1      36.454  22.986  23.410  1.00  0.00     0.039 C 
ATOM     16  C   UNL A   1      36.610  22.938  25.933  1.00  0.00     0.039 C 
BRANCH   8  17
ATOM     17  C   UNL A   1      31.160  24.225  26.428  1.00  0.00     0.228 C 
ATOM     18  N   UNL A   1      30.165  25.104  26.094  1.00  0.00    -0.326 N 
ATOM     19  H   UNL A   1      29.297  24.866  26.494  1.00  0.00     0.169 HD
ATOM     20  O   UNL A   1      30.880  23.414  27.317  1.00  0.00    -0.274 OA
BRANCH  18  21
ATOM     21  C   UNL A   1      30.097  26.270  25.310  1.00  0.00     0.041 A 
ATOM     22  C   UNL A   1      30.078  28.428  23.513  1.00  0.00     0.119 A 
ATOM     23  C   UNL A   1      30.753  28.533  24.720  1.00  0.00     0.048 A 
ATOM     24  C   UNL A   1      29.336  27.287  23.230  1.00  0.00     0.048 A 
ATOM     25  C   UNL A   1      30.719  27.469  25.629  1.00  0.00     0.030 A 
ATOM     26  C   UNL A   1      29.334  26.218  24.134  1.00  0.00     0.030 A 
BRANCH  22  27
ATOM     27  O   UNL A   1      30.243  29.387  22.555  1.00  0.00    -0.497 OA
ATOM     28  C   UNL A   1      28.993  29.904  22.114  1.00  0.00     0.278 C 
ENDBRANCH  22  27
ENDBRANCH  18  21
ENDBRANCH   8  17
ENDBRANCH   4   7
ENDBRANCH   2   3
ENDBRANCH   1   2
BRANCH   1  29
ATOM     29  C   UNL A   1      33.651  28.646  27.197  1.00  0.00     0.118 C 
BRANCH  29  30
ATOM     30  N   UNL A   1      33.702  30.075  27.490  1.00  0.00    -0.352 N 
ATOM     31  C   UNL A   1      34.664  30.795  28.158  1.00  0.00     0.251 C 
ATOM     32  H   UNL A   1      32.936  30.599  27.161  1.00  0.00     0.163 HD
ATOM     33  O   UNL A   1      34.431  31.951  28.506  1.00  0.00    -0.269 OA
BRANCH  31  34
ATOM     34  C   UNL A   1      35.963  30.166  28.479  1.00  0.00     0.039 A 
ATOM     35  C   UNL A   1      37.033  30.283  27.588  1.00  0.00     0.014 A 
ATOM     36  C   UNL A   1      36.128  29.472  29.676  1.00  0.00     0.014 A 
ATOM     37  C   UNL A   1      38.285  29.767  27.939  1.00  0.00     0.010 A 
ATOM     38  C   UNL A   1      37.398  29.094  30.085  1.00  0.00     0.010 A 
ATOM     39  C   UNL A   1      38.486  29.202  29.209  1.00  0.00    -0.014 A 
BRANCH  39  40
ATOM     40  C   UNL A   1      39.794  28.650  29.646  1.00  0.00     0.031 A 
ATOM     41  C   UNL A   1      40.556  29.352  30.742  1.00  0.00     0.074 A 
ATOM     42  C   UNL A   1      40.350  27.610  28.994  1.00  0.00     0.049 A 
ATOM     43  N   UNL A   1      41.778  29.153  31.160  1.00  0.00    -0.248 NA
ATOM     44  C   UNL A   1      39.866  30.462  31.427  1.00  0.00     0.031 C 
ATOM     45  C   UNL A   1      39.745  26.884  27.876  1.00  0.00     0.029 A 
ATOM     46  N   UNL A   1      41.571  27.005  29.159  1.00  0.00    -0.354 N 
ATOM     47  C   UNL A   1      42.019  30.142  32.107  1.00  0.00     0.074 A 
ATOM     48  C   UNL A   1      40.837  30.970  32.168  1.00  0.00     0.031 C 
ATOM     49  C   UNL A   1      40.592  25.928  27.460  1.00  0.00     0.029 A 
ATOM     50  C   UNL A   1      41.818  26.003  28.248  1.00  0.00     0.049 A 
ATOM     51  H   UNL A   1      42.210  27.264  29.862  1.00  0.00     0.167 HD
ATOM     52  C   UNL A   1      43.111  30.327  32.885  1.00  0.00     0.034 A 
ATOM     53  C   UNL A   1      42.915  25.243  28.061  1.00  0.00     0.034 A 
ATOM     54  C   UNL A   1      44.258  29.465  32.864  1.00  0.00     0.049 A 
ATOM     55  C   UNL A   1      44.106  25.446  28.960  1.00  0.00     0.074 A 
ATOM     56  C   UNL A   1      45.381  29.509  33.670  1.00  0.00     0.029 A 
ATOM     57  N   UNL A   1      44.429  28.402  31.992  1.00  0.00    -0.354 N 
ATOM     58  N   UNL A   1      44.266  26.305  29.937  1.00  0.00    -0.248 NA
ATOM     59  C   UNL A   1      45.255  24.552  28.754  1.00  0.00     0.031 C 
ATOM     60  C   UNL A   1      46.246  28.488  33.263  1.00  0.00     0.029 A 
ATOM     61  C   UNL A   1      45.641  27.783  32.235  1.00  0.00     0.049 A 
ATOM     62  H   UNL A   1      43.783  28.127  31.301  1.00  0.00     0.167 HD
ATOM     63  C   UNL A   1      45.509  26.023  30.494  1.00  0.00     0.074 A 
ATOM     64  C   UNL A   1      46.057  24.909  29.748  1.00  0.00     0.031 C 
ATOM     65  C   UNL A   1      46.141  26.634  31.525  1.00  0.00     0.034 A 
BRANCH  52  66
ATOM     66  C   UNL A   1      43.092  31.481  33.855  1.00  0.00     0.023 A 
ATOM     67  C   UNL A   1      43.596  32.738  33.461  1.00  0.00     0.012 A 
ATOM     68  C   UNL A   1      42.543  31.332  35.144  1.00  0.00     0.148 A 
ATOM     69  C   UNL A   1      43.598  33.814  34.348  1.00  0.00     0.002 A 
ATOM     70  C   UNL A   1      42.499  32.424  36.003  1.00  0.00     0.091 A 
ATOM     71  F   UNL A   1      42.087  30.126  35.511  1.00  0.00    -0.205 F 
ATOM     72  C   UNL A   1      43.041  33.660  35.614  1.00  0.00     0.022 A 
BRANCH  70  73
ATOM     73  S   UNL A   1      41.725  32.352  37.621  1.00  0.00     0.127 S 
ATOM     74  O   UNL A   1      40.352  31.984  37.275  1.00  0.00    -0.237 OA
ATOM     75  O   UNL A   1      42.492  31.295  38.281  1.00  0.00    -0.237 OA
ATOM     76  O   UNL A   1      41.888  33.675  38.205  1.00  0.00    -0.744 OA
ENDBRANCH  70  73
ENDBRANCH  52  66
BRANCH  53  77
ATOM     77  C   UNL A   1      42.918  24.178  27.018  1.00  0.00     0.023 A 
ATOM     78  C   UNL A   1      43.588  24.406  25.800  1.00  0.00     0.012 A 
ATOM     79  C   UNL A   1      42.283  22.939  27.229  1.00  0.00     0.148 A 
ATOM     80  C   UNL A   1      43.596  23.436  24.797  1.00  0.00     0.002 A 
ATOM     81  C   UNL A   1      42.342  21.956  26.248  1.00  0.00     0.091 A 
ATOM     82  F   UNL A   1      41.646  22.743  28.392  1.00  0.00    -0.205 F 
ATOM     83  C   UNL A   1      42.981  22.208  25.024  1.00  0.00     0.022 A 
BRANCH  81  84
ATOM     84  S   UNL A   1      41.690  20.300  26.498  1.00  0.00     0.127 S 
ATOM     85  O   UNL A   1      42.313  19.921  27.763  1.00  0.00    -0.237 OA
ATOM     86  O   UNL A   1      40.250  20.554  26.570  1.00  0.00    -0.237 OA
ATOM     87  O   UNL A   1      42.107  19.533  25.332  1.00  0.00    -0.744 OA
ENDBRANCH  81  84
ENDBRANCH  53  77
BRANCH  65  88
ATOM     88  C   UNL A   1      47.467  26.076  31.972  1.00  0.00     0.023 A 
ATOM     89  C   UNL A   1      48.660  26.510  31.366  1.00  0.00     0.012 A 
ATOM     90  C   UNL A   1      47.525  25.198  33.072  1.00  0.00     0.148 A 
ATOM     91  C   UNL A   1      49.894  26.056  31.832  1.00  0.00     0.002 A 
ATOM     92  C   UNL A   1      48.759  24.793  33.566  1.00  0.00     0.091 A 
ATOM     93  F   UNL A   1      46.375  24.786  33.624  1.00  0.00    -0.205 F 
ATOM     94  C   UNL A   1      49.943  25.211  32.939  1.00  0.00     0.022 A 
BRANCH  92  95
ATOM     95  S   UNL A   1      48.923  23.794  35.049  1.00  0.00     0.127 S 
ATOM     96  O   UNL A   1      48.217  22.573  34.664  1.00  0.00    -0.237 OA
ATOM     97  O   UNL A   1      50.374  23.650  35.164  1.00  0.00    -0.237 OA
ATOM     98  O   UNL A   1      48.302  24.558  36.123  1.00  0.00    -0.744 OA
ENDBRANCH  92  95
ENDBRANCH  65  88
ENDBRANCH  39  40
ENDBRANCH  31  34
ENDBRANCH  29  30
ENDBRANCH   1  29
TORSDOF 16
ENDMDL
MODEL 3
REMARK VINA RESULT:     -12.6      2.011      2.979
REMARK SMILES COc1ccc(NC(=O)[C@@H]2[C@@H](C(=O)NCCCNC(=O)c3ccc(-c4c5nc(c(-c6cccc(S(=O)(=O)[O-])c6F)c6ccc([nH]6)c(-c6cccc(S(=O)(=O)[O-])c6F)c6nc(c(-c7cccc(S(=O)(=O)[O-])c7F)c7ccc4[nH]7)C=C6)C=C5)cc3)[C@@H]3CC[C@H]2C3=C(C)C)cc1
REMARK SMILES IDX 16 1 15 2 14 3 12 4 13 5 11 7 10 8 87 9 84 10 86 11 88 12
REMARK SMILES IDX 85 13 89 14 90 15 91 16 8 17 7 18 9 20 6 21 3 22 4 23 93 24
REMARK SMILES IDX 5 25 92 26 2 27 1 28 17 29 18 30 19 31 20 33 21 34 22 35
REMARK SMILES IDX 83 36 23 37 82 38 24 39 25 40 26 41 76 42 27 43 81 44 75 45
REMARK SMILES IDX 77 46 28 47 80 48 74 49 73 50 29 52 61 53 41 54 60 55 42 56
REMARK SMILES IDX 45 57 59 58 78 59 43 60 44 61 58 63 79 64 46 65 30 66 31 67
REMARK SMILES IDX 39 68 32 69 34 70 40 71 33 72 35 73 36 74 37 75 38 76 62 77
REMARK SMILES IDX 63 78 71 79 64 80 66 81 72 82 65 83 67 84 68 85 69 86 70 87
REMARK SMILES IDX 47 88 48 89 56 90 49 91 51 92 57 93 50 94 52 95 53 96 54 97
REMARK SMILES IDX 55 98
REMARK H PARENT 14 6 7 19 18 32 77 51 45 62
REMARK Flexibility Score: inf
ROOT
ATOM      1  C   UNL A   1      35.338  23.587  26.486  1.00  0.00     0.042 C 
ENDROOT
BRANCH   1   2
ATOM      2  C   UNL A   1      34.323  24.667  26.184  1.00  0.00     0.117 C 
BRANCH   2   3
ATOM      3  N   UNL A   1      32.951  24.179  26.272  1.00  0.00    -0.356 N 
ATOM      4  C   UNL A   1      31.844  24.327  25.504  1.00  0.00     0.224 C 
ATOM      5  O   UNL A   1      30.846  23.698  25.877  1.00  0.00    -0.275 OA
ATOM      6  H   UNL A   1      32.795  23.618  27.066  1.00  0.00     0.163 HD
BRANCH   4   7
ATOM      7  C   UNL A   1      31.719  25.244  24.292  1.00  0.00     0.098 C 
ATOM      8  C   UNL A   1      32.987  25.674  23.526  1.00  0.00     0.099 C 
ATOM      9  C   UNL A   1      32.936  27.230  23.672  1.00  0.00     0.028 C 
ATOM     10  C   UNL A   1      31.064  26.565  24.758  1.00  0.00     0.028 C 
ATOM     11  C   UNL A   1      31.790  27.879  22.875  1.00  0.00     0.009 C 
ATOM     12  C   UNL A   1      32.292  27.381  25.040  1.00  0.00    -0.064 C 
ATOM     13  C   UNL A   1      30.520  27.341  23.554  1.00  0.00     0.009 C 
ATOM     14  C   UNL A   1      32.640  28.065  26.145  1.00  0.00    -0.077 C 
ATOM     15  C   UNL A   1      31.766  28.149  27.375  1.00  0.00     0.039 C 
ATOM     16  C   UNL A   1      33.938  28.813  26.264  1.00  0.00     0.039 C 
BRANCH   8  17
ATOM     17  C   UNL A   1      33.078  25.146  22.091  1.00  0.00     0.228 C 
ATOM     18  N   UNL A   1      33.064  23.812  21.783  1.00  0.00    -0.326 N 
ATOM     19  H   UNL A   1      32.977  23.646  20.816  1.00  0.00     0.169 HD
ATOM     20  O   UNL A   1      33.185  25.915  21.129  1.00  0.00    -0.274 OA
BRANCH  18  21
ATOM     21  C   UNL A   1      33.147  22.624  22.531  1.00  0.00     0.041 A 
ATOM     22  C   UNL A   1      33.037  20.327  24.143  1.00  0.00     0.119 A 
ATOM     23  C   UNL A   1      34.111  21.199  24.245  1.00  0.00     0.048 A 
ATOM     24  C   UNL A   1      32.057  20.543  23.181  1.00  0.00     0.048 A 
ATOM     25  C   UNL A   1      34.181  22.316  23.406  1.00  0.00     0.030 A 
ATOM     26  C   UNL A   1      32.123  21.681  22.367  1.00  0.00     0.030 A 
BRANCH  22  27
ATOM     27  O   UNL A   1      32.877  19.334  25.066  1.00  0.00    -0.497 OA
ATOM     28  C   UNL A   1      32.435  18.125  24.459  1.00  0.00     0.278 C 
ENDBRANCH  22  27
ENDBRANCH  18  21
ENDBRANCH   8  17
ENDBRANCH   4   7
ENDBRANCH   2   3
ENDBRANCH   1   2
BRANCH   1  29
ATOM     29  C   UNL A   1      36.656  23.840  25.786  1.00  0.00     0.118 C 
BRANCH  29  30
ATOM     30  N   UNL A   1      37.621  22.774  26.029  1.00  0.00    -0.352 N 
ATOM     31  C   UNL A   1      38.930  22.857  26.441  1.00  0.00     0.251 C 
ATOM     32  H   UNL A   1      37.286  21.860  25.875  1.00  0.00     0.163 HD
ATOM     33  O   UNL A   1      39.657  21.868  26.375  1.00  0.00    -0.269 OA
BRANCH  31  34
ATOM     34  C   UNL A   1      39.464  24.145  26.935  1.00  0.00     0.039 A 
ATOM     35  C   UNL A   1      40.039  25.051  26.040  1.00  0.00     0.014 A 
ATOM     36  C   UNL A   1      39.379  24.464  28.289  1.00  0.00     0.014 A 
ATOM     37  C   UNL A   1      40.457  26.305  26.499  1.00  0.00     0.010 A 
ATOM     38  C   UNL A   1      39.655  25.755  28.712  1.00  0.00     0.010 A 
ATOM     39  C   UNL A   1      40.231  26.681  27.833  1.00  0.00    -0.014 A 
BRANCH  39  40
ATOM     40  C   UNL A   1      40.638  28.003  28.375  1.00  0.00     0.031 A 
ATOM     41  C   UNL A   1      42.106  28.294  28.570  1.00  0.00     0.074 A 
ATOM     42  C   UNL A   1      39.711  28.883  28.800  1.00  0.00     0.049 A 
ATOM     43  N   UNL A   1      42.676  29.299  29.181  1.00  0.00    -0.248 NA
ATOM     44  C   UNL A   1      43.058  27.295  28.051  1.00  0.00     0.031 C 
ATOM     45  C   UNL A   1      38.261  28.694  28.725  1.00  0.00     0.029 A 
ATOM     46  N   UNL A   1      39.854  30.104  29.412  1.00  0.00    -0.354 N 
ATOM     47  C   UNL A   1      44.039  29.023  29.170  1.00  0.00     0.074 A 
ATOM     48  C   UNL A   1      44.207  27.735  28.537  1.00  0.00     0.031 C 
ATOM     49  C   UNL A   1      37.649  29.762  29.264  1.00  0.00     0.029 A 
ATOM     50  C   UNL A   1      38.659  30.689  29.763  1.00  0.00     0.049 A 
ATOM     51  H   UNL A   1      40.730  30.520  29.584  1.00  0.00     0.167 HD
ATOM     52  C   UNL A   1      45.065  29.785  29.613  1.00  0.00     0.034 A 
ATOM     53  C   UNL A   1      38.409  31.834  30.428  1.00  0.00     0.034 A 
ATOM     54  C   UNL A   1      44.897  31.091  30.186  1.00  0.00     0.049 A 
ATOM     55  C   UNL A   1      39.567  32.682  30.883  1.00  0.00     0.074 A 
ATOM     56  C   UNL A   1      45.871  31.985  30.588  1.00  0.00     0.029 A 
ATOM     57  N   UNL A   1      43.673  31.688  30.438  1.00  0.00    -0.354 N 
ATOM     58  N   UNL A   1      40.853  32.464  30.750  1.00  0.00    -0.248 NA
ATOM     59  C   UNL A   1      39.241  33.951  31.551  1.00  0.00     0.031 C 
ATOM     60  C   UNL A   1      45.235  33.114  31.112  1.00  0.00     0.029 A 
ATOM     61  C   UNL A   1      43.865  32.939  30.995  1.00  0.00     0.049 A 
ATOM     62  H   UNL A   1      42.795  31.283  30.249  1.00  0.00     0.167 HD
ATOM     63  C   UNL A   1      41.487  33.587  31.268  1.00  0.00     0.074 A 
ATOM     64  C   UNL A   1      40.443  34.487  31.714  1.00  0.00     0.031 C 
ATOM     65  C   UNL A   1      42.813  33.848  31.372  1.00  0.00     0.034 A 
BRANCH  52  66
ATOM     66  C   UNL A   1      46.462  29.243  29.451  1.00  0.00     0.023 A 
ATOM     67  C   UNL A   1      47.034  28.460  30.476  1.00  0.00     0.012 A 
ATOM     68  C   UNL A   1      47.195  29.475  28.271  1.00  0.00     0.148 A 
ATOM     69  C   UNL A   1      48.330  27.959  30.350  1.00  0.00     0.002 A 
ATOM     70  C   UNL A   1      48.464  28.926  28.131  1.00  0.00     0.091 A 
ATOM     71  F   UNL A   1      46.646  30.238  27.316  1.00  0.00    -0.205 F 
ATOM     72  C   UNL A   1      49.040  28.183  29.175  1.00  0.00     0.022 A 
BRANCH  70  73
ATOM     73  S   UNL A   1      49.426  29.084  26.622  1.00  0.00     0.127 S 
ATOM     74  O   UNL A   1      48.493  28.564  25.623  1.00  0.00    -0.237 OA
ATOM     75  O   UNL A   1      49.652  30.528  26.553  1.00  0.00    -0.237 OA
ATOM     76  O   UNL A   1      50.628  28.290  26.826  1.00  0.00    -0.744 OA
ENDBRANCH  70  73
ENDBRANCH  52  66
BRANCH  53  77
ATOM     77  C   UNL A   1      37.004  32.278  30.650  1.00  0.00     0.023 A 
ATOM     78  C   UNL A   1      36.413  32.096  31.916  1.00  0.00     0.012 A 
ATOM     79  C   UNL A   1      36.257  32.896  29.628  1.00  0.00     0.148 A 
ATOM     80  C   UNL A   1      35.095  32.487  32.152  1.00  0.00     0.002 A 
ATOM     81  C   UNL A   1      34.963  33.332  29.885  1.00  0.00     0.091 A 
ATOM     82  F   UNL A   1      36.834  33.056  28.429  1.00  0.00    -0.205 F 
ATOM     83  C   UNL A   1      34.373  33.112  31.140  1.00  0.00     0.022 A 
BRANCH  81  84
ATOM     84  S   UNL A   1      33.999  34.261  28.686  1.00  0.00     0.127 S 
ATOM     85  O   UNL A   1      33.766  33.259  27.650  1.00  0.00    -0.237 OA
ATOM     86  O   UNL A   1      32.818  34.626  29.470  1.00  0.00    -0.237 OA
ATOM     87  O   UNL A   1      34.835  35.389  28.298  1.00  0.00    -0.744 OA
ENDBRANCH  81  84
ENDBRANCH  53  77
BRANCH  65  88
ATOM     88  C   UNL A   1      43.229  35.188  31.920  1.00  0.00     0.023 A 
ATOM     89  C   UNL A   1      43.443  35.355  33.301  1.00  0.00     0.012 A 
ATOM     90  C   UNL A   1      43.511  36.252  31.039  1.00  0.00     0.148 A 
ATOM     91  C   UNL A   1      43.907  36.572  33.801  1.00  0.00     0.002 A 
ATOM     92  C   UNL A   1      44.023  37.442  31.538  1.00  0.00     0.091 A 
ATOM     93  F   UNL A   1      43.284  36.074  29.730  1.00  0.00    -0.205 F 
ATOM     94  C   UNL A   1      44.210  37.608  32.920  1.00  0.00     0.022 A 
BRANCH  92  95
ATOM     95  S   UNL A   1      44.543  38.790  30.471  1.00  0.00     0.127 S 
ATOM     96  O   UNL A   1      45.010  39.776  31.444  1.00  0.00    -0.237 OA
ATOM     97  O   UNL A   1      45.602  38.165  29.679  1.00  0.00    -0.237 OA
ATOM     98  O   UNL A   1      43.364  39.180  29.708  1.00  0.00    -0.744 OA
ENDBRANCH  92  95
ENDBRANCH  65  88
ENDBRANCH  39  40
ENDBRANCH  31  34
ENDBRANCH  29  30
ENDBRANCH   1  29
TORSDOF 16
ENDMDL
