MODEL 1
REMARK VINA RESULT:     -11.8      0.000      0.000
REMARK SMILES Cc1nsc(N(C)C(=O)[C@H]2CCOC2)c1C(=O)NCCCNC(=O)c1ccc(-c2c3nc(c(-c4cccc(S(=O)(=O)[O-])c4F)c4ccc([nH]4)c(-c4cccc(S(=O)(=O)[O-])c4F)c4nc(c(-c5cccc(S(=O)(=O)[O-])c5F)c5ccc2[nH]5)C=C4)C=C3)cc1
REMARK SMILES IDX 20 1 19 2 18 3 16 4 17 5 15 7 1 8 2 9 3 10 4 11 5 12 6 13
REMARK SMILES IDX 7 14 8 15 9 16 10 17 11 18 14 19 12 20 13 21 21 22 22 23
REMARK SMILES IDX 23 24 24 26 25 27 26 28 87 29 27 30 86 31 28 32 29 33 30 34
REMARK SMILES IDX 80 35 31 36 85 37 79 38 81 39 32 40 84 41 78 42 77 43 33 45
REMARK SMILES IDX 65 46 45 47 64 48 46 49 49 50 63 51 82 52 47 53 48 54 62 56
REMARK SMILES IDX 83 57 50 58 34 59 35 60 43 61 36 62 38 63 44 64 37 65 39 66
REMARK SMILES IDX 40 67 41 68 42 69 66 70 67 71 75 72 68 73 70 74 76 75 69 76
REMARK SMILES IDX 71 77 72 78 73 79 74 80 51 81 52 82 60 83 53 84 55 85 61 86
REMARK SMILES IDX 54 87 56 88 57 89 58 90 59 91
REMARK H PARENT 18 6 22 25 81 44 49 55
REMARK Flexibility Score: inf
ROOT
ATOM      1  C   UNL A   1      32.495  30.179  27.012  1.00  0.00     0.042 C 
ENDROOT
BRANCH   1   2
ATOM      2  C   UNL A   1      32.370  28.673  27.258  1.00  0.00     0.118 C 
BRANCH   2   3
ATOM      3  N   UNL A   1      31.496  28.036  26.291  1.00  0.00    -0.352 N 
ATOM      4  C   UNL A   1      31.480  26.682  26.042  1.00  0.00     0.256 C 
ATOM      5  O   UNL A   1      30.569  26.016  26.537  1.00  0.00    -0.269 OA
ATOM      6  H   UNL A   1      30.876  28.607  25.782  1.00  0.00     0.163 HD
BRANCH   4   7
ATOM      7  C   UNL A   1      32.467  26.076  25.139  1.00  0.00     0.097 A 
ATOM      8  C   UNL A   1      33.494  23.989  26.451  1.00  0.00     0.069 C 
ATOM      9  C   UNL A   1      33.285  24.873  25.277  1.00  0.00     0.066 A 
ATOM     10  N   UNL A   1      33.924  24.464  24.179  1.00  0.00    -0.195 NA
ATOM     11  S   UNL A   1      33.673  25.533  22.971  1.00  0.00    -0.017 S 
ATOM     12  C   UNL A   1      32.700  26.616  23.866  1.00  0.00     0.131 A 
BRANCH  12  13
ATOM     13  N   UNL A   1      32.321  27.821  23.229  1.00  0.00    -0.305 N 
ATOM     14  C   UNL A   1      33.063  29.061  23.432  1.00  0.00     0.154 C 
BRANCH  13  15
ATOM     15  C   UNL A   1      31.077  27.817  22.561  1.00  0.00     0.232 C 
ATOM     16  O   UNL A   1      30.772  26.933  21.755  1.00  0.00    -0.274 OA
BRANCH  15  17
ATOM     17  C   UNL A   1      30.094  28.956  22.874  1.00  0.00     0.107 C 
ATOM     18  C   UNL A   1      29.922  29.946  21.731  1.00  0.00     0.044 C 
ATOM     19  C   UNL A   1      28.660  28.505  23.073  1.00  0.00     0.173 C 
ATOM     20  C   UNL A   1      28.538  30.530  21.947  1.00  0.00     0.161 C 
ATOM     21  O   UNL A   1      27.820  29.626  22.804  1.00  0.00    -0.381 OA
ENDBRANCH  15  17
ENDBRANCH  13  15
ENDBRANCH  12  13
ENDBRANCH   4   7
ENDBRANCH   2   3
ENDBRANCH   1   2
BRANCH   1  22
ATOM     22  C   UNL A   1      33.890  30.713  27.279  1.00  0.00     0.118 C 
BRANCH  22  23
ATOM     23  N   UNL A   1      33.914  31.652  28.402  1.00  0.00    -0.352 N 
ATOM     24  C   UNL A   1      34.857  31.750  29.411  1.00  0.00     0.251 C 
ATOM     25  H   UNL A   1      33.168  32.292  28.444  1.00  0.00     0.163 HD
ATOM     26  O   UNL A   1      34.609  32.330  30.449  1.00  0.00    -0.269 OA
BRANCH  24  27
ATOM     27  C   UNL A   1      36.166  31.108  29.190  1.00  0.00     0.039 A 
ATOM     28  C   UNL A   1      37.304  31.877  28.934  1.00  0.00     0.014 A 
ATOM     29  C   UNL A   1      36.247  29.730  29.347  1.00  0.00     0.014 A 
ATOM     30  C   UNL A   1      38.549  31.252  28.940  1.00  0.00     0.010 A 
ATOM     31  C   UNL A   1      37.480  29.149  29.509  1.00  0.00     0.010 A 
ATOM     32  C   UNL A   1      38.633  29.890  29.260  1.00  0.00    -0.014 A 
BRANCH  32  33
ATOM     33  C   UNL A   1      39.929  29.241  29.437  1.00  0.00     0.031 A 
ATOM     34  C   UNL A   1      40.379  29.036  30.844  1.00  0.00     0.074 A 
ATOM     35  C   UNL A   1      40.578  28.645  28.413  1.00  0.00     0.049 A 
ATOM     36  N   UNL A   1      41.419  29.549  31.415  1.00  0.00    -0.248 NA
ATOM     37  C   UNL A   1      39.533  28.248  31.751  1.00  0.00     0.031 C 
ATOM     38  C   UNL A   1      40.125  28.495  27.023  1.00  0.00     0.029 A 
ATOM     39  N   UNL A   1      41.709  27.889  28.444  1.00  0.00    -0.354 N 
ATOM     40  C   UNL A   1      41.481  28.984  32.688  1.00  0.00     0.074 A 
ATOM     41  C   UNL A   1      40.212  28.334  32.897  1.00  0.00     0.031 C 
ATOM     42  C   UNL A   1      40.800  27.483  26.442  1.00  0.00     0.029 A 
ATOM     43  C   UNL A   1      41.848  27.052  27.344  1.00  0.00     0.049 A 
ATOM     44  H   UNL A   1      42.365  27.933  29.177  1.00  0.00     0.167 HD
ATOM     45  C   UNL A   1      42.651  28.911  33.383  1.00  0.00     0.034 A 
ATOM     46  C   UNL A   1      42.739  26.045  27.197  1.00  0.00     0.034 A 
ATOM     47  C   UNL A   1      43.682  29.705  32.767  1.00  0.00     0.049 A 
ATOM     48  C   UNL A   1      43.852  26.309  28.138  1.00  0.00     0.074 A 
ATOM     49  C   UNL A   1      43.836  31.041  32.454  1.00  0.00     0.029 A 
ATOM     50  N   UNL A   1      44.627  29.030  32.031  1.00  0.00    -0.354 N 
ATOM     51  N   UNL A   1      44.667  27.319  28.014  1.00  0.00    -0.248 NA
ATOM     52  C   UNL A   1      43.808  25.702  29.457  1.00  0.00     0.031 C 
ATOM     53  C   UNL A   1      44.521  31.042  31.204  1.00  0.00     0.029 A 
ATOM     54  C   UNL A   1      44.796  29.717  30.859  1.00  0.00     0.049 A 
ATOM     55  H   UNL A   1      45.094  28.206  32.297  1.00  0.00     0.167 HD
ATOM     56  C   UNL A   1      44.867  27.762  29.315  1.00  0.00     0.074 A 
ATOM     57  C   UNL A   1      44.434  26.650  30.160  1.00  0.00     0.031 C 
ATOM     58  C   UNL A   1      45.078  29.086  29.587  1.00  0.00     0.034 A 
BRANCH  45  59
ATOM     59  C   UNL A   1      43.005  27.878  34.428  1.00  0.00     0.023 A 
ATOM     60  C   UNL A   1      43.271  28.344  35.738  1.00  0.00     0.012 A 
ATOM     61  C   UNL A   1      43.354  26.541  34.143  1.00  0.00     0.148 A 
ATOM     62  C   UNL A   1      43.900  27.538  36.694  1.00  0.00     0.002 A 
ATOM     63  C   UNL A   1      43.904  25.719  35.121  1.00  0.00     0.091 A 
ATOM     64  F   UNL A   1      43.287  26.088  32.887  1.00  0.00    -0.205 F 
ATOM     65  C   UNL A   1      44.210  26.221  36.388  1.00  0.00     0.022 A 
BRANCH  63  66
ATOM     66  S   UNL A   1      44.271  23.990  34.795  1.00  0.00     0.127 S 
ATOM     67  O   UNL A   1      42.958  23.478  34.414  1.00  0.00    -0.237 OA
ATOM     68  O   UNL A   1      45.240  24.087  33.702  1.00  0.00    -0.237 OA
ATOM     69  O   UNL A   1      44.828  23.475  36.040  1.00  0.00    -0.744 OA
ENDBRANCH  63  66
ENDBRANCH  45  59
BRANCH  46  70
ATOM     70  C   UNL A   1      42.630  24.800  26.408  1.00  0.00     0.023 A 
ATOM     71  C   UNL A   1      43.590  24.511  25.422  1.00  0.00     0.012 A 
ATOM     72  C   UNL A   1      41.729  23.777  26.785  1.00  0.00     0.148 A 
ATOM     73  C   UNL A   1      43.674  23.236  24.851  1.00  0.00     0.002 A 
ATOM     74  C   UNL A   1      41.810  22.513  26.209  1.00  0.00     0.091 A 
ATOM     75  F   UNL A   1      40.854  24.016  27.773  1.00  0.00    -0.205 F 
ATOM     76  C   UNL A   1      42.791  22.235  25.249  1.00  0.00     0.022 A 
BRANCH  74  77
ATOM     77  S   UNL A   1      40.717  21.170  26.692  1.00  0.00     0.127 S 
ATOM     78  O   UNL A   1      39.423  21.623  26.180  1.00  0.00    -0.237 OA
ATOM     79  O   UNL A   1      41.296  20.037  25.977  1.00  0.00    -0.237 OA
ATOM     80  O   UNL A   1      40.784  21.101  28.146  1.00  0.00    -0.744 OA
ENDBRANCH  74  77
ENDBRANCH  46  70
BRANCH  58  81
ATOM     81  C   UNL A   1      45.332  30.022  28.428  1.00  0.00     0.023 A 
ATOM     82  C   UNL A   1      44.277  30.641  27.723  1.00  0.00     0.012 A 
ATOM     83  C   UNL A   1      46.649  30.436  28.168  1.00  0.00     0.148 A 
ATOM     84  C   UNL A   1      44.529  31.626  26.765  1.00  0.00     0.002 A 
ATOM     85  C   UNL A   1      46.893  31.453  27.251  1.00  0.00     0.091 A 
ATOM     86  F   UNL A   1      47.646  29.850  28.849  1.00  0.00    -0.205 F 
ATOM     87  C   UNL A   1      45.837  32.042  26.539  1.00  0.00     0.022 A 
BRANCH  85  88
ATOM     88  S   UNL A   1      48.539  32.129  27.020  1.00  0.00     0.127 S 
ATOM     89  O   UNL A   1      48.306  33.171  26.023  1.00  0.00    -0.237 OA
ATOM     90  O   UNL A   1      48.870  32.626  28.357  1.00  0.00    -0.237 OA
ATOM     91  O   UNL A   1      49.369  31.011  26.584  1.00  0.00    -0.744 OA
ENDBRANCH  85  88
ENDBRANCH  58  81
ENDBRANCH  32  33
ENDBRANCH  24  27
ENDBRANCH  22  23
ENDBRANCH   1  22
TORSDOF 16
ENDMDL
MODEL 2
REMARK VINA RESULT:     -11.8      3.572      8.375
REMARK SMILES Cc1nsc(N(C)C(=O)[C@H]2CCOC2)c1C(=O)NCCCNC(=O)c1ccc(-c2c3nc(c(-c4cccc(S(=O)(=O)[O-])c4F)c4ccc([nH]4)c(-c4cccc(S(=O)(=O)[O-])c4F)c4nc(c(-c5cccc(S(=O)(=O)[O-])c5F)c5ccc2[nH]5)C=C4)C=C3)cc1
REMARK SMILES IDX 20 1 19 2 18 3 16 4 17 5 15 7 1 8 2 9 3 10 4 11 5 12 6 13
REMARK SMILES IDX 7 14 8 15 9 16 10 17 11 18 14 19 12 20 13 21 21 22 22 23
REMARK SMILES IDX 23 24 24 26 25 27 26 28 87 29 27 30 86 31 28 32 29 33 30 34
REMARK SMILES IDX 80 35 31 36 85 37 79 38 81 39 32 40 84 41 78 42 77 43 33 45
REMARK SMILES IDX 65 46 45 47 64 48 46 49 49 50 63 51 82 52 47 53 48 54 62 56
REMARK SMILES IDX 83 57 50 58 34 59 35 60 43 61 36 62 38 63 44 64 37 65 39 66
REMARK SMILES IDX 40 67 41 68 42 69 66 70 67 71 75 72 68 73 70 74 76 75 69 76
REMARK SMILES IDX 71 77 72 78 73 79 74 80 51 81 52 82 60 83 53 84 55 85 61 86
REMARK SMILES IDX 54 87 56 88 57 89 58 90 59 91
REMARK H PARENT 18 6 22 25 81 44 49 55
REMARK Flexibility Score: inf
ROOT
ATOM      1  C   UNL A   1      37.013  21.440  24.475  1.00  0.00     0.042 C 
ENDROOT
BRANCH   1   2
ATOM      2  C   UNL A   1      36.728  22.786  23.804  1.00  0.00     0.118 C 
BRANCH   2   3
ATOM      3  N   UNL A   1      35.462  22.782  23.094  1.00  0.00    -0.352 N 
ATOM      4  C   UNL A   1      34.460  23.703  23.301  1.00  0.00     0.256 C 
ATOM      5  O   UNL A   1      34.333  24.611  22.477  1.00  0.00    -0.269 OA
ATOM      6  H   UNL A   1      35.311  22.077  22.423  1.00  0.00     0.163 HD
BRANCH   4   7
ATOM      7  C   UNL A   1      33.521  23.547  24.419  1.00  0.00     0.097 A 
ATOM      8  C   UNL A   1      33.637  25.822  25.813  1.00  0.00     0.069 C 
ATOM      9  C   UNL A   1      33.104  24.482  25.462  1.00  0.00     0.066 A 
ATOM     10  N   UNL A   1      32.059  24.111  26.205  1.00  0.00    -0.195 NA
ATOM     11  S   UNL A   1      31.592  22.607  25.777  1.00  0.00    -0.017 S 
ATOM     12  C   UNL A   1      32.782  22.365  24.575  1.00  0.00     0.131 A 
BRANCH  12  13
ATOM     13  N   UNL A   1      32.846  21.085  23.976  1.00  0.00    -0.305 N 
ATOM     14  C   UNL A   1      32.122  20.777  22.748  1.00  0.00     0.154 C 
BRANCH  13  15
ATOM     15  C   UNL A   1      33.469  20.066  24.731  1.00  0.00     0.232 C 
ATOM     16  O   UNL A   1      34.108  20.312  25.758  1.00  0.00    -0.274 OA
BRANCH  15  17
ATOM     17  C   UNL A   1      33.322  18.619  24.236  1.00  0.00     0.107 C 
ATOM     18  C   UNL A   1      34.623  17.829  24.263  1.00  0.00     0.044 C 
ATOM     19  C   UNL A   1      32.445  17.747  25.112  1.00  0.00     0.173 C 
ATOM     20  C   UNL A   1      34.179  16.384  24.392  1.00  0.00     0.161 C 
ATOM     21  O   UNL A   1      32.827  16.391  24.883  1.00  0.00    -0.381 OA
ENDBRANCH  15  17
ENDBRANCH  13  15
ENDBRANCH  12  13
ENDBRANCH   4   7
ENDBRANCH   2   3
ENDBRANCH   1   2
BRANCH   1  22
ATOM     22  C   UNL A   1      38.174  21.493  25.449  1.00  0.00     0.118 C 
BRANCH  22  23
ATOM     23  N   UNL A   1      38.876  20.211  25.540  1.00  0.00    -0.352 N 
ATOM     24  C   UNL A   1      40.205  19.988  25.858  1.00  0.00     0.251 C 
ATOM     25  H   UNL A   1      38.336  19.410  25.352  1.00  0.00     0.163 HD
ATOM     26  O   UNL A   1      40.748  18.936  25.585  1.00  0.00    -0.269 OA
BRANCH  24  27
ATOM     27  C   UNL A   1      40.944  21.078  26.520  1.00  0.00     0.039 A 
ATOM     28  C   UNL A   1      41.663  22.013  25.771  1.00  0.00     0.014 A 
ATOM     29  C   UNL A   1      40.816  21.203  27.898  1.00  0.00     0.014 A 
ATOM     30  C   UNL A   1      42.170  23.139  26.413  1.00  0.00     0.010 A 
ATOM     31  C   UNL A   1      41.177  22.385  28.496  1.00  0.00     0.010 A 
ATOM     32  C   UNL A   1      41.896  23.336  27.774  1.00  0.00    -0.014 A 
BRANCH  32  33
ATOM     33  C   UNL A   1      42.269  24.581  28.441  1.00  0.00     0.031 A 
ATOM     34  C   UNL A   1      41.309  25.713  28.309  1.00  0.00     0.074 A 
ATOM     35  C   UNL A   1      43.293  24.643  29.319  1.00  0.00     0.049 A 
ATOM     36  N   UNL A   1      41.519  26.854  27.738  1.00  0.00    -0.248 NA
ATOM     37  C   UNL A   1      39.929  25.533  28.782  1.00  0.00     0.031 C 
ATOM     38  C   UNL A   1      44.148  23.544  29.789  1.00  0.00     0.029 A 
ATOM     39  N   UNL A   1      43.670  25.680  30.116  1.00  0.00    -0.354 N 
ATOM     40  C   UNL A   1      40.373  27.617  27.962  1.00  0.00     0.074 A 
ATOM     41  C   UNL A   1      39.375  26.701  28.452  1.00  0.00     0.031 C 
ATOM     42  C   UNL A   1      44.721  23.895  30.959  1.00  0.00     0.029 A 
ATOM     43  C   UNL A   1      44.428  25.291  31.213  1.00  0.00     0.049 A 
ATOM     44  H   UNL A   1      43.430  26.616  29.930  1.00  0.00     0.167 HD
ATOM     45  C   UNL A   1      40.404  28.979  27.933  1.00  0.00     0.034 A 
ATOM     46  C   UNL A   1      44.762  26.051  32.281  1.00  0.00     0.034 A 
ATOM     47  C   UNL A   1      41.645  29.469  27.392  1.00  0.00     0.049 A 
ATOM     48  C   UNL A   1      44.646  27.465  31.860  1.00  0.00     0.074 A 
ATOM     49  C   UNL A   1      42.316  29.329  26.193  1.00  0.00     0.029 A 
ATOM     50  N   UNL A   1      42.570  29.940  28.293  1.00  0.00    -0.354 N 
ATOM     51  N   UNL A   1      45.429  28.012  30.971  1.00  0.00    -0.248 NA
ATOM     52  C   UNL A   1      43.398  28.166  32.106  1.00  0.00     0.031 C 
ATOM     53  C   UNL A   1      43.693  29.257  26.556  1.00  0.00     0.029 A 
ATOM     54  C   UNL A   1      43.784  29.416  27.941  1.00  0.00     0.049 A 
ATOM     55  H   UNL A   1      42.391  30.542  29.051  1.00  0.00     0.167 HD
ATOM     56  C   UNL A   1      44.587  28.827  30.226  1.00  0.00     0.074 A 
ATOM     57  C   UNL A   1      43.393  28.989  31.053  1.00  0.00     0.031 C 
ATOM     58  C   UNL A   1      44.809  29.042  28.893  1.00  0.00     0.034 A 
BRANCH  45  59
ATOM     59  C   UNL A   1      39.480  29.908  28.686  1.00  0.00     0.023 A 
ATOM     60  C   UNL A   1      39.835  30.241  30.015  1.00  0.00     0.012 A 
ATOM     61  C   UNL A   1      38.174  30.244  28.271  1.00  0.00     0.148 A 
ATOM     62  C   UNL A   1      38.921  30.827  30.899  1.00  0.00     0.002 A 
ATOM     63  C   UNL A   1      37.295  30.900  29.128  1.00  0.00     0.091 A 
ATOM     64  F   UNL A   1      37.717  29.811  27.092  1.00  0.00    -0.205 F 
ATOM     65  C   UNL A   1      37.652  31.164  30.453  1.00  0.00     0.022 A 
BRANCH  63  66
ATOM     66  S   UNL A   1      35.661  31.410  28.583  1.00  0.00     0.127 S 
ATOM     67  O   UNL A   1      35.090  30.143  28.139  1.00  0.00    -0.237 OA
ATOM     68  O   UNL A   1      35.086  31.952  29.815  1.00  0.00    -0.237 OA
ATOM     69  O   UNL A   1      35.897  32.410  27.548  1.00  0.00    -0.744 OA
ENDBRANCH  63  66
ENDBRANCH  45  59
BRANCH  46  70
ATOM     70  C   UNL A   1      45.034  25.645  33.676  1.00  0.00     0.023 A 
ATOM     71  C   UNL A   1      46.346  25.322  34.067  1.00  0.00     0.012 A 
ATOM     72  C   UNL A   1      44.057  25.811  34.685  1.00  0.00     0.148 A 
ATOM     73  C   UNL A   1      46.683  25.198  35.419  1.00  0.00     0.002 A 
ATOM     74  C   UNL A   1      44.395  25.679  36.028  1.00  0.00     0.091 A 
ATOM     75  F   UNL A   1      42.819  26.187  34.332  1.00  0.00    -0.205 F 
ATOM     76  C   UNL A   1      45.712  25.384  36.400  1.00  0.00     0.022 A 
BRANCH  74  77
ATOM     77  S   UNL A   1      43.197  25.927  37.345  1.00  0.00     0.127 S 
ATOM     78  O   UNL A   1      42.910  27.358  37.239  1.00  0.00    -0.237 OA
ATOM     79  O   UNL A   1      42.105  25.051  36.931  1.00  0.00    -0.237 OA
ATOM     80  O   UNL A   1      43.874  25.552  38.580  1.00  0.00    -0.744 OA
ENDBRANCH  74  77
ENDBRANCH  46  70
BRANCH  58  81
ATOM     81  C   UNL A   1      46.120  28.576  28.303  1.00  0.00     0.023 A 
ATOM     82  C   UNL A   1      47.297  29.349  28.396  1.00  0.00     0.012 A 
ATOM     83  C   UNL A   1      46.216  27.260  27.820  1.00  0.00     0.148 A 
ATOM     84  C   UNL A   1      48.532  28.835  27.991  1.00  0.00     0.002 A 
ATOM     85  C   UNL A   1      47.454  26.734  27.466  1.00  0.00     0.091 A 
ATOM     86  F   UNL A   1      45.093  26.528  27.744  1.00  0.00    -0.205 F 
ATOM     87  C   UNL A   1      48.612  27.522  27.540  1.00  0.00     0.022 A 
BRANCH  85  88
ATOM     88  S   UNL A   1      47.641  25.009  27.012  1.00  0.00     0.127 S 
ATOM     89  O   UNL A   1      49.083  24.812  27.143  1.00  0.00    -0.237 OA
ATOM     90  O   UNL A   1      46.837  24.323  28.026  1.00  0.00    -0.237 OA
ATOM     91  O   UNL A   1      47.107  24.894  25.659  1.00  0.00    -0.744 OA
ENDBRANCH  85  88
ENDBRANCH  58  81
ENDBRANCH  32  33
ENDBRANCH  24  27
ENDBRANCH  22  23
ENDBRANCH   1  22
TORSDOF 16
ENDMDL
MODEL 3
REMARK VINA RESULT:     -11.5      1.329      2.952
REMARK SMILES Cc1nsc(N(C)C(=O)[C@H]2CCOC2)c1C(=O)NCCCNC(=O)c1ccc(-c2c3nc(c(-c4cccc(S(=O)(=O)[O-])c4F)c4ccc([nH]4)c(-c4cccc(S(=O)(=O)[O-])c4F)c4nc(c(-c5cccc(S(=O)(=O)[O-])c5F)c5ccc2[nH]5)C=C4)C=C3)cc1
REMARK SMILES IDX 20 1 19 2 18 3 16 4 17 5 15 7 1 8 2 9 3 10 4 11 5 12 6 13
REMARK SMILES IDX 7 14 8 15 9 16 10 17 11 18 14 19 12 20 13 21 21 22 22 23
REMARK SMILES IDX 23 24 24 26 25 27 26 28 87 29 27 30 86 31 28 32 29 33 30 34
REMARK SMILES IDX 80 35 31 36 85 37 79 38 81 39 32 40 84 41 78 42 77 43 33 45
REMARK SMILES IDX 65 46 45 47 64 48 46 49 49 50 63 51 82 52 47 53 48 54 62 56
REMARK SMILES IDX 83 57 50 58 34 59 35 60 43 61 36 62 38 63 44 64 37 65 39 66
REMARK SMILES IDX 40 67 41 68 42 69 66 70 67 71 75 72 68 73 70 74 76 75 69 76
REMARK SMILES IDX 71 77 72 78 73 79 74 80 51 81 52 82 60 83 53 84 55 85 61 86
REMARK SMILES IDX 54 87 56 88 57 89 58 90 59 91
REMARK H PARENT 18 6 22 25 81 44 49 55
REMARK Flexibility Score: inf
ROOT
ATOM      1  C   UNL A   1      33.548  29.523  26.296  1.00  0.00     0.042 C 
ENDROOT
BRANCH   1   2
ATOM      2  C   UNL A   1      32.999  28.124  26.586  1.00  0.00     0.118 C 
BRANCH   2   3
ATOM      3  N   UNL A   1      31.584  28.022  26.279  1.00  0.00    -0.352 N 
ATOM      4  C   UNL A   1      31.001  26.923  25.689  1.00  0.00     0.256 C 
ATOM      5  O   UNL A   1      30.376  26.145  26.412  1.00  0.00    -0.269 OA
ATOM      6  H   UNL A   1      31.006  28.786  26.507  1.00  0.00     0.163 HD
BRANCH   4   7
ATOM      7  C   UNL A   1      31.050  26.742  24.232  1.00  0.00     0.097 A 
ATOM      8  C   UNL A   1      29.336  28.513  23.204  1.00  0.00     0.069 C 
ATOM      9  C   UNL A   1      30.393  27.472  23.151  1.00  0.00     0.066 A 
ATOM     10  N   UNL A   1      30.818  27.205  21.913  1.00  0.00    -0.195 NA
ATOM     11  S   UNL A   1      31.932  26.013  21.965  1.00  0.00    -0.017 S 
ATOM     12  C   UNL A   1      31.892  25.779  23.657  1.00  0.00     0.131 A 
BRANCH  12  13
ATOM     13  N   UNL A   1      32.652  24.706  24.180  1.00  0.00    -0.305 N 
ATOM     14  C   UNL A   1      34.084  24.831  24.429  1.00  0.00     0.154 C 
BRANCH  13  15
ATOM     15  C   UNL A   1      32.006  23.452  24.251  1.00  0.00     0.232 C 
ATOM     16  O   UNL A   1      30.775  23.350  24.247  1.00  0.00    -0.274 OA
BRANCH  15  17
ATOM     17  C   UNL A   1      32.889  22.197  24.328  1.00  0.00     0.107 C 
ATOM     18  C   UNL A   1      32.898  21.540  25.702  1.00  0.00     0.044 C 
ATOM     19  C   UNL A   1      32.409  21.044  23.470  1.00  0.00     0.173 C 
ATOM     20  C   UNL A   1      33.226  20.087  25.419  1.00  0.00     0.161 C 
ATOM     21  O   UNL A   1      32.941  19.844  24.030  1.00  0.00    -0.381 OA
ENDBRANCH  15  17
ENDBRANCH  13  15
ENDBRANCH  12  13
ENDBRANCH   4   7
ENDBRANCH   2   3
ENDBRANCH   1   2
BRANCH   1  22
ATOM     22  C   UNL A   1      34.676  29.925  27.227  1.00  0.00     0.118 C 
BRANCH  22  23
ATOM     23  N   UNL A   1      34.395  31.185  27.919  1.00  0.00    -0.352 N 
ATOM     24  C   UNL A   1      34.977  31.667  29.079  1.00  0.00     0.251 C 
ATOM     25  H   UNL A   1      33.709  31.758  27.509  1.00  0.00     0.163 HD
ATOM     26  O   UNL A   1      34.446  32.545  29.731  1.00  0.00    -0.269 OA
BRANCH  24  27
ATOM     27  C   UNL A   1      36.253  31.066  29.508  1.00  0.00     0.039 A 
ATOM     28  C   UNL A   1      36.319  29.722  29.886  1.00  0.00     0.014 A 
ATOM     29  C   UNL A   1      37.398  31.848  29.424  1.00  0.00     0.014 A 
ATOM     30  C   UNL A   1      37.570  29.142  30.081  1.00  0.00     0.010 A 
ATOM     31  C   UNL A   1      38.627  31.237  29.461  1.00  0.00     0.010 A 
ATOM     32  C   UNL A   1      38.724  29.898  29.835  1.00  0.00    -0.014 A 
BRANCH  32  33
ATOM     33  C   UNL A   1      40.046  29.279  29.869  1.00  0.00     0.031 A 
ATOM     34  C   UNL A   1      40.637  29.057  31.220  1.00  0.00     0.074 A 
ATOM     35  C   UNL A   1      40.605  28.723  28.773  1.00  0.00     0.049 A 
ATOM     36  N   UNL A   1      41.716  29.585  31.698  1.00  0.00    -0.248 NA
ATOM     37  C   UNL A   1      39.904  28.228  32.187  1.00  0.00     0.031 C 
ATOM     38  C   UNL A   1      40.021  28.590  27.431  1.00  0.00     0.029 A 
ATOM     39  N   UNL A   1      41.751  27.997  28.675  1.00  0.00    -0.354 N 
ATOM     40  C   UNL A   1      41.916  28.995  32.946  1.00  0.00     0.074 A 
ATOM     41  C   UNL A   1      40.691  28.308  33.263  1.00  0.00     0.031 C 
ATOM     42  C   UNL A   1      40.660  27.608  26.762  1.00  0.00     0.029 A 
ATOM     43  C   UNL A   1      41.802  27.186  27.548  1.00  0.00     0.049 A 
ATOM     44  H   UNL A   1      42.476  28.042  29.341  1.00  0.00     0.167 HD
ATOM     45  C   UNL A   1      43.151  28.939  33.521  1.00  0.00     0.034 A 
ATOM     46  C   UNL A   1      42.699  26.207  27.291  1.00  0.00     0.034 A 
ATOM     47  C   UNL A   1      44.096  29.773  32.826  1.00  0.00     0.049 A 
ATOM     48  C   UNL A   1      43.891  26.480  28.124  1.00  0.00     0.074 A 
ATOM     49  C   UNL A   1      44.187  31.119  32.530  1.00  0.00     0.029 A 
ATOM     50  N   UNL A   1      44.980  29.139  31.984  1.00  0.00    -0.354 N 
ATOM     51  N   UNL A   1      44.666  27.514  27.944  1.00  0.00    -0.248 NA
ATOM     52  C   UNL A   1      43.992  25.845  29.426  1.00  0.00     0.031 C 
ATOM     53  C   UNL A   1      44.745  31.164  31.219  1.00  0.00     0.029 A 
ATOM     54  C   UNL A   1      45.016  29.854  30.818  1.00  0.00     0.049 A 
ATOM     55  H   UNL A   1      45.491  28.322  32.184  1.00  0.00     0.167 HD
ATOM     56  C   UNL A   1      44.983  27.934  29.229  1.00  0.00     0.074 A 
ATOM     57  C   UNL A   1      44.661  26.795  30.086  1.00  0.00     0.031 C 
ATOM     58  C   UNL A   1      45.187  29.257  29.510  1.00  0.00     0.034 A 
BRANCH  45  59
ATOM     59  C   UNL A   1      43.631  27.894  34.501  1.00  0.00     0.023 A 
ATOM     60  C   UNL A   1      44.237  28.354  35.695  1.00  0.00     0.012 A 
ATOM     61  C   UNL A   1      43.769  26.522  34.202  1.00  0.00     0.148 A 
ATOM     62  C   UNL A   1      44.986  27.503  36.518  1.00  0.00     0.002 A 
ATOM     63  C   UNL A   1      44.446  25.665  35.065  1.00  0.00     0.091 A 
ATOM     64  F   UNL A   1      43.370  26.056  33.015  1.00  0.00    -0.205 F 
ATOM     65  C   UNL A   1      45.084  26.155  36.206  1.00  0.00     0.022 A 
BRANCH  63  66
ATOM     66  S   UNL A   1      44.552  23.901  34.738  1.00  0.00     0.127 S 
ATOM     67  O   UNL A   1      45.297  23.431  35.902  1.00  0.00    -0.237 OA
ATOM     68  O   UNL A   1      43.142  23.513  34.706  1.00  0.00    -0.237 OA
ATOM     69  O   UNL A   1      45.229  23.789  33.452  1.00  0.00    -0.744 OA
ENDBRANCH  63  66
ENDBRANCH  45  59
BRANCH  46  70
ATOM     70  C   UNL A   1      42.543  24.976  26.487  1.00  0.00     0.023 A 
ATOM     71  C   UNL A   1      43.473  24.680  25.474  1.00  0.00     0.012 A 
ATOM     72  C   UNL A   1      41.627  23.968  26.871  1.00  0.00     0.148 A 
ATOM     73  C   UNL A   1      43.513  23.412  24.884  1.00  0.00     0.002 A 
ATOM     74  C   UNL A   1      41.666  22.712  26.276  1.00  0.00     0.091 A 
ATOM     75  F   UNL A   1      40.781  24.213  27.882  1.00  0.00    -0.205 F 
ATOM     76  C   UNL A   1      42.617  22.425  25.288  1.00  0.00     0.022 A 
BRANCH  74  77
ATOM     77  S   UNL A   1      40.553  21.387  26.765  1.00  0.00     0.127 S 
ATOM     78  O   UNL A   1      40.737  21.346  28.216  1.00  0.00    -0.237 OA
ATOM     79  O   UNL A   1      39.260  21.899  26.326  1.00  0.00    -0.237 OA
ATOM     80  O   UNL A   1      41.026  20.192  26.077  1.00  0.00    -0.744 OA
ENDBRANCH  74  77
ENDBRANCH  46  70
BRANCH  58  81
ATOM     81  C   UNL A   1      45.302  30.224  28.354  1.00  0.00     0.023 A 
ATOM     82  C   UNL A   1      44.166  30.712  27.672  1.00  0.00     0.012 A 
ATOM     83  C   UNL A   1      46.553  30.799  28.075  1.00  0.00     0.148 A 
ATOM     84  C   UNL A   1      44.278  31.726  26.717  1.00  0.00     0.002 A 
ATOM     85  C   UNL A   1      46.653  31.843  27.161  1.00  0.00     0.091 A 
ATOM     86  F   UNL A   1      47.627  30.337  28.734  1.00  0.00    -0.205 F 
ATOM     87  C   UNL A   1      45.520  32.302  26.472  1.00  0.00     0.022 A 
BRANCH  85  88
ATOM     88  S   UNL A   1      48.199  32.718  26.908  1.00  0.00     0.127 S 
ATOM     89  O   UNL A   1      48.468  33.259  28.239  1.00  0.00    -0.237 OA
ATOM     90  O   UNL A   1      49.107  31.648  26.489  1.00  0.00    -0.237 OA
ATOM     91  O   UNL A   1      47.930  33.706  25.868  1.00  0.00    -0.744 OA
ENDBRANCH  85  88
ENDBRANCH  58  81
ENDBRANCH  32  33
ENDBRANCH  24  27
ENDBRANCH  22  23
ENDBRANCH   1  22
TORSDOF 16
ENDMDL
