MODEL 1
REMARK VINA RESULT:     -13.3      0.000      0.000
REMARK SMILES O=C(NCCCNC(=O)c1cc2c(Cl)c(C(F)(F)F)cnc2n1S(=O)(=O)c1ccccc1)c1ccc(-c2c3nc(c(-c4cccc(S(=O)(=O)[O-])c4F)c4ccc([nH]4)c(-c4cccc(S(=O)(=O)[O-])c4F)c4nc(c(-c5cccc(S(=O)(=O)[O-])c5F)c5ccc2[nH]5)C=C4)C=C3)cc1
REMARK SMILES IDX 4 1 3 2 1 3 2 4 33 6 34 7 95 8 35 9 94 10 36 11 37 12 38 13
REMARK SMILES IDX 88 14 39 15 93 16 87 17 89 18 40 19 92 20 86 21 85 22 41 24
REMARK SMILES IDX 73 25 53 26 72 27 54 28 57 29 71 30 90 31 55 32 56 33 70 35
REMARK SMILES IDX 91 36 58 37 42 38 43 39 51 40 44 41 46 42 52 43 45 44 47 45
REMARK SMILES IDX 48 46 49 47 50 48 74 49 75 50 83 51 76 52 78 53 84 54 77 55
REMARK SMILES IDX 79 56 80 57 81 58 82 59 59 60 60 61 68 62 61 63 63 64 69 65
REMARK SMILES IDX 62 66 64 67 65 68 66 69 67 70 5 71 6 72 7 73 8 74 9 76 10 77
REMARK SMILES IDX 11 78 23 79 12 80 22 81 13 82 21 83 14 84 15 85 20 86 24 87
REMARK SMILES IDX 25 88 26 89 27 90 28 91 32 92 29 93 31 94 30 95 16 96 17 97
REMARK SMILES IDX 18 98 19 99
REMARK H PARENT 3 5 89 23 57 34 7 75
REMARK Flexibility Score: inf
ROOT
ATOM      1  C   UNL A   1      33.926  30.816  27.339  1.00  0.00     0.118 C 
ENDROOT
BRANCH   1   2
ATOM      2  N   UNL A   1      34.213  31.472  28.602  1.00  0.00    -0.352 N 
ATOM      3  O   UNL A   1      35.273  32.609  30.191  1.00  0.00    -0.269 OA
ATOM      4  C   UNL A   1      35.367  31.796  29.270  1.00  0.00     0.251 C 
ATOM      5  H   UNL A   1      33.401  31.746  29.087  1.00  0.00     0.163 HD
BRANCH   4   6
ATOM      6  C   UNL A   1      36.665  31.125  29.024  1.00  0.00     0.039 A 
ATOM      7  C   UNL A   1      36.803  29.788  28.655  1.00  0.00     0.014 A 
ATOM      8  C   UNL A   1      37.816  31.888  29.291  1.00  0.00     0.014 A 
ATOM      9  C   UNL A   1      38.036  29.164  28.762  1.00  0.00     0.010 A 
ATOM     10  C   UNL A   1      39.061  31.282  29.348  1.00  0.00     0.010 A 
ATOM     11  C   UNL A   1      39.147  29.904  29.163  1.00  0.00    -0.014 A 
BRANCH  11  12
ATOM     12  C   UNL A   1      40.407  29.193  29.320  1.00  0.00     0.031 A 
ATOM     13  C   UNL A   1      40.800  28.891  30.727  1.00  0.00     0.074 A 
ATOM     14  C   UNL A   1      41.089  28.728  28.256  1.00  0.00     0.049 A 
ATOM     15  N   UNL A   1      41.885  29.215  31.357  1.00  0.00    -0.248 NA
ATOM     16  C   UNL A   1      39.793  28.221  31.565  1.00  0.00     0.031 C 
ATOM     17  C   UNL A   1      40.656  28.687  26.856  1.00  0.00     0.029 A 
ATOM     18  N   UNL A   1      42.255  28.027  28.239  1.00  0.00    -0.354 N 
ATOM     19  C   UNL A   1      41.770  28.635  32.621  1.00  0.00     0.074 A 
ATOM     20  C   UNL A   1      40.418  28.151  32.738  1.00  0.00     0.031 C 
ATOM     21  C   UNL A   1      41.389  27.760  26.200  1.00  0.00     0.029 A 
ATOM     22  C   UNL A   1      42.406  27.245  27.099  1.00  0.00     0.049 A 
ATOM     23  H   UNL A   1      42.923  28.068  28.961  1.00  0.00     0.167 HD
ATOM     24  C   UNL A   1      42.825  28.410  33.451  1.00  0.00     0.034 A 
ATOM     25  C   UNL A   1      43.216  26.164  26.985  1.00  0.00     0.034 A 
ATOM     26  C   UNL A   1      44.014  29.103  33.063  1.00  0.00     0.049 A 
ATOM     27  C   UNL A   1      44.225  26.259  28.070  1.00  0.00     0.074 A 
ATOM     28  C   UNL A   1      44.383  30.429  32.960  1.00  0.00     0.029 A 
ATOM     29  N   UNL A   1      44.954  28.395  32.354  1.00  0.00    -0.354 N 
ATOM     30  N   UNL A   1      45.123  27.201  28.152  1.00  0.00    -0.248 NA
ATOM     31  C   UNL A   1      43.969  25.527  29.301  1.00  0.00     0.031 C 
ATOM     32  C   UNL A   1      45.215  30.485  31.803  1.00  0.00     0.029 A 
ATOM     33  C   UNL A   1      45.323  29.188  31.300  1.00  0.00     0.049 A 
ATOM     34  H   UNL A   1      45.293  27.495  32.562  1.00  0.00     0.167 HD
ATOM     35  C   UNL A   1      45.243  27.457  29.511  1.00  0.00     0.074 A 
ATOM     36  C   UNL A   1      44.583  26.332  30.171  1.00  0.00     0.031 C 
ATOM     37  C   UNL A   1      45.610  28.687  29.974  1.00  0.00     0.034 A 
BRANCH  24  38
ATOM     38  C   UNL A   1      42.837  27.310  34.467  1.00  0.00     0.023 A 
ATOM     39  C   UNL A   1      42.447  27.579  35.792  1.00  0.00     0.012 A 
ATOM     40  C   UNL A   1      43.429  26.055  34.196  1.00  0.00     0.148 A 
ATOM     41  C   UNL A   1      42.614  26.623  36.800  1.00  0.00     0.002 A 
ATOM     42  C   UNL A   1      43.526  25.085  35.182  1.00  0.00     0.091 A 
ATOM     43  F   UNL A   1      43.999  25.848  33.001  1.00  0.00    -0.205 F 
ATOM     44  C   UNL A   1      43.133  25.369  36.492  1.00  0.00     0.022 A 
BRANCH  42  45
ATOM     45  S   UNL A   1      44.138  23.437  34.818  1.00  0.00     0.127 S 
ATOM     46  O   UNL A   1      44.354  22.902  36.157  1.00  0.00    -0.237 OA
ATOM     47  O   UNL A   1      43.010  22.853  34.089  1.00  0.00    -0.237 OA
ATOM     48  O   UNL A   1      45.328  23.646  34.005  1.00  0.00    -0.744 OA
ENDBRANCH  42  45
ENDBRANCH  24  38
BRANCH  25  49
ATOM     49  C   UNL A   1      42.967  24.893  26.256  1.00  0.00     0.023 A 
ATOM     50  C   UNL A   1      43.915  24.451  25.310  1.00  0.00     0.012 A 
ATOM     51  C   UNL A   1      41.972  23.978  26.670  1.00  0.00     0.148 A 
ATOM     52  C   UNL A   1      43.898  23.136  24.828  1.00  0.00     0.002 A 
ATOM     53  C   UNL A   1      41.947  22.678  26.172  1.00  0.00     0.091 A 
ATOM     54  F   UNL A   1      41.110  24.339  27.628  1.00  0.00    -0.205 F 
ATOM     55  C   UNL A   1      42.919  22.248  25.262  1.00  0.00     0.022 A 
BRANCH  53  56
ATOM     56  S   UNL A   1      40.703  21.486  26.690  1.00  0.00     0.127 S 
ATOM     57  O   UNL A   1      39.468  22.094  26.194  1.00  0.00    -0.237 OA
ATOM     58  O   UNL A   1      41.122  20.282  25.979  1.00  0.00    -0.237 OA
ATOM     59  O   UNL A   1      40.795  21.433  28.145  1.00  0.00    -0.744 OA
ENDBRANCH  53  56
ENDBRANCH  25  49
BRANCH  37  60
ATOM     60  C   UNL A   1      46.067  29.713  28.969  1.00  0.00     0.023 A 
ATOM     61  C   UNL A   1      47.402  29.750  28.511  1.00  0.00     0.012 A 
ATOM     62  C   UNL A   1      45.101  30.501  28.323  1.00  0.00     0.148 A 
ATOM     63  C   UNL A   1      47.768  30.566  27.438  1.00  0.00     0.002 A 
ATOM     64  C   UNL A   1      45.463  31.284  27.232  1.00  0.00     0.091 A 
ATOM     65  F   UNL A   1      43.835  30.433  28.758  1.00  0.00    -0.205 F 
ATOM     66  C   UNL A   1      46.797  31.322  26.790  1.00  0.00     0.022 A 
BRANCH  64  67
ATOM     67  S   UNL A   1      44.252  32.193  26.272  1.00  0.00     0.127 S 
ATOM     68  O   UNL A   1      43.805  33.206  27.228  1.00  0.00    -0.237 OA
ATOM     69  O   UNL A   1      45.059  32.711  25.167  1.00  0.00    -0.237 OA
ATOM     70  O   UNL A   1      43.239  31.225  25.872  1.00  0.00    -0.744 OA
ENDBRANCH  64  67
ENDBRANCH  37  60
ENDBRANCH  11  12
ENDBRANCH   4   6
ENDBRANCH   1   2
BRANCH   1  71
ATOM     71  C   UNL A   1      32.544  30.183  27.181  1.00  0.00     0.042 C 
BRANCH  71  72
ATOM     72  C   UNL A   1      32.217  29.701  25.779  1.00  0.00     0.118 C 
BRANCH  72  73
ATOM     73  N   UNL A   1      33.332  29.675  24.855  1.00  0.00    -0.351 N 
ATOM     74  C   UNL A   1      33.781  28.684  24.029  1.00  0.00     0.269 C 
ATOM     75  H   UNL A   1      33.851  30.511  24.814  1.00  0.00     0.163 HD
ATOM     76  O   UNL A   1      34.717  28.961  23.280  1.00  0.00    -0.268 OA
BRANCH  74  77
ATOM     77  C   UNL A   1      33.298  27.330  24.149  1.00  0.00     0.124 A 
ATOM     78  C   UNL A   1      33.969  26.324  24.837  1.00  0.00     0.047 A 
ATOM     79  N   UNL A   1      32.249  26.707  23.486  1.00  0.00    -0.211 N 
ATOM     80  C   UNL A   1      33.324  25.086  24.593  1.00  0.00     0.040 A 
ATOM     81  C   UNL A   1      32.260  25.354  23.733  1.00  0.00     0.156 A 
ATOM     82  C   UNL A   1      33.514  23.741  24.962  1.00  0.00     0.065 A 
ATOM     83  N   UNL A   1      31.420  24.429  23.237  1.00  0.00    -0.237 NA
ATOM     84  Cl  UNL A   1      34.859  23.442  25.976  1.00  0.00    -0.083 Cl
ATOM     85  C   UNL A   1      32.654  22.752  24.497  1.00  0.00     0.093 A 
ATOM     86  C   UNL A   1      31.639  23.163  23.653  1.00  0.00     0.128 A 
BRANCH  79  87
ATOM     87  S   UNL A   1      31.213  27.486  22.392  1.00  0.00     0.270 S 
ATOM     88  O   UNL A   1      31.732  28.840  22.286  1.00  0.00    -0.201 OA
ATOM     89  O   UNL A   1      31.172  26.603  21.247  1.00  0.00    -0.201 OA
BRANCH  87  90
ATOM     90  C   UNL A   1      29.580  27.699  23.028  1.00  0.00     0.088 A 
ATOM     91  C   UNL A   1      28.971  26.656  23.728  1.00  0.00     0.022 A 
ATOM     92  C   UNL A   1      28.835  28.821  22.636  1.00  0.00     0.022 A 
ATOM     93  C   UNL A   1      27.622  26.760  24.072  1.00  0.00     0.001 A 
ATOM     94  C   UNL A   1      27.496  28.927  23.002  1.00  0.00     0.001 A 
ATOM     95  C   UNL A   1      26.890  27.896  23.716  1.00  0.00     0.000 A 
ENDBRANCH  87  90
ENDBRANCH  79  87
BRANCH  85  96
ATOM     96  C   UNL A   1      32.805  21.314  24.853  1.00  0.00     0.419 C 
ATOM     97  F   UNL A   1      32.731  21.093  26.195  1.00  0.00    -0.166 F 
ATOM     98  F   UNL A   1      31.864  20.515  24.283  1.00  0.00    -0.166 F 
ATOM     99  F   UNL A   1      34.006  20.791  24.472  1.00  0.00    -0.166 F 
ENDBRANCH  85  96
ENDBRANCH  74  77
ENDBRANCH  72  73
ENDBRANCH  71  72
ENDBRANCH   1  71
TORSDOF 16
ENDMDL
MODEL 2
REMARK VINA RESULT:     -13.0      3.778      9.137
REMARK SMILES O=C(NCCCNC(=O)c1cc2c(Cl)c(C(F)(F)F)cnc2n1S(=O)(=O)c1ccccc1)c1ccc(-c2c3nc(c(-c4cccc(S(=O)(=O)[O-])c4F)c4ccc([nH]4)c(-c4cccc(S(=O)(=O)[O-])c4F)c4nc(c(-c5cccc(S(=O)(=O)[O-])c5F)c5ccc2[nH]5)C=C4)C=C3)cc1
REMARK SMILES IDX 4 1 3 2 1 3 2 4 33 6 34 7 95 8 35 9 94 10 36 11 37 12 38 13
REMARK SMILES IDX 88 14 39 15 93 16 87 17 89 18 40 19 92 20 86 21 85 22 41 24
REMARK SMILES IDX 73 25 53 26 72 27 54 28 57 29 71 30 90 31 55 32 56 33 70 35
REMARK SMILES IDX 91 36 58 37 42 38 43 39 51 40 44 41 46 42 52 43 45 44 47 45
REMARK SMILES IDX 48 46 49 47 50 48 74 49 75 50 83 51 76 52 78 53 84 54 77 55
REMARK SMILES IDX 79 56 80 57 81 58 82 59 59 60 60 61 68 62 61 63 63 64 69 65
REMARK SMILES IDX 62 66 64 67 65 68 66 69 67 70 5 71 6 72 7 73 8 74 9 76 10 77
REMARK SMILES IDX 11 78 23 79 12 80 22 81 13 82 21 83 14 84 15 85 20 86 24 87
REMARK SMILES IDX 25 88 26 89 27 90 28 91 32 92 29 93 31 94 30 95 16 96 17 97
REMARK SMILES IDX 18 98 19 99
REMARK H PARENT 3 5 89 23 57 34 7 75
REMARK Flexibility Score: inf
ROOT
ATOM      1  C   UNL A   1      39.984  23.729  27.041  1.00  0.00     0.118 C 
ENDROOT
BRANCH   1   2
ATOM      2  N   UNL A   1      41.095  23.652  26.110  1.00  0.00    -0.352 N 
ATOM      3  O   UNL A   1      43.133  23.844  25.243  1.00  0.00    -0.269 OA
ATOM      4  C   UNL A   1      42.269  24.347  25.963  1.00  0.00     0.251 C 
ATOM      5  H   UNL A   1      40.983  22.945  25.434  1.00  0.00     0.163 HD
BRANCH   4   6
ATOM      6  C   UNL A   1      42.484  25.706  26.513  1.00  0.00     0.039 A 
ATOM      7  C   UNL A   1      43.319  25.997  27.591  1.00  0.00     0.014 A 
ATOM      8  C   UNL A   1      41.700  26.730  25.954  1.00  0.00     0.014 A 
ATOM      9  C   UNL A   1      43.214  27.217  28.238  1.00  0.00     0.010 A 
ATOM     10  C   UNL A   1      41.630  27.972  26.565  1.00  0.00     0.010 A 
ATOM     11  C   UNL A   1      42.328  28.177  27.754  1.00  0.00    -0.014 A 
BRANCH  11  12
ATOM     12  C   UNL A   1      42.207  29.420  28.502  1.00  0.00     0.031 A 
ATOM     13  C   UNL A   1      43.286  30.421  28.256  1.00  0.00     0.074 A 
ATOM     14  C   UNL A   1      41.122  29.686  29.253  1.00  0.00     0.049 A 
ATOM     15  N   UNL A   1      44.086  30.982  29.107  1.00  0.00    -0.248 NA
ATOM     16  C   UNL A   1      43.563  30.761  26.851  1.00  0.00     0.031 C 
ATOM     17  C   UNL A   1      39.869  28.927  29.327  1.00  0.00     0.029 A 
ATOM     18  N   UNL A   1      40.850  30.803  29.981  1.00  0.00    -0.354 N 
ATOM     19  C   UNL A   1      44.853  31.878  28.362  1.00  0.00     0.074 A 
ATOM     20  C   UNL A   1      44.583  31.608  26.972  1.00  0.00     0.031 C 
ATOM     21  C   UNL A   1      38.898  29.736  29.804  1.00  0.00     0.029 A 
ATOM     22  C   UNL A   1      39.489  31.009  30.177  1.00  0.00     0.049 A 
ATOM     23  H   UNL A   1      41.546  31.404  30.332  1.00  0.00     0.167 HD
ATOM     24  C   UNL A   1      45.538  32.922  28.905  1.00  0.00     0.034 A 
ATOM     25  C   UNL A   1      38.906  32.195  30.481  1.00  0.00     0.034 A 
ATOM     26  C   UNL A   1      45.672  32.840  30.326  1.00  0.00     0.049 A 
ATOM     27  C   UNL A   1      39.969  33.076  31.026  1.00  0.00     0.074 A 
ATOM     28  C   UNL A   1      46.301  31.978  31.200  1.00  0.00     0.029 A 
ATOM     29  N   UNL A   1      44.787  33.566  31.085  1.00  0.00    -0.354 N 
ATOM     30  N   UNL A   1      40.605  32.848  32.142  1.00  0.00    -0.248 NA
ATOM     31  C   UNL A   1      40.618  34.004  30.112  1.00  0.00     0.031 C 
ATOM     32  C   UNL A   1      45.419  31.886  32.317  1.00  0.00     0.029 A 
ATOM     33  C   UNL A   1      44.330  32.721  32.062  1.00  0.00     0.049 A 
ATOM     34  H   UNL A   1      44.530  34.506  30.951  1.00  0.00     0.167 HD
ATOM     35  C   UNL A   1      41.906  33.268  31.898  1.00  0.00     0.074 A 
ATOM     36  C   UNL A   1      41.830  34.057  30.670  1.00  0.00     0.031 C 
ATOM     37  C   UNL A   1      42.968  32.707  32.547  1.00  0.00     0.034 A 
BRANCH  24  38
ATOM     38  C   UNL A   1      45.837  34.178  28.145  1.00  0.00     0.023 A 
ATOM     39  C   UNL A   1      44.818  35.124  27.931  1.00  0.00     0.012 A 
ATOM     40  C   UNL A   1      47.055  34.353  27.450  1.00  0.00     0.148 A 
ATOM     41  C   UNL A   1      45.016  36.217  27.080  1.00  0.00     0.002 A 
ATOM     42  C   UNL A   1      47.273  35.475  26.665  1.00  0.00     0.091 A 
ATOM     43  F   UNL A   1      47.963  33.366  27.467  1.00  0.00    -0.205 F 
ATOM     44  C   UNL A   1      46.250  36.405  26.464  1.00  0.00     0.022 A 
BRANCH  42  45
ATOM     45  S   UNL A   1      48.865  35.786  25.897  1.00  0.00     0.127 S 
ATOM     46  O   UNL A   1      48.951  34.683  24.945  1.00  0.00    -0.237 OA
ATOM     47  O   UNL A   1      48.659  37.107  25.302  1.00  0.00    -0.237 OA
ATOM     48  O   UNL A   1      49.825  35.769  26.993  1.00  0.00    -0.744 OA
ENDBRANCH  42  45
ENDBRANCH  24  38
BRANCH  25  49
ATOM     49  C   UNL A   1      37.607  32.738  30.006  1.00  0.00     0.023 A 
ATOM     50  C   UNL A   1      37.160  32.404  28.710  1.00  0.00     0.012 A 
ATOM     51  C   UNL A   1      36.681  33.339  30.890  1.00  0.00     0.148 A 
ATOM     52  C   UNL A   1      35.830  32.620  28.326  1.00  0.00     0.002 A 
ATOM     53  C   UNL A   1      35.367  33.571  30.495  1.00  0.00     0.091 A 
ATOM     54  F   UNL A   1      37.051  33.590  32.151  1.00  0.00    -0.205 F 
ATOM     55  C   UNL A   1      34.932  33.197  29.219  1.00  0.00     0.022 A 
BRANCH  53  56
ATOM     56  S   UNL A   1      34.161  34.318  31.602  1.00  0.00     0.127 S 
ATOM     57  O   UNL A   1      33.813  33.199  32.479  1.00  0.00    -0.237 OA
ATOM     58  O   UNL A   1      34.944  35.374  32.237  1.00  0.00    -0.237 OA
ATOM     59  O   UNL A   1      33.067  34.763  30.745  1.00  0.00    -0.744 OA
ENDBRANCH  53  56
ENDBRANCH  25  49
BRANCH  37  60
ATOM     60  C   UNL A   1      42.682  31.751  33.676  1.00  0.00     0.023 A 
ATOM     61  C   UNL A   1      42.461  32.211  34.992  1.00  0.00     0.012 A 
ATOM     62  C   UNL A   1      42.421  30.406  33.370  1.00  0.00     0.148 A 
ATOM     63  C   UNL A   1      42.000  31.344  35.985  1.00  0.00     0.002 A 
ATOM     64  C   UNL A   1      41.927  29.555  34.353  1.00  0.00     0.091 A 
ATOM     65  F   UNL A   1      42.614  29.995  32.108  1.00  0.00    -0.205 F 
ATOM     66  C   UNL A   1      41.720  30.020  35.662  1.00  0.00     0.022 A 
BRANCH  64  67
ATOM     67  S   UNL A   1      41.432  27.870  33.989  1.00  0.00     0.127 S 
ATOM     68  O   UNL A   1      41.176  27.333  35.325  1.00  0.00    -0.237 OA
ATOM     69  O   UNL A   1      40.234  28.069  33.172  1.00  0.00    -0.237 OA
ATOM     70  O   UNL A   1      42.549  27.263  33.277  1.00  0.00    -0.744 OA
ENDBRANCH  64  67
ENDBRANCH  37  60
ENDBRANCH  11  12
ENDBRANCH   4   6
ENDBRANCH   1   2
BRANCH   1  71
ATOM     71  C   UNL A   1      38.741  24.490  26.580  1.00  0.00     0.042 C 
BRANCH  71  72
ATOM     72  C   UNL A   1      37.570  23.615  26.171  1.00  0.00     0.118 C 
BRANCH  72  73
ATOM     73  N   UNL A   1      37.586  23.160  24.796  1.00  0.00    -0.351 N 
ATOM     74  C   UNL A   1      36.595  23.129  23.857  1.00  0.00     0.269 C 
ATOM     75  H   UNL A   1      38.456  22.817  24.486  1.00  0.00     0.163 HD
ATOM     76  O   UNL A   1      36.907  22.760  22.725  1.00  0.00    -0.268 OA
BRANCH  74  77
ATOM     77  C   UNL A   1      35.215  23.354  24.213  1.00  0.00     0.124 A 
ATOM     78  C   UNL A   1      34.569  24.579  24.077  1.00  0.00     0.047 A 
ATOM     79  N   UNL A   1      34.340  22.535  24.912  1.00  0.00    -0.211 N 
ATOM     80  C   UNL A   1      33.296  24.502  24.695  1.00  0.00     0.040 A 
ATOM     81  C   UNL A   1      33.186  23.216  25.222  1.00  0.00     0.156 A 
ATOM     82  C   UNL A   1      32.209  25.369  24.916  1.00  0.00     0.065 A 
ATOM     83  N   UNL A   1      32.132  22.758  25.919  1.00  0.00    -0.237 NA
ATOM     84  Cl  UNL A   1      32.401  26.954  24.301  1.00  0.00    -0.083 Cl
ATOM     85  C   UNL A   1      31.085  24.932  25.607  1.00  0.00     0.093 A 
ATOM     86  C   UNL A   1      31.112  23.629  26.069  1.00  0.00     0.128 A 
BRANCH  79  87
ATOM     87  S   UNL A   1      34.721  20.973  25.455  1.00  0.00     0.270 S 
ATOM     88  O   UNL A   1      36.114  20.779  25.086  1.00  0.00    -0.201 OA
ATOM     89  O   UNL A   1      34.299  20.962  26.838  1.00  0.00    -0.201 OA
BRANCH  87  90
ATOM     90  C   UNL A   1      33.861  19.711  24.568  1.00  0.00     0.088 A 
ATOM     91  C   UNL A   1      34.403  18.427  24.497  1.00  0.00     0.022 A 
ATOM     92  C   UNL A   1      32.767  20.066  23.764  1.00  0.00     0.022 A 
ATOM     93  C   UNL A   1      33.817  17.484  23.651  1.00  0.00     0.001 A 
ATOM     94  C   UNL A   1      32.175  19.113  22.940  1.00  0.00     0.001 A 
ATOM     95  C   UNL A   1      32.702  17.825  22.881  1.00  0.00     0.000 A 
ENDBRANCH  87  90
ENDBRANCH  79  87
BRANCH  85  96
ATOM     96  C   UNL A   1      29.905  25.803  25.870  1.00  0.00     0.419 C 
ATOM     97  F   UNL A   1      28.939  25.175  26.594  1.00  0.00    -0.166 F 
ATOM     98  F   UNL A   1      30.214  26.939  26.550  1.00  0.00    -0.166 F 
ATOM     99  F   UNL A   1      29.282  26.219  24.730  1.00  0.00    -0.166 F 
ENDBRANCH  85  96
ENDBRANCH  74  77
ENDBRANCH  72  73
ENDBRANCH  71  72
ENDBRANCH   1  71
TORSDOF 16
ENDMDL
MODEL 3
REMARK VINA RESULT:     -12.9      2.106      2.686
REMARK SMILES O=C(NCCCNC(=O)c1cc2c(Cl)c(C(F)(F)F)cnc2n1S(=O)(=O)c1ccccc1)c1ccc(-c2c3nc(c(-c4cccc(S(=O)(=O)[O-])c4F)c4ccc([nH]4)c(-c4cccc(S(=O)(=O)[O-])c4F)c4nc(c(-c5cccc(S(=O)(=O)[O-])c5F)c5ccc2[nH]5)C=C4)C=C3)cc1
REMARK SMILES IDX 4 1 3 2 1 3 2 4 33 6 34 7 95 8 35 9 94 10 36 11 37 12 38 13
REMARK SMILES IDX 88 14 39 15 93 16 87 17 89 18 40 19 92 20 86 21 85 22 41 24
REMARK SMILES IDX 73 25 53 26 72 27 54 28 57 29 71 30 90 31 55 32 56 33 70 35
REMARK SMILES IDX 91 36 58 37 42 38 43 39 51 40 44 41 46 42 52 43 45 44 47 45
REMARK SMILES IDX 48 46 49 47 50 48 74 49 75 50 83 51 76 52 78 53 84 54 77 55
REMARK SMILES IDX 79 56 80 57 81 58 82 59 59 60 60 61 68 62 61 63 63 64 69 65
REMARK SMILES IDX 62 66 64 67 65 68 66 69 67 70 5 71 6 72 7 73 8 74 9 76 10 77
REMARK SMILES IDX 11 78 23 79 12 80 22 81 13 82 21 83 14 84 15 85 20 86 24 87
REMARK SMILES IDX 25 88 26 89 27 90 28 91 32 92 29 93 31 94 30 95 16 96 17 97
REMARK SMILES IDX 18 98 19 99
REMARK H PARENT 3 5 89 23 57 34 7 75
REMARK Flexibility Score: inf
ROOT
ATOM      1  C   UNL A   1      34.626  31.457  27.725  1.00  0.00     0.118 C 
ENDROOT
BRANCH   1   2
ATOM      2  N   UNL A   1      34.200  31.924  29.033  1.00  0.00    -0.352 N 
ATOM      3  O   UNL A   1      34.224  32.894  31.032  1.00  0.00    -0.269 OA
ATOM      4  C   UNL A   1      34.859  32.258  30.189  1.00  0.00     0.251 C 
ATOM      5  H   UNL A   1      33.223  32.023  29.106  1.00  0.00     0.163 HD
BRANCH   4   6
ATOM      6  C   UNL A   1      36.224  31.783  30.514  1.00  0.00     0.039 A 
ATOM      7  C   UNL A   1      37.390  32.501  30.254  1.00  0.00     0.014 A 
ATOM      8  C   UNL A   1      36.319  30.475  31.022  1.00  0.00     0.014 A 
ATOM      9  C   UNL A   1      38.618  31.861  30.287  1.00  0.00     0.010 A 
ATOM     10  C   UNL A   1      37.551  29.846  31.109  1.00  0.00     0.010 A 
ATOM     11  C   UNL A   1      38.684  30.520  30.660  1.00  0.00    -0.014 A 
BRANCH  11  12
ATOM     12  C   UNL A   1      39.988  29.874  30.622  1.00  0.00     0.031 A 
ATOM     13  C   UNL A   1      40.734  29.864  31.913  1.00  0.00     0.074 A 
ATOM     14  C   UNL A   1      40.415  29.218  29.526  1.00  0.00     0.049 A 
ATOM     15  N   UNL A   1      41.918  30.323  32.173  1.00  0.00    -0.248 NA
ATOM     16  C   UNL A   1      40.011  29.358  33.091  1.00  0.00     0.031 C 
ATOM     17  C   UNL A   1      39.654  28.893  28.316  1.00  0.00     0.029 A 
ATOM     18  N   UNL A   1      41.584  28.546  29.345  1.00  0.00    -0.354 N 
ATOM     19  C   UNL A   1      42.157  30.004  33.510  1.00  0.00     0.074 A 
ATOM     20  C   UNL A   1      40.909  29.532  34.057  1.00  0.00     0.031 C 
ATOM     21  C   UNL A   1      40.261  27.867  27.682  1.00  0.00     0.029 A 
ATOM     22  C   UNL A   1      41.500  27.556  28.372  1.00  0.00     0.049 A 
ATOM     23  H   UNL A   1      42.405  28.740  29.853  1.00  0.00     0.167 HD
ATOM     24  C   UNL A   1      43.396  29.964  34.071  1.00  0.00     0.034 A 
ATOM     25  C   UNL A   1      42.325  26.486  28.261  1.00  0.00     0.034 A 
ATOM     26  C   UNL A   1      44.405  30.585  33.270  1.00  0.00     0.049 A 
ATOM     27  C   UNL A   1      43.562  26.810  29.016  1.00  0.00     0.074 A 
ATOM     28  C   UNL A   1      44.649  31.869  32.829  1.00  0.00     0.029 A 
ATOM     29  N   UNL A   1      45.184  29.765  32.492  1.00  0.00    -0.354 N 
ATOM     30  N   UNL A   1      44.389  27.763  28.687  1.00  0.00    -0.248 NA
ATOM     31  C   UNL A   1      43.667  26.333  30.386  1.00  0.00     0.031 C 
ATOM     32  C   UNL A   1      45.165  31.708  31.510  1.00  0.00     0.029 A 
ATOM     33  C   UNL A   1      45.229  30.339  31.248  1.00  0.00     0.049 A 
ATOM     34  H   UNL A   1      45.623  28.929  32.772  1.00  0.00     0.167 HD
ATOM     35  C   UNL A   1      44.824  28.286  29.898  1.00  0.00     0.074 A 
ATOM     36  C   UNL A   1      44.422  27.305  30.904  1.00  0.00     0.031 C 
ATOM     37  C   UNL A   1      45.213  29.589  30.012  1.00  0.00     0.034 A 
BRANCH  24  38
ATOM     38  C   UNL A   1      43.730  29.088  35.239  1.00  0.00     0.023 A 
ATOM     39  C   UNL A   1      44.295  29.654  36.397  1.00  0.00     0.012 A 
ATOM     40  C   UNL A   1      43.696  27.678  35.144  1.00  0.00     0.148 A 
ATOM     41  C   UNL A   1      44.779  28.845  37.431  1.00  0.00     0.002 A 
ATOM     42  C   UNL A   1      44.110  26.882  36.201  1.00  0.00     0.091 A 
ATOM     43  F   UNL A   1      43.360  27.112  33.975  1.00  0.00    -0.205 F 
ATOM     44  C   UNL A   1      44.667  27.460  37.344  1.00  0.00     0.022 A 
BRANCH  42  45
ATOM     45  S   UNL A   1      43.933  25.097  36.153  1.00  0.00     0.127 S 
ATOM     46  O   UNL A   1      44.878  24.737  35.101  1.00  0.00    -0.237 OA
ATOM     47  O   UNL A   1      44.336  24.718  37.508  1.00  0.00    -0.237 OA
ATOM     48  O   UNL A   1      42.524  24.862  35.863  1.00  0.00    -0.744 OA
ENDBRANCH  42  45
ENDBRANCH  24  38
BRANCH  25  49
ATOM     49  C   UNL A   1      41.988  25.092  27.872  1.00  0.00     0.023 A 
ATOM     50  C   UNL A   1      40.673  24.624  28.077  1.00  0.00     0.012 A 
ATOM     51  C   UNL A   1      42.845  24.317  27.057  1.00  0.00     0.148 A 
ATOM     52  C   UNL A   1      40.218  23.453  27.459  1.00  0.00     0.002 A 
ATOM     53  C   UNL A   1      42.394  23.142  26.462  1.00  0.00     0.091 A 
ATOM     54  F   UNL A   1      44.071  24.776  26.776  1.00  0.00    -0.205 F 
ATOM     55  C   UNL A   1      41.074  22.715  26.647  1.00  0.00     0.022 A 
BRANCH  53  56
ATOM     56  S   UNL A   1      43.455  22.143  25.408  1.00  0.00     0.127 S 
ATOM     57  O   UNL A   1      44.711  22.131  26.159  1.00  0.00    -0.237 OA
ATOM     58  O   UNL A   1      42.743  20.868  25.382  1.00  0.00    -0.237 OA
ATOM     59  O   UNL A   1      43.530  22.858  24.138  1.00  0.00    -0.744 OA
ENDBRANCH  53  56
ENDBRANCH  25  49
BRANCH  37  60
ATOM     60  C   UNL A   1      45.340  30.401  28.749  1.00  0.00     0.023 A 
ATOM     61  C   UNL A   1      44.202  30.870  28.058  1.00  0.00     0.012 A 
ATOM     62  C   UNL A   1      46.608  30.877  28.378  1.00  0.00     0.148 A 
ATOM     63  C   UNL A   1      44.326  31.785  27.010  1.00  0.00     0.002 A 
ATOM     64  C   UNL A   1      46.724  31.816  27.359  1.00  0.00     0.091 A 
ATOM     65  F   UNL A   1      47.674  30.437  29.062  1.00  0.00    -0.205 F 
ATOM     66  C   UNL A   1      45.586  32.268  26.670  1.00  0.00     0.022 A 
BRANCH  64  67
ATOM     67  S   UNL A   1      48.295  32.572  26.940  1.00  0.00     0.127 S 
ATOM     68  O   UNL A   1      47.903  33.543  25.919  1.00  0.00    -0.237 OA
ATOM     69  O   UNL A   1      48.705  33.161  28.216  1.00  0.00    -0.237 OA
ATOM     70  O   UNL A   1      49.156  31.492  26.475  1.00  0.00    -0.744 OA
ENDBRANCH  64  67
ENDBRANCH  37  60
ENDBRANCH  11  12
ENDBRANCH   4   6
ENDBRANCH   1   2
BRANCH   1  71
ATOM     71  C   UNL A   1      35.317  30.095  27.663  1.00  0.00     0.042 C 
BRANCH  71  72
ATOM     72  C   UNL A   1      34.442  28.955  27.174  1.00  0.00     0.118 C 
BRANCH  72  73
ATOM     73  N   UNL A   1      33.098  28.928  27.713  1.00  0.00    -0.351 N 
ATOM     74  C   UNL A   1      32.034  28.125  27.411  1.00  0.00     0.269 C 
ATOM     75  H   UNL A   1      32.923  29.596  28.414  1.00  0.00     0.163 HD
ATOM     76  O   UNL A   1      31.017  28.267  28.088  1.00  0.00    -0.268 OA
BRANCH  74  77
ATOM     77  C   UNL A   1      32.042  27.273  26.247  1.00  0.00     0.124 A 
ATOM     78  C   UNL A   1      32.393  25.926  26.274  1.00  0.00     0.047 A 
ATOM     79  N   UNL A   1      31.920  27.610  24.907  1.00  0.00    -0.211 N 
ATOM     80  C   UNL A   1      32.482  25.444  24.945  1.00  0.00     0.040 A 
ATOM     81  C   UNL A   1      32.195  26.523  24.110  1.00  0.00     0.156 A 
ATOM     82  C   UNL A   1      32.803  24.227  24.316  1.00  0.00     0.065 A 
ATOM     83  N   UNL A   1      32.209  26.481  22.766  1.00  0.00    -0.237 NA
ATOM     84  Cl  UNL A   1      33.200  22.939  25.370  1.00  0.00    -0.083 Cl
ATOM     85  C   UNL A   1      32.804  24.126  22.929  1.00  0.00     0.093 A 
ATOM     86  C   UNL A   1      32.497  25.277  22.226  1.00  0.00     0.128 A 
BRANCH  79  87
ATOM     87  S   UNL A   1      31.642  29.184  24.339  1.00  0.00     0.270 S 
ATOM     88  O   UNL A   1      31.639  30.016  25.531  1.00  0.00    -0.201 OA
ATOM     89  O   UNL A   1      32.626  29.367  23.295  1.00  0.00    -0.201 OA
BRANCH  87  90
ATOM     90  C   UNL A   1      30.024  29.393  23.665  1.00  0.00     0.088 A 
ATOM     91  C   UNL A   1      29.438  30.660  23.655  1.00  0.00     0.022 A 
ATOM     92  C   UNL A   1      29.262  28.257  23.352  1.00  0.00     0.022 A 
ATOM     93  C   UNL A   1      28.098  30.791  23.290  1.00  0.00     0.001 A 
ATOM     94  C   UNL A   1      27.931  28.399  22.967  1.00  0.00     0.001 A 
ATOM     95  C   UNL A   1      27.350  29.664  22.939  1.00  0.00     0.000 A 
ENDBRANCH  87  90
ENDBRANCH  79  87
BRANCH  85  96
ATOM     96  C   UNL A   1      33.135  22.866  22.207  1.00  0.00     0.419 C 
ATOM     97  F   UNL A   1      34.320  22.327  22.606  1.00  0.00    -0.166 F 
ATOM     98  F   UNL A   1      32.200  21.891  22.366  1.00  0.00    -0.166 F 
ATOM     99  F   UNL A   1      33.257  23.038  20.859  1.00  0.00    -0.166 F 
ENDBRANCH  85  96
ENDBRANCH  74  77
ENDBRANCH  72  73
ENDBRANCH  71  72
ENDBRANCH   1  71
TORSDOF 16
ENDMDL
