MODEL 1
REMARK VINA RESULT:     -10.9      0.000      0.000
REMARK SMILES CCC[NH+]1CCC([NH2+]CC(C)(C)C(=O)NCCCNC(=O)c2ccc(-c3c4nc(c(-c5cccc(S(=O)(=O)[O-])c5F)c5ccc([nH]5)c(-c5cccc(S(=O)(=O)[O-])c5F)c5nc(c(-c6cccc(S(=O)(=O)[O-])c6F)c6ccc3[nH]6)C=C5)C=C4)cc2)CC1
REMARK SMILES IDX 16 1 15 2 13 3 14 4 10 6 11 7 12 8 9 9 8 10 7 13 4 14 5 15
REMARK SMILES IDX 86 16 6 18 85 19 3 20 2 21 1 22 17 23 18 24 19 25 20 26
REMARK SMILES IDX 21 28 22 29 23 30 84 31 24 32 83 33 25 34 26 35 27 36 77 37
REMARK SMILES IDX 28 38 82 39 76 40 78 41 29 42 81 43 75 44 74 45 30 47 62 48
REMARK SMILES IDX 42 49 61 50 43 51 46 52 60 53 79 54 44 55 45 56 59 58 80 59
REMARK SMILES IDX 47 60 31 61 32 62 40 63 33 64 35 65 41 66 34 67 36 68 37 69
REMARK SMILES IDX 38 70 39 71 63 72 64 73 72 74 65 75 67 76 73 77 66 78 68 79
REMARK SMILES IDX 69 80 70 81 71 82 48 83 49 84 57 85 50 86 52 87 58 88 51 89
REMARK SMILES IDX 53 90 54 91 55 92 56 93
REMARK H PARENT 15 5 8 11 8 12 4 17 19 27 78 46 46 57
REMARK Flexibility Score: inf
ROOT
ATOM      1  C   UNL A   1      33.856  27.749  23.897  1.00  0.00     0.117 C 
ENDROOT
BRANCH   1   2
ATOM      2  N   UNL A   1      33.305  26.711  24.741  1.00  0.00    -0.355 N 
ATOM      3  C   UNL A   1      32.342  25.783  24.567  1.00  0.00     0.231 C 
ATOM      4  O   UNL A   1      31.989  25.233  25.617  1.00  0.00    -0.274 OA
ATOM      5  H   UNL A   1      33.720  26.676  25.633  1.00  0.00     0.163 HD
BRANCH   3   6
ATOM      6  C   UNL A   1      31.656  25.465  23.224  1.00  0.00     0.092 C 
ATOM      7  C   UNL A   1      31.309  26.613  22.260  1.00  0.00     0.027 C 
ATOM      8  C   UNL A   1      30.336  24.773  23.630  1.00  0.00     0.027 C 
BRANCH   6   9
ATOM      9  C   UNL A   1      32.564  24.440  22.450  1.00  0.00     0.277 C 
BRANCH   9  10
ATOM     10  N   UNL A   1      33.782  23.902  23.107  1.00  0.00    -0.343 N 
ATOM     11  H   UNL A   1      34.581  24.103  22.505  1.00  0.00     0.346 HD
ATOM     12  H   UNL A   1      33.838  24.356  24.019  1.00  0.00     0.346 HD
BRANCH  10  13
ATOM     13  C   UNL A   1      33.760  22.454  23.369  1.00  0.00     0.193 C 
ATOM     14  N   UNL A   1      32.849  20.005  24.728  1.00  0.00    -0.335 N 
ATOM     15  C   UNL A   1      34.143  20.626  25.063  1.00  0.00     0.268 C 
ATOM     16  C   UNL A   1      32.455  20.321  23.352  1.00  0.00     0.268 C 
ATOM     17  H   UNL A   1      32.173  20.393  25.387  1.00  0.00     0.348 HD
ATOM     18  C   UNL A   1      34.153  22.148  24.820  1.00  0.00     0.126 C 
ATOM     19  C   UNL A   1      32.377  21.828  23.155  1.00  0.00     0.126 C 
BRANCH  14  20
ATOM     20  C   UNL A   1      32.861  18.540  24.891  1.00  0.00     0.261 C 
BRANCH  20  21
ATOM     21  C   UNL A   1      34.168  17.861  24.470  1.00  0.00     0.058 C 
ATOM     22  C   UNL A   1      34.010  16.973  23.243  1.00  0.00     0.010 C 
ENDBRANCH  20  21
ENDBRANCH  14  20
ENDBRANCH  10  13
ENDBRANCH   9  10
ENDBRANCH   6   9
ENDBRANCH   3   6
ENDBRANCH   1   2
BRANCH   1  23
ATOM     23  C   UNL A   1      33.312  29.115  24.284  1.00  0.00     0.042 C 
BRANCH  23  24
ATOM     24  C   UNL A   1      32.846  29.221  25.728  1.00  0.00     0.118 C 
BRANCH  24  25
ATOM     25  N   UNL A   1      32.373  30.553  26.079  1.00  0.00    -0.352 N 
ATOM     26  C   UNL A   1      32.959  31.468  26.929  1.00  0.00     0.251 C 
ATOM     27  H   UNL A   1      31.531  30.836  25.657  1.00  0.00     0.163 HD
ATOM     28  O   UNL A   1      32.372  32.493  27.244  1.00  0.00    -0.269 OA
BRANCH  26  29
ATOM     29  C   UNL A   1      34.300  31.167  27.475  1.00  0.00     0.039 A 
ATOM     30  C   UNL A   1      35.231  32.197  27.617  1.00  0.00     0.014 A 
ATOM     31  C   UNL A   1      34.594  29.877  27.923  1.00  0.00     0.014 A 
ATOM     32  C   UNL A   1      36.434  31.949  28.285  1.00  0.00     0.010 A 
ATOM     33  C   UNL A   1      35.746  29.659  28.668  1.00  0.00     0.010 A 
ATOM     34  C   UNL A   1      36.683  30.689  28.851  1.00  0.00    -0.014 A 
BRANCH  34  35
ATOM     35  C   UNL A   1      37.920  30.391  29.619  1.00  0.00     0.031 A 
ATOM     36  C   UNL A   1      38.922  29.423  29.045  1.00  0.00     0.074 A 
ATOM     37  C   UNL A   1      38.082  30.874  30.867  1.00  0.00     0.049 A 
ATOM     38  N   UNL A   1      39.967  28.882  29.610  1.00  0.00    -0.248 NA
ATOM     39  C   UNL A   1      38.690  28.970  27.660  1.00  0.00     0.031 C 
ATOM     40  C   UNL A   1      37.152  31.766  31.563  1.00  0.00     0.029 A 
ATOM     41  N   UNL A   1      39.074  30.648  31.791  1.00  0.00    -0.354 N 
ATOM     42  C   UNL A   1      40.473  27.979  28.683  1.00  0.00     0.074 A 
ATOM     43  C   UNL A   1      39.611  28.028  27.525  1.00  0.00     0.031 C 
ATOM     44  C   UNL A   1      37.616  32.009  32.801  1.00  0.00     0.029 A 
ATOM     45  C   UNL A   1      38.854  31.263  33.003  1.00  0.00     0.049 A 
ATOM     46  H   UNL A   1      39.868  30.097  31.604  1.00  0.00     0.167 HD
ATOM     47  C   UNL A   1      41.575  27.198  28.775  1.00  0.00     0.034 A 
ATOM     48  C   UNL A   1      39.564  31.218  34.149  1.00  0.00     0.034 A 
ATOM     49  C   UNL A   1      42.479  27.221  29.891  1.00  0.00     0.049 A 
ATOM     50  C   UNL A   1      40.827  30.398  34.194  1.00  0.00     0.074 A 
ATOM     51  C   UNL A   1      43.680  26.549  30.035  1.00  0.00     0.029 A 
ATOM     52  N   UNL A   1      42.286  27.958  31.047  1.00  0.00    -0.354 N 
ATOM     53  N   UNL A   1      41.368  29.665  33.252  1.00  0.00    -0.248 NA
ATOM     54  C   UNL A   1      41.598  30.426  35.447  1.00  0.00     0.031 C 
ATOM     55  C   UNL A   1      44.210  26.875  31.286  1.00  0.00     0.029 A 
ATOM     56  C   UNL A   1      43.349  27.764  31.910  1.00  0.00     0.049 A 
ATOM     57  H   UNL A   1      41.509  28.534  31.227  1.00  0.00     0.167 HD
ATOM     58  C   UNL A   1      42.564  29.191  33.778  1.00  0.00     0.074 A 
ATOM     59  C   UNL A   1      42.673  29.722  35.119  1.00  0.00     0.031 C 
ATOM     60  C   UNL A   1      43.484  28.377  33.204  1.00  0.00     0.034 A 
BRANCH  47  61
ATOM     61  C   UNL A   1      41.905  26.300  27.613  1.00  0.00     0.023 A 
ATOM     62  C   UNL A   1      42.648  26.809  26.530  1.00  0.00     0.012 A 
ATOM     63  C   UNL A   1      41.546  24.939  27.630  1.00  0.00     0.148 A 
ATOM     64  C   UNL A   1      43.005  25.983  25.464  1.00  0.00     0.002 A 
ATOM     65  C   UNL A   1      41.945  24.111  26.586  1.00  0.00     0.091 A 
ATOM     66  F   UNL A   1      40.821  24.480  28.660  1.00  0.00    -0.205 F 
ATOM     67  C   UNL A   1      42.664  24.633  25.499  1.00  0.00     0.022 A 
BRANCH  65  68
ATOM     68  S   UNL A   1      41.628  22.343  26.576  1.00  0.00     0.127 S 
ATOM     69  O   UNL A   1      40.168  22.306  26.525  1.00  0.00    -0.237 OA
ATOM     70  O   UNL A   1      42.292  21.919  25.342  1.00  0.00    -0.237 OA
ATOM     71  O   UNL A   1      42.224  21.820  27.797  1.00  0.00    -0.744 OA
ENDBRANCH  65  68
ENDBRANCH  47  61
BRANCH  48  72
ATOM     72  C   UNL A   1      39.144  32.031  35.328  1.00  0.00     0.023 A 
ATOM     73  C   UNL A   1      38.228  31.481  36.248  1.00  0.00     0.012 A 
ATOM     74  C   UNL A   1      39.640  33.329  35.551  1.00  0.00     0.148 A 
ATOM     75  C   UNL A   1      37.783  32.222  37.343  1.00  0.00     0.002 A 
ATOM     76  C   UNL A   1      39.232  34.043  36.674  1.00  0.00     0.091 A 
ATOM     77  F   UNL A   1      40.499  33.845  34.661  1.00  0.00    -0.205 F 
ATOM     78  C   UNL A   1      38.291  33.499  37.561  1.00  0.00     0.022 A 
BRANCH  76  79
ATOM     79  S   UNL A   1      39.935  35.641  37.100  1.00  0.00     0.127 S 
ATOM     80  O   UNL A   1      41.341  35.307  37.301  1.00  0.00    -0.237 OA
ATOM     81  O   UNL A   1      39.653  36.430  35.899  1.00  0.00    -0.237 OA
ATOM     82  O   UNL A   1      39.206  36.080  38.283  1.00  0.00    -0.744 OA
ENDBRANCH  76  79
ENDBRANCH  48  72
BRANCH  60  83
ATOM     83  C   UNL A   1      44.735  28.063  33.979  1.00  0.00     0.023 A 
ATOM     84  C   UNL A   1      45.837  28.936  33.920  1.00  0.00     0.012 A 
ATOM     85  C   UNL A   1      44.763  26.965  34.862  1.00  0.00     0.148 A 
ATOM     86  C   UNL A   1      46.958  28.711  34.718  1.00  0.00     0.002 A 
ATOM     87  C   UNL A   1      45.863  26.774  35.687  1.00  0.00     0.091 A 
ATOM     88  F   UNL A   1      43.707  26.138  34.887  1.00  0.00    -0.205 F 
ATOM     89  C   UNL A   1      46.966  27.641  35.610  1.00  0.00     0.022 A 
BRANCH  87  90
ATOM     90  S   UNL A   1      45.916  25.487  36.939  1.00  0.00     0.127 S 
ATOM     91  O   UNL A   1      46.182  24.297  36.131  1.00  0.00    -0.237 OA
ATOM     92  O   UNL A   1      47.033  25.916  37.780  1.00  0.00    -0.237 OA
ATOM     93  O   UNL A   1      44.618  25.514  37.599  1.00  0.00    -0.744 OA
ENDBRANCH  87  90
ENDBRANCH  60  83
ENDBRANCH  34  35
ENDBRANCH  26  29
ENDBRANCH  24  25
ENDBRANCH  23  24
ENDBRANCH   1  23
TORSDOF 18
ENDMDL
MODEL 2
REMARK VINA RESULT:     -10.8      0.677      7.924
REMARK SMILES CCC[NH+]1CCC([NH2+]CC(C)(C)C(=O)NCCCNC(=O)c2ccc(-c3c4nc(c(-c5cccc(S(=O)(=O)[O-])c5F)c5ccc([nH]5)c(-c5cccc(S(=O)(=O)[O-])c5F)c5nc(c(-c6cccc(S(=O)(=O)[O-])c6F)c6ccc3[nH]6)C=C5)C=C4)cc2)CC1
REMARK SMILES IDX 16 1 15 2 13 3 14 4 10 6 11 7 12 8 9 9 8 10 7 13 4 14 5 15
REMARK SMILES IDX 86 16 6 18 85 19 3 20 2 21 1 22 17 23 18 24 19 25 20 26
REMARK SMILES IDX 21 28 22 29 23 30 84 31 24 32 83 33 25 34 26 35 27 36 77 37
REMARK SMILES IDX 28 38 82 39 76 40 78 41 29 42 81 43 75 44 74 45 30 47 62 48
REMARK SMILES IDX 42 49 61 50 43 51 46 52 60 53 79 54 44 55 45 56 59 58 80 59
REMARK SMILES IDX 47 60 31 61 32 62 40 63 33 64 35 65 41 66 34 67 36 68 37 69
REMARK SMILES IDX 38 70 39 71 63 72 64 73 72 74 65 75 67 76 73 77 66 78 68 79
REMARK SMILES IDX 69 80 70 81 71 82 48 83 49 84 57 85 50 86 52 87 58 88 51 89
REMARK SMILES IDX 53 90 54 91 55 92 56 93
REMARK H PARENT 15 5 8 11 8 12 4 17 19 27 78 46 46 57
REMARK Flexibility Score: inf
ROOT
ATOM      1  C   UNL A   1      33.480  28.136  24.529  1.00  0.00     0.117 C 
ENDROOT
BRANCH   1   2
ATOM      2  N   UNL A   1      32.714  27.126  25.227  1.00  0.00    -0.355 N 
ATOM      3  C   UNL A   1      32.009  26.049  24.824  1.00  0.00     0.231 C 
ATOM      4  O   UNL A   1      31.288  25.571  25.708  1.00  0.00    -0.274 OA
ATOM      5  H   UNL A   1      32.704  27.253  26.203  1.00  0.00     0.163 HD
BRANCH   3   6
ATOM      6  C   UNL A   1      32.004  25.484  23.391  1.00  0.00     0.092 C 
ATOM      7  C   UNL A   1      31.960  26.453  22.195  1.00  0.00     0.027 C 
ATOM      8  C   UNL A   1      30.733  24.607  23.336  1.00  0.00     0.027 C 
BRANCH   6   9
ATOM      9  C   UNL A   1      33.273  24.570  23.227  1.00  0.00     0.277 C 
BRANCH   9  10
ATOM     10  N   UNL A   1      33.782  23.813  24.398  1.00  0.00    -0.343 N 
ATOM     11  H   UNL A   1      34.775  24.024  24.504  1.00  0.00     0.346 HD
ATOM     12  H   UNL A   1      33.218  24.106  25.195  1.00  0.00     0.346 HD
BRANCH  10  13
ATOM     13  C   UNL A   1      33.635  22.351  24.305  1.00  0.00     0.193 C 
ATOM     14  N   UNL A   1      33.400  19.622  25.389  1.00  0.00    -0.335 N 
ATOM     15  C   UNL A   1      34.667  20.107  24.813  1.00  0.00     0.268 C 
ATOM     16  C   UNL A   1      32.254  20.329  24.808  1.00  0.00     0.268 C 
ATOM     17  H   UNL A   1      33.458  19.810  26.390  1.00  0.00     0.348 HD
ATOM     18  C   UNL A   1      34.834  21.634  24.940  1.00  0.00     0.126 C 
ATOM     19  C   UNL A   1      32.387  21.828  25.026  1.00  0.00     0.126 C 
BRANCH  14  20
ATOM     20  C   UNL A   1      33.205  18.173  25.203  1.00  0.00     0.261 C 
BRANCH  20  21
ATOM     21  C   UNL A   1      32.997  17.738  23.749  1.00  0.00     0.058 C 
ATOM     22  C   UNL A   1      34.058  16.764  23.260  1.00  0.00     0.010 C 
ENDBRANCH  20  21
ENDBRANCH  14  20
ENDBRANCH  10  13
ENDBRANCH   9  10
ENDBRANCH   6   9
ENDBRANCH   3   6
ENDBRANCH   1   2
BRANCH   1  23
ATOM     23  C   UNL A   1      32.890  29.519  24.748  1.00  0.00     0.042 C 
BRANCH  23  24
ATOM     24  C   UNL A   1      32.465  29.803  26.181  1.00  0.00     0.118 C 
BRANCH  24  25
ATOM     25  N   UNL A   1      32.314  31.225  26.461  1.00  0.00    -0.352 N 
ATOM     26  C   UNL A   1      33.131  32.032  27.226  1.00  0.00     0.251 C 
ATOM     27  H   UNL A   1      31.534  31.663  26.053  1.00  0.00     0.163 HD
ATOM     28  O   UNL A   1      32.800  33.178  27.495  1.00  0.00    -0.269 OA
BRANCH  26  29
ATOM     29  C   UNL A   1      34.399  31.471  27.739  1.00  0.00     0.039 A 
ATOM     30  C   UNL A   1      35.489  32.318  27.949  1.00  0.00     0.014 A 
ATOM     31  C   UNL A   1      34.471  30.121  28.090  1.00  0.00     0.014 A 
ATOM     32  C   UNL A   1      36.630  31.824  28.589  1.00  0.00     0.010 A 
ATOM     33  C   UNL A   1      35.566  29.660  28.809  1.00  0.00     0.010 A 
ATOM     34  C   UNL A   1      36.661  30.502  29.059  1.00  0.00    -0.014 A 
BRANCH  34  35
ATOM     35  C   UNL A   1      37.826  29.945  29.795  1.00  0.00     0.031 A 
ATOM     36  C   UNL A   1      38.102  30.424  31.197  1.00  0.00     0.074 A 
ATOM     37  C   UNL A   1      38.699  29.127  29.174  1.00  0.00     0.049 A 
ATOM     38  N   UNL A   1      39.148  30.217  31.951  1.00  0.00    -0.248 NA
ATOM     39  C   UNL A   1      37.080  31.287  31.817  1.00  0.00     0.031 C 
ATOM     40  C   UNL A   1      38.582  28.644  27.796  1.00  0.00     0.029 A 
ATOM     41  N   UNL A   1      39.884  28.586  29.611  1.00  0.00    -0.354 N 
ATOM     42  C   UNL A   1      38.944  30.976  33.097  1.00  0.00     0.074 A 
ATOM     43  C   UNL A   1      37.685  31.664  32.934  1.00  0.00     0.031 C 
ATOM     44  C   UNL A   1      39.650  27.883  27.502  1.00  0.00     0.029 A 
ATOM     45  C   UNL A   1      40.546  27.852  28.653  1.00  0.00     0.049 A 
ATOM     46  H   UNL A   1      40.228  28.712  30.525  1.00  0.00     0.167 HD
ATOM     47  C   UNL A   1      39.722  31.069  34.200  1.00  0.00     0.034 A 
ATOM     48  C   UNL A   1      41.746  27.236  28.696  1.00  0.00     0.034 A 
ATOM     49  C   UNL A   1      40.927  30.312  34.395  1.00  0.00     0.049 A 
ATOM     50  C   UNL A   1      42.553  27.298  29.966  1.00  0.00     0.074 A 
ATOM     51  C   UNL A   1      41.730  30.253  35.520  1.00  0.00     0.029 A 
ATOM     52  N   UNL A   1      41.495  29.478  33.447  1.00  0.00    -0.354 N 
ATOM     53  N   UNL A   1      42.270  27.902  31.094  1.00  0.00    -0.248 NA
ATOM     54  C   UNL A   1      43.828  26.563  29.985  1.00  0.00     0.031 C 
ATOM     55  C   UNL A   1      42.792  29.386  35.248  1.00  0.00     0.029 A 
ATOM     56  C   UNL A   1      42.638  28.893  33.962  1.00  0.00     0.049 A 
ATOM     57  H   UNL A   1      41.140  29.324  32.543  1.00  0.00     0.167 HD
ATOM     58  C   UNL A   1      43.301  27.578  31.970  1.00  0.00     0.074 A 
ATOM     59  C   UNL A   1      44.213  26.719  31.244  1.00  0.00     0.031 C 
ATOM     60  C   UNL A   1      43.482  27.967  33.255  1.00  0.00     0.034 A 
BRANCH  47  61
ATOM     61  C   UNL A   1      39.265  31.972  35.314  1.00  0.00     0.023 A 
ATOM     62  C   UNL A   1      38.384  31.476  36.295  1.00  0.00     0.012 A 
ATOM     63  C   UNL A   1      39.766  33.283  35.431  1.00  0.00     0.148 A 
ATOM     64  C   UNL A   1      37.983  32.280  37.361  1.00  0.00     0.002 A 
ATOM     65  C   UNL A   1      39.398  34.064  36.521  1.00  0.00     0.091 A 
ATOM     66  F   UNL A   1      40.586  33.743  34.476  1.00  0.00    -0.205 F 
ATOM     67  C   UNL A   1      38.500  33.568  37.480  1.00  0.00     0.022 A 
BRANCH  65  68
ATOM     68  S   UNL A   1      40.071  35.704  36.810  1.00  0.00     0.127 S 
ATOM     69  O   UNL A   1      39.581  36.433  35.642  1.00  0.00    -0.237 OA
ATOM     70  O   UNL A   1      39.435  36.078  38.074  1.00  0.00    -0.237 OA
ATOM     71  O   UNL A   1      41.515  35.539  36.882  1.00  0.00    -0.744 OA
ENDBRANCH  65  68
ENDBRANCH  47  61
BRANCH  48  72
ATOM     72  C   UNL A   1      42.228  26.443  27.528  1.00  0.00     0.023 A 
ATOM     73  C   UNL A   1      42.975  27.090  26.522  1.00  0.00     0.012 A 
ATOM     74  C   UNL A   1      41.962  25.066  27.403  1.00  0.00     0.148 A 
ATOM     75  C   UNL A   1      43.412  26.392  25.396  1.00  0.00     0.002 A 
ATOM     76  C   UNL A   1      42.448  24.364  26.304  1.00  0.00     0.091 A 
ATOM     77  F   UNL A   1      41.239  24.468  28.359  1.00  0.00    -0.205 F 
ATOM     78  C   UNL A   1      43.157  25.027  25.291  1.00  0.00     0.022 A 
BRANCH  76  79
ATOM     79  S   UNL A   1      42.275  22.582  26.154  1.00  0.00     0.127 S 
ATOM     80  O   UNL A   1      42.946  22.320  24.884  1.00  0.00    -0.237 OA
ATOM     81  O   UNL A   1      42.988  22.103  27.339  1.00  0.00    -0.237 OA
ATOM     82  O   UNL A   1      40.840  22.330  26.182  1.00  0.00    -0.744 OA
ENDBRANCH  76  79
ENDBRANCH  48  72
BRANCH  60  83
ATOM     83  C   UNL A   1      44.664  27.415  34.004  1.00  0.00     0.023 A 
ATOM     84  C   UNL A   1      45.868  28.140  34.052  1.00  0.00     0.012 A 
ATOM     85  C   UNL A   1      44.531  26.235  34.764  1.00  0.00     0.148 A 
ATOM     86  C   UNL A   1      46.933  27.690  34.833  1.00  0.00     0.002 A 
ATOM     87  C   UNL A   1      45.578  25.819  35.576  1.00  0.00     0.091 A 
ATOM     88  F   UNL A   1      43.379  25.553  34.688  1.00  0.00    -0.205 F 
ATOM     89  C   UNL A   1      46.783  26.540  35.604  1.00  0.00     0.022 A 
BRANCH  87  90
ATOM     90  S   UNL A   1      45.436  24.410  36.682  1.00  0.00     0.127 S 
ATOM     91  O   UNL A   1      46.611  24.582  37.534  1.00  0.00    -0.237 OA
ATOM     92  O   UNL A   1      44.158  24.665  37.346  1.00  0.00    -0.237 OA
ATOM     93  O   UNL A   1      45.449  23.228  35.830  1.00  0.00    -0.744 OA
ENDBRANCH  87  90
ENDBRANCH  60  83
ENDBRANCH  34  35
ENDBRANCH  26  29
ENDBRANCH  24  25
ENDBRANCH  23  24
ENDBRANCH   1  23
TORSDOF 18
ENDMDL
MODEL 3
REMARK VINA RESULT:     -10.8      5.130      8.119
REMARK SMILES CCC[NH+]1CCC([NH2+]CC(C)(C)C(=O)NCCCNC(=O)c2ccc(-c3c4nc(c(-c5cccc(S(=O)(=O)[O-])c5F)c5ccc([nH]5)c(-c5cccc(S(=O)(=O)[O-])c5F)c5nc(c(-c6cccc(S(=O)(=O)[O-])c6F)c6ccc3[nH]6)C=C5)C=C4)cc2)CC1
REMARK SMILES IDX 16 1 15 2 13 3 14 4 10 6 11 7 12 8 9 9 8 10 7 13 4 14 5 15
REMARK SMILES IDX 86 16 6 18 85 19 3 20 2 21 1 22 17 23 18 24 19 25 20 26
REMARK SMILES IDX 21 28 22 29 23 30 84 31 24 32 83 33 25 34 26 35 27 36 77 37
REMARK SMILES IDX 28 38 82 39 76 40 78 41 29 42 81 43 75 44 74 45 30 47 62 48
REMARK SMILES IDX 42 49 61 50 43 51 46 52 60 53 79 54 44 55 45 56 59 58 80 59
REMARK SMILES IDX 47 60 31 61 32 62 40 63 33 64 35 65 41 66 34 67 36 68 37 69
REMARK SMILES IDX 38 70 39 71 63 72 64 73 72 74 65 75 67 76 73 77 66 78 68 79
REMARK SMILES IDX 69 80 70 81 71 82 48 83 49 84 57 85 50 86 52 87 58 88 51 89
REMARK SMILES IDX 53 90 54 91 55 92 56 93
REMARK H PARENT 15 5 8 11 8 12 4 17 19 27 78 46 46 57
REMARK Flexibility Score: inf
ROOT
ATOM      1  C   UNL A   1      34.698  21.852  24.249  1.00  0.00     0.117 C 
ENDROOT
BRANCH   1   2
ATOM      2  N   UNL A   1      33.368  21.351  24.517  1.00  0.00    -0.355 N 
ATOM      3  C   UNL A   1      32.276  21.878  25.107  1.00  0.00     0.231 C 
ATOM      4  O   UNL A   1      31.401  21.044  25.366  1.00  0.00    -0.274 OA
ATOM      5  H   UNL A   1      33.230  20.428  24.203  1.00  0.00     0.163 HD
BRANCH   3   6
ATOM      6  C   UNL A   1      32.123  23.356  25.518  1.00  0.00     0.092 C 
ATOM      7  C   UNL A   1      33.135  23.979  26.496  1.00  0.00     0.027 C 
ATOM      8  C   UNL A   1      30.726  23.421  26.175  1.00  0.00     0.027 C 
BRANCH   6   9
ATOM      9  C   UNL A   1      32.120  24.223  24.206  1.00  0.00     0.277 C 
BRANCH   9  10
ATOM     10  N   UNL A   1      32.867  25.506  24.177  1.00  0.00    -0.343 N 
ATOM     11  H   UNL A   1      33.322  25.627  25.082  1.00  0.00     0.346 HD
ATOM     12  H   UNL A   1      33.522  25.436  23.399  1.00  0.00     0.346 HD
BRANCH  10  13
ATOM     13  C   UNL A   1      32.045  26.699  23.917  1.00  0.00     0.193 C 
ATOM     14  N   UNL A   1      30.533  28.577  22.224  1.00  0.00    -0.335 N 
ATOM     15  C   UNL A   1      31.884  28.909  22.713  1.00  0.00     0.268 C 
ATOM     16  C   UNL A   1      29.864  27.634  23.127  1.00  0.00     0.268 C 
ATOM     17  H   UNL A   1      30.665  28.152  21.306  1.00  0.00     0.348 HD
ATOM     18  C   UNL A   1      32.753  27.659  22.953  1.00  0.00     0.126 C 
ATOM     19  C   UNL A   1      30.691  26.366  23.278  1.00  0.00     0.126 C 
BRANCH  14  20
ATOM     20  C   UNL A   1      29.676  29.766  22.064  1.00  0.00     0.261 C 
BRANCH  20  21
ATOM     21  C   UNL A   1      29.221  30.406  23.379  1.00  0.00     0.058 C 
ATOM     22  C   UNL A   1      27.750  30.797  23.374  1.00  0.00     0.010 C 
ENDBRANCH  20  21
ENDBRANCH  14  20
ENDBRANCH  10  13
ENDBRANCH   9  10
ENDBRANCH   6   9
ENDBRANCH   3   6
ENDBRANCH   1   2
BRANCH   1  23
ATOM     23  C   UNL A   1      35.687  21.366  25.298  1.00  0.00     0.042 C 
BRANCH  23  24
ATOM     24  C   UNL A   1      37.142  21.680  24.984  1.00  0.00     0.118 C 
BRANCH  24  25
ATOM     25  N   UNL A   1      38.053  20.611  25.372  1.00  0.00    -0.352 N 
ATOM     26  C   UNL A   1      39.274  20.722  26.003  1.00  0.00     0.251 C 
ATOM     27  H   UNL A   1      37.759  19.697  25.157  1.00  0.00     0.163 HD
ATOM     28  O   UNL A   1      39.999  19.746  26.135  1.00  0.00    -0.269 OA
BRANCH  26  29
ATOM     29  C   UNL A   1      39.701  22.052  26.489  1.00  0.00     0.039 A 
ATOM     30  C   UNL A   1      40.800  22.150  27.344  1.00  0.00     0.014 A 
ATOM     31  C   UNL A   1      39.058  23.201  26.024  1.00  0.00     0.014 A 
ATOM     32  C   UNL A   1      41.307  23.411  27.669  1.00  0.00     0.010 A 
ATOM     33  C   UNL A   1      39.621  24.446  26.272  1.00  0.00     0.010 A 
ATOM     34  C   UNL A   1      40.746  24.567  27.104  1.00  0.00    -0.014 A 
BRANCH  34  35
ATOM     35  C   UNL A   1      41.282  25.927  27.373  1.00  0.00     0.031 A 
ATOM     36  C   UNL A   1      42.673  26.269  26.906  1.00  0.00     0.074 A 
ATOM     37  C   UNL A   1      40.590  26.796  28.136  1.00  0.00     0.049 A 
ATOM     38  N   UNL A   1      43.405  27.315  27.183  1.00  0.00    -0.248 NA
ATOM     39  C   UNL A   1      43.347  25.280  26.045  1.00  0.00     0.031 C 
ATOM     40  C   UNL A   1      39.262  26.559  28.706  1.00  0.00     0.029 A 
ATOM     41  N   UNL A   1      40.928  28.045  28.600  1.00  0.00    -0.354 N 
ATOM     42  C   UNL A   1      44.641  27.079  26.594  1.00  0.00     0.074 A 
ATOM     43  C   UNL A   1      44.570  25.782  25.960  1.00  0.00     0.031 C 
ATOM     44  C   UNL A   1      38.900  27.624  29.442  1.00  0.00     0.029 A 
ATOM     45  C   UNL A   1      39.982  28.603  29.429  1.00  0.00     0.049 A 
ATOM     46  H   UNL A   1      41.768  28.498  28.361  1.00  0.00     0.167 HD
ATOM     47  C   UNL A   1      45.729  27.881  26.559  1.00  0.00     0.034 A 
ATOM     48  C   UNL A   1      39.993  29.767  30.112  1.00  0.00     0.034 A 
ATOM     49  C   UNL A   1      45.764  29.206  27.112  1.00  0.00     0.049 A 
ATOM     50  C   UNL A   1      41.191  30.673  29.990  1.00  0.00     0.074 A 
ATOM     51  C   UNL A   1      46.780  30.141  27.035  1.00  0.00     0.029 A 
ATOM     52  N   UNL A   1      44.735  29.786  27.834  1.00  0.00    -0.354 N 
ATOM     53  N   UNL A   1      42.294  30.493  29.305  1.00  0.00    -0.248 NA
ATOM     54  C   UNL A   1      41.134  31.957  30.706  1.00  0.00     0.031 C 
ATOM     55  C   UNL A   1      46.368  31.287  27.722  1.00  0.00     0.029 A 
ATOM     56  C   UNL A   1      45.087  31.070  28.207  1.00  0.00     0.049 A 
ATOM     57  H   UNL A   1      43.880  29.349  28.050  1.00  0.00     0.167 HD
ATOM     58  C   UNL A   1      43.035  31.660  29.463  1.00  0.00     0.074 A 
ATOM     59  C   UNL A   1      42.255  32.542  30.305  1.00  0.00     0.031 C 
ATOM     60  C   UNL A   1      44.257  31.967  28.966  1.00  0.00     0.034 A 
BRANCH  47  61
ATOM     61  C   UNL A   1      46.955  27.380  25.844  1.00  0.00     0.023 A 
ATOM     62  C   UNL A   1      47.829  26.490  26.500  1.00  0.00     0.012 A 
ATOM     63  C   UNL A   1      47.200  27.728  24.501  1.00  0.00     0.148 A 
ATOM     64  C   UNL A   1      48.946  25.977  25.841  1.00  0.00     0.002 A 
ATOM     65  C   UNL A   1      48.289  27.175  23.837  1.00  0.00     0.091 A 
ATOM     66  F   UNL A   1      46.368  28.591  23.902  1.00  0.00    -0.205 F 
ATOM     67  C   UNL A   1      49.168  26.310  24.507  1.00  0.00     0.022 A 
BRANCH  65  68
ATOM     68  S   UNL A   1      48.616  27.476  22.096  1.00  0.00     0.127 S 
ATOM     69  O   UNL A   1      49.806  28.322  22.161  1.00  0.00    -0.237 OA
ATOM     70  O   UNL A   1      48.856  26.123  21.591  1.00  0.00    -0.237 OA
ATOM     71  O   UNL A   1      47.422  28.118  21.567  1.00  0.00    -0.744 OA
ENDBRANCH  65  68
ENDBRANCH  47  61
BRANCH  48  72
ATOM     72  C   UNL A   1      38.804  30.184  30.911  1.00  0.00     0.023 A 
ATOM     73  C   UNL A   1      38.702  29.766  32.254  1.00  0.00     0.012 A 
ATOM     74  C   UNL A   1      37.785  30.986  30.365  1.00  0.00     0.148 A 
ATOM     75  C   UNL A   1      37.589  30.104  33.024  1.00  0.00     0.002 A 
ATOM     76  C   UNL A   1      36.703  31.364  31.155  1.00  0.00     0.091 A 
ATOM     77  F   UNL A   1      37.889  31.364  29.083  1.00  0.00    -0.205 F 
ATOM     78  C   UNL A   1      36.594  30.911  32.478  1.00  0.00     0.022 A 
BRANCH  76  79
ATOM     79  S   UNL A   1      35.444  32.505  30.570  1.00  0.00     0.127 S 
ATOM     80  O   UNL A   1      36.196  33.751  30.459  1.00  0.00    -0.237 OA
ATOM     81  O   UNL A   1      35.053  31.904  29.295  1.00  0.00    -0.237 OA
ATOM     82  O   UNL A   1      34.398  32.478  31.585  1.00  0.00    -0.744 OA
ENDBRANCH  76  79
ENDBRANCH  48  72
BRANCH  60  83
ATOM     83  C   UNL A   1      44.812  33.338  29.241  1.00  0.00     0.023 A 
ATOM     84  C   UNL A   1      45.473  33.600  30.454  1.00  0.00     0.012 A 
ATOM     85  C   UNL A   1      44.783  34.327  28.236  1.00  0.00     0.148 A 
ATOM     86  C   UNL A   1      46.085  34.834  30.672  1.00  0.00     0.002 A 
ATOM     87  C   UNL A   1      45.434  35.535  28.442  1.00  0.00     0.091 A 
ATOM     88  F   UNL A   1      44.130  34.059  27.095  1.00  0.00    -0.205 F 
ATOM     89  C   UNL A   1      46.078  35.794  29.663  1.00  0.00     0.022 A 
BRANCH  87  90
ATOM     90  S   UNL A   1      45.565  36.788  27.161  1.00  0.00     0.127 S 
ATOM     91  O   UNL A   1      44.181  37.243  27.047  1.00  0.00    -0.237 OA
ATOM     92  O   UNL A   1      46.478  37.757  27.767  1.00  0.00    -0.237 OA
ATOM     93  O   UNL A   1      46.098  36.108  25.988  1.00  0.00    -0.744 OA
ENDBRANCH  87  90
ENDBRANCH  60  83
ENDBRANCH  34  35
ENDBRANCH  26  29
ENDBRANCH  24  25
ENDBRANCH  23  24
ENDBRANCH   1  23
TORSDOF 18
ENDMDL
