MODEL 1
REMARK VINA RESULT:     -12.7      0.000      0.000
REMARK SMILES Cc1cc(F)cc(N[C@H](C(=O)NCCCNC(=O)c2ccc(-c3c4nc(c(-c5cccc(S(=O)(=O)[O-])c5F)c5ccc([nH]5)c(-c5cccc(S(=O)(=O)[O-])c5F)c5nc(c(-c6cccc(S(=O)(=O)[O-])c6F)c6ccc3[nH]6)C=C5)C=C4)cc2)c2cc(C)cc(C)c2)c1
REMARK SMILES IDX 14 1 13 2 12 3 10 4 11 5 9 7 8 8 7 10 1 11 2 12 3 13 90 14
REMARK SMILES IDX 4 15 5 16 6 17 82 18 83 19 89 20 84 21 87 22 85 23 86 24
REMARK SMILES IDX 88 25 15 26 16 27 17 28 18 30 19 31 20 32 81 33 21 34 80 35
REMARK SMILES IDX 22 36 23 37 24 38 74 39 25 40 79 41 73 42 75 43 26 44 78 45
REMARK SMILES IDX 72 46 71 47 27 49 59 50 39 51 58 52 40 53 43 54 57 55 76 56
REMARK SMILES IDX 41 57 42 58 56 60 77 61 44 62 28 63 29 64 37 65 30 66 32 67
REMARK SMILES IDX 38 68 31 69 33 70 34 71 35 72 36 73 60 74 61 75 69 76 62 77
REMARK SMILES IDX 64 78 70 79 63 80 65 81 66 82 67 83 68 84 45 85 46 86 54 87
REMARK SMILES IDX 47 88 49 89 55 90 48 91 50 92 51 93 52 94 53 95
REMARK H PARENT 12 6 8 9 16 29 75 48 43 59
REMARK Flexibility Score: inf
ROOT
ATOM      1  C   UNL A   1      32.378  29.729  25.180  1.00  0.00     0.042 C 
ENDROOT
BRANCH   1   2
ATOM      2  C   UNL A   1      33.791  29.207  25.008  1.00  0.00     0.117 C 
BRANCH   2   3
ATOM      3  N   UNL A   1      34.131  28.888  23.637  1.00  0.00    -0.354 N 
ATOM      4  C   UNL A   1      33.649  27.905  22.821  1.00  0.00     0.247 C 
ATOM      5  O   UNL A   1      34.080  27.932  21.660  1.00  0.00    -0.272 OA
ATOM      6  H   UNL A   1      34.813  29.469  23.231  1.00  0.00     0.163 HD
BRANCH   4   7
ATOM      7  C   UNL A   1      32.732  26.753  23.328  1.00  0.00     0.200 C 
BRANCH   7   8
ATOM      8  N   UNL A   1      31.402  26.632  22.678  1.00  0.00    -0.370 N 
ATOM      9  H   UNL A   1      31.365  25.954  21.966  1.00  0.00     0.161 HD
BRANCH   8  10
ATOM     10  C   UNL A   1      30.207  27.292  22.885  1.00  0.00     0.038 A 
ATOM     11  C   UNL A   1      28.687  30.665  21.840  1.00  0.00     0.044 C 
ATOM     12  C   UNL A   1      28.840  29.305  22.450  1.00  0.00    -0.046 A 
ATOM     13  C   UNL A   1      27.763  28.736  23.127  1.00  0.00     0.042 A 
ATOM     14  C   UNL A   1      30.055  28.594  22.367  1.00  0.00     0.029 A 
ATOM     15  C   UNL A   1      27.896  27.464  23.643  1.00  0.00     0.125 A 
ATOM     16  F   UNL A   1      26.868  26.897  24.290  1.00  0.00    -0.207 F 
ATOM     17  C   UNL A   1      29.081  26.749  23.492  1.00  0.00     0.065 A 
ENDBRANCH   8  10
ENDBRANCH   7   8
BRANCH   7  18
ATOM     18  C   UNL A   1      33.409  25.387  23.421  1.00  0.00    -0.016 A 
ATOM     19  C   UNL A   1      32.929  24.302  22.678  1.00  0.00     0.009 A 
ATOM     20  C   UNL A   1      34.401  25.146  24.382  1.00  0.00     0.009 A 
ATOM     21  C   UNL A   1      33.186  22.991  23.080  1.00  0.00    -0.051 A 
ATOM     22  C   UNL A   1      34.818  23.839  24.666  1.00  0.00    -0.051 A 
ATOM     23  C   UNL A   1      32.264  21.897  22.627  1.00  0.00     0.044 C 
ATOM     24  C   UNL A   1      34.149  22.765  24.064  1.00  0.00     0.006 A 
ATOM     25  C   UNL A   1      35.879  23.578  25.691  1.00  0.00     0.044 C 
ENDBRANCH   7  18
ENDBRANCH   4   7
ENDBRANCH   2   3
ENDBRANCH   1   2
BRANCH   1  26
ATOM     26  C   UNL A   1      32.031  30.159  26.595  1.00  0.00     0.118 C 
BRANCH  26  27
ATOM     27  N   UNL A   1      32.037  31.605  26.782  1.00  0.00    -0.352 N 
ATOM     28  C   UNL A   1      32.948  32.409  27.427  1.00  0.00     0.251 C 
ATOM     29  H   UNL A   1      31.272  32.079  26.384  1.00  0.00     0.163 HD
ATOM     30  O   UNL A   1      32.699  33.600  27.601  1.00  0.00    -0.269 OA
BRANCH  28  31
ATOM     31  C   UNL A   1      34.207  31.834  27.948  1.00  0.00     0.039 A 
ATOM     32  C   UNL A   1      35.320  32.662  28.113  1.00  0.00     0.014 A 
ATOM     33  C   UNL A   1      34.284  30.486  28.302  1.00  0.00     0.014 A 
ATOM     34  C   UNL A   1      36.475  32.159  28.718  1.00  0.00     0.010 A 
ATOM     35  C   UNL A   1      35.383  30.022  29.013  1.00  0.00     0.010 A 
ATOM     36  C   UNL A   1      36.499  30.846  29.219  1.00  0.00    -0.014 A 
BRANCH  36  37
ATOM     37  C   UNL A   1      37.674  30.307  29.954  1.00  0.00     0.031 A 
ATOM     38  C   UNL A   1      37.946  30.753  31.368  1.00  0.00     0.074 A 
ATOM     39  C   UNL A   1      38.551  29.501  29.319  1.00  0.00     0.049 A 
ATOM     40  N   UNL A   1      38.959  30.463  32.142  1.00  0.00    -0.248 NA
ATOM     41  C   UNL A   1      36.973  31.673  31.982  1.00  0.00     0.031 C 
ATOM     42  C   UNL A   1      38.448  29.063  27.924  1.00  0.00     0.029 A 
ATOM     43  N   UNL A   1      39.719  28.926  29.756  1.00  0.00    -0.354 N 
ATOM     44  C   UNL A   1      38.774  31.206  33.303  1.00  0.00     0.074 A 
ATOM     45  C   UNL A   1      37.569  31.982  33.124  1.00  0.00     0.031 C 
ATOM     46  C   UNL A   1      39.497  28.279  27.627  1.00  0.00     0.029 A 
ATOM     47  C   UNL A   1      40.369  28.187  28.793  1.00  0.00     0.049 A 
ATOM     48  H   UNL A   1      40.060  29.031  30.674  1.00  0.00     0.167 HD
ATOM     49  C   UNL A   1      39.524  31.219  34.430  1.00  0.00     0.034 A 
ATOM     50  C   UNL A   1      41.538  27.519  28.842  1.00  0.00     0.034 A 
ATOM     51  C   UNL A   1      40.679  30.391  34.634  1.00  0.00     0.049 A 
ATOM     52  C   UNL A   1      42.318  27.509  30.131  1.00  0.00     0.074 A 
ATOM     53  C   UNL A   1      41.434  30.239  35.783  1.00  0.00     0.029 A 
ATOM     54  N   UNL A   1      41.254  29.583  33.667  1.00  0.00    -0.354 N 
ATOM     55  N   UNL A   1      42.028  28.075  31.276  1.00  0.00    -0.248 NA
ATOM     56  C   UNL A   1      43.572  26.739  30.144  1.00  0.00     0.031 C 
ATOM     57  C   UNL A   1      42.485  29.363  35.500  1.00  0.00     0.029 A 
ATOM     58  C   UNL A   1      42.363  28.943  34.186  1.00  0.00     0.049 A 
ATOM     59  H   UNL A   1      40.921  29.480  32.745  1.00  0.00     0.167 HD
ATOM     60  C   UNL A   1      43.034  27.693  32.157  1.00  0.00     0.074 A 
ATOM     61  C   UNL A   1      43.931  26.831  31.416  1.00  0.00     0.031 C 
ATOM     62  C   UNL A   1      43.209  28.035  33.457  1.00  0.00     0.034 A 
BRANCH  49  63
ATOM     63  C   UNL A   1      39.095  32.119  35.558  1.00  0.00     0.023 A 
ATOM     64  C   UNL A   1      38.219  31.634  36.550  1.00  0.00     0.012 A 
ATOM     65  C   UNL A   1      39.633  33.416  35.684  1.00  0.00     0.148 A 
ATOM     66  C   UNL A   1      37.863  32.434  37.635  1.00  0.00     0.002 A 
ATOM     67  C   UNL A   1      39.312  34.189  36.793  1.00  0.00     0.091 A 
ATOM     68  F   UNL A   1      40.448  33.865  34.719  1.00  0.00    -0.205 F 
ATOM     69  C   UNL A   1      38.419  33.704  37.763  1.00  0.00     0.022 A 
BRANCH  67  70
ATOM     70  S   UNL A   1      40.040  35.802  37.096  1.00  0.00     0.127 S 
ATOM     71  O   UNL A   1      39.655  36.531  35.889  1.00  0.00    -0.237 OA
ATOM     72  O   UNL A   1      39.346  36.226  38.312  1.00  0.00    -0.237 OA
ATOM     73  O   UNL A   1      41.469  35.577  37.255  1.00  0.00    -0.744 OA
ENDBRANCH  67  70
ENDBRANCH  49  63
BRANCH  50  74
ATOM     74  C   UNL A   1      42.022  26.747  27.661  1.00  0.00     0.023 A 
ATOM     75  C   UNL A   1      42.716  27.421  26.635  1.00  0.00     0.012 A 
ATOM     76  C   UNL A   1      41.794  25.364  27.535  1.00  0.00     0.148 A 
ATOM     77  C   UNL A   1      43.130  26.743  25.488  1.00  0.00     0.002 A 
ATOM     78  C   UNL A   1      42.261  24.683  26.416  1.00  0.00     0.091 A 
ATOM     79  F   UNL A   1      41.122  24.739  28.513  1.00  0.00    -0.205 F 
ATOM     80  C   UNL A   1      42.909  25.374  25.381  1.00  0.00     0.022 A 
BRANCH  78  81
ATOM     81  S   UNL A   1      42.136  22.898  26.259  1.00  0.00     0.127 S 
ATOM     82  O   UNL A   1      42.915  22.440  27.406  1.00  0.00    -0.237 OA
ATOM     83  O   UNL A   1      40.692  22.683  26.370  1.00  0.00    -0.237 OA
ATOM     84  O   UNL A   1      42.687  22.582  24.948  1.00  0.00    -0.744 OA
ENDBRANCH  78  81
ENDBRANCH  50  74
BRANCH  62  85
ATOM     85  C   UNL A   1      44.379  27.436  34.189  1.00  0.00     0.023 A 
ATOM     86  C   UNL A   1      45.620  28.102  34.199  1.00  0.00     0.012 A 
ATOM     87  C   UNL A   1      44.221  26.254  34.938  1.00  0.00     0.148 A 
ATOM     88  C   UNL A   1      46.698  27.581  34.915  1.00  0.00     0.002 A 
ATOM     89  C   UNL A   1      45.283  25.770  35.693  1.00  0.00     0.091 A 
ATOM     90  F   UNL A   1      43.037  25.627  34.903  1.00  0.00    -0.205 F 
ATOM     91  C   UNL A   1      46.525  26.423  35.671  1.00  0.00     0.022 A 
BRANCH  89  92
ATOM     92  S   UNL A   1      45.122  24.347  36.778  1.00  0.00     0.127 S 
ATOM     93  O   UNL A   1      44.823  23.279  35.826  1.00  0.00    -0.237 OA
ATOM     94  O   UNL A   1      46.450  24.269  37.386  1.00  0.00    -0.237 OA
ATOM     95  O   UNL A   1      44.049  24.671  37.710  1.00  0.00    -0.744 OA
ENDBRANCH  89  92
ENDBRANCH  62  85
ENDBRANCH  36  37
ENDBRANCH  28  31
ENDBRANCH  26  27
ENDBRANCH   1  26
TORSDOF 16
ENDMDL
MODEL 2
REMARK VINA RESULT:     -12.6      1.671      3.470
REMARK SMILES Cc1cc(F)cc(N[C@H](C(=O)NCCCNC(=O)c2ccc(-c3c4nc(c(-c5cccc(S(=O)(=O)[O-])c5F)c5ccc([nH]5)c(-c5cccc(S(=O)(=O)[O-])c5F)c5nc(c(-c6cccc(S(=O)(=O)[O-])c6F)c6ccc3[nH]6)C=C5)C=C4)cc2)c2cc(C)cc(C)c2)c1
REMARK SMILES IDX 14 1 13 2 12 3 10 4 11 5 9 7 8 8 7 10 1 11 2 12 3 13 90 14
REMARK SMILES IDX 4 15 5 16 6 17 82 18 83 19 89 20 84 21 87 22 85 23 86 24
REMARK SMILES IDX 88 25 15 26 16 27 17 28 18 30 19 31 20 32 81 33 21 34 80 35
REMARK SMILES IDX 22 36 23 37 24 38 74 39 25 40 79 41 73 42 75 43 26 44 78 45
REMARK SMILES IDX 72 46 71 47 27 49 59 50 39 51 58 52 40 53 43 54 57 55 76 56
REMARK SMILES IDX 41 57 42 58 56 60 77 61 44 62 28 63 29 64 37 65 30 66 32 67
REMARK SMILES IDX 38 68 31 69 33 70 34 71 35 72 36 73 60 74 61 75 69 76 62 77
REMARK SMILES IDX 64 78 70 79 63 80 65 81 66 82 67 83 68 84 45 85 46 86 54 87
REMARK SMILES IDX 47 88 49 89 55 90 48 91 50 92 51 93 52 94 53 95
REMARK H PARENT 12 6 8 9 16 29 75 48 43 59
REMARK Flexibility Score: inf
ROOT
ATOM      1  C   UNL A   1      31.722  28.843  26.593  1.00  0.00     0.042 C 
ENDROOT
BRANCH   1   2
ATOM      2  C   UNL A   1      32.343  27.495  26.901  1.00  0.00     0.117 C 
BRANCH   2   3
ATOM      3  N   UNL A   1      31.375  26.425  27.036  1.00  0.00    -0.354 N 
ATOM      4  C   UNL A   1      31.230  25.280  26.308  1.00  0.00     0.247 C 
ATOM      5  O   UNL A   1      30.348  24.510  26.715  1.00  0.00    -0.272 OA
ATOM      6  H   UNL A   1      30.723  26.542  27.763  1.00  0.00     0.163 HD
BRANCH   4   7
ATOM      7  C   UNL A   1      32.011  25.006  24.988  1.00  0.00     0.200 C 
BRANCH   7   8
ATOM      8  N   UNL A   1      31.825  23.664  24.377  1.00  0.00    -0.370 N 
ATOM      9  H   UNL A   1      31.030  23.594  23.801  1.00  0.00     0.161 HD
BRANCH   8  10
ATOM     10  C   UNL A   1      32.558  22.498  24.465  1.00  0.00     0.038 A 
ATOM     11  C   UNL A   1      36.283  21.575  24.689  1.00  0.00     0.044 C 
ATOM     12  C   UNL A   1      34.790  21.452  24.640  1.00  0.00    -0.046 A 
ATOM     13  C   UNL A   1      34.206  20.192  24.760  1.00  0.00     0.042 A 
ATOM     14  C   UNL A   1      33.965  22.581  24.460  1.00  0.00     0.029 A 
ATOM     15  C   UNL A   1      32.831  20.094  24.764  1.00  0.00     0.125 A 
ATOM     16  F   UNL A   1      32.250  18.892  24.887  1.00  0.00    -0.207 F 
ATOM     17  C   UNL A   1      32.029  21.226  24.654  1.00  0.00     0.065 A 
ENDBRANCH   8  10
ENDBRANCH   7   8
BRANCH   7  18
ATOM     18  C   UNL A   1      31.885  26.098  23.928  1.00  0.00    -0.016 A 
ATOM     19  C   UNL A   1      33.024  26.626  23.310  1.00  0.00     0.009 A 
ATOM     20  C   UNL A   1      30.651  26.720  23.688  1.00  0.00     0.009 A 
ATOM     21  C   UNL A   1      33.000  27.896  22.733  1.00  0.00    -0.051 A 
ATOM     22  C   UNL A   1      30.582  27.902  22.939  1.00  0.00    -0.051 A 
ATOM     23  C   UNL A   1      34.291  28.645  22.569  1.00  0.00     0.044 C 
ATOM     24  C   UNL A   1      31.770  28.522  22.532  1.00  0.00     0.006 A 
ATOM     25  C   UNL A   1      29.265  28.569  22.679  1.00  0.00     0.044 C 
ENDBRANCH   7  18
ENDBRANCH   4   7
ENDBRANCH   2   3
ENDBRANCH   1   2
BRANCH   1  26
ATOM     26  C   UNL A   1      32.652  29.824  25.901  1.00  0.00     0.118 C 
BRANCH  26  27
ATOM     27  N   UNL A   1      32.467  31.204  26.330  1.00  0.00    -0.352 N 
ATOM     28  C   UNL A   1      33.214  31.970  27.195  1.00  0.00     0.251 C 
ATOM     29  H   UNL A   1      31.686  31.660  25.940  1.00  0.00     0.163 HD
ATOM     30  O   UNL A   1      32.809  33.077  27.541  1.00  0.00    -0.269 OA
BRANCH  28  31
ATOM     31  C   UNL A   1      34.486  31.445  27.740  1.00  0.00     0.039 A 
ATOM     32  C   UNL A   1      35.538  32.328  27.994  1.00  0.00     0.014 A 
ATOM     33  C   UNL A   1      34.631  30.088  28.032  1.00  0.00     0.014 A 
ATOM     34  C   UNL A   1      36.696  31.864  28.623  1.00  0.00     0.010 A 
ATOM     35  C   UNL A   1      35.728  29.654  28.766  1.00  0.00     0.010 A 
ATOM     36  C   UNL A   1      36.781  30.532  29.060  1.00  0.00    -0.014 A 
BRANCH  36  37
ATOM     37  C   UNL A   1      37.957  30.026  29.817  1.00  0.00     0.031 A 
ATOM     38  C   UNL A   1      38.201  30.496  31.228  1.00  0.00     0.074 A 
ATOM     39  C   UNL A   1      38.859  29.231  29.204  1.00  0.00     0.049 A 
ATOM     40  N   UNL A   1      39.209  30.238  32.020  1.00  0.00    -0.248 NA
ATOM     41  C   UNL A   1      37.200  31.404  31.818  1.00  0.00     0.031 C 
ATOM     42  C   UNL A   1      38.784  28.773  27.814  1.00  0.00     0.029 A 
ATOM     43  N   UNL A   1      40.032  28.686  29.665  1.00  0.00    -0.354 N 
ATOM     44  C   UNL A   1      38.993  30.991  33.168  1.00  0.00     0.074 A 
ATOM     45  C   UNL A   1      37.775  31.740  32.963  1.00  0.00     0.031 C 
ATOM     46  C   UNL A   1      39.853  28.007  27.541  1.00  0.00     0.029 A 
ATOM     47  C   UNL A   1      40.711  27.948  28.720  1.00  0.00     0.049 A 
ATOM     48  H   UNL A   1      40.359  28.810  30.585  1.00  0.00     0.167 HD
ATOM     49  C   UNL A   1      39.727  31.035  34.304  1.00  0.00     0.034 A 
ATOM     50  C   UNL A   1      41.893  27.305  28.794  1.00  0.00     0.034 A 
ATOM     51  C   UNL A   1      40.897  30.234  34.535  1.00  0.00     0.049 A 
ATOM     52  C   UNL A   1      42.655  27.328  30.093  1.00  0.00     0.074 A 
ATOM     53  C   UNL A   1      41.638  30.112  35.696  1.00  0.00     0.029 A 
ATOM     54  N   UNL A   1      41.500  29.425  33.586  1.00  0.00    -0.354 N 
ATOM     55  N   UNL A   1      42.338  27.903  31.226  1.00  0.00    -0.248 NA
ATOM     56  C   UNL A   1      43.924  26.585  30.133  1.00  0.00     0.031 C 
ATOM     57  C   UNL A   1      42.711  29.254  35.439  1.00  0.00     0.029 A 
ATOM     58  C   UNL A   1      42.616  28.815  34.129  1.00  0.00     0.049 A 
ATOM     59  H   UNL A   1      41.183  29.304  32.662  1.00  0.00     0.167 HD
ATOM     60  C   UNL A   1      43.340  27.554  32.125  1.00  0.00     0.074 A 
ATOM     61  C   UNL A   1      44.265  26.700  31.408  1.00  0.00     0.031 C 
ATOM     62  C   UNL A   1      43.489  27.916  33.422  1.00  0.00     0.034 A 
BRANCH  49  63
ATOM     63  C   UNL A   1      39.265  31.940  35.415  1.00  0.00     0.023 A 
ATOM     64  C   UNL A   1      38.394  31.447  36.408  1.00  0.00     0.012 A 
ATOM     65  C   UNL A   1      39.765  33.254  35.524  1.00  0.00     0.148 A 
ATOM     66  C   UNL A   1      38.007  32.254  37.477  1.00  0.00     0.002 A 
ATOM     67  C   UNL A   1      39.414  34.035  36.618  1.00  0.00     0.091 A 
ATOM     68  F   UNL A   1      40.576  33.710  34.559  1.00  0.00    -0.205 F 
ATOM     69  C   UNL A   1      38.527  33.541  37.589  1.00  0.00     0.022 A 
BRANCH  67  70
ATOM     70  S   UNL A   1      40.095  35.672  36.901  1.00  0.00     0.127 S 
ATOM     71  O   UNL A   1      39.616  36.398  35.726  1.00  0.00    -0.237 OA
ATOM     72  O   UNL A   1      39.454  36.056  38.159  1.00  0.00    -0.237 OA
ATOM     73  O   UNL A   1      41.539  35.501  36.979  1.00  0.00    -0.744 OA
ENDBRANCH  67  70
ENDBRANCH  49  63
BRANCH  50  74
ATOM     74  C   UNL A   1      42.408  26.529  27.629  1.00  0.00     0.023 A 
ATOM     75  C   UNL A   1      43.210  27.179  26.668  1.00  0.00     0.012 A 
ATOM     76  C   UNL A   1      42.106  25.165  27.455  1.00  0.00     0.148 A 
ATOM     77  C   UNL A   1      43.659  26.499  25.535  1.00  0.00     0.002 A 
ATOM     78  C   UNL A   1      42.606  24.478  26.354  1.00  0.00     0.091 A 
ATOM     79  F   UNL A   1      41.332  24.563  28.371  1.00  0.00    -0.205 F 
ATOM     80  C   UNL A   1      43.364  25.148  25.381  1.00  0.00     0.022 A 
BRANCH  78  81
ATOM     81  S   UNL A   1      42.384  22.708  26.146  1.00  0.00     0.127 S 
ATOM     82  O   UNL A   1      43.090  22.178  27.310  1.00  0.00    -0.237 OA
ATOM     83  O   UNL A   1      40.927  22.576  26.197  1.00  0.00    -0.237 OA
ATOM     84  O   UNL A   1      42.967  22.392  24.849  1.00  0.00    -0.744 OA
ENDBRANCH  78  81
ENDBRANCH  50  74
BRANCH  62  85
ATOM     85  C   UNL A   1      44.662  27.351  34.178  1.00  0.00     0.023 A 
ATOM     86  C   UNL A   1      45.898  28.027  34.170  1.00  0.00     0.012 A 
ATOM     87  C   UNL A   1      44.511  26.193  34.966  1.00  0.00     0.148 A 
ATOM     88  C   UNL A   1      46.977  27.538  34.907  1.00  0.00     0.002 A 
ATOM     89  C   UNL A   1      45.573  25.743  35.739  1.00  0.00     0.091 A 
ATOM     90  F   UNL A   1      43.332  25.555  34.947  1.00  0.00    -0.205 F 
ATOM     91  C   UNL A   1      46.810  26.405  35.700  1.00  0.00     0.022 A 
BRANCH  89  92
ATOM     92  S   UNL A   1      45.420  24.355  36.870  1.00  0.00     0.127 S 
ATOM     93  O   UNL A   1      46.774  24.264  37.415  1.00  0.00    -0.237 OA
ATOM     94  O   UNL A   1      44.413  24.837  37.816  1.00  0.00    -0.237 OA
ATOM     95  O   UNL A   1      44.995  23.221  36.060  1.00  0.00    -0.744 OA
ENDBRANCH  89  92
ENDBRANCH  62  85
ENDBRANCH  36  37
ENDBRANCH  28  31
ENDBRANCH  26  27
ENDBRANCH   1  26
TORSDOF 16
ENDMDL
MODEL 3
REMARK VINA RESULT:     -12.6      1.760      2.105
REMARK SMILES Cc1cc(F)cc(N[C@H](C(=O)NCCCNC(=O)c2ccc(-c3c4nc(c(-c5cccc(S(=O)(=O)[O-])c5F)c5ccc([nH]5)c(-c5cccc(S(=O)(=O)[O-])c5F)c5nc(c(-c6cccc(S(=O)(=O)[O-])c6F)c6ccc3[nH]6)C=C5)C=C4)cc2)c2cc(C)cc(C)c2)c1
REMARK SMILES IDX 14 1 13 2 12 3 10 4 11 5 9 7 8 8 7 10 1 11 2 12 3 13 90 14
REMARK SMILES IDX 4 15 5 16 6 17 82 18 83 19 89 20 84 21 87 22 85 23 86 24
REMARK SMILES IDX 88 25 15 26 16 27 17 28 18 30 19 31 20 32 81 33 21 34 80 35
REMARK SMILES IDX 22 36 23 37 24 38 74 39 25 40 79 41 73 42 75 43 26 44 78 45
REMARK SMILES IDX 72 46 71 47 27 49 59 50 39 51 58 52 40 53 43 54 57 55 76 56
REMARK SMILES IDX 41 57 42 58 56 60 77 61 44 62 28 63 29 64 37 65 30 66 32 67
REMARK SMILES IDX 38 68 31 69 33 70 34 71 35 72 36 73 60 74 61 75 69 76 62 77
REMARK SMILES IDX 64 78 70 79 63 80 65 81 66 82 67 83 68 84 45 85 46 86 54 87
REMARK SMILES IDX 47 88 49 89 55 90 48 91 50 92 51 93 52 94 53 95
REMARK H PARENT 12 6 8 9 16 29 75 48 43 59
REMARK Flexibility Score: inf
ROOT
ATOM      1  C   UNL A   1      31.718  28.633  26.262  1.00  0.00     0.042 C 
ENDROOT
BRANCH   1   2
ATOM      2  C   UNL A   1      32.175  27.191  26.155  1.00  0.00     0.117 C 
BRANCH   2   3
ATOM      3  N   UNL A   1      31.229  26.239  26.699  1.00  0.00    -0.354 N 
ATOM      4  C   UNL A   1      30.673  25.132  26.124  1.00  0.00     0.247 C 
ATOM      5  O   UNL A   1      29.949  24.462  26.874  1.00  0.00    -0.272 OA
ATOM      6  H   UNL A   1      30.944  26.415  27.624  1.00  0.00     0.163 HD
BRANCH   4   7
ATOM      7  C   UNL A   1      30.818  24.796  24.610  1.00  0.00     0.200 C 
BRANCH   7   8
ATOM      8  N   UNL A   1      30.702  25.938  23.666  1.00  0.00    -0.370 N 
ATOM      9  H   UNL A   1      31.457  26.017  23.040  1.00  0.00     0.161 HD
BRANCH   8  10
ATOM     10  C   UNL A   1      29.734  26.909  23.503  1.00  0.00     0.038 A 
ATOM     11  C   UNL A   1      29.499  30.320  21.746  1.00  0.00     0.044 C 
ATOM     12  C   UNL A   1      29.126  29.095  22.525  1.00  0.00    -0.046 A 
ATOM     13  C   UNL A   1      27.817  28.951  22.982  1.00  0.00     0.042 A 
ATOM     14  C   UNL A   1      30.073  28.094  22.819  1.00  0.00     0.029 A 
ATOM     15  C   UNL A   1      27.470  27.799  23.655  1.00  0.00     0.125 A 
ATOM     16  F   UNL A   1      26.214  27.638  24.095  1.00  0.00    -0.207 F 
ATOM     17  C   UNL A   1      28.401  26.788  23.877  1.00  0.00     0.065 A 
ENDBRANCH   8  10
ENDBRANCH   7   8
BRANCH   7  18
ATOM     18  C   UNL A   1      32.026  23.931  24.257  1.00  0.00    -0.016 A 
ATOM     19  C   UNL A   1      31.854  22.623  23.789  1.00  0.00     0.009 A 
ATOM     20  C   UNL A   1      33.325  24.360  24.565  1.00  0.00     0.009 A 
ATOM     21  C   UNL A   1      32.872  21.679  23.918  1.00  0.00    -0.051 A 
ATOM     22  C   UNL A   1      34.403  23.467  24.511  1.00  0.00    -0.051 A 
ATOM     23  C   UNL A   1      32.515  20.220  23.923  1.00  0.00     0.044 C 
ATOM     24  C   UNL A   1      34.153  22.111  24.262  1.00  0.00     0.006 A 
ATOM     25  C   UNL A   1      35.793  23.921  24.838  1.00  0.00     0.044 C 
ENDBRANCH   7  18
ENDBRANCH   4   7
ENDBRANCH   2   3
ENDBRANCH   1   2
BRANCH   1  26
ATOM     26  C   UNL A   1      32.739  29.655  25.795  1.00  0.00     0.118 C 
BRANCH  26  27
ATOM     27  N   UNL A   1      32.488  31.000  26.298  1.00  0.00    -0.352 N 
ATOM     28  C   UNL A   1      33.186  31.743  27.223  1.00  0.00     0.251 C 
ATOM     29  H   UNL A   1      31.699  31.447  25.916  1.00  0.00     0.163 HD
ATOM     30  O   UNL A   1      32.728  32.812  27.621  1.00  0.00    -0.269 OA
BRANCH  28  31
ATOM     31  C   UNL A   1      34.465  31.237  27.767  1.00  0.00     0.039 A 
ATOM     32  C   UNL A   1      35.502  32.137  28.025  1.00  0.00     0.014 A 
ATOM     33  C   UNL A   1      34.633  29.882  28.055  1.00  0.00     0.014 A 
ATOM     34  C   UNL A   1      36.667  31.690  28.653  1.00  0.00     0.010 A 
ATOM     35  C   UNL A   1      35.735  29.464  28.789  1.00  0.00     0.010 A 
ATOM     36  C   UNL A   1      36.774  30.358  29.086  1.00  0.00    -0.014 A 
BRANCH  36  37
ATOM     37  C   UNL A   1      37.957  29.869  29.843  1.00  0.00     0.031 A 
ATOM     38  C   UNL A   1      38.212  30.367  31.242  1.00  0.00     0.074 A 
ATOM     39  C   UNL A   1      38.855  29.064  29.238  1.00  0.00     0.049 A 
ATOM     40  N   UNL A   1      39.228  30.126  32.030  1.00  0.00    -0.248 NA
ATOM     41  C   UNL A   1      37.215  31.285  31.823  1.00  0.00     0.031 C 
ATOM     42  C   UNL A   1      38.769  28.578  27.858  1.00  0.00     0.029 A 
ATOM     43  N   UNL A   1      40.034  28.530  29.699  1.00  0.00    -0.354 N 
ATOM     44  C   UNL A   1      39.020  30.902  33.165  1.00  0.00     0.074 A 
ATOM     45  C   UNL A   1      37.799  31.644  32.956  1.00  0.00     0.031 C 
ATOM     46  C   UNL A   1      39.837  27.809  27.591  1.00  0.00     0.029 A 
ATOM     47  C   UNL A   1      40.705  27.775  28.764  1.00  0.00     0.049 A 
ATOM     48  H   UNL A   1      40.368  28.672  30.614  1.00  0.00     0.167 HD
ATOM     49  C   UNL A   1      39.763  30.969  34.294  1.00  0.00     0.034 A 
ATOM     50  C   UNL A   1      41.889  27.135  28.839  1.00  0.00     0.034 A 
ATOM     51  C   UNL A   1      40.937  30.175  34.530  1.00  0.00     0.049 A 
ATOM     52  C   UNL A   1      42.663  27.185  30.131  1.00  0.00     0.074 A 
ATOM     53  C   UNL A   1      41.689  30.078  35.687  1.00  0.00     0.029 A 
ATOM     54  N   UNL A   1      41.534  29.349  33.592  1.00  0.00    -0.354 N 
ATOM     55  N   UNL A   1      42.354  27.782  31.256  1.00  0.00    -0.248 NA
ATOM     56  C   UNL A   1      43.933  26.445  30.175  1.00  0.00     0.031 C 
ATOM     57  C   UNL A   1      42.761  29.217  35.437  1.00  0.00     0.029 A 
ATOM     58  C   UNL A   1      42.655  28.751  34.137  1.00  0.00     0.049 A 
ATOM     59  H   UNL A   1      41.208  29.209  32.673  1.00  0.00     0.167 HD
ATOM     60  C   UNL A   1      43.364  27.452  32.152  1.00  0.00     0.074 A 
ATOM     61  C   UNL A   1      44.284  26.587  31.444  1.00  0.00     0.031 C 
ATOM     62  C   UNL A   1      43.524  27.840  33.441  1.00  0.00     0.034 A 
BRANCH  49  63
ATOM     63  C   UNL A   1      39.309  31.895  35.391  1.00  0.00     0.023 A 
ATOM     64  C   UNL A   1      39.540  33.282  35.280  1.00  0.00     0.012 A 
ATOM     65  C   UNL A   1      38.575  31.402  36.488  1.00  0.00     0.148 A 
ATOM     66  C   UNL A   1      39.070  34.159  36.256  1.00  0.00     0.002 A 
ATOM     67  C   UNL A   1      38.069  32.287  37.432  1.00  0.00     0.091 A 
ATOM     68  F   UNL A   1      38.385  30.078  36.585  1.00  0.00    -0.205 F 
ATOM     69  C   UNL A   1      38.325  33.664  37.323  1.00  0.00     0.022 A 
BRANCH  67  70
ATOM     70  S   UNL A   1      37.025  31.761  38.795  1.00  0.00     0.127 S 
ATOM     71  O   UNL A   1      37.908  31.971  39.941  1.00  0.00    -0.237 OA
ATOM     72  O   UNL A   1      35.909  32.703  38.704  1.00  0.00    -0.237 OA
ATOM     73  O   UNL A   1      36.677  30.374  38.525  1.00  0.00    -0.744 OA
ENDBRANCH  67  70
ENDBRANCH  49  63
BRANCH  50  74
ATOM     74  C   UNL A   1      42.396  26.337  27.685  1.00  0.00     0.023 A 
ATOM     75  C   UNL A   1      43.237  26.955  26.737  1.00  0.00     0.012 A 
ATOM     76  C   UNL A   1      42.049  24.985  27.511  1.00  0.00     0.148 A 
ATOM     77  C   UNL A   1      43.680  26.256  25.614  1.00  0.00     0.002 A 
ATOM     78  C   UNL A   1      42.542  24.277  26.420  1.00  0.00     0.091 A 
ATOM     79  F   UNL A   1      41.238  24.414  28.415  1.00  0.00    -0.205 F 
ATOM     80  C   UNL A   1      43.339  24.916  25.458  1.00  0.00     0.022 A 
BRANCH  78  81
ATOM     81  S   UNL A   1      42.260  22.514  26.214  1.00  0.00     0.127 S 
ATOM     82  O   UNL A   1      40.804  22.452  26.127  1.00  0.00    -0.237 OA
ATOM     83  O   UNL A   1      42.965  22.239  24.961  1.00  0.00    -0.237 OA
ATOM     84  O   UNL A   1      42.856  21.885  27.385  1.00  0.00    -0.744 OA
ENDBRANCH  78  81
ENDBRANCH  50  74
BRANCH  62  85
ATOM     85  C   UNL A   1      44.705  27.292  34.198  1.00  0.00     0.023 A 
ATOM     86  C   UNL A   1      45.941  27.967  34.161  1.00  0.00     0.012 A 
ATOM     87  C   UNL A   1      44.561  26.153  35.014  1.00  0.00     0.148 A 
ATOM     88  C   UNL A   1      47.027  27.495  34.898  1.00  0.00     0.002 A 
ATOM     89  C   UNL A   1      45.631  25.720  35.786  1.00  0.00     0.091 A 
ATOM     90  F   UNL A   1      43.382  25.516  35.022  1.00  0.00    -0.205 F 
ATOM     91  C   UNL A   1      46.868  26.381  35.719  1.00  0.00     0.022 A 
BRANCH  89  92
ATOM     92  S   UNL A   1      45.489  24.360  36.951  1.00  0.00     0.127 S 
ATOM     93  O   UNL A   1      44.407  24.823  37.819  1.00  0.00    -0.237 OA
ATOM     94  O   UNL A   1      45.135  23.240  36.079  1.00  0.00    -0.237 OA
ATOM     95  O   UNL A   1      46.793  24.239  37.590  1.00  0.00    -0.744 OA
ENDBRANCH  89  92
ENDBRANCH  62  85
ENDBRANCH  36  37
ENDBRANCH  28  31
ENDBRANCH  26  27
ENDBRANCH   1  26
TORSDOF 16
ENDMDL
