MODEL 1
REMARK VINA RESULT:     -11.1      0.000      0.000
REMARK SMILES CC[C@H](CCC1CC1)C(=O)NCCCNC(=O)c1ccc(-c2c3nc(c(-c4cccc(S(=O)(=O)[O-])c4F)c4ccc([nH]4)c(-c4cccc(S(=O)(=O)[O-])c4F)c4nc(c(-c5cccc(S(=O)(=O)[O-])c5F)c5ccc2[nH]5)C=C4)C=C3)cc1
REMARK SMILES IDX 13 1 12 2 11 3 9 4 10 5 3 7 2 8 1 9 4 10 5 11 6 12 7 13 8 14
REMARK SMILES IDX 14 15 15 16 16 17 17 19 18 20 19 21 80 22 20 23 79 24 21 25
REMARK SMILES IDX 22 26 23 27 73 28 24 29 78 30 72 31 74 32 25 33 77 34 71 35
REMARK SMILES IDX 70 36 26 38 58 39 38 40 57 41 39 42 42 43 56 44 75 45 40 46
REMARK SMILES IDX 41 47 55 49 76 50 43 51 27 52 28 53 36 54 29 55 31 56 37 57
REMARK SMILES IDX 30 58 32 59 33 60 34 61 35 62 59 63 60 64 68 65 61 66 63 67
REMARK SMILES IDX 69 68 62 69 64 70 65 71 66 72 67 73 44 74 45 75 53 76 46 77
REMARK SMILES IDX 48 78 54 79 47 80 49 81 50 82 51 83 52 84
REMARK H PARENT 11 6 15 18 74 37 42 48
REMARK Flexibility Score: inf
ROOT
ATOM      1  C   UNL A   1      32.323  29.981  25.436  1.00  0.00     0.042 C 
ENDROOT
BRANCH   1   2
ATOM      2  C   UNL A   1      32.607  28.485  25.400  1.00  0.00     0.117 C 
BRANCH   2   3
ATOM      3  N   UNL A   1      32.610  27.951  24.050  1.00  0.00    -0.356 N 
ATOM      4  C   UNL A   1      31.587  27.600  23.222  1.00  0.00     0.223 C 
ATOM      5  O   UNL A   1      31.883  27.184  22.098  1.00  0.00    -0.275 OA
ATOM      6  H   UNL A   1      33.507  27.819  23.666  1.00  0.00     0.163 HD
BRANCH   4   7
ATOM      7  C   UNL A   1      30.120  27.728  23.641  1.00  0.00     0.078 C 
BRANCH   7   8
ATOM      8  C   UNL A   1      29.551  26.349  24.026  1.00  0.00     0.010 C 
ATOM      9  C   UNL A   1      28.045  26.328  24.242  1.00  0.00     0.005 C 
ENDBRANCH   7   8
BRANCH   7  10
ATOM     10  C   UNL A   1      29.342  28.532  22.583  1.00  0.00     0.014 C 
BRANCH  10  11
ATOM     11  C   UNL A   1      29.685  30.012  22.445  1.00  0.00     0.004 C 
BRANCH  11  12
ATOM     12  C   UNL A   1      29.139  30.923  23.507  1.00  0.00    -0.011 C 
ATOM     13  C   UNL A   1      28.633  32.327  23.263  1.00  0.00     0.004 C 
ATOM     14  C   UNL A   1      27.657  31.217  23.500  1.00  0.00     0.004 C 
ENDBRANCH  11  12
ENDBRANCH  10  11
ENDBRANCH   7  10
ENDBRANCH   4   7
ENDBRANCH   2   3
ENDBRANCH   1   2
BRANCH   1  15
ATOM     15  C   UNL A   1      31.895  30.491  26.807  1.00  0.00     0.118 C 
BRANCH  15  16
ATOM     16  N   UNL A   1      31.897  31.949  26.883  1.00  0.00    -0.352 N 
ATOM     17  C   UNL A   1      32.790  32.805  27.478  1.00  0.00     0.251 C 
ATOM     18  H   UNL A   1      31.137  32.388  26.437  1.00  0.00     0.163 HD
ATOM     19  O   UNL A   1      32.492  33.990  27.620  1.00  0.00    -0.269 OA
BRANCH  17  20
ATOM     20  C   UNL A   1      34.096  32.308  27.959  1.00  0.00     0.039 A 
ATOM     21  C   UNL A   1      35.167  33.200  28.063  1.00  0.00     0.014 A 
ATOM     22  C   UNL A   1      34.267  30.966  28.305  1.00  0.00     0.014 A 
ATOM     23  C   UNL A   1      36.382  32.764  28.598  1.00  0.00     0.010 A 
ATOM     24  C   UNL A   1      35.449  30.553  28.913  1.00  0.00     0.010 A 
ATOM     25  C   UNL A   1      36.516  31.449  29.074  1.00  0.00    -0.014 A 
BRANCH  25  26
ATOM     26  C   UNL A   1      37.736  31.002  29.795  1.00  0.00     0.031 A 
ATOM     27  C   UNL A   1      38.665  29.999  29.166  1.00  0.00     0.074 A 
ATOM     28  C   UNL A   1      37.935  31.405  31.067  1.00  0.00     0.049 A 
ATOM     29  N   UNL A   1      39.710  29.411  29.686  1.00  0.00    -0.248 NA
ATOM     30  C   UNL A   1      38.370  29.583  27.785  1.00  0.00     0.031 C 
ATOM     31  C   UNL A   1      37.060  32.314  31.813  1.00  0.00     0.029 A 
ATOM     32  N   UNL A   1      38.909  31.068  31.975  1.00  0.00    -0.354 N 
ATOM     33  C   UNL A   1      40.166  28.522  28.720  1.00  0.00     0.074 A 
ATOM     34  C   UNL A   1      39.279  28.640  27.584  1.00  0.00     0.031 C 
ATOM     35  C   UNL A   1      37.530  32.452  33.063  1.00  0.00     0.029 A 
ATOM     36  C   UNL A   1      38.710  31.609  33.225  1.00  0.00     0.049 A 
ATOM     37  H   UNL A   1      39.677  30.493  31.753  1.00  0.00     0.167 HD
ATOM     38  C   UNL A   1      41.234  27.692  28.772  1.00  0.00     0.034 A 
ATOM     39  C   UNL A   1      39.378  31.425  34.380  1.00  0.00     0.034 A 
ATOM     40  C   UNL A   1      42.141  27.615  29.886  1.00  0.00     0.049 A 
ATOM     41  C   UNL A   1      40.575  30.512  34.394  1.00  0.00     0.074 A 
ATOM     42  C   UNL A   1      43.325  26.903  29.978  1.00  0.00     0.029 A 
ATOM     43  N   UNL A   1      41.955  28.243  31.105  1.00  0.00    -0.354 N 
ATOM     44  N   UNL A   1      41.106  29.834  33.407  1.00  0.00    -0.248 NA
ATOM     45  C   UNL A   1      41.282  30.357  35.675  1.00  0.00     0.031 C 
ATOM     46  C   UNL A   1      43.830  27.062  31.270  1.00  0.00     0.029 A 
ATOM     47  C   UNL A   1      42.981  27.905  31.969  1.00  0.00     0.049 A 
ATOM     48  H   UNL A   1      41.204  28.841  31.325  1.00  0.00     0.167 HD
ATOM     49  C   UNL A   1      42.222  29.197  33.939  1.00  0.00     0.074 A 
ATOM     50  C   UNL A   1      42.309  29.594  35.328  1.00  0.00     0.031 C 
ATOM     51  C   UNL A   1      43.087  28.346  33.335  1.00  0.00     0.034 A 
BRANCH  38  52
ATOM     52  C   UNL A   1      41.518  26.814  27.583  1.00  0.00     0.023 A 
ATOM     53  C   UNL A   1      42.160  27.351  26.450  1.00  0.00     0.012 A 
ATOM     54  C   UNL A   1      41.250  25.431  27.638  1.00  0.00     0.148 A 
ATOM     55  C   UNL A   1      42.515  26.529  25.381  1.00  0.00     0.002 A 
ATOM     56  C   UNL A   1      41.648  24.611  26.591  1.00  0.00     0.091 A 
ATOM     57  F   UNL A   1      40.624  24.945  28.719  1.00  0.00    -0.205 F 
ATOM     58  C   UNL A   1      42.272  25.160  25.458  1.00  0.00     0.022 A 
BRANCH  56  59
ATOM     59  S   UNL A   1      41.458  22.826  26.628  1.00  0.00     0.127 S 
ATOM     60  O   UNL A   1      40.004  22.684  26.575  1.00  0.00    -0.237 OA
ATOM     61  O   UNL A   1      42.155  22.420  25.408  1.00  0.00    -0.237 OA
ATOM     62  O   UNL A   1      42.079  22.378  27.866  1.00  0.00    -0.744 OA
ENDBRANCH  56  59
ENDBRANCH  38  52
BRANCH  39  63
ATOM     63  C   UNL A   1      38.945  32.126  35.623  1.00  0.00     0.023 A 
ATOM     64  C   UNL A   1      39.245  33.492  35.792  1.00  0.00     0.012 A 
ATOM     65  C   UNL A   1      38.248  31.447  36.641  1.00  0.00     0.148 A 
ATOM     66  C   UNL A   1      38.900  34.156  36.969  1.00  0.00     0.002 A 
ATOM     67  C   UNL A   1      37.852  32.130  37.785  1.00  0.00     0.091 A 
ATOM     68  F   UNL A   1      37.982  30.144  36.472  1.00  0.00    -0.205 F 
ATOM     69  C   UNL A   1      38.196  33.479  37.962  1.00  0.00     0.022 A 
BRANCH  67  70
ATOM     70  S   UNL A   1      36.825  31.370  39.048  1.00  0.00     0.127 S 
ATOM     71  O   UNL A   1      35.645  32.230  39.032  1.00  0.00    -0.237 OA
ATOM     72  O   UNL A   1      36.617  30.028  38.503  1.00  0.00    -0.237 OA
ATOM     73  O   UNL A   1      37.619  31.401  40.268  1.00  0.00    -0.744 OA
ENDBRANCH  67  70
ENDBRANCH  39  63
BRANCH  51  74
ATOM     74  C   UNL A   1      44.224  27.800  34.157  1.00  0.00     0.023 A 
ATOM     75  C   UNL A   1      45.438  28.511  34.233  1.00  0.00     0.012 A 
ATOM     76  C   UNL A   1      44.055  26.634  34.929  1.00  0.00     0.148 A 
ATOM     77  C   UNL A   1      46.476  28.056  35.045  1.00  0.00     0.002 A 
ATOM     78  C   UNL A   1      45.073  26.215  35.776  1.00  0.00     0.091 A 
ATOM     79  F   UNL A   1      42.896  25.966  34.832  1.00  0.00    -0.205 F 
ATOM     80  C   UNL A   1      46.288  26.917  35.825  1.00  0.00     0.022 A 
BRANCH  78  81
ATOM     81  S   UNL A   1      44.891  24.818  36.891  1.00  0.00     0.127 S 
ATOM     82  O   UNL A   1      43.778  25.253  37.733  1.00  0.00    -0.237 OA
ATOM     83  O   UNL A   1      44.570  23.729  35.968  1.00  0.00    -0.237 OA
ATOM     84  O   UNL A   1      46.169  24.678  37.577  1.00  0.00    -0.744 OA
ENDBRANCH  78  81
ENDBRANCH  51  74
ENDBRANCH  25  26
ENDBRANCH  17  20
ENDBRANCH  15  16
ENDBRANCH   1  15
TORSDOF 17
ENDMDL
MODEL 2
REMARK VINA RESULT:     -10.7      6.962     11.998
REMARK SMILES CC[C@H](CCC1CC1)C(=O)NCCCNC(=O)c1ccc(-c2c3nc(c(-c4cccc(S(=O)(=O)[O-])c4F)c4ccc([nH]4)c(-c4cccc(S(=O)(=O)[O-])c4F)c4nc(c(-c5cccc(S(=O)(=O)[O-])c5F)c5ccc2[nH]5)C=C4)C=C3)cc1
REMARK SMILES IDX 13 1 12 2 11 3 9 4 10 5 3 7 2 8 1 9 4 10 5 11 6 12 7 13 8 14
REMARK SMILES IDX 14 15 15 16 16 17 17 19 18 20 19 21 80 22 20 23 79 24 21 25
REMARK SMILES IDX 22 26 23 27 73 28 24 29 78 30 72 31 74 32 25 33 77 34 71 35
REMARK SMILES IDX 70 36 26 38 58 39 38 40 57 41 39 42 42 43 56 44 75 45 40 46
REMARK SMILES IDX 41 47 55 49 76 50 43 51 27 52 28 53 36 54 29 55 31 56 37 57
REMARK SMILES IDX 30 58 32 59 33 60 34 61 35 62 59 63 60 64 68 65 61 66 63 67
REMARK SMILES IDX 69 68 62 69 64 70 65 71 66 72 67 73 44 74 45 75 53 76 46 77
REMARK SMILES IDX 48 78 54 79 47 80 49 81 50 82 51 83 52 84
REMARK H PARENT 11 6 15 18 74 37 42 48
REMARK Flexibility Score: inf
ROOT
ATOM      1  C   UNL A   1      37.697  20.329  25.153  1.00  0.00     0.042 C 
ENDROOT
BRANCH   1   2
ATOM      2  C   UNL A   1      36.729  21.492  24.980  1.00  0.00     0.117 C 
BRANCH   2   3
ATOM      3  N   UNL A   1      35.765  21.581  26.062  1.00  0.00    -0.356 N 
ATOM      4  C   UNL A   1      34.442  21.265  26.112  1.00  0.00     0.223 C 
ATOM      5  O   UNL A   1      33.859  21.425  27.188  1.00  0.00    -0.275 OA
ATOM      6  H   UNL A   1      36.132  21.931  26.906  1.00  0.00     0.163 HD
BRANCH   4   7
ATOM      7  C   UNL A   1      33.691  20.712  24.897  1.00  0.00     0.078 C 
BRANCH   7   8
ATOM      8  C   UNL A   1      33.237  21.862  23.978  1.00  0.00     0.010 C 
ATOM      9  C   UNL A   1      31.967  22.565  24.431  1.00  0.00     0.005 C 
ENDBRANCH   7   8
BRANCH   7  10
ATOM     10  C   UNL A   1      32.606  19.721  25.360  1.00  0.00     0.014 C 
BRANCH  10  11
ATOM     11  C   UNL A   1      32.568  18.362  24.668  1.00  0.00     0.004 C 
BRANCH  11  12
ATOM     12  C   UNL A   1      33.772  17.999  23.847  1.00  0.00    -0.011 C 
ATOM     13  C   UNL A   1      35.009  17.313  24.382  1.00  0.00     0.004 C 
ATOM     14  C   UNL A   1      34.026  16.537  23.562  1.00  0.00     0.004 C 
ENDBRANCH  11  12
ENDBRANCH  10  11
ENDBRANCH   7  10
ENDBRANCH   4   7
ENDBRANCH   2   3
ENDBRANCH   1   2
BRANCH   1  15
ATOM     15  C   UNL A   1      39.043  20.733  25.740  1.00  0.00     0.118 C 
BRANCH  15  16
ATOM     16  N   UNL A   1      39.952  19.598  25.880  1.00  0.00    -0.352 N 
ATOM     17  C   UNL A   1      41.311  19.568  26.062  1.00  0.00     0.251 C 
ATOM     18  H   UNL A   1      39.520  18.714  25.838  1.00  0.00     0.163 HD
ATOM     19  O   UNL A   1      41.918  18.505  25.933  1.00  0.00    -0.269 OA
BRANCH  17  20
ATOM     20  C   UNL A   1      42.050  20.804  26.395  1.00  0.00     0.039 A 
ATOM     21  C   UNL A   1      42.433  21.667  25.364  1.00  0.00     0.014 A 
ATOM     22  C   UNL A   1      42.367  21.111  27.720  1.00  0.00     0.014 A 
ATOM     23  C   UNL A   1      43.056  22.879  25.673  1.00  0.00     0.010 A 
ATOM     24  C   UNL A   1      42.911  22.354  28.030  1.00  0.00     0.010 A 
ATOM     25  C   UNL A   1      43.253  23.255  27.011  1.00  0.00    -0.014 A 
BRANCH  25  26
ATOM     26  C   UNL A   1      43.761  24.603  27.376  1.00  0.00     0.031 A 
ATOM     27  C   UNL A   1      42.818  25.661  27.879  1.00  0.00     0.074 A 
ATOM     28  C   UNL A   1      45.052  24.909  27.129  1.00  0.00     0.049 A 
ATOM     29  N   UNL A   1      43.059  26.920  28.138  1.00  0.00    -0.248 NA
ATOM     30  C   UNL A   1      41.416  25.263  28.098  1.00  0.00     0.031 C 
ATOM     31  C   UNL A   1      46.046  23.991  26.567  1.00  0.00     0.029 A 
ATOM     32  N   UNL A   1      45.740  26.089  27.276  1.00  0.00    -0.354 N 
ATOM     33  C   UNL A   1      41.837  27.475  28.500  1.00  0.00     0.074 A 
ATOM     34  C   UNL A   1      40.852  26.419  28.419  1.00  0.00     0.031 C 
ATOM     35  C   UNL A   1      47.208  24.643  26.406  1.00  0.00     0.029 A 
ATOM     36  C   UNL A   1      47.034  26.034  26.808  1.00  0.00     0.049 A 
ATOM     37  H   UNL A   1      45.345  26.897  27.676  1.00  0.00     0.167 HD
ATOM     38  C   UNL A   1      41.564  28.746  28.876  1.00  0.00     0.034 A 
ATOM     39  C   UNL A   1      47.966  27.000  26.685  1.00  0.00     0.034 A 
ATOM     40  C   UNL A   1      42.557  29.779  29.001  1.00  0.00     0.049 A 
ATOM     41  C   UNL A   1      47.634  28.397  27.135  1.00  0.00     0.074 A 
ATOM     42  C   UNL A   1      42.400  31.061  29.501  1.00  0.00     0.029 A 
ATOM     43  N   UNL A   1      43.877  29.664  28.600  1.00  0.00    -0.354 N 
ATOM     44  N   UNL A   1      46.524  28.852  27.663  1.00  0.00    -0.248 NA
ATOM     45  C   UNL A   1      48.691  29.411  26.997  1.00  0.00     0.031 C 
ATOM     46  C   UNL A   1      43.614  31.736  29.357  1.00  0.00     0.029 A 
ATOM     47  C   UNL A   1      44.536  30.863  28.804  1.00  0.00     0.049 A 
ATOM     48  H   UNL A   1      44.285  28.851  28.224  1.00  0.00     0.167 HD
ATOM     49  C   UNL A   1      46.758  30.192  27.946  1.00  0.00     0.074 A 
ATOM     50  C   UNL A   1      48.125  30.471  27.559  1.00  0.00     0.031 C 
ATOM     51  C   UNL A   1      45.912  31.116  28.463  1.00  0.00     0.034 A 
BRANCH  38  52
ATOM     52  C   UNL A   1      40.142  29.103  29.216  1.00  0.00     0.023 A 
ATOM     53  C   UNL A   1      39.200  29.292  28.186  1.00  0.00     0.012 A 
ATOM     54  C   UNL A   1      39.718  29.137  30.559  1.00  0.00     0.148 A 
ATOM     55  C   UNL A   1      37.859  29.527  28.488  1.00  0.00     0.002 A 
ATOM     56  C   UNL A   1      38.374  29.326  30.851  1.00  0.00     0.091 A 
ATOM     57  F   UNL A   1      40.636  28.971  31.523  1.00  0.00    -0.205 F 
ATOM     58  C   UNL A   1      37.445  29.531  29.818  1.00  0.00     0.022 A 
BRANCH  56  59
ATOM     59  S   UNL A   1      37.725  29.263  32.525  1.00  0.00     0.127 S 
ATOM     60  O   UNL A   1      36.367  29.770  32.333  1.00  0.00    -0.237 OA
ATOM     61  O   UNL A   1      37.805  27.834  32.829  1.00  0.00    -0.237 OA
ATOM     62  O   UNL A   1      38.595  30.109  33.328  1.00  0.00    -0.744 OA
ENDBRANCH  56  59
ENDBRANCH  38  52
BRANCH  39  63
ATOM     63  C   UNL A   1      49.310  26.683  26.123  1.00  0.00     0.023 A 
ATOM     64  C   UNL A   1      50.228  25.939  26.890  1.00  0.00     0.012 A 
ATOM     65  C   UNL A   1      49.690  27.123  24.839  1.00  0.00     0.148 A 
ATOM     66  C   UNL A   1      51.511  25.678  26.410  1.00  0.00     0.002 A 
ATOM     67  C   UNL A   1      50.948  26.806  24.341  1.00  0.00     0.091 A 
ATOM     68  F   UNL A   1      48.810  27.842  24.128  1.00  0.00    -0.205 F 
ATOM     69  C   UNL A   1      51.869  26.104  25.133  1.00  0.00     0.022 A 
BRANCH  67  70
ATOM     70  S   UNL A   1      51.437  27.196  22.657  1.00  0.00     0.127 S 
ATOM     71  O   UNL A   1      50.363  26.579  21.883  1.00  0.00    -0.237 OA
ATOM     72  O   UNL A   1      51.427  28.659  22.668  1.00  0.00    -0.237 OA
ATOM     73  O   UNL A   1      52.760  26.611  22.490  1.00  0.00    -0.744 OA
ENDBRANCH  67  70
ENDBRANCH  39  63
BRANCH  51  74
ATOM     74  C   UNL A   1      46.435  32.512  28.671  1.00  0.00     0.023 A 
ATOM     75  C   UNL A   1      47.024  32.863  29.902  1.00  0.00     0.012 A 
ATOM     76  C   UNL A   1      46.430  33.444  27.615  1.00  0.00     0.148 A 
ATOM     77  C   UNL A   1      47.577  34.130  30.087  1.00  0.00     0.002 A 
ATOM     78  C   UNL A   1      47.029  34.685  27.789  1.00  0.00     0.091 A 
ATOM     79  F   UNL A   1      45.853  33.093  26.457  1.00  0.00    -0.205 F 
ATOM     80  C   UNL A   1      47.591  35.034  29.027  1.00  0.00     0.022 A 
BRANCH  78  81
ATOM     81  S   UNL A   1      47.184  35.880  26.456  1.00  0.00     0.127 S 
ATOM     82  O   UNL A   1      47.706  35.050  25.372  1.00  0.00    -0.237 OA
ATOM     83  O   UNL A   1      45.800  36.319  26.276  1.00  0.00    -0.237 OA
ATOM     84  O   UNL A   1      48.092  36.912  26.939  1.00  0.00    -0.744 OA
ENDBRANCH  78  81
ENDBRANCH  51  74
ENDBRANCH  25  26
ENDBRANCH  17  20
ENDBRANCH  15  16
ENDBRANCH   1  15
TORSDOF 17
ENDMDL
MODEL 3
REMARK VINA RESULT:     -10.6      1.489      2.647
REMARK SMILES CC[C@H](CCC1CC1)C(=O)NCCCNC(=O)c1ccc(-c2c3nc(c(-c4cccc(S(=O)(=O)[O-])c4F)c4ccc([nH]4)c(-c4cccc(S(=O)(=O)[O-])c4F)c4nc(c(-c5cccc(S(=O)(=O)[O-])c5F)c5ccc2[nH]5)C=C4)C=C3)cc1
REMARK SMILES IDX 13 1 12 2 11 3 9 4 10 5 3 7 2 8 1 9 4 10 5 11 6 12 7 13 8 14
REMARK SMILES IDX 14 15 15 16 16 17 17 19 18 20 19 21 80 22 20 23 79 24 21 25
REMARK SMILES IDX 22 26 23 27 73 28 24 29 78 30 72 31 74 32 25 33 77 34 71 35
REMARK SMILES IDX 70 36 26 38 58 39 38 40 57 41 39 42 42 43 56 44 75 45 40 46
REMARK SMILES IDX 41 47 55 49 76 50 43 51 27 52 28 53 36 54 29 55 31 56 37 57
REMARK SMILES IDX 30 58 32 59 33 60 34 61 35 62 59 63 60 64 68 65 61 66 63 67
REMARK SMILES IDX 69 68 62 69 64 70 65 71 66 72 67 73 44 74 45 75 53 76 46 77
REMARK SMILES IDX 48 78 54 79 47 80 49 81 50 82 51 83 52 84
REMARK H PARENT 11 6 15 18 74 37 42 48
REMARK Flexibility Score: inf
ROOT
ATOM      1  C   UNL A   1      32.604  29.924  25.268  1.00  0.00     0.042 C 
ENDROOT
BRANCH   1   2
ATOM      2  C   UNL A   1      32.204  28.518  24.840  1.00  0.00     0.117 C 
BRANCH   2   3
ATOM      3  N   UNL A   1      32.812  28.125  23.581  1.00  0.00    -0.356 N 
ATOM      4  C   UNL A   1      33.201  26.906  23.116  1.00  0.00     0.223 C 
ATOM      5  O   UNL A   1      33.680  26.859  21.979  1.00  0.00    -0.275 OA
ATOM      6  H   UNL A   1      32.969  28.869  22.956  1.00  0.00     0.163 HD
BRANCH   4   7
ATOM      7  C   UNL A   1      33.043  25.629  23.946  1.00  0.00     0.078 C 
BRANCH   7   8
ATOM      8  C   UNL A   1      31.558  25.384  24.276  1.00  0.00     0.010 C 
ATOM      9  C   UNL A   1      30.881  24.347  23.394  1.00  0.00     0.005 C 
ENDBRANCH   7   8
BRANCH   7  10
ATOM     10  C   UNL A   1      34.025  25.652  25.132  1.00  0.00     0.014 C 
BRANCH  10  11
ATOM     11  C   UNL A   1      34.952  24.451  25.289  1.00  0.00     0.004 C 
BRANCH  11  12
ATOM     12  C   UNL A   1      34.932  23.445  24.174  1.00  0.00    -0.011 C 
ATOM     13  C   UNL A   1      36.153  22.965  23.422  1.00  0.00     0.004 C 
ATOM     14  C   UNL A   1      35.512  22.075  24.440  1.00  0.00     0.004 C 
ENDBRANCH  11  12
ENDBRANCH  10  11
ENDBRANCH   7  10
ENDBRANCH   4   7
ENDBRANCH   2   3
ENDBRANCH   1   2
BRANCH   1  15
ATOM     15  C   UNL A   1      32.008  30.351  26.604  1.00  0.00     0.118 C 
BRANCH  15  16
ATOM     16  N   UNL A   1      31.968  31.803  26.756  1.00  0.00    -0.352 N 
ATOM     17  C   UNL A   1      32.817  32.648  27.426  1.00  0.00     0.251 C 
ATOM     18  H   UNL A   1      31.211  32.246  26.307  1.00  0.00     0.163 HD
ATOM     19  O   UNL A   1      32.482  33.816  27.620  1.00  0.00    -0.269 OA
BRANCH  17  20
ATOM     20  C   UNL A   1      34.119  32.160  27.926  1.00  0.00     0.039 A 
ATOM     21  C   UNL A   1      35.198  33.045  27.991  1.00  0.00     0.014 A 
ATOM     22  C   UNL A   1      34.278  30.831  28.327  1.00  0.00     0.014 A 
ATOM     23  C   UNL A   1      36.410  32.620  28.542  1.00  0.00     0.010 A 
ATOM     24  C   UNL A   1      35.457  30.433  28.949  1.00  0.00     0.010 A 
ATOM     25  C   UNL A   1      36.532  31.325  29.072  1.00  0.00    -0.014 A 
BRANCH  25  26
ATOM     26  C   UNL A   1      37.750  30.897  29.809  1.00  0.00     0.031 A 
ATOM     27  C   UNL A   1      38.696  29.899  29.199  1.00  0.00     0.074 A 
ATOM     28  C   UNL A   1      37.931  31.312  31.080  1.00  0.00     0.049 A 
ATOM     29  N   UNL A   1      39.742  29.327  29.734  1.00  0.00    -0.248 NA
ATOM     30  C   UNL A   1      38.420  29.469  27.817  1.00  0.00     0.031 C 
ATOM     31  C   UNL A   1      37.039  32.218  31.809  1.00  0.00     0.029 A 
ATOM     32  N   UNL A   1      38.899  30.993  32.001  1.00  0.00    -0.354 N 
ATOM     33  C   UNL A   1      40.218  28.435  28.780  1.00  0.00     0.074 A 
ATOM     34  C   UNL A   1      39.342  28.534  27.634  1.00  0.00     0.031 C 
ATOM     35  C   UNL A   1      37.494  32.371  33.063  1.00  0.00     0.029 A 
ATOM     36  C   UNL A   1      38.680  31.542  33.244  1.00  0.00     0.049 A 
ATOM     37  H   UNL A   1      39.676  30.425  31.791  1.00  0.00     0.167 HD
ATOM     38  C   UNL A   1      41.294  27.617  28.850  1.00  0.00     0.034 A 
ATOM     39  C   UNL A   1      39.338  31.374  34.408  1.00  0.00     0.034 A 
ATOM     40  C   UNL A   1      42.189  27.559  29.974  1.00  0.00     0.049 A 
ATOM     41  C   UNL A   1      40.545  30.475  34.442  1.00  0.00     0.074 A 
ATOM     42  C   UNL A   1      43.380  26.860  30.084  1.00  0.00     0.029 A 
ATOM     43  N   UNL A   1      41.984  28.195  31.186  1.00  0.00    -0.354 N 
ATOM     44  N   UNL A   1      41.094  29.794  33.465  1.00  0.00    -0.248 NA
ATOM     45  C   UNL A   1      41.240  30.338  35.731  1.00  0.00     0.031 C 
ATOM     46  C   UNL A   1      43.869  27.036  31.380  1.00  0.00     0.029 A 
ATOM     47  C   UNL A   1      43.004  27.875  32.064  1.00  0.00     0.049 A 
ATOM     48  H   UNL A   1      41.225  28.786  31.393  1.00  0.00     0.167 HD
ATOM     49  C   UNL A   1      42.210  29.174  34.014  1.00  0.00     0.074 A 
ATOM     50  C   UNL A   1      42.279  29.583  35.401  1.00  0.00     0.031 C 
ATOM     51  C   UNL A   1      43.091  28.328  33.427  1.00  0.00     0.034 A 
BRANCH  38  52
ATOM     52  C   UNL A   1      41.599  26.732  27.671  1.00  0.00     0.023 A 
ATOM     53  C   UNL A   1      42.330  27.243  26.580  1.00  0.00     0.012 A 
ATOM     54  C   UNL A   1      41.260  25.365  27.700  1.00  0.00     0.148 A 
ATOM     55  C   UNL A   1      42.703  26.410  25.527  1.00  0.00     0.002 A 
ATOM     56  C   UNL A   1      41.675  24.532  26.669  1.00  0.00     0.091 A 
ATOM     57  F   UNL A   1      40.550  24.905  28.740  1.00  0.00    -0.205 F 
ATOM     58  C   UNL A   1      42.388  25.055  25.577  1.00  0.00     0.022 A 
BRANCH  56  59
ATOM     59  S   UNL A   1      41.393  22.758  26.680  1.00  0.00     0.127 S 
ATOM     60  O   UNL A   1      39.935  22.692  26.586  1.00  0.00    -0.237 OA
ATOM     61  O   UNL A   1      42.102  22.330  25.474  1.00  0.00    -0.237 OA
ATOM     62  O   UNL A   1      41.956  22.267  27.929  1.00  0.00    -0.744 OA
ENDBRANCH  56  59
ENDBRANCH  38  52
BRANCH  39  63
ATOM     63  C   UNL A   1      38.885  32.081  35.640  1.00  0.00     0.023 A 
ATOM     64  C   UNL A   1      39.153  33.455  35.794  1.00  0.00     0.012 A 
ATOM     65  C   UNL A   1      38.199  31.399  36.664  1.00  0.00     0.148 A 
ATOM     66  C   UNL A   1      38.789  34.126  36.961  1.00  0.00     0.002 A 
ATOM     67  C   UNL A   1      37.783  32.087  37.798  1.00  0.00     0.091 A 
ATOM     68  F   UNL A   1      37.964  30.088  36.510  1.00  0.00    -0.205 F 
ATOM     69  C   UNL A   1      38.097  33.445  37.960  1.00  0.00     0.022 A 
BRANCH  67  70
ATOM     70  S   UNL A   1      36.768  31.319  39.066  1.00  0.00     0.127 S 
ATOM     71  O   UNL A   1      37.704  31.225  40.183  1.00  0.00    -0.237 OA
ATOM     72  O   UNL A   1      35.700  32.305  39.239  1.00  0.00    -0.237 OA
ATOM     73  O   UNL A   1      36.325  30.054  38.498  1.00  0.00    -0.744 OA
ENDBRANCH  67  70
ENDBRANCH  39  63
BRANCH  51  74
ATOM     74  C   UNL A   1      44.226  27.800  34.265  1.00  0.00     0.023 A 
ATOM     75  C   UNL A   1      45.417  28.544  34.378  1.00  0.00     0.012 A 
ATOM     76  C   UNL A   1      44.072  26.619  35.016  1.00  0.00     0.148 A 
ATOM     77  C   UNL A   1      46.450  28.104  35.205  1.00  0.00     0.002 A 
ATOM     78  C   UNL A   1      45.084  26.215  35.878  1.00  0.00     0.091 A 
ATOM     79  F   UNL A   1      42.935  25.921  34.884  1.00  0.00    -0.205 F 
ATOM     80  C   UNL A   1      46.277  26.949  35.964  1.00  0.00     0.022 A 
BRANCH  78  81
ATOM     81  S   UNL A   1      44.917  24.796  36.968  1.00  0.00     0.127 S 
ATOM     82  O   UNL A   1      46.223  24.772  37.626  1.00  0.00    -0.237 OA
ATOM     83  O   UNL A   1      43.807  25.202  37.831  1.00  0.00    -0.237 OA
ATOM     84  O   UNL A   1      44.634  23.655  36.109  1.00  0.00    -0.744 OA
ENDBRANCH  78  81
ENDBRANCH  51  74
ENDBRANCH  25  26
ENDBRANCH  17  20
ENDBRANCH  15  16
ENDBRANCH   1  15
TORSDOF 17
ENDMDL
