MODEL 1
REMARK VINA RESULT:      -9.1      0.000      0.000
REMARK SMILES CCn1ncc(NC(=O)[C@@H]2CCCC[C@@H]2C(=O)NCCCNC(=O)c2ccc(-c3c4nc(c(-c5cccc(S(=O)(=O)[O-])c5F)c5ccc([nH]5)c(-c5cccc(S(=O)(=O)[O-])c5F)c5nc(c(-c6cccc(S(=O)(=O)[O-])c6F)c6ccc3[nH]6)C=C5)C=C4)cc2)c1C(=O)Nc1cnn(C)c1C
REMARK SMILES IDX 19 1 18 2 16 3 17 4 15 6 10 7 11 8 12 9 14 10 13 11 8 12
REMARK SMILES IDX 7 13 9 15 6 16 3 17 4 18 88 19 5 20 2 21 1 22 89 23 90 24
REMARK SMILES IDX 91 25 92 27 93 28 97 29 94 30 95 31 98 32 96 33 20 34 21 35
REMARK SMILES IDX 22 36 23 37 24 39 25 40 26 41 87 42 27 43 86 44 28 45 29 46
REMARK SMILES IDX 30 47 80 48 31 49 85 50 79 51 81 52 32 53 84 54 78 55 77 56
REMARK SMILES IDX 33 58 65 59 45 60 64 61 46 62 49 63 63 64 82 65 47 66 48 67
REMARK SMILES IDX 62 69 83 70 50 71 34 72 35 73 43 74 36 75 38 76 44 77 37 78
REMARK SMILES IDX 39 79 40 80 41 81 42 82 66 83 67 84 75 85 68 86 70 87 76 88
REMARK SMILES IDX 69 89 71 90 72 91 73 92 74 93 51 94 52 95 60 96 53 97 55 98
REMARK SMILES IDX 61 99 54 100 56 101 57 102 58 103 59 104
REMARK H PARENT 18 5 7 14 91 26 22 38 81 57 49 68
REMARK Flexibility Score: inf
ROOT
ATOM      1  C   UNL A   1      36.770  33.936  32.230  1.00  0.00     0.117 C 
ENDROOT
BRANCH   1   2
ATOM      2  N   UNL A   1      36.136  33.604  33.493  1.00  0.00    -0.356 N 
ATOM      3  C   UNL A   1      36.683  33.558  34.745  1.00  0.00     0.223 C 
ATOM      4  O   UNL A   1      35.926  33.459  35.706  1.00  0.00    -0.275 OA
ATOM      5  H   UNL A   1      35.178  33.383  33.442  1.00  0.00     0.163 HD
BRANCH   3   6
ATOM      6  C   UNL A   1      38.191  33.756  34.879  1.00  0.00     0.091 C 
ATOM      7  C   UNL A   1      39.029  32.476  34.979  1.00  0.00     0.091 C 
ATOM      8  C   UNL A   1      38.704  31.612  36.199  1.00  0.00     0.014 C 
ATOM      9  C   UNL A   1      38.749  32.422  37.499  1.00  0.00     0.001 C 
ATOM     10  C   UNL A   1      38.493  34.581  36.142  1.00  0.00     0.014 C 
ATOM     11  C   UNL A   1      38.129  33.818  37.415  1.00  0.00     0.001 C 
BRANCH   7  12
ATOM     12  C   UNL A   1      39.106  31.717  33.675  1.00  0.00     0.228 C 
ATOM     13  N   UNL A   1      40.227  31.772  32.900  1.00  0.00    -0.322 N 
ATOM     14  H   UNL A   1      40.215  31.117  32.164  1.00  0.00     0.170 HD
ATOM     15  O   UNL A   1      38.187  30.990  33.296  1.00  0.00    -0.274 OA
BRANCH  13  16
ATOM     16  C   UNL A   1      41.379  32.542  32.913  1.00  0.00     0.092 A 
ATOM     17  N   UNL A   1      43.280  33.615  33.192  1.00  0.00    -0.258 N 
ATOM     18  N   UNL A   1      42.985  33.828  31.900  1.00  0.00    -0.178 NA
ATOM     19  C   UNL A   1      42.287  32.942  33.892  1.00  0.00     0.150 A 
ATOM     20  C   UNL A   1      41.825  33.206  31.741  1.00  0.00     0.162 A 
BRANCH  17  21
ATOM     21  C   UNL A   1      44.554  34.131  33.660  1.00  0.00     0.142 C 
ATOM     22  C   UNL A   1      44.443  35.469  34.366  1.00  0.00     0.029 C 
ENDBRANCH  17  21
BRANCH  19  23
ATOM     23  C   UNL A   1      42.235  32.961  35.344  1.00  0.00     0.276 C 
ATOM     24  O   UNL A   1      41.892  33.943  35.993  1.00  0.00    -0.267 OA
ATOM     25  N   UNL A   1      42.674  31.790  35.934  1.00  0.00    -0.318 N 
ATOM     26  H   UNL A   1      42.186  30.951  35.767  1.00  0.00     0.170 HD
BRANCH  25  27
ATOM     27  C   UNL A   1      43.787  31.776  36.757  1.00  0.00     0.082 A 
ATOM     28  C   UNL A   1      45.142  31.527  36.452  1.00  0.00     0.161 A 
ATOM     29  C   UNL A   1      43.726  31.785  38.137  1.00  0.00     0.059 A 
ATOM     30  N   UNL A   1      45.835  31.179  37.540  1.00  0.00    -0.179 NA
ATOM     31  N   UNL A   1      44.928  31.247  38.533  1.00  0.00    -0.271 N 
ATOM     32  C   UNL A   1      42.628  32.100  39.084  1.00  0.00     0.068 C 
ATOM     33  C   UNL A   1      45.189  30.531  39.762  1.00  0.00     0.174 C 
ENDBRANCH  25  27
ENDBRANCH  19  23
ENDBRANCH  13  16
ENDBRANCH   7  12
ENDBRANCH   3   6
ENDBRANCH   1   2
BRANCH   1  34
ATOM     34  C   UNL A   1      35.876  33.744  31.012  1.00  0.00     0.042 C 
BRANCH  34  35
ATOM     35  C   UNL A   1      35.277  32.353  30.916  1.00  0.00     0.118 C 
BRANCH  35  36
ATOM     36  N   UNL A   1      35.078  31.901  29.540  1.00  0.00    -0.352 N 
ATOM     37  C   UNL A   1      35.987  31.225  28.739  1.00  0.00     0.251 C 
ATOM     38  H   UNL A   1      34.203  32.098  29.135  1.00  0.00     0.163 HD
ATOM     39  O   UNL A   1      35.830  31.130  27.542  1.00  0.00    -0.269 OA
BRANCH  37  40
ATOM     40  C   UNL A   1      37.168  30.640  29.404  1.00  0.00     0.039 A 
ATOM     41  C   UNL A   1      37.095  29.373  29.986  1.00  0.00     0.014 A 
ATOM     42  C   UNL A   1      38.372  31.334  29.327  1.00  0.00     0.014 A 
ATOM     43  C   UNL A   1      38.273  28.761  30.404  1.00  0.00     0.010 A 
ATOM     44  C   UNL A   1      39.543  30.675  29.613  1.00  0.00     0.010 A 
ATOM     45  C   UNL A   1      39.502  29.404  30.186  1.00  0.00    -0.014 A 
BRANCH  45  46
ATOM     46  C   UNL A   1      40.758  28.689  30.413  1.00  0.00     0.031 A 
ATOM     47  C   UNL A   1      41.215  28.652  31.834  1.00  0.00     0.074 A 
ATOM     48  C   UNL A   1      41.325  27.909  29.468  1.00  0.00     0.049 A 
ATOM     49  N   UNL A   1      42.293  29.159  32.338  1.00  0.00    -0.248 NA
ATOM     50  C   UNL A   1      40.294  28.103  32.843  1.00  0.00     0.031 C 
ATOM     51  C   UNL A   1      40.788  27.598  28.135  1.00  0.00     0.029 A 
ATOM     52  N   UNL A   1      42.410  27.087  29.553  1.00  0.00    -0.354 N 
ATOM     53  C   UNL A   1      42.301  28.774  33.683  1.00  0.00     0.074 A 
ATOM     54  C   UNL A   1      40.966  28.329  33.973  1.00  0.00     0.031 C 
ATOM     55  C   UNL A   1      41.365  26.471  27.670  1.00  0.00     0.029 A 
ATOM     56  C   UNL A   1      42.434  26.098  28.572  1.00  0.00     0.049 A 
ATOM     57  H   UNL A   1      43.108  27.183  30.241  1.00  0.00     0.167 HD
ATOM     58  C   UNL A   1      43.472  28.593  34.358  1.00  0.00     0.034 A 
ATOM     59  C   UNL A   1      43.246  25.017  28.521  1.00  0.00     0.034 A 
ATOM     60  C   UNL A   1      44.577  29.158  33.621  1.00  0.00     0.049 A 
ATOM     61  C   UNL A   1      44.413  25.306  29.378  1.00  0.00     0.074 A 
ATOM     62  C   UNL A   1      44.973  30.411  33.206  1.00  0.00     0.029 A 
ATOM     63  N   UNL A   1      45.303  28.250  32.893  1.00  0.00    -0.354 N 
ATOM     64  N   UNL A   1      45.289  26.235  29.111  1.00  0.00    -0.248 NA
ATOM     65  C   UNL A   1      44.435  24.795  30.738  1.00  0.00     0.031 C 
ATOM     66  C   UNL A   1      45.674  30.197  31.981  1.00  0.00     0.029 A 
ATOM     67  C   UNL A   1      45.711  28.824  31.726  1.00  0.00     0.049 A 
ATOM     68  H   UNL A   1      45.498  27.325  33.170  1.00  0.00     0.167 HD
ATOM     69  C   UNL A   1      45.635  26.739  30.354  1.00  0.00     0.074 A 
ATOM     70  C   UNL A   1      45.230  25.707  31.303  1.00  0.00     0.031 C 
ATOM     71  C   UNL A   1      45.924  28.065  30.511  1.00  0.00     0.034 A 
BRANCH  58  72
ATOM     72  C   UNL A   1      43.744  27.524  35.415  1.00  0.00     0.023 A 
ATOM     73  C   UNL A   1      44.166  27.990  36.688  1.00  0.00     0.012 A 
ATOM     74  C   UNL A   1      43.929  26.147  35.162  1.00  0.00     0.148 A 
ATOM     75  C   UNL A   1      44.841  27.167  37.598  1.00  0.00     0.002 A 
ATOM     76  C   UNL A   1      44.546  25.316  36.095  1.00  0.00     0.091 A 
ATOM     77  F   UNL A   1      43.618  25.631  33.973  1.00  0.00    -0.205 F 
ATOM     78  C   UNL A   1      45.040  25.828  37.296  1.00  0.00     0.022 A 
BRANCH  76  79
ATOM     79  S   UNL A   1      44.798  23.563  35.777  1.00  0.00     0.127 S 
ATOM     80  O   UNL A   1      45.342  23.113  37.055  1.00  0.00    -0.237 OA
ATOM     81  O   UNL A   1      43.436  23.114  35.489  1.00  0.00    -0.237 OA
ATOM     82  O   UNL A   1      45.702  23.497  34.636  1.00  0.00    -0.744 OA
ENDBRANCH  76  79
ENDBRANCH  58  72
BRANCH  59  83
ATOM     83  C   UNL A   1      43.017  23.684  27.926  1.00  0.00     0.023 A 
ATOM     84  C   UNL A   1      41.765  23.058  28.075  1.00  0.00     0.012 A 
ATOM     85  C   UNL A   1      43.929  23.146  26.990  1.00  0.00     0.148 A 
ATOM     86  C   UNL A   1      41.416  21.952  27.291  1.00  0.00     0.002 A 
ATOM     87  C   UNL A   1      43.578  22.045  26.215  1.00  0.00     0.091 A 
ATOM     88  F   UNL A   1      45.100  23.770  26.802  1.00  0.00    -0.205 F 
ATOM     89  C   UNL A   1      42.316  21.453  26.355  1.00  0.00     0.022 A 
BRANCH  87  90
ATOM     90  S   UNL A   1      44.672  21.352  24.967  1.00  0.00     0.127 S 
ATOM     91  O   UNL A   1      44.119  20.007  24.795  1.00  0.00    -0.237 OA
ATOM     92  O   UNL A   1      44.451  22.253  23.839  1.00  0.00    -0.237 OA
ATOM     93  O   UNL A   1      46.006  21.382  25.551  1.00  0.00    -0.744 OA
ENDBRANCH  87  90
ENDBRANCH  59  83
BRANCH  71  94
ATOM     94  C   UNL A   1      46.255  28.862  29.277  1.00  0.00     0.023 A 
ATOM     95  C   UNL A   1      47.464  28.702  28.568  1.00  0.00     0.012 A 
ATOM     96  C   UNL A   1      45.250  29.679  28.735  1.00  0.00     0.148 A 
ATOM     97  C   UNL A   1      47.672  29.364  27.355  1.00  0.00     0.002 A 
ATOM     98  C   UNL A   1      45.440  30.295  27.505  1.00  0.00     0.091 A 
ATOM     99  F   UNL A   1      44.106  29.818  29.423  1.00  0.00    -0.205 F 
ATOM    100  C   UNL A   1      46.654  30.148  26.816  1.00  0.00     0.022 A 
BRANCH  98 101
ATOM    101  S   UNL A   1      44.119  31.205  26.703  1.00  0.00     0.127 S 
ATOM    102  O   UNL A   1      43.184  30.140  26.351  1.00  0.00    -0.237 OA
ATOM    103  O   UNL A   1      43.659  32.097  27.769  1.00  0.00    -0.237 OA
ATOM    104  O   UNL A   1      44.737  31.897  25.578  1.00  0.00    -0.744 OA
ENDBRANCH  98 101
ENDBRANCH  71  94
ENDBRANCH  45  46
ENDBRANCH  37  40
ENDBRANCH  35  36
ENDBRANCH  34  35
ENDBRANCH   1  34
TORSDOF 18
ENDMDL
MODEL 2
REMARK VINA RESULT:      -9.1      8.925     13.455
REMARK SMILES CCn1ncc(NC(=O)[C@@H]2CCCC[C@@H]2C(=O)NCCCNC(=O)c2ccc(-c3c4nc(c(-c5cccc(S(=O)(=O)[O-])c5F)c5ccc([nH]5)c(-c5cccc(S(=O)(=O)[O-])c5F)c5nc(c(-c6cccc(S(=O)(=O)[O-])c6F)c6ccc3[nH]6)C=C5)C=C4)cc2)c1C(=O)Nc1cnn(C)c1C
REMARK SMILES IDX 19 1 18 2 16 3 17 4 15 6 10 7 11 8 12 9 14 10 13 11 8 12
REMARK SMILES IDX 7 13 9 15 6 16 3 17 4 18 88 19 5 20 2 21 1 22 89 23 90 24
REMARK SMILES IDX 91 25 92 27 93 28 97 29 94 30 95 31 98 32 96 33 20 34 21 35
REMARK SMILES IDX 22 36 23 37 24 39 25 40 26 41 87 42 27 43 86 44 28 45 29 46
REMARK SMILES IDX 30 47 80 48 31 49 85 50 79 51 81 52 32 53 84 54 78 55 77 56
REMARK SMILES IDX 33 58 65 59 45 60 64 61 46 62 49 63 63 64 82 65 47 66 48 67
REMARK SMILES IDX 62 69 83 70 50 71 34 72 35 73 43 74 36 75 38 76 44 77 37 78
REMARK SMILES IDX 39 79 40 80 41 81 42 82 66 83 67 84 75 85 68 86 70 87 76 88
REMARK SMILES IDX 69 89 71 90 72 91 73 92 74 93 51 94 52 95 60 96 53 97 55 98
REMARK SMILES IDX 61 99 54 100 56 101 57 102 58 103 59 104
REMARK H PARENT 18 5 7 14 91 26 22 38 81 57 49 68
REMARK Flexibility Score: inf
ROOT
ATOM      1  C   UNL A   1      43.447  40.493  26.215  1.00  0.00     0.117 C 
ENDROOT
BRANCH   1   2
ATOM      2  N   UNL A   1      44.859  40.596  25.893  1.00  0.00    -0.356 N 
ATOM      3  C   UNL A   1      45.493  41.493  25.080  1.00  0.00     0.223 C 
ATOM      4  O   UNL A   1      46.720  41.535  25.108  1.00  0.00    -0.275 OA
ATOM      5  H   UNL A   1      45.441  39.927  26.321  1.00  0.00     0.163 HD
BRANCH   3   6
ATOM      6  C   UNL A   1      44.636  42.470  24.278  1.00  0.00     0.091 C 
ATOM      7  C   UNL A   1      45.304  43.091  23.046  1.00  0.00     0.091 C 
ATOM      8  C   UNL A   1      46.543  43.931  23.364  1.00  0.00     0.014 C 
ATOM      9  C   UNL A   1      46.258  44.980  24.444  1.00  0.00     0.001 C 
ATOM     10  C   UNL A   1      44.203  43.637  25.182  1.00  0.00     0.014 C 
ATOM     11  C   UNL A   1      45.395  44.493  25.609  1.00  0.00     0.001 C 
BRANCH   7  12
ATOM     12  C   UNL A   1      45.486  42.107  21.913  1.00  0.00     0.228 C 
ATOM     13  N   UNL A   1      44.683  42.153  20.812  1.00  0.00    -0.322 N 
ATOM     14  H   UNL A   1      45.000  41.571  20.084  1.00  0.00     0.170 HD
ATOM     15  O   UNL A   1      46.389  41.270  21.925  1.00  0.00    -0.274 OA
BRANCH  13  16
ATOM     16  C   UNL A   1      43.522  42.836  20.485  1.00  0.00     0.092 A 
ATOM     17  N   UNL A   1      41.813  43.979  19.699  1.00  0.00    -0.258 N 
ATOM     18  N   UNL A   1      41.283  43.281  20.716  1.00  0.00    -0.178 NA
ATOM     19  C   UNL A   1      43.191  43.845  19.582  1.00  0.00     0.150 A 
ATOM     20  C   UNL A   1      42.320  42.615  21.207  1.00  0.00     0.162 A 
BRANCH  17  21
ATOM     21  C   UNL A   1      40.891  44.774  18.908  1.00  0.00     0.142 C 
ATOM     22  C   UNL A   1      40.816  44.348  17.455  1.00  0.00     0.029 C 
ENDBRANCH  17  21
BRANCH  19  23
ATOM     23  C   UNL A   1      43.985  44.795  18.823  1.00  0.00     0.276 C 
ATOM     24  O   UNL A   1      44.269  44.642  17.640  1.00  0.00    -0.267 OA
ATOM     25  N   UNL A   1      44.455  45.857  19.573  1.00  0.00    -0.318 N 
ATOM     26  H   UNL A   1      43.812  46.479  19.986  1.00  0.00     0.170 HD
BRANCH  25  27
ATOM     27  C   UNL A   1      45.812  46.063  19.754  1.00  0.00     0.082 A 
ATOM     28  C   UNL A   1      46.872  45.135  19.827  1.00  0.00     0.161 A 
ATOM     29  C   UNL A   1      46.364  47.269  20.138  1.00  0.00     0.059 A 
ATOM     30  N   UNL A   1      47.944  45.660  20.428  1.00  0.00    -0.179 NA
ATOM     31  N   UNL A   1      47.574  46.926  20.696  1.00  0.00    -0.271 N 
ATOM     32  C   UNL A   1      45.821  48.650  20.168  1.00  0.00     0.068 C 
ATOM     33  C   UNL A   1      48.293  47.660  21.714  1.00  0.00     0.174 C 
ENDBRANCH  25  27
ENDBRANCH  19  23
ENDBRANCH  13  16
ENDBRANCH   7  12
ENDBRANCH   3   6
ENDBRANCH   1   2
BRANCH   1  34
ATOM     34  C   UNL A   1      43.153  39.746  27.508  1.00  0.00     0.042 C 
BRANCH  34  35
ATOM     35  C   UNL A   1      42.798  38.286  27.295  1.00  0.00     0.118 C 
BRANCH  35  36
ATOM     36  N   UNL A   1      43.848  37.526  26.619  1.00  0.00    -0.352 N 
ATOM     37  C   UNL A   1      44.563  36.450  27.123  1.00  0.00     0.251 C 
ATOM     38  H   UNL A   1      44.073  37.809  25.703  1.00  0.00     0.163 HD
ATOM     39  O   UNL A   1      45.582  36.062  26.596  1.00  0.00    -0.269 OA
BRANCH  37  40
ATOM     40  C   UNL A   1      44.042  35.807  28.345  1.00  0.00     0.039 A 
ATOM     41  C   UNL A   1      43.548  36.584  29.396  1.00  0.00     0.014 A 
ATOM     42  C   UNL A   1      43.948  34.419  28.364  1.00  0.00     0.014 A 
ATOM     43  C   UNL A   1      42.864  35.952  30.430  1.00  0.00     0.010 A 
ATOM     44  C   UNL A   1      43.157  33.815  29.312  1.00  0.00     0.010 A 
ATOM     45  C   UNL A   1      42.642  34.567  30.368  1.00  0.00    -0.014 A 
BRANCH  45  46
ATOM     46  C   UNL A   1      41.741  33.922  31.323  1.00  0.00     0.031 A 
ATOM     47  C   UNL A   1      42.274  33.806  32.713  1.00  0.00     0.074 A 
ATOM     48  C   UNL A   1      40.442  33.682  31.041  1.00  0.00     0.049 A 
ATOM     49  N   UNL A   1      42.527  32.728  33.383  1.00  0.00    -0.248 NA
ATOM     50  C   UNL A   1      42.706  35.038  33.393  1.00  0.00     0.031 C 
ATOM     51  C   UNL A   1      39.715  34.060  29.821  1.00  0.00     0.029 A 
ATOM     52  N   UNL A   1      39.449  33.211  31.848  1.00  0.00    -0.354 N 
ATOM     53  C   UNL A   1      42.917  33.155  34.656  1.00  0.00     0.074 A 
ATOM     54  C   UNL A   1      43.213  34.555  34.529  1.00  0.00     0.031 C 
ATOM     55  C   UNL A   1      38.391  34.077  30.074  1.00  0.00     0.029 A 
ATOM     56  C   UNL A   1      38.170  33.530  31.396  1.00  0.00     0.049 A 
ATOM     57  H   UNL A   1      39.619  32.697  32.671  1.00  0.00     0.167 HD
ATOM     58  C   UNL A   1      42.691  32.384  35.758  1.00  0.00     0.034 A 
ATOM     59  C   UNL A   1      37.007  33.396  32.075  1.00  0.00     0.034 A 
ATOM     60  C   UNL A   1      42.343  31.037  35.374  1.00  0.00     0.049 A 
ATOM     61  C   UNL A   1      37.240  32.418  33.155  1.00  0.00     0.074 A 
ATOM     62  C   UNL A   1      42.954  29.987  34.725  1.00  0.00     0.029 A 
ATOM     63  N   UNL A   1      40.998  30.769  35.386  1.00  0.00    -0.354 N 
ATOM     64  N   UNL A   1      37.500  31.158  32.941  1.00  0.00    -0.248 NA
ATOM     65  C   UNL A   1      37.534  32.901  34.493  1.00  0.00     0.031 C 
ATOM     66  C   UNL A   1      41.901  29.294  34.055  1.00  0.00     0.029 A 
ATOM     67  C   UNL A   1      40.692  29.926  34.358  1.00  0.00     0.049 A 
ATOM     68  H   UNL A   1      40.352  31.130  36.036  1.00  0.00     0.167 HD
ATOM     69  C   UNL A   1      38.401  30.826  33.939  1.00  0.00     0.074 A 
ATOM     70  C   UNL A   1      38.238  31.863  34.952  1.00  0.00     0.031 C 
ATOM     71  C   UNL A   1      39.402  29.927  33.700  1.00  0.00     0.034 A 
BRANCH  58  72
ATOM     72  C   UNL A   1      42.306  32.892  37.147  1.00  0.00     0.023 A 
ATOM     73  C   UNL A   1      43.004  32.320  38.243  1.00  0.00     0.012 A 
ATOM     74  C   UNL A   1      41.132  33.611  37.461  1.00  0.00     0.148 A 
ATOM     75  C   UNL A   1      42.499  32.354  39.548  1.00  0.00     0.002 A 
ATOM     76  C   UNL A   1      40.664  33.697  38.771  1.00  0.00     0.091 A 
ATOM     77  F   UNL A   1      40.379  34.132  36.493  1.00  0.00    -0.205 F 
ATOM     78  C   UNL A   1      41.321  33.037  39.812  1.00  0.00     0.022 A 
BRANCH  76  79
ATOM     79  S   UNL A   1      39.163  34.599  39.181  1.00  0.00     0.127 S 
ATOM     80  O   UNL A   1      39.117  34.440  40.632  1.00  0.00    -0.237 OA
ATOM     81  O   UNL A   1      39.489  35.947  38.714  1.00  0.00    -0.237 OA
ATOM     82  O   UNL A   1      38.097  33.950  38.430  1.00  0.00    -0.744 OA
ENDBRANCH  76  79
ENDBRANCH  58  72
BRANCH  59  83
ATOM     83  C   UNL A   1      35.753  34.172  31.971  1.00  0.00     0.023 A 
ATOM     84  C   UNL A   1      35.396  35.064  32.999  1.00  0.00     0.012 A 
ATOM     85  C   UNL A   1      35.046  34.239  30.749  1.00  0.00     0.148 A 
ATOM     86  C   UNL A   1      34.390  36.018  32.807  1.00  0.00     0.002 A 
ATOM     87  C   UNL A   1      34.045  35.187  30.563  1.00  0.00     0.091 A 
ATOM     88  F   UNL A   1      35.419  33.431  29.746  1.00  0.00    -0.205 F 
ATOM     89  C   UNL A   1      33.723  36.088  31.588  1.00  0.00     0.022 A 
BRANCH  87  90
ATOM     90  S   UNL A   1      33.152  35.360  29.013  1.00  0.00     0.127 S 
ATOM     91  O   UNL A   1      34.241  35.586  28.060  1.00  0.00    -0.237 OA
ATOM     92  O   UNL A   1      32.497  34.060  28.895  1.00  0.00    -0.237 OA
ATOM     93  O   UNL A   1      32.266  36.502  29.192  1.00  0.00    -0.744 OA
ENDBRANCH  87  90
ENDBRANCH  59  83
BRANCH  71  94
ATOM     94  C   UNL A   1      39.263  29.023  32.505  1.00  0.00     0.023 A 
ATOM     95  C   UNL A   1      38.519  27.825  32.537  1.00  0.00     0.012 A 
ATOM     96  C   UNL A   1      39.769  29.478  31.277  1.00  0.00     0.148 A 
ATOM     97  C   UNL A   1      38.306  27.086  31.370  1.00  0.00     0.002 A 
ATOM     98  C   UNL A   1      39.513  28.769  30.111  1.00  0.00     0.091 A 
ATOM     99  F   UNL A   1      40.473  30.620  31.266  1.00  0.00    -0.205 F 
ATOM    100  C   UNL A   1      38.790  27.566  30.154  1.00  0.00     0.022 A 
BRANCH  98 101
ATOM    101  S   UNL A   1      39.996  29.405  28.506  1.00  0.00     0.127 S 
ATOM    102  O   UNL A   1      39.154  30.592  28.381  1.00  0.00    -0.237 OA
ATOM    103  O   UNL A   1      41.421  29.682  28.692  1.00  0.00    -0.237 OA
ATOM    104  O   UNL A   1      39.721  28.336  27.553  1.00  0.00    -0.744 OA
ENDBRANCH  98 101
ENDBRANCH  71  94
ENDBRANCH  45  46
ENDBRANCH  37  40
ENDBRANCH  35  36
ENDBRANCH  34  35
ENDBRANCH   1  34
TORSDOF 18
ENDMDL
MODEL 3
REMARK VINA RESULT:      -9.0      2.007      2.466
REMARK SMILES CCn1ncc(NC(=O)[C@@H]2CCCC[C@@H]2C(=O)NCCCNC(=O)c2ccc(-c3c4nc(c(-c5cccc(S(=O)(=O)[O-])c5F)c5ccc([nH]5)c(-c5cccc(S(=O)(=O)[O-])c5F)c5nc(c(-c6cccc(S(=O)(=O)[O-])c6F)c6ccc3[nH]6)C=C5)C=C4)cc2)c1C(=O)Nc1cnn(C)c1C
REMARK SMILES IDX 19 1 18 2 16 3 17 4 15 6 10 7 11 8 12 9 14 10 13 11 8 12
REMARK SMILES IDX 7 13 9 15 6 16 3 17 4 18 88 19 5 20 2 21 1 22 89 23 90 24
REMARK SMILES IDX 91 25 92 27 93 28 97 29 94 30 95 31 98 32 96 33 20 34 21 35
REMARK SMILES IDX 22 36 23 37 24 39 25 40 26 41 87 42 27 43 86 44 28 45 29 46
REMARK SMILES IDX 30 47 80 48 31 49 85 50 79 51 81 52 32 53 84 54 78 55 77 56
REMARK SMILES IDX 33 58 65 59 45 60 64 61 46 62 49 63 63 64 82 65 47 66 48 67
REMARK SMILES IDX 62 69 83 70 50 71 34 72 35 73 43 74 36 75 38 76 44 77 37 78
REMARK SMILES IDX 39 79 40 80 41 81 42 82 66 83 67 84 75 85 68 86 70 87 76 88
REMARK SMILES IDX 69 89 71 90 72 91 73 92 74 93 51 94 52 95 60 96 53 97 55 98
REMARK SMILES IDX 61 99 54 100 56 101 57 102 58 103 59 104
REMARK H PARENT 18 5 7 14 91 26 22 38 81 57 49 68
REMARK Flexibility Score: inf
ROOT
ATOM      1  C   UNL A   1      36.390  34.052  32.388  1.00  0.00     0.117 C 
ENDROOT
BRANCH   1   2
ATOM      2  N   UNL A   1      35.798  33.776  33.684  1.00  0.00    -0.356 N 
ATOM      3  C   UNL A   1      36.404  33.687  34.905  1.00  0.00     0.223 C 
ATOM      4  O   UNL A   1      35.693  33.652  35.905  1.00  0.00    -0.275 OA
ATOM      5  H   UNL A   1      34.824  33.634  33.683  1.00  0.00     0.163 HD
BRANCH   3   6
ATOM      6  C   UNL A   1      37.929  33.760  34.960  1.00  0.00     0.091 C 
ATOM      7  C   UNL A   1      38.663  32.415  35.001  1.00  0.00     0.091 C 
ATOM      8  C   UNL A   1      38.334  31.562  36.228  1.00  0.00     0.014 C 
ATOM      9  C   UNL A   1      38.515  32.347  37.532  1.00  0.00     0.001 C 
ATOM     10  C   UNL A   1      38.363  34.539  36.214  1.00  0.00     0.014 C 
ATOM     11  C   UNL A   1      38.007  33.788  37.496  1.00  0.00     0.001 C 
BRANCH   7  12
ATOM     12  C   UNL A   1      38.608  31.672  33.686  1.00  0.00     0.228 C 
ATOM     13  N   UNL A   1      39.554  31.881  32.726  1.00  0.00    -0.322 N 
ATOM     14  H   UNL A   1      39.501  31.229  31.990  1.00  0.00     0.170 HD
ATOM     15  O   UNL A   1      37.745  30.824  33.460  1.00  0.00    -0.274 OA
BRANCH  13  16
ATOM     16  C   UNL A   1      40.575  32.803  32.553  1.00  0.00     0.092 A 
ATOM     17  N   UNL A   1      42.365  34.077  32.446  1.00  0.00    -0.258 N 
ATOM     18  N   UNL A   1      41.600  34.525  31.438  1.00  0.00    -0.178 NA
ATOM     19  C   UNL A   1      41.749  33.114  33.234  1.00  0.00     0.150 A 
ATOM     20  C   UNL A   1      40.509  33.775  31.522  1.00  0.00     0.162 A 
BRANCH  17  21
ATOM     21  C   UNL A   1      43.683  34.674  32.574  1.00  0.00     0.142 C 
ATOM     22  C   UNL A   1      44.355  34.951  31.243  1.00  0.00     0.029 C 
ENDBRANCH  17  21
BRANCH  19  23
ATOM     23  C   UNL A   1      42.236  32.798  34.566  1.00  0.00     0.276 C 
ATOM     24  O   UNL A   1      41.986  31.744  35.142  1.00  0.00    -0.267 OA
ATOM     25  N   UNL A   1      42.951  33.822  35.158  1.00  0.00    -0.318 N 
ATOM     26  H   UNL A   1      43.794  34.124  34.747  1.00  0.00     0.170 HD
BRANCH  25  27
ATOM     27  C   UNL A   1      42.505  34.430  36.319  1.00  0.00     0.082 A 
ATOM     28  C   UNL A   1      41.798  35.637  36.500  1.00  0.00     0.161 A 
ATOM     29  C   UNL A   1      42.894  34.048  37.588  1.00  0.00     0.059 A 
ATOM     30  N   UNL A   1      41.926  36.100  37.747  1.00  0.00    -0.179 NA
ATOM     31  N   UNL A   1      42.679  35.167  38.360  1.00  0.00    -0.271 N 
ATOM     32  C   UNL A   1      43.564  32.828  38.100  1.00  0.00     0.068 C 
ATOM     33  C   UNL A   1      43.383  35.526  39.571  1.00  0.00     0.174 C 
ENDBRANCH  25  27
ENDBRANCH  19  23
ENDBRANCH  13  16
ENDBRANCH   7  12
ENDBRANCH   3   6
ENDBRANCH   1   2
BRANCH   1  34
ATOM     34  C   UNL A   1      35.409  33.984  31.225  1.00  0.00     0.042 C 
BRANCH  34  35
ATOM     35  C   UNL A   1      34.695  32.650  31.113  1.00  0.00     0.118 C 
BRANCH  35  36
ATOM     36  N   UNL A   1      34.353  32.287  29.738  1.00  0.00    -0.352 N 
ATOM     37  C   UNL A   1      35.176  31.680  28.801  1.00  0.00     0.251 C 
ATOM     38  H   UNL A   1      33.438  32.499  29.445  1.00  0.00     0.163 HD
ATOM     39  O   UNL A   1      34.892  31.663  27.624  1.00  0.00    -0.269 OA
BRANCH  37  40
ATOM     40  C   UNL A   1      36.426  31.069  29.296  1.00  0.00     0.039 A 
ATOM     41  C   UNL A   1      36.472  29.708  29.603  1.00  0.00     0.014 A 
ATOM     42  C   UNL A   1      37.570  31.860  29.329  1.00  0.00     0.014 A 
ATOM     43  C   UNL A   1      37.710  29.121  29.851  1.00  0.00     0.010 A 
ATOM     44  C   UNL A   1      38.799  31.253  29.438  1.00  0.00     0.010 A 
ATOM     45  C   UNL A   1      38.877  29.893  29.735  1.00  0.00    -0.014 A 
BRANCH  45  46
ATOM     46  C   UNL A   1      40.192  29.251  29.771  1.00  0.00     0.031 A 
ATOM     47  C   UNL A   1      40.753  29.042  31.138  1.00  0.00     0.074 A 
ATOM     48  C   UNL A   1      40.738  28.665  28.685  1.00  0.00     0.049 A 
ATOM     49  N   UNL A   1      41.830  29.550  31.645  1.00  0.00    -0.248 NA
ATOM     50  C   UNL A   1      39.948  28.281  32.108  1.00  0.00     0.031 C 
ATOM     51  C   UNL A   1      40.127  28.512  27.356  1.00  0.00     0.029 A 
ATOM     52  N   UNL A   1      41.879  27.925  28.576  1.00  0.00    -0.354 N 
ATOM     53  C   UNL A   1      41.962  28.975  32.912  1.00  0.00     0.074 A 
ATOM     54  C   UNL A   1      40.685  28.390  33.215  1.00  0.00     0.031 C 
ATOM     55  C   UNL A   1      40.741  27.513  26.691  1.00  0.00     0.029 A 
ATOM     56  C   UNL A   1      41.896  27.095  27.457  1.00  0.00     0.049 A 
ATOM     57  H   UNL A   1      42.617  27.972  29.225  1.00  0.00     0.167 HD
ATOM     58  C   UNL A   1      43.189  28.787  33.477  1.00  0.00     0.034 A 
ATOM     59  C   UNL A   1      42.773  26.099  27.192  1.00  0.00     0.034 A 
ATOM     60  C   UNL A   1      44.197  29.538  32.766  1.00  0.00     0.049 A 
ATOM     61  C   UNL A   1      43.978  26.349  28.007  1.00  0.00     0.074 A 
ATOM     62  C   UNL A   1      44.476  30.864  32.522  1.00  0.00     0.029 A 
ATOM     63  N   UNL A   1      44.926  28.805  31.865  1.00  0.00    -0.354 N 
ATOM     64  N   UNL A   1      44.768  27.371  27.830  1.00  0.00    -0.248 NA
ATOM     65  C   UNL A   1      44.134  25.647  29.269  1.00  0.00     0.031 C 
ATOM     66  C   UNL A   1      45.098  30.887  31.238  1.00  0.00     0.029 A 
ATOM     67  C   UNL A   1      45.208  29.574  30.775  1.00  0.00     0.049 A 
ATOM     68  H   UNL A   1      45.202  27.867  31.986  1.00  0.00     0.167 HD
ATOM     69  C   UNL A   1      45.170  27.713  29.111  1.00  0.00     0.074 A 
ATOM     70  C   UNL A   1      44.906  26.525  29.915  1.00  0.00     0.031 C 
ATOM     71  C   UNL A   1      45.381  29.020  29.448  1.00  0.00     0.034 A 
BRANCH  58  72
ATOM     72  C   UNL A   1      43.609  27.599  34.341  1.00  0.00     0.023 A 
ATOM     73  C   UNL A   1      44.179  27.908  35.604  1.00  0.00     0.012 A 
ATOM     74  C   UNL A   1      43.784  26.273  33.885  1.00  0.00     0.148 A 
ATOM     75  C   UNL A   1      44.976  26.996  36.306  1.00  0.00     0.002 A 
ATOM     76  C   UNL A   1      44.527  25.348  34.616  1.00  0.00     0.091 A 
ATOM     77  F   UNL A   1      43.336  25.907  32.685  1.00  0.00    -0.205 F 
ATOM     78  C   UNL A   1      45.158  25.715  35.806  1.00  0.00     0.022 A 
BRANCH  76  79
ATOM     79  S   UNL A   1      44.767  23.662  34.038  1.00  0.00     0.127 S 
ATOM     80  O   UNL A   1      43.387  23.215  33.869  1.00  0.00    -0.237 OA
ATOM     81  O   UNL A   1      45.508  23.876  32.795  1.00  0.00    -0.237 OA
ATOM     82  O   UNL A   1      45.534  22.995  35.081  1.00  0.00    -0.744 OA
ENDBRANCH  76  79
ENDBRANCH  58  72
BRANCH  59  83
ATOM     83  C   UNL A   1      42.590  24.854  26.416  1.00  0.00     0.023 A 
ATOM     84  C   UNL A   1      43.522  24.507  25.421  1.00  0.00     0.012 A 
ATOM     85  C   UNL A   1      41.656  23.878  26.831  1.00  0.00     0.148 A 
ATOM     86  C   UNL A   1      43.550  23.217  24.879  1.00  0.00     0.002 A 
ATOM     87  C   UNL A   1      41.685  22.597  26.288  1.00  0.00     0.091 A 
ATOM     88  F   UNL A   1      40.802  24.183  27.818  1.00  0.00    -0.205 F 
ATOM     89  C   UNL A   1      42.641  22.260  25.320  1.00  0.00     0.022 A 
BRANCH  87  90
ATOM     90  S   UNL A   1      40.564  21.296  26.817  1.00  0.00     0.127 S 
ATOM     91  O   UNL A   1      40.819  21.244  28.258  1.00  0.00    -0.237 OA
ATOM     92  O   UNL A   1      39.264  21.849  26.447  1.00  0.00    -0.237 OA
ATOM     93  O   UNL A   1      40.974  20.101  26.092  1.00  0.00    -0.744 OA
ENDBRANCH  87  90
ENDBRANCH  59  83
BRANCH  71  94
ATOM     94  C   UNL A   1      45.566  30.012  28.331  1.00  0.00     0.023 A 
ATOM     95  C   UNL A   1      44.483  30.603  27.649  1.00  0.00     0.012 A 
ATOM     96  C   UNL A   1      46.867  30.472  28.072  1.00  0.00     0.148 A 
ATOM     97  C   UNL A   1      44.698  31.617  26.712  1.00  0.00     0.002 A 
ATOM     98  C   UNL A   1      47.074  31.514  27.178  1.00  0.00     0.091 A 
ATOM     99  F   UNL A   1      47.885  29.898  28.731  1.00  0.00    -0.205 F 
ATOM    100  C   UNL A   1      45.992  32.083  26.487  1.00  0.00     0.022 A 
BRANCH  98 101
ATOM    101  S   UNL A   1      48.697  32.241  26.950  1.00  0.00     0.127 S 
ATOM    102  O   UNL A   1      48.437  33.260  25.937  1.00  0.00    -0.237 OA
ATOM    103  O   UNL A   1      48.998  32.765  28.284  1.00  0.00    -0.237 OA
ATOM    104  O   UNL A   1      49.569  31.148  26.534  1.00  0.00    -0.744 OA
ENDBRANCH  98 101
ENDBRANCH  71  94
ENDBRANCH  45  46
ENDBRANCH  37  40
ENDBRANCH  35  36
ENDBRANCH  34  35
ENDBRANCH   1  34
TORSDOF 18
ENDMDL
