MODEL 1
REMARK VINA RESULT:     -11.7      0.000      0.000
REMARK SMILES COc1cc(C[N@@H+]2CCO[C@@H](CC(=O)NCCCNC(=O)c3ccc(-c4c5nc(c(-c6cccc(S(=O)(=O)[O-])c6F)c6ccc([nH]6)c(-c6cccc(S(=O)(=O)[O-])c6F)c6nc(c(-c7cccc(S(=O)(=O)[O-])c7F)c7ccc4[nH]7)C=C6)C=C5)cc3)C2)ccc1O
REMARK SMILES IDX 16 1 15 2 13 3 14 4 12 6 11 7 7 8 8 9 85 10 9 12 10 13 6 14
REMARK SMILES IDX 5 15 3 16 4 17 88 18 87 19 86 20 2 21 1 22 89 23 17 25 18 26
REMARK SMILES IDX 19 27 20 28 21 30 22 31 23 32 84 33 24 34 83 35 25 36 26 37
REMARK SMILES IDX 27 38 77 39 28 40 82 41 76 42 78 43 29 44 81 45 75 46 74 47
REMARK SMILES IDX 30 49 62 50 42 51 61 52 43 53 46 54 60 55 79 56 44 57 45 58
REMARK SMILES IDX 59 60 80 61 47 62 31 63 32 64 40 65 33 66 35 67 41 68 34 69
REMARK SMILES IDX 36 70 37 71 38 72 39 73 63 74 64 75 72 76 65 77 67 78 73 79
REMARK SMILES IDX 66 80 68 81 69 82 70 83 71 84 48 85 49 86 57 87 50 88 52 89
REMARK SMILES IDX 58 90 51 91 53 92 54 93 55 94 56 95
REMARK H PARENT 15 5 7 11 89 24 19 29 78 48 46 59
REMARK Flexibility Score: inf
ROOT
ATOM      1  C   UNL A   1      31.648  30.485  25.814  1.00  0.00     0.117 C 
ENDROOT
BRANCH   1   2
ATOM      2  N   UNL A   1      30.785  30.284  24.656  1.00  0.00    -0.356 N 
ATOM      3  C   UNL A   1      30.884  29.407  23.613  1.00  0.00     0.222 C 
ATOM      4  O   UNL A   1      30.007  29.432  22.749  1.00  0.00    -0.275 OA
ATOM      5  H   UNL A   1      30.001  30.879  24.619  1.00  0.00     0.163 HD
BRANCH   3   6
ATOM      6  C   UNL A   1      32.054  28.450  23.515  1.00  0.00     0.138 C 
BRANCH   6   7
ATOM      7  C   UNL A   1      31.661  26.998  23.805  1.00  0.00     0.182 C 
ATOM      8  N   UNL A   1      32.649  24.725  24.425  1.00  0.00    -0.327 N 
ATOM      9  C   UNL A   1      31.645  24.673  25.488  1.00  0.00     0.291 C 
ATOM     10  C   UNL A   1      32.894  26.094  23.990  1.00  0.00     0.295 C 
ATOM     11  H   UNL A   1      33.513  24.402  24.862  1.00  0.00     0.348 HD
ATOM     12  C   UNL A   1      30.460  25.644  25.323  1.00  0.00     0.222 C 
ATOM     13  O   UNL A   1      30.878  26.986  25.017  1.00  0.00    -0.366 OA
BRANCH   8  14
ATOM     14  C   UNL A   1      32.550  23.719  23.363  1.00  0.00     0.299 C 
BRANCH  14  15
ATOM     15  C   UNL A   1      33.058  22.343  23.729  1.00  0.00     0.010 A 
ATOM     16  C   UNL A   1      34.727  20.954  24.789  1.00  0.00     0.160 A 
ATOM     17  C   UNL A   1      34.340  22.187  24.273  1.00  0.00     0.060 A 
ATOM     18  C   UNL A   1      33.876  19.853  24.689  1.00  0.00     0.157 A 
ATOM     19  C   UNL A   1      32.622  19.977  24.107  1.00  0.00     0.051 A 
ATOM     20  C   UNL A   1      32.218  21.219  23.616  1.00  0.00     0.013 A 
BRANCH  16  21
ATOM     21  O   UNL A   1      35.963  20.849  25.369  1.00  0.00    -0.493 OA
ATOM     22  C   UNL A   1      36.478  22.131  25.741  1.00  0.00     0.278 C 
ENDBRANCH  16  21
BRANCH  18  23
ATOM     23  O   UNL A   1      34.260  18.624  25.146  1.00  0.00    -0.504 OA
ATOM     24  H   UNL A   1      35.168  18.395  25.167  1.00  0.00     0.293 HD
ENDBRANCH  18  23
ENDBRANCH  14  15
ENDBRANCH   8  14
ENDBRANCH   6   7
ENDBRANCH   3   6
ENDBRANCH   1   2
BRANCH   1  25
ATOM     25  C   UNL A   1      31.440  31.844  26.487  1.00  0.00     0.042 C 
BRANCH  25  26
ATOM     26  C   UNL A   1      32.660  32.368  27.229  1.00  0.00     0.118 C 
BRANCH  26  27
ATOM     27  N   UNL A   1      32.523  33.779  27.547  1.00  0.00    -0.352 N 
ATOM     28  C   UNL A   1      33.137  34.515  28.532  1.00  0.00     0.251 C 
ATOM     29  H   UNL A   1      31.900  34.281  26.973  1.00  0.00     0.163 HD
ATOM     30  O   UNL A   1      32.676  35.616  28.828  1.00  0.00    -0.269 OA
BRANCH  28  31
ATOM     31  C   UNL A   1      34.333  34.000  29.244  1.00  0.00     0.039 A 
ATOM     32  C   UNL A   1      34.155  33.247  30.411  1.00  0.00     0.014 A 
ATOM     33  C   UNL A   1      35.626  34.299  28.809  1.00  0.00     0.014 A 
ATOM     34  C   UNL A   1      35.266  32.754  31.105  1.00  0.00     0.010 A 
ATOM     35  C   UNL A   1      36.730  33.747  29.459  1.00  0.00     0.010 A 
ATOM     36  C   UNL A   1      36.565  32.976  30.620  1.00  0.00    -0.014 A 
BRANCH  36  37
ATOM     37  C   UNL A   1      37.762  32.410  31.297  1.00  0.00     0.031 A 
ATOM     38  C   UNL A   1      38.509  31.255  30.682  1.00  0.00     0.074 A 
ATOM     39  C   UNL A   1      38.118  32.864  32.515  1.00  0.00     0.049 A 
ATOM     40  N   UNL A   1      39.505  30.561  31.172  1.00  0.00    -0.248 NA
ATOM     41  C   UNL A   1      38.062  30.804  29.354  1.00  0.00     0.031 C 
ATOM     42  C   UNL A   1      37.438  33.933  33.249  1.00  0.00     0.029 A 
ATOM     43  N   UNL A   1      39.117  32.459  33.368  1.00  0.00    -0.354 N 
ATOM     44  C   UNL A   1      39.777  29.571  30.235  1.00  0.00     0.074 A 
ATOM     45  C   UNL A   1      38.826  29.737  29.157  1.00  0.00     0.031 C 
ATOM     46  C   UNL A   1      38.031  34.092  34.443  1.00  0.00     0.029 A 
ATOM     47  C   UNL A   1      39.108  33.116  34.577  1.00  0.00     0.049 A 
ATOM     48  H   UNL A   1      39.774  31.765  33.136  1.00  0.00     0.167 HD
ATOM     49  C   UNL A   1      40.747  28.625  30.256  1.00  0.00     0.034 A 
ATOM     50  C   UNL A   1      39.867  32.942  35.678  1.00  0.00     0.034 A 
ATOM     51  C   UNL A   1      41.724  28.491  31.303  1.00  0.00     0.049 A 
ATOM     52  C   UNL A   1      40.950  31.898  35.666  1.00  0.00     0.074 A 
ATOM     53  C   UNL A   1      42.806  27.631  31.364  1.00  0.00     0.029 A 
ATOM     54  N   UNL A   1      41.733  29.229  32.476  1.00  0.00    -0.354 N 
ATOM     55  N   UNL A   1      41.296  31.079  34.702  1.00  0.00    -0.248 NA
ATOM     56  C   UNL A   1      41.768  31.770  36.882  1.00  0.00     0.031 C 
ATOM     57  C   UNL A   1      43.457  27.834  32.586  1.00  0.00     0.029 A 
ATOM     58  C   UNL A   1      42.791  28.833  33.276  1.00  0.00     0.049 A 
ATOM     59  H   UNL A   1      41.083  29.932  32.706  1.00  0.00     0.167 HD
ATOM     60  C   UNL A   1      42.385  30.361  35.184  1.00  0.00     0.074 A 
ATOM     61  C   UNL A   1      42.657  30.857  36.517  1.00  0.00     0.031 C 
ATOM     62  C   UNL A   1      43.084  29.367  34.581  1.00  0.00     0.034 A 
BRANCH  49  63
ATOM     63  C   UNL A   1      40.839  27.686  29.080  1.00  0.00     0.023 A 
ATOM     64  C   UNL A   1      39.979  26.570  29.016  1.00  0.00     0.012 A 
ATOM     65  C   UNL A   1      41.720  27.943  28.012  1.00  0.00     0.148 A 
ATOM     66  C   UNL A   1      40.016  25.707  27.922  1.00  0.00     0.002 A 
ATOM     67  C   UNL A   1      41.722  27.100  26.905  1.00  0.00     0.091 A 
ATOM     68  F   UNL A   1      42.544  28.996  28.100  1.00  0.00    -0.205 F 
ATOM     69  C   UNL A   1      40.880  25.978  26.863  1.00  0.00     0.022 A 
BRANCH  67  70
ATOM     70  S   UNL A   1      42.743  27.405  25.458  1.00  0.00     0.127 S 
ATOM     71  O   UNL A   1      42.594  26.149  24.723  1.00  0.00    -0.237 OA
ATOM     72  O   UNL A   1      42.074  28.553  24.844  1.00  0.00    -0.237 OA
ATOM     73  O   UNL A   1      44.081  27.681  25.962  1.00  0.00    -0.744 OA
ENDBRANCH  67  70
ENDBRANCH  49  63
BRANCH  50  74
ATOM     74  C   UNL A   1      39.659  33.816  36.867  1.00  0.00     0.023 A 
ATOM     75  C   UNL A   1      40.030  35.172  36.798  1.00  0.00     0.012 A 
ATOM     76  C   UNL A   1      39.064  33.327  38.047  1.00  0.00     0.148 A 
ATOM     77  C   UNL A   1      39.836  36.020  37.889  1.00  0.00     0.002 A 
ATOM     78  C   UNL A   1      38.823  34.189  39.110  1.00  0.00     0.091 A 
ATOM     79  F   UNL A   1      38.732  32.029  38.099  1.00  0.00    -0.205 F 
ATOM     80  C   UNL A   1      39.223  35.532  39.040  1.00  0.00     0.022 A 
BRANCH  78  81
ATOM     81  S   UNL A   1      37.917  33.676  40.575  1.00  0.00     0.127 S 
ATOM     82  O   UNL A   1      37.777  34.939  41.298  1.00  0.00    -0.237 OA
ATOM     83  O   UNL A   1      36.674  33.158  39.997  1.00  0.00    -0.237 OA
ATOM     84  O   UNL A   1      38.742  32.665  41.215  1.00  0.00    -0.744 OA
ENDBRANCH  78  81
ENDBRANCH  50  74
BRANCH  62  85
ATOM     85  C   UNL A   1      44.228  28.751  35.344  1.00  0.00     0.023 A 
ATOM     86  C   UNL A   1      45.520  29.295  35.219  1.00  0.00     0.012 A 
ATOM     87  C   UNL A   1      44.004  27.698  36.253  1.00  0.00     0.148 A 
ATOM     88  C   UNL A   1      46.579  28.786  35.970  1.00  0.00     0.002 A 
ATOM     89  C   UNL A   1      45.055  27.226  37.031  1.00  0.00     0.091 A 
ATOM     90  F   UNL A   1      42.769  27.183  36.346  1.00  0.00    -0.205 F 
ATOM     91  C   UNL A   1      46.345  27.762  36.884  1.00  0.00     0.022 A 
BRANCH  89  92
ATOM     92  S   UNL A   1      44.832  25.973  38.300  1.00  0.00     0.127 S 
ATOM     93  O   UNL A   1      46.188  25.842  38.831  1.00  0.00    -0.237 OA
ATOM     94  O   UNL A   1      43.882  26.618  39.208  1.00  0.00    -0.237 OA
ATOM     95  O   UNL A   1      44.315  24.795  37.617  1.00  0.00    -0.744 OA
ENDBRANCH  89  92
ENDBRANCH  62  85
ENDBRANCH  36  37
ENDBRANCH  28  31
ENDBRANCH  26  27
ENDBRANCH  25  26
ENDBRANCH   1  25
TORSDOF 18
ENDMDL
MODEL 2
REMARK VINA RESULT:     -11.7      1.468      1.816
REMARK SMILES COc1cc(C[N@@H+]2CCO[C@@H](CC(=O)NCCCNC(=O)c3ccc(-c4c5nc(c(-c6cccc(S(=O)(=O)[O-])c6F)c6ccc([nH]6)c(-c6cccc(S(=O)(=O)[O-])c6F)c6nc(c(-c7cccc(S(=O)(=O)[O-])c7F)c7ccc4[nH]7)C=C6)C=C5)cc3)C2)ccc1O
REMARK SMILES IDX 16 1 15 2 13 3 14 4 12 6 11 7 7 8 8 9 85 10 9 12 10 13 6 14
REMARK SMILES IDX 5 15 3 16 4 17 88 18 87 19 86 20 2 21 1 22 89 23 17 25 18 26
REMARK SMILES IDX 19 27 20 28 21 30 22 31 23 32 84 33 24 34 83 35 25 36 26 37
REMARK SMILES IDX 27 38 77 39 28 40 82 41 76 42 78 43 29 44 81 45 75 46 74 47
REMARK SMILES IDX 30 49 62 50 42 51 61 52 43 53 46 54 60 55 79 56 44 57 45 58
REMARK SMILES IDX 59 60 80 61 47 62 31 63 32 64 40 65 33 66 35 67 41 68 34 69
REMARK SMILES IDX 36 70 37 71 38 72 39 73 63 74 64 75 72 76 65 77 67 78 73 79
REMARK SMILES IDX 66 80 68 81 69 82 70 83 71 84 48 85 49 86 57 87 50 88 52 89
REMARK SMILES IDX 58 90 51 91 53 92 54 93 55 94 56 95
REMARK H PARENT 15 5 7 11 89 24 19 29 78 48 46 59
REMARK Flexibility Score: inf
ROOT
ATOM      1  C   UNL A   1      31.378  30.168  25.182  1.00  0.00     0.117 C 
ENDROOT
BRANCH   1   2
ATOM      2  N   UNL A   1      30.580  30.015  23.971  1.00  0.00    -0.356 N 
ATOM      3  C   UNL A   1      30.668  29.104  22.957  1.00  0.00     0.222 C 
ATOM      4  O   UNL A   1      29.856  29.185  22.033  1.00  0.00    -0.275 OA
ATOM      5  H   UNL A   1      29.859  30.677  23.867  1.00  0.00     0.163 HD
BRANCH   3   6
ATOM      6  C   UNL A   1      31.749  28.043  22.960  1.00  0.00     0.138 C 
BRANCH   6   7
ATOM      7  C   UNL A   1      31.262  26.700  23.513  1.00  0.00     0.182 C 
ATOM      8  N   UNL A   1      32.106  24.481  24.457  1.00  0.00    -0.327 N 
ATOM      9  C   UNL A   1      31.177  24.695  25.565  1.00  0.00     0.291 C 
ATOM     10  C   UNL A   1      32.430  25.732  23.783  1.00  0.00     0.295 C 
ATOM     11  H   UNL A   1      32.969  24.158  24.895  1.00  0.00     0.348 HD
ATOM     12  C   UNL A   1      30.064  25.728  25.302  1.00  0.00     0.222 C 
ATOM     13  O   UNL A   1      30.565  26.958  24.750  1.00  0.00    -0.366 OA
BRANCH   8  14
ATOM     14  C   UNL A   1      31.855  23.327  23.587  1.00  0.00     0.299 C 
BRANCH  14  15
ATOM     15  C   UNL A   1      32.699  22.106  23.878  1.00  0.00     0.010 A 
ATOM     16  C   UNL A   1      34.636  21.117  24.930  1.00  0.00     0.160 A 
ATOM     17  C   UNL A   1      33.953  22.246  24.488  1.00  0.00     0.060 A 
ATOM     18  C   UNL A   1      34.117  19.843  24.692  1.00  0.00     0.157 A 
ATOM     19  C   UNL A   1      32.900  19.684  24.044  1.00  0.00     0.051 A 
ATOM     20  C   UNL A   1      32.197  20.815  23.626  1.00  0.00     0.013 A 
BRANCH  16  21
ATOM     21  O   UNL A   1      35.831  21.290  25.576  1.00  0.00    -0.493 OA
ATOM     22  C   UNL A   1      35.936  22.600  26.141  1.00  0.00     0.278 C 
ENDBRANCH  16  21
BRANCH  18  23
ATOM     23  O   UNL A   1      34.798  18.723  25.077  1.00  0.00    -0.504 OA
ATOM     24  H   UNL A   1      35.509  18.793  25.682  1.00  0.00     0.293 HD
ENDBRANCH  18  23
ENDBRANCH  14  15
ENDBRANCH   8  14
ENDBRANCH   6   7
ENDBRANCH   3   6
ENDBRANCH   1   2
BRANCH   1  25
ATOM     25  C   UNL A   1      31.152  31.512  25.881  1.00  0.00     0.042 C 
BRANCH  25  26
ATOM     26  C   UNL A   1      32.218  31.872  26.904  1.00  0.00     0.118 C 
BRANCH  26  27
ATOM     27  N   UNL A   1      32.264  33.304  27.142  1.00  0.00    -0.352 N 
ATOM     28  C   UNL A   1      33.050  34.020  28.014  1.00  0.00     0.251 C 
ATOM     29  H   UNL A   1      31.642  33.841  26.598  1.00  0.00     0.163 HD
ATOM     30  O   UNL A   1      32.740  35.179  28.281  1.00  0.00    -0.269 OA
BRANCH  28  31
ATOM     31  C   UNL A   1      34.251  33.413  28.640  1.00  0.00     0.039 A 
ATOM     32  C   UNL A   1      35.511  33.948  28.346  1.00  0.00     0.014 A 
ATOM     33  C   UNL A   1      34.155  32.289  29.464  1.00  0.00     0.014 A 
ATOM     34  C   UNL A   1      36.661  33.390  28.918  1.00  0.00     0.010 A 
ATOM     35  C   UNL A   1      35.293  31.781  30.090  1.00  0.00     0.010 A 
ATOM     36  C   UNL A   1      36.560  32.318  29.818  1.00  0.00    -0.014 A 
BRANCH  36  37
ATOM     37  C   UNL A   1      37.756  31.747  30.494  1.00  0.00     0.031 A 
ATOM     38  C   UNL A   1      38.579  30.684  29.815  1.00  0.00     0.074 A 
ATOM     39  C   UNL A   1      38.044  32.109  31.760  1.00  0.00     0.049 A 
ATOM     40  N   UNL A   1      39.588  29.994  30.285  1.00  0.00    -0.248 NA
ATOM     41  C   UNL A   1      38.204  30.330  28.435  1.00  0.00     0.031 C 
ATOM     42  C   UNL A   1      37.288  33.080  32.553  1.00  0.00     0.029 A 
ATOM     43  N   UNL A   1      39.028  31.676  32.616  1.00  0.00    -0.354 N 
ATOM     44  C   UNL A   1      39.941  29.101  29.279  1.00  0.00     0.074 A 
ATOM     45  C   UNL A   1      39.024  29.319  28.181  1.00  0.00     0.031 C 
ATOM     46  C   UNL A   1      37.827  33.160  33.780  1.00  0.00     0.029 A 
ATOM     47  C   UNL A   1      38.943  32.224  33.875  1.00  0.00     0.049 A 
ATOM     48  H   UNL A   1      39.726  31.034  32.354  1.00  0.00     0.167 HD
ATOM     49  C   UNL A   1      40.952  28.200  29.260  1.00  0.00     0.034 A 
ATOM     50  C   UNL A   1      39.668  31.988  34.988  1.00  0.00     0.034 A 
ATOM     51  C   UNL A   1      41.894  28.019  30.331  1.00  0.00     0.049 A 
ATOM     52  C   UNL A   1      40.799  30.998  34.932  1.00  0.00     0.074 A 
ATOM     53  C   UNL A   1      43.013  27.205  30.364  1.00  0.00     0.029 A 
ATOM     54  N   UNL A   1      41.825  28.652  31.562  1.00  0.00    -0.354 N 
ATOM     55  N   UNL A   1      41.219  30.281  33.918  1.00  0.00    -0.248 NA
ATOM     56  C   UNL A   1      41.575  30.801  36.166  1.00  0.00     0.031 C 
ATOM     57  C   UNL A   1      43.607  27.329  31.624  1.00  0.00     0.029 A 
ATOM     58  C   UNL A   1      42.870  28.235  32.369  1.00  0.00     0.049 A 
ATOM     59  H   UNL A   1      41.135  29.304  31.824  1.00  0.00     0.167 HD
ATOM     60  C   UNL A   1      42.321  29.572  34.381  1.00  0.00     0.074 A 
ATOM     61  C   UNL A   1      42.519  29.962  35.761  1.00  0.00     0.031 C 
ATOM     62  C   UNL A   1      43.089  28.666  33.726  1.00  0.00     0.034 A 
BRANCH  49  63
ATOM     63  C   UNL A   1      41.133  27.372  28.013  1.00  0.00     0.023 A 
ATOM     64  C   UNL A   1      41.712  27.959  26.870  1.00  0.00     0.012 A 
ATOM     65  C   UNL A   1      40.796  26.004  27.994  1.00  0.00     0.148 A 
ATOM     66  C   UNL A   1      41.925  27.206  25.716  1.00  0.00     0.002 A 
ATOM     67  C   UNL A   1      41.050  25.250  26.853  1.00  0.00     0.091 A 
ATOM     68  F   UNL A   1      40.228  25.469  29.083  1.00  0.00    -0.205 F 
ATOM     69  C   UNL A   1      41.604  25.851  25.712  1.00  0.00     0.022 A 
BRANCH  67  70
ATOM     70  S   UNL A   1      40.741  23.481  26.772  1.00  0.00     0.127 S 
ATOM     71  O   UNL A   1      39.316  23.446  26.448  1.00  0.00    -0.237 OA
ATOM     72  O   UNL A   1      41.624  23.064  25.683  1.00  0.00    -0.237 OA
ATOM     73  O   UNL A   1      41.100  22.952  28.081  1.00  0.00    -0.744 OA
ENDBRANCH  67  70
ENDBRANCH  49  63
BRANCH  50  74
ATOM     74  C   UNL A   1      39.374  32.747  36.237  1.00  0.00     0.023 A 
ATOM     75  C   UNL A   1      39.923  34.032  36.408  1.00  0.00     0.012 A 
ATOM     76  C   UNL A   1      38.530  32.223  37.236  1.00  0.00     0.148 A 
ATOM     77  C   UNL A   1      39.657  34.773  37.560  1.00  0.00     0.002 A 
ATOM     78  C   UNL A   1      38.224  32.988  38.356  1.00  0.00     0.091 A 
ATOM     79  F   UNL A   1      38.030  30.991  37.063  1.00  0.00    -0.205 F 
ATOM     80  C   UNL A   1      38.799  34.256  38.527  1.00  0.00     0.022 A 
BRANCH  78  81
ATOM     81  S   UNL A   1      37.023  32.455  39.583  1.00  0.00     0.127 S 
ATOM     82  O   UNL A   1      37.145  33.503  40.594  1.00  0.00    -0.237 OA
ATOM     83  O   UNL A   1      35.774  32.483  38.817  1.00  0.00    -0.237 OA
ATOM     84  O   UNL A   1      37.442  31.125  39.992  1.00  0.00    -0.744 OA
ENDBRANCH  78  81
ENDBRANCH  50  74
BRANCH  62  85
ATOM     85  C   UNL A   1      44.230  28.036  34.480  1.00  0.00     0.023 A 
ATOM     86  C   UNL A   1      45.491  28.663  34.483  1.00  0.00     0.012 A 
ATOM     87  C   UNL A   1      44.029  26.880  35.260  1.00  0.00     0.148 A 
ATOM     88  C   UNL A   1      46.542  28.136  35.233  1.00  0.00     0.002 A 
ATOM     89  C   UNL A   1      45.069  26.387  36.040  1.00  0.00     0.091 A 
ATOM     90  F   UNL A   1      42.825  26.290  35.230  1.00  0.00    -0.205 F 
ATOM     91  C   UNL A   1      46.328  27.007  36.020  1.00  0.00     0.022 A 
BRANCH  89  92
ATOM     92  S   UNL A   1      44.864  24.993  37.155  1.00  0.00     0.127 S 
ATOM     93  O   UNL A   1      43.886  25.515  38.108  1.00  0.00    -0.237 OA
ATOM     94  O   UNL A   1      44.349  23.954  36.261  1.00  0.00    -0.237 OA
ATOM     95  O   UNL A   1      46.184  24.718  37.705  1.00  0.00    -0.744 OA
ENDBRANCH  89  92
ENDBRANCH  62  85
ENDBRANCH  36  37
ENDBRANCH  28  31
ENDBRANCH  26  27
ENDBRANCH  25  26
ENDBRANCH   1  25
TORSDOF 18
ENDMDL
MODEL 3
REMARK VINA RESULT:     -11.5      6.240     11.590
REMARK SMILES COc1cc(C[N@@H+]2CCO[C@@H](CC(=O)NCCCNC(=O)c3ccc(-c4c5nc(c(-c6cccc(S(=O)(=O)[O-])c6F)c6ccc([nH]6)c(-c6cccc(S(=O)(=O)[O-])c6F)c6nc(c(-c7cccc(S(=O)(=O)[O-])c7F)c7ccc4[nH]7)C=C6)C=C5)cc3)C2)ccc1O
REMARK SMILES IDX 16 1 15 2 13 3 14 4 12 6 11 7 7 8 8 9 85 10 9 12 10 13 6 14
REMARK SMILES IDX 5 15 3 16 4 17 88 18 87 19 86 20 2 21 1 22 89 23 17 25 18 26
REMARK SMILES IDX 19 27 20 28 21 30 22 31 23 32 84 33 24 34 83 35 25 36 26 37
REMARK SMILES IDX 27 38 77 39 28 40 82 41 76 42 78 43 29 44 81 45 75 46 74 47
REMARK SMILES IDX 30 49 62 50 42 51 61 52 43 53 46 54 60 55 79 56 44 57 45 58
REMARK SMILES IDX 59 60 80 61 47 62 31 63 32 64 40 65 33 66 35 67 41 68 34 69
REMARK SMILES IDX 36 70 37 71 38 72 39 73 63 74 64 75 72 76 65 77 67 78 73 79
REMARK SMILES IDX 66 80 68 81 69 82 70 83 71 84 48 85 49 86 57 87 50 88 52 89
REMARK SMILES IDX 58 90 51 91 53 92 54 93 55 94 56 95
REMARK H PARENT 15 5 7 11 89 24 19 29 78 48 46 59
REMARK Flexibility Score: inf
ROOT
ATOM      1  C   UNL A   1      36.033  20.703  25.041  1.00  0.00     0.117 C 
ENDROOT
BRANCH   1   2
ATOM      2  N   UNL A   1      34.784  20.007  25.330  1.00  0.00    -0.356 N 
ATOM      3  C   UNL A   1      33.521  20.211  24.851  1.00  0.00     0.222 C 
ATOM      4  O   UNL A   1      32.623  19.470  25.253  1.00  0.00    -0.275 OA
ATOM      5  H   UNL A   1      34.865  19.269  25.976  1.00  0.00     0.163 HD
BRANCH   3   6
ATOM      6  C   UNL A   1      33.234  21.333  23.875  1.00  0.00     0.138 C 
BRANCH   6   7
ATOM      7  C   UNL A   1      32.903  22.657  24.570  1.00  0.00     0.182 C 
ATOM      8  N   UNL A   1      30.957  23.989  25.552  1.00  0.00    -0.327 N 
ATOM      9  C   UNL A   1      31.783  24.156  26.747  1.00  0.00     0.291 C 
ATOM     10  C   UNL A   1      31.386  22.842  24.762  1.00  0.00     0.295 C 
ATOM     11  H   UNL A   1      30.026  23.765  25.905  1.00  0.00     0.348 HD
ATOM     12  C   UNL A   1      33.288  23.886  26.550  1.00  0.00     0.222 C 
ATOM     13  O   UNL A   1      33.547  22.651  25.862  1.00  0.00    -0.366 OA
BRANCH   8  14
ATOM     14  C   UNL A   1      30.621  25.201  24.797  1.00  0.00     0.299 C 
BRANCH  14  15
ATOM     15  C   UNL A   1      31.466  26.413  25.116  1.00  0.00     0.010 A 
ATOM     16  C   UNL A   1      33.172  27.993  24.458  1.00  0.00     0.160 A 
ATOM     17  C   UNL A   1      32.525  26.776  24.272  1.00  0.00     0.060 A 
ATOM     18  C   UNL A   1      32.828  28.814  25.534  1.00  0.00     0.157 A 
ATOM     19  C   UNL A   1      31.817  28.447  26.410  1.00  0.00     0.051 A 
ATOM     20  C   UNL A   1      31.145  27.241  26.209  1.00  0.00     0.013 A 
BRANCH  16  21
ATOM     21  O   UNL A   1      34.161  28.347  23.580  1.00  0.00    -0.493 OA
ATOM     22  C   UNL A   1      33.827  27.977  22.239  1.00  0.00     0.278 C 
ENDBRANCH  16  21
BRANCH  18  23
ATOM     23  O   UNL A   1      33.486  29.990  25.759  1.00  0.00    -0.504 OA
ATOM     24  H   UNL A   1      33.563  30.622  25.072  1.00  0.00     0.293 HD
ENDBRANCH  18  23
ENDBRANCH  14  15
ENDBRANCH   8  14
ENDBRANCH   6   7
ENDBRANCH   3   6
ENDBRANCH   1   2
BRANCH   1  25
ATOM     25  C   UNL A   1      37.243  19.765  24.992  1.00  0.00     0.042 C 
BRANCH  25  26
ATOM     26  C   UNL A   1      38.556  20.417  25.395  1.00  0.00     0.118 C 
BRANCH  26  27
ATOM     27  N   UNL A   1      39.545  19.425  25.781  1.00  0.00    -0.352 N 
ATOM     28  C   UNL A   1      40.865  19.596  26.125  1.00  0.00     0.251 C 
ATOM     29  H   UNL A   1      39.222  18.495  25.799  1.00  0.00     0.163 HD
ATOM     30  O   UNL A   1      41.610  18.618  26.134  1.00  0.00    -0.269 OA
BRANCH  28  31
ATOM     31  C   UNL A   1      41.401  20.936  26.472  1.00  0.00     0.039 A 
ATOM     32  C   UNL A   1      41.724  21.825  25.440  1.00  0.00     0.014 A 
ATOM     33  C   UNL A   1      41.645  21.303  27.798  1.00  0.00     0.014 A 
ATOM     34  C   UNL A   1      42.237  23.093  25.741  1.00  0.00     0.010 A 
ATOM     35  C   UNL A   1      42.087  22.591  28.099  1.00  0.00     0.010 A 
ATOM     36  C   UNL A   1      42.397  23.498  27.075  1.00  0.00    -0.014 A 
BRANCH  36  37
ATOM     37  C   UNL A   1      42.876  24.861  27.427  1.00  0.00     0.031 A 
ATOM     38  C   UNL A   1      41.945  25.852  28.077  1.00  0.00     0.074 A 
ATOM     39  C   UNL A   1      44.118  25.246  27.071  1.00  0.00     0.049 A 
ATOM     40  N   UNL A   1      42.147  27.113  28.359  1.00  0.00    -0.248 NA
ATOM     41  C   UNL A   1      40.600  25.368  28.433  1.00  0.00     0.031 C 
ATOM     42  C   UNL A   1      45.096  24.405  26.378  1.00  0.00     0.029 A 
ATOM     43  N   UNL A   1      44.757  26.455  27.207  1.00  0.00    -0.354 N 
ATOM     44  C   UNL A   1      40.950  27.584  28.886  1.00  0.00     0.074 A 
ATOM     45  C   UNL A   1      40.016  26.478  28.863  1.00  0.00     0.031 C 
ATOM     46  C   UNL A   1      46.205  25.124  26.141  1.00  0.00     0.029 A 
ATOM     47  C   UNL A   1      46.006  26.484  26.631  1.00  0.00     0.049 A 
ATOM     48  H   UNL A   1      44.360  27.225  27.671  1.00  0.00     0.167 HD
ATOM     49  C   UNL A   1      40.660  28.815  29.370  1.00  0.00     0.034 A 
ATOM     50  C   UNL A   1      46.888  27.497  26.493  1.00  0.00     0.034 A 
ATOM     51  C   UNL A   1      41.602  29.899  29.440  1.00  0.00     0.049 A 
ATOM     52  C   UNL A   1      46.548  28.849  27.058  1.00  0.00     0.074 A 
ATOM     53  C   UNL A   1      41.433  31.151  30.006  1.00  0.00     0.029 A 
ATOM     54  N   UNL A   1      42.886  29.867  28.919  1.00  0.00    -0.354 N 
ATOM     55  N   UNL A   1      45.470  29.227  27.700  1.00  0.00    -0.248 NA
ATOM     56  C   UNL A   1      47.557  29.908  26.906  1.00  0.00     0.031 C 
ATOM     57  C   UNL A   1      42.608  31.883  29.807  1.00  0.00     0.029 A 
ATOM     58  C   UNL A   1      43.516  31.081  29.134  1.00  0.00     0.049 A 
ATOM     59  H   UNL A   1      43.292  29.094  28.464  1.00  0.00     0.167 HD
ATOM     60  C   UNL A   1      45.681  30.556  28.051  1.00  0.00     0.074 A 
ATOM     61  C   UNL A   1      47.000  30.910  27.572  1.00  0.00     0.031 C 
ATOM     62  C   UNL A   1      44.848  31.409  28.698  1.00  0.00     0.034 A 
BRANCH  49  63
ATOM     63  C   UNL A   1      39.275  29.047  29.919  1.00  0.00     0.023 A 
ATOM     64  C   UNL A   1      38.973  28.634  31.233  1.00  0.00     0.012 A 
ATOM     65  C   UNL A   1      38.300  29.731  29.168  1.00  0.00     0.148 A 
ATOM     66  C   UNL A   1      37.712  28.869  31.779  1.00  0.00     0.002 A 
ATOM     67  C   UNL A   1      37.058  29.998  29.734  1.00  0.00     0.091 A 
ATOM     68  F   UNL A   1      38.598  30.098  27.913  1.00  0.00    -0.205 F 
ATOM     69  C   UNL A   1      36.760  29.560  31.035  1.00  0.00     0.022 A 
BRANCH  67  70
ATOM     70  S   UNL A   1      35.789  30.947  28.885  1.00  0.00     0.127 S 
ATOM     71  O   UNL A   1      35.059  31.534  30.008  1.00  0.00    -0.237 OA
ATOM     72  O   UNL A   1      36.584  31.901  28.110  1.00  0.00    -0.237 OA
ATOM     73  O   UNL A   1      35.042  29.988  28.084  1.00  0.00    -0.744 OA
ENDBRANCH  67  70
ENDBRANCH  49  63
BRANCH  50  74
ATOM     74  C   UNL A   1      48.201  27.250  25.832  1.00  0.00     0.023 A 
ATOM     75  C   UNL A   1      49.274  26.753  26.596  1.00  0.00     0.012 A 
ATOM     76  C   UNL A   1      48.384  27.466  24.452  1.00  0.00     0.148 A 
ATOM     77  C   UNL A   1      50.512  26.499  26.005  1.00  0.00     0.002 A 
ATOM     78  C   UNL A   1      49.603  27.160  23.858  1.00  0.00     0.091 A 
ATOM     79  F   UNL A   1      47.356  27.955  23.744  1.00  0.00    -0.205 F 
ATOM     80  C   UNL A   1      50.673  26.692  24.635  1.00  0.00     0.022 A 
BRANCH  78  81
ATOM     81  S   UNL A   1      49.854  27.249  22.081  1.00  0.00     0.127 S 
ATOM     82  O   UNL A   1      49.580  28.659  21.811  1.00  0.00    -0.237 OA
ATOM     83  O   UNL A   1      51.260  26.861  21.953  1.00  0.00    -0.237 OA
ATOM     84  O   UNL A   1      48.919  26.298  21.503  1.00  0.00    -0.744 OA
ENDBRANCH  78  81
ENDBRANCH  50  74
BRANCH  62  85
ATOM     85  C   UNL A   1      45.335  32.813  28.945  1.00  0.00     0.023 A 
ATOM     86  C   UNL A   1      46.121  33.086  30.081  1.00  0.00     0.012 A 
ATOM     87  C   UNL A   1      45.095  33.836  28.007  1.00  0.00     0.148 A 
ATOM     88  C   UNL A   1      46.642  34.362  30.293  1.00  0.00     0.002 A 
ATOM     89  C   UNL A   1      45.655  35.094  28.201  1.00  0.00     0.091 A 
ATOM     90  F   UNL A   1      44.331  33.559  26.940  1.00  0.00    -0.205 F 
ATOM     91  C   UNL A   1      46.420  35.361  29.348  1.00  0.00     0.022 A 
BRANCH  89  92
ATOM     92  S   UNL A   1      45.501  36.417  26.995  1.00  0.00     0.127 S 
ATOM     93  O   UNL A   1      46.249  37.495  27.640  1.00  0.00    -0.237 OA
ATOM     94  O   UNL A   1      46.154  35.841  25.819  1.00  0.00    -0.237 OA
ATOM     95  O   UNL A   1      44.073  36.657  26.839  1.00  0.00    -0.744 OA
ENDBRANCH  89  92
ENDBRANCH  62  85
ENDBRANCH  36  37
ENDBRANCH  28  31
ENDBRANCH  26  27
ENDBRANCH  25  26
ENDBRANCH   1  25
TORSDOF 18
ENDMDL
