MODEL 1
REMARK VINA RESULT:     -12.8      0.000      0.000
REMARK SMILES O=C(NCCCNC(=O)c1ccc2c(c1)[C@@H](C1CCOCC1)C(=O)N2)c1ccc(-c2c3nc(c(-c4cccc(S(=O)(=O)[O-])c4F)c4ccc([nH]4)c(-c4cccc(S(=O)(=O)[O-])c4F)c4nc(c(-c5cccc(S(=O)(=O)[O-])c5F)c5ccc2[nH]5)C=C4)C=C3)cc1
REMARK SMILES IDX 4 1 3 2 1 3 2 4 26 6 27 7 88 8 28 9 87 10 29 11 30 12 31 13
REMARK SMILES IDX 81 14 32 15 86 16 80 17 82 18 33 19 85 20 79 21 78 22 34 24
REMARK SMILES IDX 66 25 46 26 65 27 47 28 50 29 64 30 83 31 48 32 49 33 63 35
REMARK SMILES IDX 84 36 51 37 35 38 36 39 44 40 37 41 39 42 45 43 38 44 40 45
REMARK SMILES IDX 41 46 42 47 43 48 67 49 68 50 76 51 69 52 71 53 77 54 70 55
REMARK SMILES IDX 72 56 73 57 74 58 75 59 52 60 53 61 61 62 54 63 56 64 62 65
REMARK SMILES IDX 55 66 57 67 58 68 59 69 60 70 5 71 6 72 7 73 8 74 9 76 10 77
REMARK SMILES IDX 11 78 15 79 12 80 14 81 13 82 16 83 25 84 23 85 24 87 17 88
REMARK SMILES IDX 18 89 22 90 19 91 21 92 20 93
REMARK H PARENT 3 5 82 23 50 34 7 75 25 86
REMARK Flexibility Score: inf
ROOT
ATOM      1  C   UNL A   1      33.076  29.153  25.275  1.00  0.00     0.118 C 
ENDROOT
BRANCH   1   2
ATOM      2  N   UNL A   1      32.604  30.420  25.821  1.00  0.00    -0.352 N 
ATOM      3  O   UNL A   1      32.445  32.144  27.257  1.00  0.00    -0.269 OA
ATOM      4  C   UNL A   1      33.104  31.193  26.843  1.00  0.00     0.251 C 
ATOM      5  H   UNL A   1      31.797  30.781  25.388  1.00  0.00     0.163 HD
BRANCH   4   6
ATOM      6  C   UNL A   1      34.406  30.858  27.460  1.00  0.00     0.039 A 
ATOM      7  C   UNL A   1      34.684  29.553  27.860  1.00  0.00     0.014 A 
ATOM      8  C   UNL A   1      35.359  31.861  27.655  1.00  0.00     0.014 A 
ATOM      9  C   UNL A   1      35.797  29.294  28.647  1.00  0.00     0.010 A 
ATOM     10  C   UNL A   1      36.549  31.567  28.330  1.00  0.00     0.010 A 
ATOM     11  C   UNL A   1      36.755  30.292  28.879  1.00  0.00    -0.014 A 
BRANCH  11  12
ATOM     12  C   UNL A   1      37.983  29.943  29.641  1.00  0.00     0.031 A 
ATOM     13  C   UNL A   1      38.201  30.427  31.050  1.00  0.00     0.074 A 
ATOM     14  C   UNL A   1      38.900  29.149  29.051  1.00  0.00     0.049 A 
ATOM     15  N   UNL A   1      39.190  30.158  31.865  1.00  0.00    -0.248 NA
ATOM     16  C   UNL A   1      37.192  31.334  31.618  1.00  0.00     0.031 C 
ATOM     17  C   UNL A   1      38.817  28.645  27.677  1.00  0.00     0.029 A 
ATOM     18  N   UNL A   1      40.069  28.616  29.527  1.00  0.00    -0.354 N 
ATOM     19  C   UNL A   1      38.951  30.896  33.019  1.00  0.00     0.074 A 
ATOM     20  C   UNL A   1      37.723  31.631  32.795  1.00  0.00     0.031 C 
ATOM     21  C   UNL A   1      39.859  27.838  27.438  1.00  0.00     0.029 A 
ATOM     22  C   UNL A   1      40.723  27.825  28.610  1.00  0.00     0.049 A 
ATOM     23  H   UNL A   1      40.409  28.782  30.435  1.00  0.00     0.167 HD
ATOM     24  C   UNL A   1      39.681  30.951  34.158  1.00  0.00     0.034 A 
ATOM     25  C   UNL A   1      41.898  27.173  28.693  1.00  0.00     0.034 A 
ATOM     26  C   UNL A   1      40.888  30.197  34.381  1.00  0.00     0.049 A 
ATOM     27  C   UNL A   1      42.680  27.251  29.971  1.00  0.00     0.074 A 
ATOM     28  C   UNL A   1      41.660  30.130  35.528  1.00  0.00     0.029 A 
ATOM     29  N   UNL A   1      41.511  29.397  33.435  1.00  0.00    -0.354 N 
ATOM     30  N   UNL A   1      42.370  27.853  31.093  1.00  0.00    -0.248 NA
ATOM     31  C   UNL A   1      43.962  26.536  30.003  1.00  0.00     0.031 C 
ATOM     32  C   UNL A   1      42.773  29.325  35.261  1.00  0.00     0.029 A 
ATOM     33  C   UNL A   1      42.669  28.850  33.964  1.00  0.00     0.049 A 
ATOM     34  H   UNL A   1      41.179  29.241  32.522  1.00  0.00     0.167 HD
ATOM     35  C   UNL A   1      43.400  27.560  31.976  1.00  0.00     0.074 A 
ATOM     36  C   UNL A   1      44.330  26.707  31.265  1.00  0.00     0.031 C 
ATOM     37  C   UNL A   1      43.566  27.969  33.258  1.00  0.00     0.034 A 
BRANCH  24  38
ATOM     38  C   UNL A   1      39.195  31.856  35.265  1.00  0.00     0.023 A 
ATOM     39  C   UNL A   1      38.265  31.379  36.212  1.00  0.00     0.012 A 
ATOM     40  C   UNL A   1      39.706  33.163  35.400  1.00  0.00     0.148 A 
ATOM     41  C   UNL A   1      37.821  32.201  37.248  1.00  0.00     0.002 A 
ATOM     42  C   UNL A   1      39.295  33.958  36.464  1.00  0.00     0.091 A 
ATOM     43  F   UNL A   1      40.576  33.607  34.483  1.00  0.00    -0.205 F 
ATOM     44  C   UNL A   1      38.342  33.485  37.379  1.00  0.00     0.022 A 
BRANCH  42  45
ATOM     45  S   UNL A   1      39.970  35.596  36.766  1.00  0.00     0.127 S 
ATOM     46  O   UNL A   1      39.326  35.952  38.029  1.00  0.00    -0.237 OA
ATOM     47  O   UNL A   1      41.404  35.322  36.871  1.00  0.00    -0.237 OA
ATOM     48  O   UNL A   1      39.589  36.406  35.618  1.00  0.00    -0.744 OA
ENDBRANCH  42  45
ENDBRANCH  24  38
BRANCH  25  49
ATOM     49  C   UNL A   1      42.380  26.363  27.541  1.00  0.00     0.023 A 
ATOM     50  C   UNL A   1      43.233  26.951  26.588  1.00  0.00     0.012 A 
ATOM     51  C   UNL A   1      42.025  25.007  27.403  1.00  0.00     0.148 A 
ATOM     52  C   UNL A   1      43.697  26.212  25.498  1.00  0.00     0.002 A 
ATOM     53  C   UNL A   1      42.538  24.261  26.351  1.00  0.00     0.091 A 
ATOM     54  F   UNL A   1      41.207  24.469  28.318  1.00  0.00    -0.205 F 
ATOM     55  C   UNL A   1      43.359  24.866  25.386  1.00  0.00     0.022 A 
BRANCH  53  56
ATOM     56  S   UNL A   1      42.267  22.493  26.201  1.00  0.00     0.127 S 
ATOM     57  O   UNL A   1      43.049  22.170  25.010  1.00  0.00    -0.237 OA
ATOM     58  O   UNL A   1      42.825  21.997  27.460  1.00  0.00    -0.237 OA
ATOM     59  O   UNL A   1      40.826  22.323  26.075  1.00  0.00    -0.744 OA
ENDBRANCH  53  56
ENDBRANCH  25  49
BRANCH  37  60
ATOM     60  C   UNL A   1      44.777  27.456  33.996  1.00  0.00     0.023 A 
ATOM     61  C   UNL A   1      45.983  28.185  33.974  1.00  0.00     0.012 A 
ATOM     62  C   UNL A   1      44.700  26.268  34.750  1.00  0.00     0.148 A 
ATOM     63  C   UNL A   1      47.106  27.715  34.654  1.00  0.00     0.002 A 
ATOM     64  C   UNL A   1      45.806  25.838  35.472  1.00  0.00     0.091 A 
ATOM     65  F   UNL A   1      43.550  25.578  34.743  1.00  0.00    -0.205 F 
ATOM     66  C   UNL A   1      47.014  26.550  35.412  1.00  0.00     0.022 A 
BRANCH  64  67
ATOM     67  S   UNL A   1      45.749  24.405  36.553  1.00  0.00     0.127 S 
ATOM     68  O   UNL A   1      45.436  23.332  35.610  1.00  0.00    -0.237 OA
ATOM     69  O   UNL A   1      47.111  24.369  37.090  1.00  0.00    -0.237 OA
ATOM     70  O   UNL A   1      44.718  24.688  37.542  1.00  0.00    -0.744 OA
ENDBRANCH  64  67
ENDBRANCH  37  60
ENDBRANCH  11  12
ENDBRANCH   4   6
ENDBRANCH   1   2
BRANCH   1  71
ATOM     71  C   UNL A   1      33.192  29.166  23.759  1.00  0.00     0.042 C 
BRANCH  71  72
ATOM     72  C   UNL A   1      33.779  27.891  23.181  1.00  0.00     0.118 C 
BRANCH  72  73
ATOM     73  N   UNL A   1      33.035  27.412  22.022  1.00  0.00    -0.352 N 
ATOM     74  C   UNL A   1      31.992  26.524  21.952  1.00  0.00     0.251 C 
ATOM     75  H   UNL A   1      33.326  27.782  21.158  1.00  0.00     0.163 HD
ATOM     76  O   UNL A   1      31.618  26.093  20.866  1.00  0.00    -0.269 OA
BRANCH  74  77
ATOM     77  C   UNL A   1      31.317  26.076  23.188  1.00  0.00     0.040 A 
ATOM     78  C   UNL A   1      30.454  26.949  23.886  1.00  0.00     0.016 A 
ATOM     79  C   UNL A   1      31.524  24.759  23.626  1.00  0.00     0.020 A 
ATOM     80  C   UNL A   1      29.864  26.557  25.084  1.00  0.00     0.027 A 
ATOM     81  C   UNL A   1      30.913  24.372  24.806  1.00  0.00    -0.011 A 
ATOM     82  C   UNL A   1      30.114  25.271  25.512  1.00  0.00     0.045 A 
ATOM     83  C   UNL A   1      30.938  23.046  25.534  1.00  0.00     0.114 C 
ATOM     84  N   UNL A   1      29.621  24.672  26.656  1.00  0.00    -0.325 N 
ATOM     85  C   UNL A   1      30.030  23.351  26.753  1.00  0.00     0.232 C 
ATOM     86  H   UNL A   1      29.051  25.126  27.318  1.00  0.00     0.169 HD
ATOM     87  O   UNL A   1      29.681  22.581  27.635  1.00  0.00    -0.274 OA
BRANCH  83  88
ATOM     88  C   UNL A   1      32.350  22.535  25.889  1.00  0.00     0.010 C 
ATOM     89  C   UNL A   1      33.274  23.677  26.350  1.00  0.00     0.033 C 
ATOM     90  C   UNL A   1      33.030  21.738  24.761  1.00  0.00     0.033 C 
ATOM     91  C   UNL A   1      34.682  23.173  26.636  1.00  0.00     0.160 C 
ATOM     92  C   UNL A   1      34.451  21.346  25.154  1.00  0.00     0.160 C 
ATOM     93  O   UNL A   1      35.214  22.498  25.499  1.00  0.00    -0.381 OA
ENDBRANCH  83  88
ENDBRANCH  74  77
ENDBRANCH  72  73
ENDBRANCH  71  72
ENDBRANCH   1  71
TORSDOF 14
ENDMDL
MODEL 2
REMARK VINA RESULT:     -12.7      4.778      9.889
REMARK SMILES O=C(NCCCNC(=O)c1ccc2c(c1)[C@@H](C1CCOCC1)C(=O)N2)c1ccc(-c2c3nc(c(-c4cccc(S(=O)(=O)[O-])c4F)c4ccc([nH]4)c(-c4cccc(S(=O)(=O)[O-])c4F)c4nc(c(-c5cccc(S(=O)(=O)[O-])c5F)c5ccc2[nH]5)C=C4)C=C3)cc1
REMARK SMILES IDX 4 1 3 2 1 3 2 4 26 6 27 7 88 8 28 9 87 10 29 11 30 12 31 13
REMARK SMILES IDX 81 14 32 15 86 16 80 17 82 18 33 19 85 20 79 21 78 22 34 24
REMARK SMILES IDX 66 25 46 26 65 27 47 28 50 29 64 30 83 31 48 32 49 33 63 35
REMARK SMILES IDX 84 36 51 37 35 38 36 39 44 40 37 41 39 42 45 43 38 44 40 45
REMARK SMILES IDX 41 46 42 47 43 48 67 49 68 50 76 51 69 52 71 53 77 54 70 55
REMARK SMILES IDX 72 56 73 57 74 58 75 59 52 60 53 61 61 62 54 63 56 64 62 65
REMARK SMILES IDX 55 66 57 67 58 68 59 69 60 70 5 71 6 72 7 73 8 74 9 76 10 77
REMARK SMILES IDX 11 78 15 79 12 80 14 81 13 82 16 83 25 84 23 85 24 87 17 88
REMARK SMILES IDX 18 89 22 90 19 91 21 92 20 93
REMARK H PARENT 3 5 82 23 50 34 7 75 25 86
REMARK Flexibility Score: inf
ROOT
ATOM      1  C   UNL A   1      37.047  21.854  24.478  1.00  0.00     0.118 C 
ENDROOT
BRANCH   1   2
ATOM      2  N   UNL A   1      37.783  20.723  25.030  1.00  0.00    -0.352 N 
ATOM      3  O   UNL A   1      39.478  19.612  26.007  1.00  0.00    -0.269 OA
ATOM      4  C   UNL A   1      38.927  20.690  25.795  1.00  0.00     0.251 C 
ATOM      5  H   UNL A   1      37.400  19.840  24.822  1.00  0.00     0.163 HD
BRANCH   4   6
ATOM      6  C   UNL A   1      39.504  21.944  26.323  1.00  0.00     0.039 A 
ATOM      7  C   UNL A   1      38.962  23.177  25.967  1.00  0.00     0.014 A 
ATOM      8  C   UNL A   1      40.610  21.893  27.176  1.00  0.00     0.014 A 
ATOM      9  C   UNL A   1      39.647  24.345  26.269  1.00  0.00     0.010 A 
ATOM     10  C   UNL A   1      41.220  23.080  27.595  1.00  0.00     0.010 A 
ATOM     11  C   UNL A   1      40.776  24.317  27.102  1.00  0.00    -0.014 A 
BRANCH  11  12
ATOM     12  C   UNL A   1      41.418  25.602  27.483  1.00  0.00     0.031 A 
ATOM     13  C   UNL A   1      42.824  25.938  27.062  1.00  0.00     0.074 A 
ATOM     14  C   UNL A   1      40.699  26.490  28.201  1.00  0.00     0.049 A 
ATOM     15  N   UNL A   1      43.498  27.041  27.264  1.00  0.00    -0.248 NA
ATOM     16  C   UNL A   1      43.574  24.906  26.329  1.00  0.00     0.031 C 
ATOM     17  C   UNL A   1      39.338  26.264  28.698  1.00  0.00     0.029 A 
ATOM     18  N   UNL A   1      40.999  27.758  28.625  1.00  0.00    -0.354 N 
ATOM     19  C   UNL A   1      44.764  26.822  26.730  1.00  0.00     0.074 A 
ATOM     20  C   UNL A   1      44.765  25.476  26.200  1.00  0.00     0.031 C 
ATOM     21  C   UNL A   1      38.903  27.372  29.314  1.00  0.00     0.029 A 
ATOM     22  C   UNL A   1      39.975  28.358  29.323  1.00  0.00     0.049 A 
ATOM     23  H   UNL A   1      41.862  28.197  28.449  1.00  0.00     0.167 HD
ATOM     24  C   UNL A   1      45.822  27.666  26.682  1.00  0.00     0.034 A 
ATOM     25  C   UNL A   1      39.909  29.561  29.922  1.00  0.00     0.034 A 
ATOM     26  C   UNL A   1      45.804  29.014  27.190  1.00  0.00     0.049 A 
ATOM     27  C   UNL A   1      41.096  30.474  29.845  1.00  0.00     0.074 A 
ATOM     28  C   UNL A   1      46.802  29.972  27.124  1.00  0.00     0.029 A 
ATOM     29  N   UNL A   1      44.746  29.590  27.877  1.00  0.00    -0.354 N 
ATOM     30  N   UNL A   1      42.237  30.294  29.225  1.00  0.00    -0.248 NA
ATOM     31  C   UNL A   1      40.978  31.768  30.528  1.00  0.00     0.031 C 
ATOM     32  C   UNL A   1      46.364  31.110  27.809  1.00  0.00     0.029 A 
ATOM     33  C   UNL A   1      45.074  30.881  28.259  1.00  0.00     0.049 A 
ATOM     34  H   UNL A   1      43.888  29.147  28.066  1.00  0.00     0.167 HD
ATOM     35  C   UNL A   1      42.958  31.466  29.413  1.00  0.00     0.074 A 
ATOM     36  C   UNL A   1      42.115  32.356  30.183  1.00  0.00     0.031 C 
ATOM     37  C   UNL A   1      44.210  31.773  28.992  1.00  0.00     0.034 A 
BRANCH  24  38
ATOM     38  C   UNL A   1      47.098  27.164  26.049  1.00  0.00     0.023 A 
ATOM     39  C   UNL A   1      47.353  27.403  24.684  1.00  0.00     0.012 A 
ATOM     40  C   UNL A   1      48.072  26.502  26.825  1.00  0.00     0.148 A 
ATOM     41  C   UNL A   1      48.536  26.957  24.092  1.00  0.00     0.002 A 
ATOM     42  C   UNL A   1      49.268  26.104  26.240  1.00  0.00     0.091 A 
ATOM     43  F   UNL A   1      47.807  26.268  28.118  1.00  0.00    -0.205 F 
ATOM     44  C   UNL A   1      49.495  26.317  24.871  1.00  0.00     0.022 A 
BRANCH  42  45
ATOM     45  S   UNL A   1      50.601  25.347  27.178  1.00  0.00     0.127 S 
ATOM     46  O   UNL A   1      51.546  25.000  26.118  1.00  0.00    -0.237 OA
ATOM     47  O   UNL A   1      51.032  26.447  28.042  1.00  0.00    -0.237 OA
ATOM     48  O   UNL A   1      50.007  24.219  27.881  1.00  0.00    -0.744 OA
ENDBRANCH  42  45
ENDBRANCH  24  38
BRANCH  25  49
ATOM     49  C   UNL A   1      38.657  29.980  30.610  1.00  0.00     0.023 A 
ATOM     50  C   UNL A   1      38.455  29.625  31.958  1.00  0.00     0.012 A 
ATOM     51  C   UNL A   1      37.683  30.753  29.949  1.00  0.00     0.148 A 
ATOM     52  C   UNL A   1      37.289  30.005  32.624  1.00  0.00     0.002 A 
ATOM     53  C   UNL A   1      36.554  31.178  30.635  1.00  0.00     0.091 A 
ATOM     54  F   UNL A   1      37.893  31.073  28.664  1.00  0.00    -0.205 F 
ATOM     55  C   UNL A   1      36.345  30.789  31.967  1.00  0.00     0.022 A 
BRANCH  53  56
ATOM     56  S   UNL A   1      35.353  32.300  29.913  1.00  0.00     0.127 S 
ATOM     57  O   UNL A   1      34.422  32.495  31.021  1.00  0.00    -0.237 OA
ATOM     58  O   UNL A   1      36.184  33.462  29.593  1.00  0.00    -0.237 OA
ATOM     59  O   UNL A   1      34.815  31.608  28.749  1.00  0.00    -0.744 OA
ENDBRANCH  53  56
ENDBRANCH  25  49
BRANCH  37  60
ATOM     60  C   UNL A   1      44.729  33.152  29.313  1.00  0.00     0.023 A 
ATOM     61  C   UNL A   1      45.385  33.397  30.536  1.00  0.00     0.012 A 
ATOM     62  C   UNL A   1      44.601  34.196  28.375  1.00  0.00     0.148 A 
ATOM     63  C   UNL A   1      45.866  34.670  30.839  1.00  0.00     0.002 A 
ATOM     64  C   UNL A   1      45.133  35.446  28.660  1.00  0.00     0.091 A 
ATOM     65  F   UNL A   1      43.955  33.949  27.226  1.00  0.00    -0.205 F 
ATOM     66  C   UNL A   1      45.751  35.691  29.897  1.00  0.00     0.022 A 
BRANCH  64  67
ATOM     67  S   UNL A   1      45.121  36.790  27.469  1.00  0.00     0.127 S 
ATOM     68  O   UNL A   1      45.714  37.880  28.243  1.00  0.00    -0.237 OA
ATOM     69  O   UNL A   1      45.974  36.265  26.402  1.00  0.00    -0.237 OA
ATOM     70  O   UNL A   1      43.728  36.980  27.090  1.00  0.00    -0.744 OA
ENDBRANCH  64  67
ENDBRANCH  37  60
ENDBRANCH  11  12
ENDBRANCH   4   6
ENDBRANCH   1   2
BRANCH   1  71
ATOM     71  C   UNL A   1      35.611  21.925  24.971  1.00  0.00     0.042 C 
BRANCH  71  72
ATOM     72  C   UNL A   1      35.385  22.972  26.047  1.00  0.00     0.118 C 
BRANCH  72  73
ATOM     73  N   UNL A   1      34.596  22.464  27.162  1.00  0.00    -0.352 N 
ATOM     74  C   UNL A   1      33.264  22.622  27.441  1.00  0.00     0.251 C 
ATOM     75  H   UNL A   1      35.098  21.925  27.815  1.00  0.00     0.163 HD
ATOM     76  O   UNL A   1      32.814  22.282  28.531  1.00  0.00    -0.269 OA
BRANCH  74  77
ATOM     77  C   UNL A   1      32.360  23.211  26.430  1.00  0.00     0.040 A 
ATOM     78  C   UNL A   1      31.957  22.455  25.308  1.00  0.00     0.016 A 
ATOM     79  C   UNL A   1      31.887  24.516  26.633  1.00  0.00     0.020 A 
ATOM     80  C   UNL A   1      31.158  23.023  24.319  1.00  0.00     0.027 A 
ATOM     81  C   UNL A   1      31.073  25.062  25.655  1.00  0.00    -0.011 A 
ATOM     82  C   UNL A   1      30.738  24.319  24.523  1.00  0.00     0.045 A 
ATOM     83  C   UNL A   1      30.412  26.421  25.575  1.00  0.00     0.114 C 
ATOM     84  N   UNL A   1      29.931  25.066  23.686  1.00  0.00    -0.325 N 
ATOM     85  C   UNL A   1      29.661  26.315  24.224  1.00  0.00     0.232 C 
ATOM     86  H   UNL A   1      29.592  24.751  22.817  1.00  0.00     0.169 HD
ATOM     87  O   UNL A   1      28.921  27.143  23.714  1.00  0.00    -0.274 OA
BRANCH  83  88
ATOM     88  C   UNL A   1      31.384  27.615  25.685  1.00  0.00     0.010 C 
ATOM     89  C   UNL A   1      32.652  27.402  24.839  1.00  0.00     0.033 C 
ATOM     90  C   UNL A   1      31.776  27.973  27.130  1.00  0.00     0.033 C 
ATOM     91  C   UNL A   1      33.633  28.555  25.004  1.00  0.00     0.160 C 
ATOM     92  C   UNL A   1      32.803  29.099  27.151  1.00  0.00     0.160 C 
ATOM     93  O   UNL A   1      33.950  28.749  26.380  1.00  0.00    -0.381 OA
ENDBRANCH  83  88
ENDBRANCH  74  77
ENDBRANCH  72  73
ENDBRANCH  71  72
ENDBRANCH   1  71
TORSDOF 14
ENDMDL
MODEL 3
REMARK VINA RESULT:     -12.7      5.029     10.038
REMARK SMILES O=C(NCCCNC(=O)c1ccc2c(c1)[C@@H](C1CCOCC1)C(=O)N2)c1ccc(-c2c3nc(c(-c4cccc(S(=O)(=O)[O-])c4F)c4ccc([nH]4)c(-c4cccc(S(=O)(=O)[O-])c4F)c4nc(c(-c5cccc(S(=O)(=O)[O-])c5F)c5ccc2[nH]5)C=C4)C=C3)cc1
REMARK SMILES IDX 4 1 3 2 1 3 2 4 26 6 27 7 88 8 28 9 87 10 29 11 30 12 31 13
REMARK SMILES IDX 81 14 32 15 86 16 80 17 82 18 33 19 85 20 79 21 78 22 34 24
REMARK SMILES IDX 66 25 46 26 65 27 47 28 50 29 64 30 83 31 48 32 49 33 63 35
REMARK SMILES IDX 84 36 51 37 35 38 36 39 44 40 37 41 39 42 45 43 38 44 40 45
REMARK SMILES IDX 41 46 42 47 43 48 67 49 68 50 76 51 69 52 71 53 77 54 70 55
REMARK SMILES IDX 72 56 73 57 74 58 75 59 52 60 53 61 61 62 54 63 56 64 62 65
REMARK SMILES IDX 55 66 57 67 58 68 59 69 60 70 5 71 6 72 7 73 8 74 9 76 10 77
REMARK SMILES IDX 11 78 15 79 12 80 14 81 13 82 16 83 25 84 23 85 24 87 17 88
REMARK SMILES IDX 18 89 22 90 19 91 21 92 20 93
REMARK H PARENT 3 5 82 23 50 34 7 75 25 86
REMARK Flexibility Score: inf
ROOT
ATOM      1  C   UNL A   1      37.346  21.929  24.795  1.00  0.00     0.118 C 
ENDROOT
BRANCH   1   2
ATOM      2  N   UNL A   1      38.153  20.855  25.360  1.00  0.00    -0.352 N 
ATOM      3  O   UNL A   1      39.920  19.866  26.341  1.00  0.00    -0.269 OA
ATOM      4  C   UNL A   1      39.303  20.904  26.115  1.00  0.00     0.251 C 
ATOM      5  H   UNL A   1      37.823  19.946  25.172  1.00  0.00     0.163 HD
BRANCH   4   6
ATOM      6  C   UNL A   1      39.809  22.200  26.616  1.00  0.00     0.039 A 
ATOM      7  C   UNL A   1      39.286  23.398  26.131  1.00  0.00     0.014 A 
ATOM      8  C   UNL A   1      40.826  22.225  27.573  1.00  0.00     0.014 A 
ATOM      9  C   UNL A   1      39.922  24.596  26.423  1.00  0.00     0.010 A 
ATOM     10  C   UNL A   1      41.376  23.448  27.972  1.00  0.00     0.010 A 
ATOM     11  C   UNL A   1      40.964  24.642  27.361  1.00  0.00    -0.014 A 
BRANCH  11  12
ATOM     12  C   UNL A   1      41.547  25.962  27.719  1.00  0.00     0.031 A 
ATOM     13  C   UNL A   1      42.926  26.364  27.269  1.00  0.00     0.074 A 
ATOM     14  C   UNL A   1      40.798  26.819  28.443  1.00  0.00     0.049 A 
ATOM     15  N   UNL A   1      43.549  27.501  27.450  1.00  0.00    -0.248 NA
ATOM     16  C   UNL A   1      43.715  25.364  26.531  1.00  0.00     0.031 C 
ATOM     17  C   UNL A   1      39.460  26.530  28.967  1.00  0.00     0.029 A 
ATOM     18  N   UNL A   1      41.041  28.104  28.851  1.00  0.00    -0.354 N 
ATOM     19  C   UNL A   1      44.814  27.341  26.895  1.00  0.00     0.074 A 
ATOM     20  C   UNL A   1      44.872  25.991  26.375  1.00  0.00     0.031 C 
ATOM     21  C   UNL A   1      38.981  27.620  29.582  1.00  0.00     0.029 A 
ATOM     22  C   UNL A   1      40.002  28.658  29.563  1.00  0.00     0.049 A 
ATOM     23  H   UNL A   1      41.877  28.585  28.656  1.00  0.00     0.167 HD
ATOM     24  C   UNL A   1      45.827  28.237  26.820  1.00  0.00     0.034 A 
ATOM     25  C   UNL A   1      39.885  29.862  30.153  1.00  0.00     0.034 A 
ATOM     26  C   UNL A   1      45.750  29.587  27.317  1.00  0.00     0.049 A 
ATOM     27  C   UNL A   1      41.024  30.833  30.046  1.00  0.00     0.074 A 
ATOM     28  C   UNL A   1      46.698  30.592  27.224  1.00  0.00     0.029 A 
ATOM     29  N   UNL A   1      44.677  30.115  28.019  1.00  0.00    -0.354 N 
ATOM     30  N   UNL A   1      42.161  30.705  29.407  1.00  0.00    -0.248 NA
ATOM     31  C   UNL A   1      40.853  32.126  30.721  1.00  0.00     0.031 C 
ATOM     32  C   UNL A   1      46.215  31.713  27.908  1.00  0.00     0.029 A 
ATOM     33  C   UNL A   1      44.947  31.424  28.384  1.00  0.00     0.049 A 
ATOM     34  H   UNL A   1      43.846  29.631  28.227  1.00  0.00     0.167 HD
ATOM     35  C   UNL A   1      42.826  31.913  29.571  1.00  0.00     0.074 A 
ATOM     36  C   UNL A   1      41.953  32.767  30.350  1.00  0.00     0.031 C 
ATOM     37  C   UNL A   1      44.053  32.278  29.125  1.00  0.00     0.034 A 
BRANCH  24  38
ATOM     38  C   UNL A   1      47.115  27.793  26.167  1.00  0.00     0.023 A 
ATOM     39  C   UNL A   1      48.122  27.177  26.937  1.00  0.00     0.012 A 
ATOM     40  C   UNL A   1      47.301  27.935  24.777  1.00  0.00     0.148 A 
ATOM     41  C   UNL A   1      49.310  26.749  26.342  1.00  0.00     0.002 A 
ATOM     42  C   UNL A   1      48.466  27.462  24.184  1.00  0.00     0.091 A 
ATOM     43  F   UNL A   1      46.341  28.539  24.063  1.00  0.00    -0.205 F 
ATOM     44  C   UNL A   1      49.477  26.882  24.967  1.00  0.00     0.022 A 
BRANCH  42  45
ATOM     45  S   UNL A   1      48.739  27.513  22.409  1.00  0.00     0.127 S 
ATOM     46  O   UNL A   1      50.046  28.162  22.331  1.00  0.00    -0.237 OA
ATOM     47  O   UNL A   1      48.743  26.092  22.058  1.00  0.00    -0.237 OA
ATOM     48  O   UNL A   1      47.629  28.273  21.853  1.00  0.00    -0.744 OA
ENDBRANCH  42  45
ENDBRANCH  24  38
BRANCH  25  49
ATOM     49  C   UNL A   1      38.627  30.224  30.861  1.00  0.00     0.023 A 
ATOM     50  C   UNL A   1      38.450  29.835  32.203  1.00  0.00     0.012 A 
ATOM     51  C   UNL A   1      37.620  30.976  30.224  1.00  0.00     0.148 A 
ATOM     52  C   UNL A   1      37.278  30.162  32.888  1.00  0.00     0.002 A 
ATOM     53  C   UNL A   1      36.485  31.348  30.929  1.00  0.00     0.091 A 
ATOM     54  F   UNL A   1      37.807  31.329  28.945  1.00  0.00    -0.205 F 
ATOM     55  C   UNL A   1      36.301  30.926  32.255  1.00  0.00     0.022 A 
BRANCH  53  56
ATOM     56  S   UNL A   1      35.239  32.443  30.241  1.00  0.00     0.127 S 
ATOM     57  O   UNL A   1      34.310  32.580  31.359  1.00  0.00    -0.237 OA
ATOM     58  O   UNL A   1      36.026  33.641  29.942  1.00  0.00    -0.237 OA
ATOM     59  O   UNL A   1      34.718  31.759  29.065  1.00  0.00    -0.744 OA
ENDBRANCH  53  56
ENDBRANCH  25  49
BRANCH  37  60
ATOM     60  C   UNL A   1      44.507  33.684  29.425  1.00  0.00     0.023 A 
ATOM     61  C   UNL A   1      45.115  33.986  30.660  1.00  0.00     0.012 A 
ATOM     62  C   UNL A   1      44.367  34.698  28.457  1.00  0.00     0.148 A 
ATOM     63  C   UNL A   1      45.536  35.284  30.944  1.00  0.00     0.002 A 
ATOM     64  C   UNL A   1      44.842  35.976  28.725  1.00  0.00     0.091 A 
ATOM     65  F   UNL A   1      43.768  34.398  27.295  1.00  0.00    -0.205 F 
ATOM     66  C   UNL A   1      45.411  36.276  29.973  1.00  0.00     0.022 A 
BRANCH  64  67
ATOM     67  S   UNL A   1      44.814  37.288  27.498  1.00  0.00     0.127 S 
ATOM     68  O   UNL A   1      45.307  38.428  28.271  1.00  0.00    -0.237 OA
ATOM     69  O   UNL A   1      45.746  36.786  26.488  1.00  0.00    -0.237 OA
ATOM     70  O   UNL A   1      43.433  37.389  27.048  1.00  0.00    -0.744 OA
ENDBRANCH  64  67
ENDBRANCH  37  60
ENDBRANCH  11  12
ENDBRANCH   4   6
ENDBRANCH   1   2
BRANCH   1  71
ATOM     71  C   UNL A   1      35.880  21.840  25.190  1.00  0.00     0.042 C 
BRANCH  71  72
ATOM     72  C   UNL A   1      35.431  22.948  26.126  1.00  0.00     0.118 C 
BRANCH  72  73
ATOM     73  N   UNL A   1      34.621  22.448  27.230  1.00  0.00    -0.352 N 
ATOM     74  C   UNL A   1      33.284  22.612  27.484  1.00  0.00     0.251 C 
ATOM     75  H   UNL A   1      35.109  21.911  27.895  1.00  0.00     0.163 HD
ATOM     76  O   UNL A   1      32.814  22.280  28.568  1.00  0.00    -0.269 OA
BRANCH  74  77
ATOM     77  C   UNL A   1      32.400  23.199  26.455  1.00  0.00     0.040 A 
ATOM     78  C   UNL A   1      32.038  22.447  25.316  1.00  0.00     0.016 A 
ATOM     79  C   UNL A   1      31.906  24.497  26.655  1.00  0.00     0.020 A 
ATOM     80  C   UNL A   1      31.259  23.014  24.310  1.00  0.00     0.027 A 
ATOM     81  C   UNL A   1      31.112  25.041  25.660  1.00  0.00    -0.011 A 
ATOM     82  C   UNL A   1      30.817  24.303  24.513  1.00  0.00     0.045 A 
ATOM     83  C   UNL A   1      30.437  26.392  25.573  1.00  0.00     0.114 C 
ATOM     84  N   UNL A   1      30.024  25.047  23.661  1.00  0.00    -0.325 N 
ATOM     85  C   UNL A   1      29.724  26.288  24.202  1.00  0.00     0.232 C 
ATOM     86  H   UNL A   1      29.711  24.736  22.781  1.00  0.00     0.169 HD
ATOM     87  O   UNL A   1      28.987  27.111  23.679  1.00  0.00    -0.274 OA
BRANCH  83  88
ATOM     88  C   UNL A   1      31.391  27.597  25.719  1.00  0.00     0.010 C 
ATOM     89  C   UNL A   1      32.669  27.421  24.881  1.00  0.00     0.033 C 
ATOM     90  C   UNL A   1      31.765  27.928  27.176  1.00  0.00     0.033 C 
ATOM     91  C   UNL A   1      33.632  28.583  25.081  1.00  0.00     0.160 C 
ATOM     92  C   UNL A   1      32.776  29.068  27.231  1.00  0.00     0.160 C 
ATOM     93  O   UNL A   1      33.933  28.751  26.464  1.00  0.00    -0.381 OA
ENDBRANCH  83  88
ENDBRANCH  74  77
ENDBRANCH  72  73
ENDBRANCH  71  72
ENDBRANCH   1  71
TORSDOF 14
ENDMDL
