MODEL 1
REMARK VINA RESULT:     -12.6      0.000      0.000
REMARK SMILES Cn1c(C(=O)N2CCC[C@@H](C(=O)NCCCNC(=O)c3ccc(-c4c5nc(c(-c6cccc(S(=O)(=O)[O-])c6F)c6ccc([nH]6)c(-c6cccc(S(=O)(=O)[O-])c6F)c6nc(c(-c7cccc(S(=O)(=O)[O-])c7F)c7ccc4[nH]7)C=C6)C=C5)cc3)C2)cc2sccc21
REMARK SMILES IDX 15 1 14 2 13 3 11 4 12 5 10 7 6 8 7 9 83 10 8 11 9 12 4 13
REMARK SMILES IDX 5 14 3 15 1 16 2 17 89 18 84 19 85 20 88 21 86 22 87 23
REMARK SMILES IDX 16 24 17 25 18 26 19 28 20 29 21 30 82 31 22 32 81 33 23 34
REMARK SMILES IDX 24 35 25 36 75 37 26 38 80 39 74 40 76 41 27 42 79 43 73 44
REMARK SMILES IDX 72 45 28 47 60 48 40 49 59 50 41 51 44 52 58 53 77 54 42 55
REMARK SMILES IDX 43 56 57 58 78 59 45 60 29 61 30 62 38 63 31 64 33 65 39 66
REMARK SMILES IDX 32 67 34 68 35 69 36 70 37 71 61 72 62 73 70 74 63 75 65 76
REMARK SMILES IDX 71 77 64 78 66 79 67 80 68 81 69 82 46 83 47 84 55 85 48 86
REMARK SMILES IDX 50 87 56 88 49 89 51 90 52 91 53 92 54 93
REMARK H PARENT 13 6 17 27 76 46 44 57
REMARK Flexibility Score: inf
ROOT
ATOM      1  C   UNL A   1      38.136  19.509  25.065  1.00  0.00     0.042 C 
ENDROOT
BRANCH   1   2
ATOM      2  C   UNL A   1      36.981  20.520  24.998  1.00  0.00     0.117 C 
BRANCH   2   3
ATOM      3  N   UNL A   1      37.407  21.888  25.244  1.00  0.00    -0.356 N 
ATOM      4  C   UNL A   1      36.733  23.070  25.151  1.00  0.00     0.224 C 
ATOM      5  O   UNL A   1      37.318  24.076  25.557  1.00  0.00    -0.275 OA
ATOM      6  H   UNL A   1      38.345  21.976  25.528  1.00  0.00     0.163 HD
BRANCH   4   7
ATOM      7  C   UNL A   1      35.289  23.137  24.648  1.00  0.00     0.098 C 
ATOM      8  N   UNL A   1      32.928  22.958  25.457  1.00  0.00    -0.337 N 
ATOM      9  C   UNL A   1      32.567  24.257  24.933  1.00  0.00     0.120 C 
ATOM     10  C   UNL A   1      34.336  22.736  25.806  1.00  0.00     0.133 C 
ATOM     11  C   UNL A   1      33.421  24.597  23.735  1.00  0.00     0.022 C 
ATOM     12  C   UNL A   1      34.895  24.520  24.108  1.00  0.00     0.017 C 
BRANCH   8  13
ATOM     13  C   UNL A   1      31.981  21.954  25.415  1.00  0.00     0.270 C 
ATOM     14  O   UNL A   1      30.841  22.159  25.842  1.00  0.00    -0.267 OA
BRANCH  13  15
ATOM     15  C   UNL A   1      32.475  20.624  25.068  1.00  0.00     0.108 A 
ATOM     16  C   UNL A   1      32.132  20.791  22.556  1.00  0.00     0.150 C 
ATOM     17  N   UNL A   1      32.499  20.118  23.779  1.00  0.00    -0.339 N 
ATOM     18  C   UNL A   1      32.802  18.773  23.826  1.00  0.00     0.059 A 
ATOM     19  C   UNL A   1      32.873  19.598  25.922  1.00  0.00     0.053 A 
ATOM     20  C   UNL A   1      33.054  18.440  25.120  1.00  0.00     0.053 A 
ATOM     21  C   UNL A   1      32.899  17.675  22.926  1.00  0.00     0.038 A 
ATOM     22  S   UNL A   1      33.449  16.765  25.307  1.00  0.00    -0.142 S 
ATOM     23  C   UNL A   1      33.235  16.531  23.617  1.00  0.00     0.068 A 
ENDBRANCH  13  15
ENDBRANCH   8  13
ENDBRANCH   4   7
ENDBRANCH   2   3
ENDBRANCH   1   2
BRANCH   1  24
ATOM     24  C   UNL A   1      39.293  19.982  25.926  1.00  0.00     0.118 C 
BRANCH  24  25
ATOM     25  N   UNL A   1      40.481  19.141  25.782  1.00  0.00    -0.352 N 
ATOM     26  C   UNL A   1      41.807  19.523  25.842  1.00  0.00     0.251 C 
ATOM     27  H   UNL A   1      40.315  18.184  25.622  1.00  0.00     0.163 HD
ATOM     28  O   UNL A   1      42.678  18.803  25.363  1.00  0.00    -0.269 OA
BRANCH  26  29
ATOM     29  C   UNL A   1      42.159  20.805  26.479  1.00  0.00     0.039 A 
ATOM     30  C   UNL A   1      42.491  21.923  25.708  1.00  0.00     0.014 A 
ATOM     31  C   UNL A   1      42.130  20.888  27.869  1.00  0.00     0.014 A 
ATOM     32  C   UNL A   1      42.710  23.140  26.349  1.00  0.00     0.010 A 
ATOM     33  C   UNL A   1      42.187  22.113  28.483  1.00  0.00     0.010 A 
ATOM     34  C   UNL A   1      42.528  23.234  27.738  1.00  0.00    -0.014 A 
BRANCH  34  35
ATOM     35  C   UNL A   1      42.527  24.532  28.408  1.00  0.00     0.031 A 
ATOM     36  C   UNL A   1      41.294  25.319  28.146  1.00  0.00     0.074 A 
ATOM     37  C   UNL A   1      43.436  24.885  29.346  1.00  0.00     0.049 A 
ATOM     38  N   UNL A   1      41.176  26.363  27.393  1.00  0.00    -0.248 NA
ATOM     39  C   UNL A   1      40.006  24.775  28.607  1.00  0.00     0.031 C 
ATOM     40  C   UNL A   1      44.505  24.043  29.905  1.00  0.00     0.029 A 
ATOM     41  N   UNL A   1      43.521  26.014  30.107  1.00  0.00    -0.354 N 
ATOM     42  C   UNL A   1      39.852  26.772  27.547  1.00  0.00     0.074 A 
ATOM     43  C   UNL A   1      39.142  25.634  28.060  1.00  0.00     0.031 C 
ATOM     44  C   UNL A   1      44.950  24.581  31.062  1.00  0.00     0.029 A 
ATOM     45  C   UNL A   1      44.339  25.884  31.229  1.00  0.00     0.049 A 
ATOM     46  H   UNL A   1      43.046  26.847  29.884  1.00  0.00     0.167 HD
ATOM     47  C   UNL A   1      39.546  28.100  27.582  1.00  0.00     0.034 A 
ATOM     48  C   UNL A   1      44.503  26.779  32.234  1.00  0.00     0.034 A 
ATOM     49  C   UNL A   1      40.681  28.885  27.163  1.00  0.00     0.049 A 
ATOM     50  C   UNL A   1      44.091  28.096  31.714  1.00  0.00     0.074 A 
ATOM     51  C   UNL A   1      41.364  29.133  25.994  1.00  0.00     0.029 A 
ATOM     52  N   UNL A   1      41.501  29.236  28.204  1.00  0.00    -0.354 N 
ATOM     53  N   UNL A   1      44.760  28.733  30.797  1.00  0.00    -0.248 NA
ATOM     54  C   UNL A   1      42.744  28.586  31.967  1.00  0.00     0.031 C 
ATOM     55  C   UNL A   1      42.697  29.462  26.382  1.00  0.00     0.029 A 
ATOM     56  C   UNL A   1      42.777  29.458  27.773  1.00  0.00     0.049 A 
ATOM     57  H   UNL A   1      41.207  29.318  29.141  1.00  0.00     0.167 HD
ATOM     58  C   UNL A   1      43.776  29.347  30.048  1.00  0.00     0.074 A 
ATOM     59  C   UNL A   1      42.609  29.404  30.919  1.00  0.00     0.031 C 
ATOM     60  C   UNL A   1      43.894  29.430  28.692  1.00  0.00     0.034 A 
BRANCH  47  61
ATOM     61  C   UNL A   1      38.473  28.749  28.447  1.00  0.00     0.023 A 
ATOM     62  C   UNL A   1      37.603  29.661  27.801  1.00  0.00     0.012 A 
ATOM     63  C   UNL A   1      38.457  28.764  29.861  1.00  0.00     0.148 A 
ATOM     64  C   UNL A   1      36.820  30.576  28.514  1.00  0.00     0.002 A 
ATOM     65  C   UNL A   1      37.625  29.627  30.569  1.00  0.00     0.091 A 
ATOM     66  F   UNL A   1      39.336  28.038  30.552  1.00  0.00    -0.205 F 
ATOM     67  C   UNL A   1      36.828  30.558  29.902  1.00  0.00     0.022 A 
BRANCH  65  68
ATOM     68  S   UNL A   1      37.575  29.627  32.369  1.00  0.00     0.127 S 
ATOM     69  O   UNL A   1      38.826  30.303  32.695  1.00  0.00    -0.237 OA
ATOM     70  O   UNL A   1      36.361  30.401  32.630  1.00  0.00    -0.237 OA
ATOM     71  O   UNL A   1      37.485  28.226  32.761  1.00  0.00    -0.744 OA
ENDBRANCH  65  68
ENDBRANCH  47  61
BRANCH  48  72
ATOM     72  C   UNL A   1      44.895  26.623  33.652  1.00  0.00     0.023 A 
ATOM     73  C   UNL A   1      46.164  27.071  34.074  1.00  0.00     0.012 A 
ATOM     74  C   UNL A   1      43.922  26.344  34.631  1.00  0.00     0.148 A 
ATOM     75  C   UNL A   1      46.435  27.300  35.426  1.00  0.00     0.002 A 
ATOM     76  C   UNL A   1      44.193  26.584  35.976  1.00  0.00     0.091 A 
ATOM     77  F   UNL A   1      42.709  25.938  34.231  1.00  0.00    -0.205 F 
ATOM     78  C   UNL A   1      45.443  27.076  36.375  1.00  0.00     0.022 A 
BRANCH  76  79
ATOM     79  S   UNL A   1      42.951  26.382  37.261  1.00  0.00     0.127 S 
ATOM     80  O   UNL A   1      43.748  26.544  38.477  1.00  0.00    -0.237 OA
ATOM     81  O   UNL A   1      42.042  27.489  36.973  1.00  0.00    -0.237 OA
ATOM     82  O   UNL A   1      42.400  25.048  37.072  1.00  0.00    -0.744 OA
ENDBRANCH  76  79
ENDBRANCH  48  72
BRANCH  60  83
ATOM     83  C   UNL A   1      45.276  29.313  28.119  1.00  0.00     0.023 A 
ATOM     84  C   UNL A   1      46.221  30.358  28.156  1.00  0.00     0.012 A 
ATOM     85  C   UNL A   1      45.648  28.074  27.576  1.00  0.00     0.148 A 
ATOM     86  C   UNL A   1      47.504  30.176  27.630  1.00  0.00     0.002 A 
ATOM     87  C   UNL A   1      46.937  27.882  27.099  1.00  0.00     0.091 A 
ATOM     88  F   UNL A   1      44.731  27.096  27.540  1.00  0.00    -0.205 F 
ATOM     89  C   UNL A   1      47.865  28.933  27.111  1.00  0.00     0.022 A 
BRANCH  87  90
ATOM     90  S   UNL A   1      47.476  26.273  26.524  1.00  0.00     0.127 S 
ATOM     91  O   UNL A   1      48.888  26.509  26.233  1.00  0.00    -0.237 OA
ATOM     92  O   UNL A   1      47.223  25.422  27.688  1.00  0.00    -0.237 OA
ATOM     93  O   UNL A   1      46.638  25.962  25.372  1.00  0.00    -0.744 OA
ENDBRANCH  87  90
ENDBRANCH  60  83
ENDBRANCH  34  35
ENDBRANCH  26  29
ENDBRANCH  24  25
ENDBRANCH   1  24
TORSDOF 15
ENDMDL
MODEL 2
REMARK VINA RESULT:     -12.5      1.771      3.280
REMARK SMILES Cn1c(C(=O)N2CCC[C@@H](C(=O)NCCCNC(=O)c3ccc(-c4c5nc(c(-c6cccc(S(=O)(=O)[O-])c6F)c6ccc([nH]6)c(-c6cccc(S(=O)(=O)[O-])c6F)c6nc(c(-c7cccc(S(=O)(=O)[O-])c7F)c7ccc4[nH]7)C=C6)C=C5)cc3)C2)cc2sccc21
REMARK SMILES IDX 15 1 14 2 13 3 11 4 12 5 10 7 6 8 7 9 83 10 8 11 9 12 4 13
REMARK SMILES IDX 5 14 3 15 1 16 2 17 89 18 84 19 85 20 88 21 86 22 87 23
REMARK SMILES IDX 16 24 17 25 18 26 19 28 20 29 21 30 82 31 22 32 81 33 23 34
REMARK SMILES IDX 24 35 25 36 75 37 26 38 80 39 74 40 76 41 27 42 79 43 73 44
REMARK SMILES IDX 72 45 28 47 60 48 40 49 59 50 41 51 44 52 58 53 77 54 42 55
REMARK SMILES IDX 43 56 57 58 78 59 45 60 29 61 30 62 38 63 31 64 33 65 39 66
REMARK SMILES IDX 32 67 34 68 35 69 36 70 37 71 61 72 62 73 70 74 63 75 65 76
REMARK SMILES IDX 71 77 64 78 66 79 67 80 68 81 69 82 46 83 47 84 55 85 48 86
REMARK SMILES IDX 50 87 56 88 49 89 51 90 52 91 53 92 54 93
REMARK H PARENT 13 6 17 27 76 46 44 57
REMARK Flexibility Score: inf
ROOT
ATOM      1  C   UNL A   1      37.474  19.973  24.728  1.00  0.00     0.042 C 
ENDROOT
BRANCH   1   2
ATOM      2  C   UNL A   1      36.183  20.691  25.148  1.00  0.00     0.117 C 
BRANCH   2   3
ATOM      3  N   UNL A   1      35.007  19.840  25.068  1.00  0.00    -0.356 N 
ATOM      4  C   UNL A   1      33.683  20.145  24.955  1.00  0.00     0.224 C 
ATOM      5  O   UNL A   1      32.910  19.204  24.771  1.00  0.00    -0.275 OA
ATOM      6  H   UNL A   1      35.201  18.876  25.103  1.00  0.00     0.163 HD
BRANCH   4   7
ATOM      7  C   UNL A   1      33.185  21.592  24.966  1.00  0.00     0.098 C 
ATOM      8  N   UNL A   1      32.562  23.457  23.419  1.00  0.00    -0.337 N 
ATOM      9  C   UNL A   1      31.243  23.602  23.997  1.00  0.00     0.120 C 
ATOM     10  C   UNL A   1      33.202  22.141  23.514  1.00  0.00     0.133 C 
ATOM     11  C   UNL A   1      31.255  23.174  25.445  1.00  0.00     0.022 C 
ATOM     12  C   UNL A   1      31.778  21.749  25.563  1.00  0.00     0.017 C 
BRANCH   8  13
ATOM     13  C   UNL A   1      33.213  24.597  22.991  1.00  0.00     0.270 C 
ATOM     14  O   UNL A   1      33.982  24.546  22.026  1.00  0.00    -0.267 OA
BRANCH  13  15
ATOM     15  C   UNL A   1      33.115  25.758  23.872  1.00  0.00     0.108 A 
ATOM     16  C   UNL A   1      31.485  27.104  22.461  1.00  0.00     0.150 C 
ATOM     17  N   UNL A   1      32.356  26.882  23.590  1.00  0.00    -0.339 N 
ATOM     18  C   UNL A   1      32.661  27.872  24.501  1.00  0.00     0.059 A 
ATOM     19  C   UNL A   1      33.824  26.020  25.041  1.00  0.00     0.053 A 
ATOM     20  C   UNL A   1      33.537  27.363  25.406  1.00  0.00     0.053 A 
ATOM     21  C   UNL A   1      32.335  29.238  24.731  1.00  0.00     0.038 A 
ATOM     22  S   UNL A   1      33.996  28.520  26.608  1.00  0.00    -0.142 S 
ATOM     23  C   UNL A   1      33.007  29.700  25.842  1.00  0.00     0.068 A 
ENDBRANCH  13  15
ENDBRANCH   8  13
ENDBRANCH   4   7
ENDBRANCH   2   3
ENDBRANCH   1   2
BRANCH   1  24
ATOM     24  C   UNL A   1      38.694  20.435  25.505  1.00  0.00     0.118 C 
BRANCH  24  25
ATOM     25  N   UNL A   1      39.703  19.385  25.644  1.00  0.00    -0.352 N 
ATOM     26  C   UNL A   1      41.043  19.528  25.944  1.00  0.00     0.251 C 
ATOM     27  H   UNL A   1      39.387  18.464  25.508  1.00  0.00     0.163 HD
ATOM     28  O   UNL A   1      41.831  18.623  25.686  1.00  0.00    -0.269 OA
BRANCH  26  29
ATOM     29  C   UNL A   1      41.514  20.779  26.566  1.00  0.00     0.039 A 
ATOM     30  C   UNL A   1      42.015  21.825  25.786  1.00  0.00     0.014 A 
ATOM     31  C   UNL A   1      41.426  20.907  27.950  1.00  0.00     0.014 A 
ATOM     32  C   UNL A   1      42.345  23.027  26.407  1.00  0.00     0.010 A 
ATOM     33  C   UNL A   1      41.598  22.136  28.536  1.00  0.00     0.010 A 
ATOM     34  C   UNL A   1      42.107  23.185  27.782  1.00  0.00    -0.014 A 
BRANCH  34  35
ATOM     35  C   UNL A   1      42.228  24.494  28.418  1.00  0.00     0.031 A 
ATOM     36  C   UNL A   1      41.034  25.354  28.209  1.00  0.00     0.074 A 
ATOM     37  C   UNL A   1      43.211  24.807  29.294  1.00  0.00     0.049 A 
ATOM     38  N   UNL A   1      40.937  26.387  27.438  1.00  0.00    -0.248 NA
ATOM     39  C   UNL A   1      39.743  24.903  28.756  1.00  0.00     0.031 C 
ATOM     40  C   UNL A   1      44.257  23.911  29.810  1.00  0.00     0.029 A 
ATOM     41  N   UNL A   1      43.412  25.945  30.020  1.00  0.00    -0.354 N 
ATOM     42  C   UNL A   1      39.653  26.884  27.658  1.00  0.00     0.074 A 
ATOM     43  C   UNL A   1      38.905  25.805  28.239  1.00  0.00     0.031 C 
ATOM     44  C   UNL A   1      44.802  24.443  30.926  1.00  0.00     0.029 A 
ATOM     45  C   UNL A   1      44.286  25.786  31.096  1.00  0.00     0.049 A 
ATOM     46  H   UNL A   1      42.978  26.802  29.804  1.00  0.00     0.167 HD
ATOM     47  C   UNL A   1      39.434  28.229  27.677  1.00  0.00     0.034 A 
ATOM     48  C   UNL A   1      44.566  26.690  32.067  1.00  0.00     0.034 A 
ATOM     49  C   UNL A   1      40.590  28.930  27.174  1.00  0.00     0.049 A 
ATOM     50  C   UNL A   1      44.207  28.019  31.539  1.00  0.00     0.074 A 
ATOM     51  C   UNL A   1      41.217  29.109  25.962  1.00  0.00     0.029 A 
ATOM     52  N   UNL A   1      41.490  29.249  28.157  1.00  0.00    -0.354 N 
ATOM     53  N   UNL A   1      44.860  28.592  30.569  1.00  0.00    -0.248 NA
ATOM     54  C   UNL A   1      42.911  28.600  31.857  1.00  0.00     0.031 C 
ATOM     55  C   UNL A   1      42.588  29.359  26.264  1.00  0.00     0.029 A 
ATOM     56  C   UNL A   1      42.751  29.379  27.648  1.00  0.00     0.049 A 
ATOM     57  H   UNL A   1      41.259  29.369  29.107  1.00  0.00     0.167 HD
ATOM     58  C   UNL A   1      43.873  29.252  29.863  1.00  0.00     0.074 A 
ATOM     59  C   UNL A   1      42.766  29.403  30.799  1.00  0.00     0.031 C 
ATOM     60  C   UNL A   1      43.916  29.299  28.501  1.00  0.00     0.034 A 
BRANCH  47  61
ATOM     61  C   UNL A   1      38.458  28.964  28.587  1.00  0.00     0.023 A 
ATOM     62  C   UNL A   1      37.690  29.995  27.992  1.00  0.00     0.012 A 
ATOM     63  C   UNL A   1      38.466  28.926  30.001  1.00  0.00     0.148 A 
ATOM     64  C   UNL A   1      37.029  30.966  28.753  1.00  0.00     0.002 A 
ATOM     65  C   UNL A   1      37.751  29.852  30.756  1.00  0.00     0.091 A 
ATOM     66  F   UNL A   1      39.265  28.077  30.647  1.00  0.00    -0.205 F 
ATOM     67  C   UNL A   1      37.057  30.894  30.139  1.00  0.00     0.022 A 
BRANCH  65  68
ATOM     68  S   UNL A   1      37.728  29.788  32.555  1.00  0.00     0.127 S 
ATOM     69  O   UNL A   1      39.098  30.175  32.877  1.00  0.00    -0.237 OA
ATOM     70  O   UNL A   1      36.707  30.787  32.872  1.00  0.00    -0.237 OA
ATOM     71  O   UNL A   1      37.354  28.422  32.897  1.00  0.00    -0.744 OA
ENDBRANCH  65  68
ENDBRANCH  47  61
BRANCH  48  72
ATOM     72  C   UNL A   1      45.030  26.538  33.463  1.00  0.00     0.023 A 
ATOM     73  C   UNL A   1      46.356  26.887  33.794  1.00  0.00     0.012 A 
ATOM     74  C   UNL A   1      44.100  26.371  34.507  1.00  0.00     0.148 A 
ATOM     75  C   UNL A   1      46.729  27.128  35.120  1.00  0.00     0.002 A 
ATOM     76  C   UNL A   1      44.473  26.623  35.825  1.00  0.00     0.091 A 
ATOM     77  F   UNL A   1      42.834  26.062  34.193  1.00  0.00    -0.205 F 
ATOM     78  C   UNL A   1      45.782  27.016  36.133  1.00  0.00     0.022 A 
BRANCH  76  79
ATOM     79  S   UNL A   1      43.300  26.565  37.187  1.00  0.00     0.127 S 
ATOM     80  O   UNL A   1      44.148  26.911  38.328  1.00  0.00    -0.237 OA
ATOM     81  O   UNL A   1      42.342  27.597  36.801  1.00  0.00    -0.237 OA
ATOM     82  O   UNL A   1      42.785  25.203  37.208  1.00  0.00    -0.744 OA
ENDBRANCH  76  79
ENDBRANCH  48  72
BRANCH  60  83
ATOM     83  C   UNL A   1      45.252  29.081  27.852  1.00  0.00     0.023 A 
ATOM     84  C   UNL A   1      46.288  30.036  27.872  1.00  0.00     0.012 A 
ATOM     85  C   UNL A   1      45.483  27.834  27.252  1.00  0.00     0.148 A 
ATOM     86  C   UNL A   1      47.521  29.761  27.273  1.00  0.00     0.002 A 
ATOM     87  C   UNL A   1      46.723  27.546  26.701  1.00  0.00     0.091 A 
ATOM     88  F   UNL A   1      44.481  26.943  27.234  1.00  0.00    -0.205 F 
ATOM     89  C   UNL A   1      47.742  28.510  26.697  1.00  0.00     0.022 A 
BRANCH  87  90
ATOM     90  S   UNL A   1      47.086  25.917  26.049  1.00  0.00     0.127 S 
ATOM     91  O   UNL A   1      48.509  26.022  25.737  1.00  0.00    -0.237 OA
ATOM     92  O   UNL A   1      46.769  25.046  27.182  1.00  0.00    -0.237 OA
ATOM     93  O   UNL A   1      46.200  25.743  24.904  1.00  0.00    -0.744 OA
ENDBRANCH  87  90
ENDBRANCH  60  83
ENDBRANCH  34  35
ENDBRANCH  26  29
ENDBRANCH  24  25
ENDBRANCH   1  24
TORSDOF 15
ENDMDL
MODEL 3
REMARK VINA RESULT:     -12.3      4.187      9.341
REMARK SMILES Cn1c(C(=O)N2CCC[C@@H](C(=O)NCCCNC(=O)c3ccc(-c4c5nc(c(-c6cccc(S(=O)(=O)[O-])c6F)c6ccc([nH]6)c(-c6cccc(S(=O)(=O)[O-])c6F)c6nc(c(-c7cccc(S(=O)(=O)[O-])c7F)c7ccc4[nH]7)C=C6)C=C5)cc3)C2)cc2sccc21
REMARK SMILES IDX 15 1 14 2 13 3 11 4 12 5 10 7 6 8 7 9 83 10 8 11 9 12 4 13
REMARK SMILES IDX 5 14 3 15 1 16 2 17 89 18 84 19 85 20 88 21 86 22 87 23
REMARK SMILES IDX 16 24 17 25 18 26 19 28 20 29 21 30 82 31 22 32 81 33 23 34
REMARK SMILES IDX 24 35 25 36 75 37 26 38 80 39 74 40 76 41 27 42 79 43 73 44
REMARK SMILES IDX 72 45 28 47 60 48 40 49 59 50 41 51 44 52 58 53 77 54 42 55
REMARK SMILES IDX 43 56 57 58 78 59 45 60 29 61 30 62 38 63 31 64 33 65 39 66
REMARK SMILES IDX 32 67 34 68 35 69 36 70 37 71 61 72 62 73 70 74 63 75 65 76
REMARK SMILES IDX 71 77 64 78 66 79 67 80 68 81 69 82 46 83 47 84 55 85 48 86
REMARK SMILES IDX 50 87 56 88 49 89 51 90 52 91 53 92 54 93
REMARK H PARENT 13 6 17 27 76 46 44 57
REMARK Flexibility Score: inf
ROOT
ATOM      1  C   UNL A   1      31.299  31.426  26.493  1.00  0.00     0.042 C 
ENDROOT
BRANCH   1   2
ATOM      2  C   UNL A   1      31.628  30.261  25.548  1.00  0.00     0.117 C 
BRANCH   2   3
ATOM      3  N   UNL A   1      30.728  30.179  24.411  1.00  0.00    -0.356 N 
ATOM      4  C   UNL A   1      30.440  29.149  23.564  1.00  0.00     0.224 C 
ATOM      5  O   UNL A   1      29.523  29.330  22.761  1.00  0.00    -0.275 OA
ATOM      6  H   UNL A   1      30.240  31.012  24.218  1.00  0.00     0.163 HD
BRANCH   4   7
ATOM      7  C   UNL A   1      31.160  27.802  23.660  1.00  0.00     0.098 C 
ATOM      8  N   UNL A   1      30.936  25.536  24.698  1.00  0.00    -0.337 N 
ATOM      9  C   UNL A   1      31.044  24.856  23.426  1.00  0.00     0.120 C 
ATOM     10  C   UNL A   1      30.418  26.909  24.690  1.00  0.00     0.133 C 
ATOM     11  C   UNL A   1      31.864  25.676  22.459  1.00  0.00     0.022 C 
ATOM     12  C   UNL A   1      31.261  27.067  22.315  1.00  0.00     0.017 C 
BRANCH   8  13
ATOM     13  C   UNL A   1      31.502  24.937  25.806  1.00  0.00     0.270 C 
ATOM     14  O   UNL A   1      31.004  25.106  26.923  1.00  0.00    -0.267 OA
BRANCH  13  15
ATOM     15  C   UNL A   1      32.809  24.318  25.601  1.00  0.00     0.108 A 
ATOM     16  C   UNL A   1      32.029  21.899  25.597  1.00  0.00     0.150 C 
ATOM     17  N   UNL A   1      33.018  22.950  25.544  1.00  0.00    -0.339 N 
ATOM     18  C   UNL A   1      34.373  22.698  25.573  1.00  0.00     0.059 A 
ATOM     19  C   UNL A   1      34.059  24.929  25.557  1.00  0.00     0.053 A 
ATOM     20  C   UNL A   1      35.028  23.889  25.559  1.00  0.00     0.053 A 
ATOM     21  C   UNL A   1      35.242  21.573  25.631  1.00  0.00     0.038 A 
ATOM     22  S   UNL A   1      36.748  23.702  25.593  1.00  0.00    -0.142 S 
ATOM     23  C   UNL A   1      36.554  21.994  25.655  1.00  0.00     0.068 A 
ENDBRANCH  13  15
ENDBRANCH   8  13
ENDBRANCH   4   7
ENDBRANCH   2   3
ENDBRANCH   1   2
BRANCH   1  24
ATOM     24  C   UNL A   1      32.534  32.091  27.075  1.00  0.00     0.118 C 
BRANCH  24  25
ATOM     25  N   UNL A   1      32.301  33.487  27.441  1.00  0.00    -0.352 N 
ATOM     26  C   UNL A   1      32.981  34.248  28.372  1.00  0.00     0.251 C 
ATOM     27  H   UNL A   1      31.570  33.941  26.964  1.00  0.00     0.163 HD
ATOM     28  O   UNL A   1      32.471  35.267  28.825  1.00  0.00    -0.269 OA
BRANCH  26  29
ATOM     29  C   UNL A   1      34.319  33.815  28.818  1.00  0.00     0.039 A 
ATOM     30  C   UNL A   1      34.473  33.014  29.952  1.00  0.00     0.014 A 
ATOM     31  C   UNL A   1      35.427  34.202  28.068  1.00  0.00     0.014 A 
ATOM     32  C   UNL A   1      35.744  32.541  30.272  1.00  0.00     0.010 A 
ATOM     33  C   UNL A   1      36.644  33.608  28.289  1.00  0.00     0.010 A 
ATOM     34  C   UNL A   1      36.822  32.820  29.418  1.00  0.00    -0.014 A 
BRANCH  34  35
ATOM     35  C   UNL A   1      38.112  32.157  29.598  1.00  0.00     0.031 A 
ATOM     36  C   UNL A   1      38.114  30.752  29.114  1.00  0.00     0.074 A 
ATOM     37  C   UNL A   1      39.242  32.814  29.948  1.00  0.00     0.049 A 
ATOM     38  N   UNL A   1      38.121  29.676  29.830  1.00  0.00    -0.248 NA
ATOM     39  C   UNL A   1      37.879  30.505  27.681  1.00  0.00     0.031 C 
ATOM     40  C   UNL A   1      39.403  34.263  30.134  1.00  0.00     0.029 A 
ATOM     41  N   UNL A   1      40.520  32.354  30.078  1.00  0.00    -0.354 N 
ATOM     42  C   UNL A   1      38.205  28.630  28.912  1.00  0.00     0.074 A 
ATOM     43  C   UNL A   1      37.781  29.173  27.653  1.00  0.00     0.031 C 
ATOM     44  C   UNL A   1      40.715  34.584  30.096  1.00  0.00     0.029 A 
ATOM     45  C   UNL A   1      41.489  33.359  30.073  1.00  0.00     0.049 A 
ATOM     46  H   UNL A   1      40.740  31.399  30.168  1.00  0.00     0.167 HD
ATOM     47  C   UNL A   1      38.954  27.528  29.197  1.00  0.00     0.034 A 
ATOM     48  C   UNL A   1      42.835  33.201  30.043  1.00  0.00     0.034 A 
ATOM     49  C   UNL A   1      39.332  27.527  30.590  1.00  0.00     0.049 A 
ATOM     50  C   UNL A   1      43.123  31.839  30.528  1.00  0.00     0.074 A 
ATOM     51  C   UNL A   1      38.713  27.349  31.806  1.00  0.00     0.029 A 
ATOM     52  N   UNL A   1      40.522  28.167  30.820  1.00  0.00    -0.354 N 
ATOM     53  N   UNL A   1      42.927  31.473  31.762  1.00  0.00    -0.248 NA
ATOM     54  C   UNL A   1      43.326  30.758  29.574  1.00  0.00     0.031 C 
ATOM     55  C   UNL A   1      39.490  28.083  32.751  1.00  0.00     0.029 A 
ATOM     56  C   UNL A   1      40.587  28.643  32.098  1.00  0.00     0.049 A 
ATOM     57  H   UNL A   1      41.237  28.271  30.151  1.00  0.00     0.167 HD
ATOM     58  C   UNL A   1      42.501  30.164  31.646  1.00  0.00     0.074 A 
ATOM     59  C   UNL A   1      42.967  29.723  30.338  1.00  0.00     0.031 C 
ATOM     60  C   UNL A   1      41.521  29.686  32.463  1.00  0.00     0.034 A 
BRANCH  47  61
ATOM     61  C   UNL A   1      39.786  26.728  28.203  1.00  0.00     0.023 A 
ATOM     62  C   UNL A   1      39.745  25.318  28.331  1.00  0.00     0.012 A 
ATOM     63  C   UNL A   1      40.810  27.253  27.381  1.00  0.00     0.148 A 
ATOM     64  C   UNL A   1      40.703  24.488  27.736  1.00  0.00     0.002 A 
ATOM     65  C   UNL A   1      41.720  26.421  26.734  1.00  0.00     0.091 A 
ATOM     66  F   UNL A   1      41.008  28.569  27.309  1.00  0.00    -0.205 F 
ATOM     67  C   UNL A   1      41.692  25.040  26.933  1.00  0.00     0.022 A 
BRANCH  65  68
ATOM     68  S   UNL A   1      43.005  27.080  25.659  1.00  0.00     0.127 S 
ATOM     69  O   UNL A   1      43.846  27.793  26.615  1.00  0.00    -0.237 OA
ATOM     70  O   UNL A   1      43.586  25.855  25.109  1.00  0.00    -0.237 OA
ATOM     71  O   UNL A   1      42.313  27.906  24.677  1.00  0.00    -0.744 OA
ENDBRANCH  65  68
ENDBRANCH  47  61
BRANCH  48  72
ATOM     72  C   UNL A   1      43.927  34.068  29.551  1.00  0.00     0.023 A 
ATOM     73  C   UNL A   1      44.726  34.771  30.478  1.00  0.00     0.012 A 
ATOM     74  C   UNL A   1      44.386  33.950  28.225  1.00  0.00     0.148 A 
ATOM     75  C   UNL A   1      45.975  35.281  30.113  1.00  0.00     0.002 A 
ATOM     76  C   UNL A   1      45.636  34.451  27.869  1.00  0.00     0.091 A 
ATOM     77  F   UNL A   1      43.639  33.265  27.348  1.00  0.00    -0.205 F 
ATOM     78  C   UNL A   1      46.439  35.104  28.813  1.00  0.00     0.022 A 
BRANCH  76  79
ATOM     79  S   UNL A   1      46.339  34.211  26.231  1.00  0.00     0.127 S 
ATOM     80  O   UNL A   1      47.623  34.902  26.352  1.00  0.00    -0.237 OA
ATOM     81  O   UNL A   1      46.432  32.755  26.157  1.00  0.00    -0.237 OA
ATOM     82  O   UNL A   1      45.404  34.832  25.304  1.00  0.00    -0.744 OA
ENDBRANCH  76  79
ENDBRANCH  48  72
BRANCH  60  83
ATOM     83  C   UNL A   1      41.296  30.411  33.758  1.00  0.00     0.023 A 
ATOM     84  C   UNL A   1      42.137  30.270  34.881  1.00  0.00     0.012 A 
ATOM     85  C   UNL A   1      40.225  31.316  33.815  1.00  0.00     0.148 A 
ATOM     86  C   UNL A   1      41.891  30.997  36.049  1.00  0.00     0.002 A 
ATOM     87  C   UNL A   1      40.012  32.071  34.959  1.00  0.00     0.091 A 
ATOM     88  F   UNL A   1      39.430  31.427  32.740  1.00  0.00    -0.205 F 
ATOM     89  C   UNL A   1      40.834  31.906  36.084  1.00  0.00     0.022 A 
BRANCH  87  90
ATOM     90  S   UNL A   1      38.735  33.326  35.011  1.00  0.00     0.127 S 
ATOM     91  O   UNL A   1      38.989  33.970  36.297  1.00  0.00    -0.237 OA
ATOM     92  O   UNL A   1      39.054  34.147  33.841  1.00  0.00    -0.237 OA
ATOM     93  O   UNL A   1      37.470  32.610  34.901  1.00  0.00    -0.744 OA
ENDBRANCH  87  90
ENDBRANCH  60  83
ENDBRANCH  34  35
ENDBRANCH  26  29
ENDBRANCH  24  25
ENDBRANCH   1  24
TORSDOF 15
ENDMDL
