MODEL 1
REMARK VINA RESULT:     -12.6      0.000      0.000
REMARK SMILES CC1(C)CCN(S(=O)(=O)c2ccc(O)c(C(=O)NCCCNC(=O)c3ccc(-c4c5nc(c(-c6cccc(S(=O)(=O)[O-])c6F)c6ccc([nH]6)c(-c6cccc(S(=O)(=O)[O-])c6F)c6nc(c(-c7cccc(S(=O)(=O)[O-])c7F)c7ccc4[nH]7)C=C6)C=C5)cc3)c2)C1
REMARK SMILES IDX 20 1 19 2 18 3 16 4 17 5 15 7 10 8 11 9 88 10 12 11 13 12
REMARK SMILES IDX 7 13 8 14 9 15 6 16 1 17 2 18 3 19 4 20 89 21 5 22 14 23
REMARK SMILES IDX 21 25 22 26 23 27 24 29 25 30 26 31 87 32 27 33 86 34 28 35
REMARK SMILES IDX 29 36 30 37 80 38 31 39 85 40 79 41 81 42 32 43 84 44 78 45
REMARK SMILES IDX 77 46 33 48 65 49 45 50 64 51 46 52 49 53 63 54 82 55 47 56
REMARK SMILES IDX 48 57 62 59 83 60 50 61 34 62 35 63 43 64 36 65 38 66 44 67
REMARK SMILES IDX 37 68 39 69 40 70 41 71 42 72 66 73 67 74 75 75 68 76 70 77
REMARK SMILES IDX 76 78 69 79 71 80 72 81 73 82 74 83 51 84 52 85 60 86 53 87
REMARK SMILES IDX 55 88 61 89 54 90 56 91 57 92 58 93 59 94
REMARK H PARENT 18 6 14 24 22 28 81 47 49 58
REMARK Flexibility Score: inf
ROOT
ATOM      1  C   UNL A   1      31.706  28.645  26.623  1.00  0.00     0.042 C 
ENDROOT
BRANCH   1   2
ATOM      2  C   UNL A   1      31.715  27.182  26.172  1.00  0.00     0.118 C 
BRANCH   2   3
ATOM      3  N   UNL A   1      30.500  26.497  26.557  1.00  0.00    -0.352 N 
ATOM      4  C   UNL A   1      30.033  25.227  26.348  1.00  0.00     0.255 C 
ATOM      5  O   UNL A   1      28.953  24.966  26.889  1.00  0.00    -0.269 OA
ATOM      6  H   UNL A   1      29.882  27.060  27.077  1.00  0.00     0.163 HD
BRANCH   4   7
ATOM      7  C   UNL A   1      30.706  24.133  25.569  1.00  0.00     0.082 A 
ATOM      8  C   UNL A   1      32.488  23.697  23.939  1.00  0.00     0.083 A 
ATOM      9  C   UNL A   1      32.388  22.330  24.179  1.00  0.00     0.025 A 
ATOM     10  C   UNL A   1      31.657  24.591  24.624  1.00  0.00     0.039 A 
ATOM     11  C   UNL A   1      31.425  21.855  25.057  1.00  0.00     0.048 A 
ATOM     12  C   UNL A   1      30.606  22.746  25.761  1.00  0.00     0.128 A 
BRANCH   8  13
ATOM     13  S   UNL A   1      33.813  24.299  22.915  1.00  0.00     0.243 S 
ATOM     14  O   UNL A   1      33.515  25.684  22.591  1.00  0.00    -0.207 OA
ATOM     15  O   UNL A   1      34.067  23.333  21.873  1.00  0.00    -0.207 OA
BRANCH  13  16
ATOM     16  N   UNL A   1      35.183  24.305  23.938  1.00  0.00    -0.197 NA
ATOM     17  C   UNL A   1      37.811  23.788  25.615  1.00  0.00     0.012 C 
ATOM     18  C   UNL A   1      36.581  22.915  25.333  1.00  0.00    -0.020 C 
ATOM     19  C   UNL A   1      36.929  21.447  25.598  1.00  0.00     0.012 C 
ATOM     20  C   UNL A   1      35.367  23.367  26.142  1.00  0.00     0.024 C 
ATOM     21  C   UNL A   1      36.067  23.107  23.900  1.00  0.00     0.109 C 
ATOM     22  C   UNL A   1      34.843  24.573  25.370  1.00  0.00     0.103 C 
ENDBRANCH  13  16
ENDBRANCH   8  13
BRANCH  12  23
ATOM     23  O   UNL A   1      29.771  22.183  26.674  1.00  0.00    -0.507 OA
ATOM     24  H   UNL A   1      29.676  21.251  26.709  1.00  0.00     0.293 HD
ENDBRANCH  12  23
ENDBRANCH   4   7
ENDBRANCH   2   3
ENDBRANCH   1   2
BRANCH   1  25
ATOM     25  C   UNL A   1      32.862  29.478  26.086  1.00  0.00     0.118 C 
BRANCH  25  26
ATOM     26  N   UNL A   1      32.726  30.881  26.437  1.00  0.00    -0.352 N 
ATOM     27  C   UNL A   1      33.456  31.657  27.301  1.00  0.00     0.251 C 
ATOM     28  H   UNL A   1      31.992  31.352  25.982  1.00  0.00     0.163 HD
ATOM     29  O   UNL A   1      33.009  32.757  27.622  1.00  0.00    -0.269 OA
BRANCH  27  30
ATOM     30  C   UNL A   1      34.761  31.206  27.847  1.00  0.00     0.039 A 
ATOM     31  C   UNL A   1      34.866  29.886  28.304  1.00  0.00     0.014 A 
ATOM     32  C   UNL A   1      35.844  32.075  28.009  1.00  0.00     0.014 A 
ATOM     33  C   UNL A   1      36.045  29.443  28.911  1.00  0.00     0.010 A 
ATOM     34  C   UNL A   1      37.047  31.611  28.542  1.00  0.00     0.010 A 
ATOM     35  C   UNL A   1      37.148  30.302  29.034  1.00  0.00    -0.014 A 
BRANCH  35  36
ATOM     36  C   UNL A   1      38.385  29.856  29.725  1.00  0.00     0.031 A 
ATOM     37  C   UNL A   1      38.713  30.372  31.105  1.00  0.00     0.074 A 
ATOM     38  C   UNL A   1      39.235  29.019  29.101  1.00  0.00     0.049 A 
ATOM     39  N   UNL A   1      39.732  30.085  31.872  1.00  0.00    -0.248 NA
ATOM     40  C   UNL A   1      37.788  31.360  31.686  1.00  0.00     0.031 C 
ATOM     41  C   UNL A   1      39.076  28.517  27.735  1.00  0.00     0.029 A 
ATOM     42  N   UNL A   1      40.412  28.455  29.527  1.00  0.00    -0.354 N 
ATOM     43  C   UNL A   1      39.592  30.879  33.006  1.00  0.00     0.074 A 
ATOM     44  C   UNL A   1      38.410  31.688  32.810  1.00  0.00     0.031 C 
ATOM     45  C   UNL A   1      40.109  27.711  27.440  1.00  0.00     0.029 A 
ATOM     46  C   UNL A   1      41.009  27.647  28.588  1.00  0.00     0.049 A 
ATOM     47  H   UNL A   1      40.792  28.615  30.422  1.00  0.00     0.167 HD
ATOM     48  C   UNL A   1      40.355  30.908  34.125  1.00  0.00     0.034 A 
ATOM     49  C   UNL A   1      42.145  26.925  28.653  1.00  0.00     0.034 A 
ATOM     50  C   UNL A   1      41.496  30.059  34.341  1.00  0.00     0.049 A 
ATOM     51  C   UNL A   1      42.923  26.903  29.940  1.00  0.00     0.074 A 
ATOM     52  C   UNL A   1      42.289  29.951  35.469  1.00  0.00     0.029 A 
ATOM     53  N   UNL A   1      42.001  29.166  33.410  1.00  0.00    -0.354 N 
ATOM     54  N   UNL A   1      42.679  27.537  31.062  1.00  0.00    -0.248 NA
ATOM     55  C   UNL A   1      44.102  26.026  29.990  1.00  0.00     0.031 C 
ATOM     56  C   UNL A   1      43.279  28.993  35.217  1.00  0.00     0.029 A 
ATOM     57  C   UNL A   1      43.092  28.496  33.938  1.00  0.00     0.049 A 
ATOM     58  H   UNL A   1      41.639  29.028  32.505  1.00  0.00     0.167 HD
ATOM     59  C   UNL A   1      43.650  27.108  31.961  1.00  0.00     0.074 A 
ATOM     60  C   UNL A   1      44.468  26.140  31.260  1.00  0.00     0.031 C 
ATOM     61  C   UNL A   1      43.856  27.491  33.245  1.00  0.00     0.034 A 
BRANCH  48  62
ATOM     62  C   UNL A   1      39.937  31.842  35.232  1.00  0.00     0.023 A 
ATOM     63  C   UNL A   1      40.431  33.163  35.245  1.00  0.00     0.012 A 
ATOM     64  C   UNL A   1      39.026  31.437  36.227  1.00  0.00     0.148 A 
ATOM     65  C   UNL A   1      40.054  34.055  36.248  1.00  0.00     0.002 A 
ATOM     66  C   UNL A   1      38.621  32.345  37.200  1.00  0.00     0.091 A 
ATOM     67  F   UNL A   1      38.583  30.172  36.213  1.00  0.00    -0.205 F 
ATOM     68  C   UNL A   1      39.143  33.649  37.219  1.00  0.00     0.022 A 
BRANCH  66  69
ATOM     69  S   UNL A   1      37.392  31.943  38.448  1.00  0.00     0.127 S 
ATOM     70  O   UNL A   1      38.116  32.244  39.682  1.00  0.00    -0.237 OA
ATOM     71  O   UNL A   1      36.313  32.879  38.133  1.00  0.00    -0.237 OA
ATOM     72  O   UNL A   1      37.059  30.541  38.243  1.00  0.00    -0.744 OA
ENDBRANCH  66  69
ENDBRANCH  48  62
BRANCH  49  73
ATOM     73  C   UNL A   1      42.552  26.079  27.495  1.00  0.00     0.023 A 
ATOM     74  C   UNL A   1      43.419  26.614  26.523  1.00  0.00     0.012 A 
ATOM     75  C   UNL A   1      42.120  24.745  27.369  1.00  0.00     0.148 A 
ATOM     76  C   UNL A   1      43.824  25.849  25.429  1.00  0.00     0.002 A 
ATOM     77  C   UNL A   1      42.570  23.970  26.306  1.00  0.00     0.091 A 
ATOM     78  F   UNL A   1      41.284  24.256  28.297  1.00  0.00    -0.205 F 
ATOM     79  C   UNL A   1      43.409  24.524  25.326  1.00  0.00     0.022 A 
BRANCH  77  80
ATOM     80  S   UNL A   1      42.194  22.218  26.171  1.00  0.00     0.127 S 
ATOM     81  O   UNL A   1      42.987  21.827  25.010  1.00  0.00    -0.237 OA
ATOM     82  O   UNL A   1      42.680  21.700  27.452  1.00  0.00    -0.237 OA
ATOM     83  O   UNL A   1      40.747  22.143  26.012  1.00  0.00    -0.744 OA
ENDBRANCH  77  80
ENDBRANCH  49  73
BRANCH  61  84
ATOM     84  C   UNL A   1      44.990  26.839  33.991  1.00  0.00     0.023 A 
ATOM     85  C   UNL A   1      46.305  27.316  33.817  1.00  0.00     0.012 A 
ATOM     86  C   UNL A   1      44.748  25.795  34.904  1.00  0.00     0.148 A 
ATOM     87  C   UNL A   1      47.366  26.737  34.513  1.00  0.00     0.002 A 
ATOM     88  C   UNL A   1      45.805  25.254  35.628  1.00  0.00     0.091 A 
ATOM     89  F   UNL A   1      43.495  25.337  35.041  1.00  0.00    -0.205 F 
ATOM     90  C   UNL A   1      47.115  25.714  35.425  1.00  0.00     0.022 A 
BRANCH  88  91
ATOM     91  S   UNL A   1      45.543  23.999  36.888  1.00  0.00     0.127 S 
ATOM     92  O   UNL A   1      44.520  24.622  37.724  1.00  0.00    -0.237 OA
ATOM     93  O   UNL A   1      45.075  22.855  36.103  1.00  0.00    -0.237 OA
ATOM     94  O   UNL A   1      46.844  23.799  37.515  1.00  0.00    -0.744 OA
ENDBRANCH  88  91
ENDBRANCH  61  84
ENDBRANCH  35  36
ENDBRANCH  27  30
ENDBRANCH  25  26
ENDBRANCH   1  25
TORSDOF 16
ENDMDL
MODEL 2
REMARK VINA RESULT:     -12.5      5.078     10.015
REMARK SMILES CC1(C)CCN(S(=O)(=O)c2ccc(O)c(C(=O)NCCCNC(=O)c3ccc(-c4c5nc(c(-c6cccc(S(=O)(=O)[O-])c6F)c6ccc([nH]6)c(-c6cccc(S(=O)(=O)[O-])c6F)c6nc(c(-c7cccc(S(=O)(=O)[O-])c7F)c7ccc4[nH]7)C=C6)C=C5)cc3)c2)C1
REMARK SMILES IDX 20 1 19 2 18 3 16 4 17 5 15 7 10 8 11 9 88 10 12 11 13 12
REMARK SMILES IDX 7 13 8 14 9 15 6 16 1 17 2 18 3 19 4 20 89 21 5 22 14 23
REMARK SMILES IDX 21 25 22 26 23 27 24 29 25 30 26 31 87 32 27 33 86 34 28 35
REMARK SMILES IDX 29 36 30 37 80 38 31 39 85 40 79 41 81 42 32 43 84 44 78 45
REMARK SMILES IDX 77 46 33 48 65 49 45 50 64 51 46 52 49 53 63 54 82 55 47 56
REMARK SMILES IDX 48 57 62 59 83 60 50 61 34 62 35 63 43 64 36 65 38 66 44 67
REMARK SMILES IDX 37 68 39 69 40 70 41 71 42 72 66 73 67 74 75 75 68 76 70 77
REMARK SMILES IDX 76 78 69 79 71 80 72 81 73 82 74 83 51 84 52 85 60 86 53 87
REMARK SMILES IDX 55 88 61 89 54 90 56 91 57 92 58 93 59 94
REMARK H PARENT 18 6 14 24 22 28 81 47 49 58
REMARK Flexibility Score: inf
ROOT
ATOM      1  C   UNL A   1      35.203  22.475  27.228  1.00  0.00     0.042 C 
ENDROOT
BRANCH   1   2
ATOM      2  C   UNL A   1      34.061  21.488  27.485  1.00  0.00     0.118 C 
BRANCH   2   3
ATOM      3  N   UNL A   1      32.790  22.166  27.628  1.00  0.00    -0.352 N 
ATOM      4  C   UNL A   1      31.865  22.621  26.727  1.00  0.00     0.255 C 
ATOM      5  O   UNL A   1      30.843  23.109  27.222  1.00  0.00    -0.269 OA
ATOM      6  H   UNL A   1      32.539  22.333  28.565  1.00  0.00     0.163 HD
BRANCH   4   7
ATOM      7  C   UNL A   1      31.954  22.558  25.229  1.00  0.00     0.082 A 
ATOM      8  C   UNL A   1      32.322  23.928  23.226  1.00  0.00     0.083 A 
ATOM      9  C   UNL A   1      32.475  22.779  22.456  1.00  0.00     0.025 A 
ATOM     10  C   UNL A   1      32.064  23.822  24.598  1.00  0.00     0.039 A 
ATOM     11  C   UNL A   1      32.315  21.532  23.041  1.00  0.00     0.048 A 
ATOM     12  C   UNL A   1      32.078  21.420  24.417  1.00  0.00     0.128 A 
BRANCH   8  13
ATOM     13  S   UNL A   1      32.662  25.513  22.492  1.00  0.00     0.243 S 
ATOM     14  O   UNL A   1      31.555  25.827  21.607  1.00  0.00    -0.207 OA
ATOM     15  O   UNL A   1      34.022  25.515  22.008  1.00  0.00    -0.207 OA
BRANCH  13  16
ATOM     16  N   UNL A   1      32.593  26.618  23.795  1.00  0.00    -0.197 NA
ATOM     17  C   UNL A   1      31.927  28.763  26.019  1.00  0.00     0.012 C 
ATOM     18  C   UNL A   1      31.696  28.746  24.501  1.00  0.00    -0.020 C 
ATOM     19  C   UNL A   1      30.617  29.772  24.141  1.00  0.00     0.012 C 
ATOM     20  C   UNL A   1      32.991  28.986  23.728  1.00  0.00     0.024 C 
ATOM     21  C   UNL A   1      31.311  27.348  24.003  1.00  0.00     0.109 C 
ATOM     22  C   UNL A   1      33.692  27.633  23.762  1.00  0.00     0.103 C 
ENDBRANCH  13  16
ENDBRANCH   8  13
BRANCH  12  23
ATOM     23  O   UNL A   1      32.043  20.152  24.907  1.00  0.00    -0.507 OA
ATOM     24  H   UNL A   1      32.401  19.967  25.753  1.00  0.00     0.293 HD
ENDBRANCH  12  23
ENDBRANCH   4   7
ENDBRANCH   2   3
ENDBRANCH   1   2
BRANCH   1  25
ATOM     25  C   UNL A   1      35.793  22.406  25.827  1.00  0.00     0.118 C 
BRANCH  25  26
ATOM     26  N   UNL A   1      36.818  21.382  25.721  1.00  0.00    -0.352 N 
ATOM     27  C   UNL A   1      38.181  21.473  25.838  1.00  0.00     0.251 C 
ATOM     28  H   UNL A   1      36.479  20.477  25.537  1.00  0.00     0.163 HD
ATOM     29  O   UNL A   1      38.865  20.519  25.470  1.00  0.00    -0.269 OA
BRANCH  27  30
ATOM     30  C   UNL A   1      38.842  22.679  26.396  1.00  0.00     0.039 A 
ATOM     31  C   UNL A   1      38.372  23.936  25.994  1.00  0.00     0.014 A 
ATOM     32  C   UNL A   1      39.967  22.600  27.223  1.00  0.00     0.014 A 
ATOM     33  C   UNL A   1      39.021  25.098  26.420  1.00  0.00     0.010 A 
ATOM     34  C   UNL A   1      40.565  23.762  27.711  1.00  0.00     0.010 A 
ATOM     35  C   UNL A   1      40.124  25.022  27.285  1.00  0.00    -0.014 A 
BRANCH  35  36
ATOM     36  C   UNL A   1      40.851  26.249  27.699  1.00  0.00     0.031 A 
ATOM     37  C   UNL A   1      42.282  26.465  27.273  1.00  0.00     0.074 A 
ATOM     38  C   UNL A   1      40.242  27.153  28.490  1.00  0.00     0.049 A 
ATOM     39  N   UNL A   1      43.073  27.477  27.518  1.00  0.00    -0.248 NA
ATOM     40  C   UNL A   1      42.916  25.389  26.491  1.00  0.00     0.031 C 
ATOM     41  C   UNL A   1      38.892  27.020  29.040  1.00  0.00     0.029 A 
ATOM     42  N   UNL A   1      40.685  28.355  28.983  1.00  0.00    -0.354 N 
ATOM     43  C   UNL A   1      44.302  27.148  26.956  1.00  0.00     0.074 A 
ATOM     44  C   UNL A   1      44.164  25.825  26.388  1.00  0.00     0.031 C 
ATOM     45  C   UNL A   1      38.613  28.102  29.785  1.00  0.00     0.029 A 
ATOM     46  C   UNL A   1      39.764  29.000  29.776  1.00  0.00     0.049 A 
ATOM     47  H   UNL A   1      41.578  28.721  28.788  1.00  0.00     0.167 HD
ATOM     48  C   UNL A   1      45.432  27.891  26.884  1.00  0.00     0.034 A 
ATOM     49  C   UNL A   1      39.836  30.187  30.409  1.00  0.00     0.034 A 
ATOM     50  C   UNL A   1      45.547  29.229  27.397  1.00  0.00     0.049 A 
ATOM     51  C   UNL A   1      41.068  31.033  30.235  1.00  0.00     0.074 A 
ATOM     52  C   UNL A   1      46.619  30.099  27.307  1.00  0.00     0.029 A 
ATOM     53  N   UNL A   1      44.550  29.895  28.093  1.00  0.00    -0.354 N 
ATOM     54  N   UNL A   1      42.160  30.770  29.558  1.00  0.00    -0.248 NA
ATOM     55  C   UNL A   1      41.059  32.359  30.868  1.00  0.00     0.031 C 
ATOM     56  C   UNL A   1      46.270  31.292  27.952  1.00  0.00     0.029 A 
ATOM     57  C   UNL A   1      44.976  31.168  28.431  1.00  0.00     0.049 A 
ATOM     58  H   UNL A   1      43.668  29.518  28.314  1.00  0.00     0.167 HD
ATOM     59  C   UNL A   1      42.950  31.911  29.650  1.00  0.00     0.074 A 
ATOM     60  C   UNL A   1      42.199  32.875  30.428  1.00  0.00     0.031 C 
ATOM     61  C   UNL A   1      44.191  32.136  29.152  1.00  0.00     0.034 A 
BRANCH  48  62
ATOM     62  C   UNL A   1      46.614  27.296  26.163  1.00  0.00     0.023 A 
ATOM     63  C   UNL A   1      47.349  26.260  26.777  1.00  0.00     0.012 A 
ATOM     64  C   UNL A   1      46.972  27.720  24.868  1.00  0.00     0.148 A 
ATOM     65  C   UNL A   1      48.440  25.681  26.131  1.00  0.00     0.002 A 
ATOM     66  C   UNL A   1      48.036  27.109  24.213  1.00  0.00     0.091 A 
ATOM     67  F   UNL A   1      46.278  28.721  24.307  1.00  0.00    -0.205 F 
ATOM     68  C   UNL A   1      48.777  26.098  24.847  1.00  0.00     0.022 A 
BRANCH  66  69
ATOM     69  S   UNL A   1      48.500  27.520  22.526  1.00  0.00     0.127 S 
ATOM     70  O   UNL A   1      47.370  28.347  22.103  1.00  0.00    -0.237 OA
ATOM     71  O   UNL A   1      49.751  28.253  22.718  1.00  0.00    -0.237 OA
ATOM     72  O   UNL A   1      48.642  26.250  21.830  1.00  0.00    -0.744 OA
ENDBRANCH  66  69
ENDBRANCH  48  62
BRANCH  49  73
ATOM     73  C   UNL A   1      38.660  30.690  31.175  1.00  0.00     0.023 A 
ATOM     74  C   UNL A   1      38.644  30.555  32.577  1.00  0.00     0.012 A 
ATOM     75  C   UNL A   1      37.584  31.333  30.535  1.00  0.00     0.148 A 
ATOM     76  C   UNL A   1      37.562  31.019  33.325  1.00  0.00     0.002 A 
ATOM     77  C   UNL A   1      36.534  31.842  31.292  1.00  0.00     0.091 A 
ATOM     78  F   UNL A   1      37.610  31.441  29.199  1.00  0.00    -0.205 F 
ATOM     79  C   UNL A   1      36.513  31.672  32.685  1.00  0.00     0.022 A 
BRANCH  77  80
ATOM     80  S   UNL A   1      35.211  32.814  30.562  1.00  0.00     0.127 S 
ATOM     81  O   UNL A   1      34.751  31.939  29.488  1.00  0.00    -0.237 OA
ATOM     82  O   UNL A   1      34.279  32.954  31.683  1.00  0.00    -0.237 OA
ATOM     83  O   UNL A   1      35.832  34.065  30.147  1.00  0.00    -0.744 OA
ENDBRANCH  77  80
ENDBRANCH  49  73
BRANCH  61  84
ATOM     84  C   UNL A   1      44.805  33.488  29.401  1.00  0.00     0.023 A 
ATOM     85  C   UNL A   1      45.577  33.702  30.561  1.00  0.00     0.012 A 
ATOM     86  C   UNL A   1      44.666  34.528  28.462  1.00  0.00     0.148 A 
ATOM     87  C   UNL A   1      46.168  34.941  30.799  1.00  0.00     0.002 A 
ATOM     88  C   UNL A   1      45.296  35.747  28.685  1.00  0.00     0.091 A 
ATOM     89  F   UNL A   1      43.908  34.316  27.374  1.00  0.00    -0.205 F 
ATOM     90  C   UNL A   1      46.037  35.960  29.857  1.00  0.00     0.022 A 
BRANCH  88  91
ATOM     91  S   UNL A   1      45.248  37.072  27.471  1.00  0.00     0.127 S 
ATOM     92  O   UNL A   1      43.816  37.178  27.199  1.00  0.00    -0.237 OA
ATOM     93  O   UNL A   1      45.813  38.201  28.213  1.00  0.00    -0.237 OA
ATOM     94  O   UNL A   1      46.074  36.614  26.361  1.00  0.00    -0.744 OA
ENDBRANCH  88  91
ENDBRANCH  61  84
ENDBRANCH  35  36
ENDBRANCH  27  30
ENDBRANCH  25  26
ENDBRANCH   1  25
TORSDOF 16
ENDMDL
MODEL 3
REMARK VINA RESULT:     -12.4      1.509      2.073
REMARK SMILES CC1(C)CCN(S(=O)(=O)c2ccc(O)c(C(=O)NCCCNC(=O)c3ccc(-c4c5nc(c(-c6cccc(S(=O)(=O)[O-])c6F)c6ccc([nH]6)c(-c6cccc(S(=O)(=O)[O-])c6F)c6nc(c(-c7cccc(S(=O)(=O)[O-])c7F)c7ccc4[nH]7)C=C6)C=C5)cc3)c2)C1
REMARK SMILES IDX 20 1 19 2 18 3 16 4 17 5 15 7 10 8 11 9 88 10 12 11 13 12
REMARK SMILES IDX 7 13 8 14 9 15 6 16 1 17 2 18 3 19 4 20 89 21 5 22 14 23
REMARK SMILES IDX 21 25 22 26 23 27 24 29 25 30 26 31 87 32 27 33 86 34 28 35
REMARK SMILES IDX 29 36 30 37 80 38 31 39 85 40 79 41 81 42 32 43 84 44 78 45
REMARK SMILES IDX 77 46 33 48 65 49 45 50 64 51 46 52 49 53 63 54 82 55 47 56
REMARK SMILES IDX 48 57 62 59 83 60 50 61 34 62 35 63 43 64 36 65 38 66 44 67
REMARK SMILES IDX 37 68 39 69 40 70 41 71 42 72 66 73 67 74 75 75 68 76 70 77
REMARK SMILES IDX 76 78 69 79 71 80 72 81 73 82 74 83 51 84 52 85 60 86 53 87
REMARK SMILES IDX 55 88 61 89 54 90 56 91 57 92 58 93 59 94
REMARK H PARENT 18 6 14 24 22 28 81 47 49 58
REMARK Flexibility Score: inf
ROOT
ATOM      1  C   UNL A   1      31.672  28.909  25.991  1.00  0.00     0.042 C 
ENDROOT
BRANCH   1   2
ATOM      2  C   UNL A   1      31.665  27.648  25.123  1.00  0.00     0.118 C 
BRANCH   2   3
ATOM      3  N   UNL A   1      31.079  26.523  25.819  1.00  0.00    -0.352 N 
ATOM      4  C   UNL A   1      31.255  25.168  25.726  1.00  0.00     0.255 C 
ATOM      5  O   UNL A   1      30.614  24.497  26.542  1.00  0.00    -0.269 OA
ATOM      6  H   UNL A   1      30.419  26.786  26.500  1.00  0.00     0.163 HD
BRANCH   4   7
ATOM      7  C   UNL A   1      32.154  24.436  24.773  1.00  0.00     0.082 A 
ATOM      8  C   UNL A   1      33.852  22.668  24.642  1.00  0.00     0.083 A 
ATOM      9  C   UNL A   1      33.754  22.662  23.254  1.00  0.00     0.025 A 
ATOM     10  C   UNL A   1      33.063  23.545  25.396  1.00  0.00     0.039 A 
ATOM     11  C   UNL A   1      32.913  23.564  22.619  1.00  0.00     0.048 A 
ATOM     12  C   UNL A   1      32.106  24.429  23.370  1.00  0.00     0.128 A 
BRANCH   8  13
ATOM     13  S   UNL A   1      34.831  21.418  25.445  1.00  0.00     0.243 S 
ATOM     14  O   UNL A   1      34.992  21.818  26.832  1.00  0.00    -0.207 OA
ATOM     15  O   UNL A   1      35.978  21.129  24.618  1.00  0.00    -0.207 OA
BRANCH  13  16
ATOM     16  N   UNL A   1      33.842  20.023  25.436  1.00  0.00    -0.197 NA
ATOM     17  C   UNL A   1      32.444  17.206  25.112  1.00  0.00     0.012 C 
ATOM     18  C   UNL A   1      33.171  18.117  24.112  1.00  0.00    -0.020 C 
ATOM     19  C   UNL A   1      33.596  17.293  22.893  1.00  0.00     0.012 C 
ATOM     20  C   UNL A   1      32.318  19.320  23.717  1.00  0.00     0.024 C 
ATOM     21  C   UNL A   1      34.379  18.811  24.754  1.00  0.00     0.109 C 
ATOM     22  C   UNL A   1      32.472  20.279  24.893  1.00  0.00     0.103 C 
ENDBRANCH  13  16
ENDBRANCH   8  13
BRANCH  12  23
ATOM     23  O   UNL A   1      31.242  25.197  22.654  1.00  0.00    -0.507 OA
ATOM     24  H   UNL A   1      31.422  26.108  22.527  1.00  0.00     0.293 HD
ENDBRANCH  12  23
ENDBRANCH   4   7
ENDBRANCH   2   3
ENDBRANCH   1   2
BRANCH   1  25
ATOM     25  C   UNL A   1      32.993  29.664  25.997  1.00  0.00     0.118 C 
BRANCH  25  26
ATOM     26  N   UNL A   1      32.828  31.040  26.435  1.00  0.00    -0.352 N 
ATOM     27  C   UNL A   1      33.533  31.770  27.357  1.00  0.00     0.251 C 
ATOM     28  H   UNL A   1      32.092  31.527  26.000  1.00  0.00     0.163 HD
ATOM     29  O   UNL A   1      33.062  32.840  27.741  1.00  0.00    -0.269 OA
BRANCH  27  30
ATOM     30  C   UNL A   1      34.838  31.307  27.892  1.00  0.00     0.039 A 
ATOM     31  C   UNL A   1      34.926  29.997  28.379  1.00  0.00     0.014 A 
ATOM     32  C   UNL A   1      35.940  32.159  28.015  1.00  0.00     0.014 A 
ATOM     33  C   UNL A   1      36.106  29.545  28.976  1.00  0.00     0.010 A 
ATOM     34  C   UNL A   1      37.142  31.683  28.539  1.00  0.00     0.010 A 
ATOM     35  C   UNL A   1      37.227  30.385  29.060  1.00  0.00    -0.014 A 
BRANCH  35  36
ATOM     36  C   UNL A   1      38.467  29.932  29.742  1.00  0.00     0.031 A 
ATOM     37  C   UNL A   1      38.802  30.435  31.124  1.00  0.00     0.074 A 
ATOM     38  C   UNL A   1      39.313  29.099  29.106  1.00  0.00     0.049 A 
ATOM     39  N   UNL A   1      39.824  30.139  31.884  1.00  0.00    -0.248 NA
ATOM     40  C   UNL A   1      37.881  31.418  31.719  1.00  0.00     0.031 C 
ATOM     41  C   UNL A   1      39.147  28.611  27.736  1.00  0.00     0.029 A 
ATOM     42  N   UNL A   1      40.491  28.531  29.521  1.00  0.00    -0.354 N 
ATOM     43  C   UNL A   1      39.690  30.923  33.026  1.00  0.00     0.074 A 
ATOM     44  C   UNL A   1      38.508  31.734  32.843  1.00  0.00     0.031 C 
ATOM     45  C   UNL A   1      40.178  27.806  27.429  1.00  0.00     0.029 A 
ATOM     46  C   UNL A   1      41.083  27.731  28.572  1.00  0.00     0.049 A 
ATOM     47  H   UNL A   1      40.876  28.681  30.415  1.00  0.00     0.167 HD
ATOM     48  C   UNL A   1      40.459  30.941  34.142  1.00  0.00     0.034 A 
ATOM     49  C   UNL A   1      42.219  27.008  28.624  1.00  0.00     0.034 A 
ATOM     50  C   UNL A   1      41.599  30.088  34.344  1.00  0.00     0.049 A 
ATOM     51  C   UNL A   1      43.003  26.972  29.908  1.00  0.00     0.074 A 
ATOM     52  C   UNL A   1      42.398  29.969  35.467  1.00  0.00     0.029 A 
ATOM     53  N   UNL A   1      42.100  29.204  33.402  1.00  0.00    -0.354 N 
ATOM     54  N   UNL A   1      42.765  27.597  31.037  1.00  0.00    -0.248 NA
ATOM     55  C   UNL A   1      44.181  26.094  29.944  1.00  0.00     0.031 C 
ATOM     56  C   UNL A   1      43.386  29.012  35.202  1.00  0.00     0.029 A 
ATOM     57  C   UNL A   1      43.192  28.528  33.919  1.00  0.00     0.049 A 
ATOM     58  H   UNL A   1      41.733  29.075  32.498  1.00  0.00     0.167 HD
ATOM     59  C   UNL A   1      43.739  27.158  31.927  1.00  0.00     0.074 A 
ATOM     60  C   UNL A   1      44.554  26.196  31.212  1.00  0.00     0.031 C 
ATOM     61  C   UNL A   1      43.952  27.529  33.214  1.00  0.00     0.034 A 
BRANCH  48  62
ATOM     62  C   UNL A   1      40.047  31.864  35.259  1.00  0.00     0.023 A 
ATOM     63  C   UNL A   1      40.581  33.169  35.310  1.00  0.00     0.012 A 
ATOM     64  C   UNL A   1      39.102  31.468  36.227  1.00  0.00     0.148 A 
ATOM     65  C   UNL A   1      40.211  34.051  36.324  1.00  0.00     0.002 A 
ATOM     66  C   UNL A   1      38.706  32.368  37.211  1.00  0.00     0.091 A 
ATOM     67  F   UNL A   1      38.621  30.218  36.178  1.00  0.00    -0.205 F 
ATOM     68  C   UNL A   1      39.268  33.655  37.267  1.00  0.00     0.022 A 
BRANCH  66  69
ATOM     69  S   UNL A   1      37.439  31.980  38.425  1.00  0.00     0.127 S 
ATOM     70  O   UNL A   1      38.116  32.320  39.675  1.00  0.00    -0.237 OA
ATOM     71  O   UNL A   1      36.360  32.893  38.049  1.00  0.00    -0.237 OA
ATOM     72  O   UNL A   1      37.131  30.569  38.242  1.00  0.00    -0.744 OA
ENDBRANCH  66  69
ENDBRANCH  48  62
BRANCH  49  73
ATOM     73  C   UNL A   1      42.619  26.172  27.456  1.00  0.00     0.023 A 
ATOM     74  C   UNL A   1      43.480  26.716  26.483  1.00  0.00     0.012 A 
ATOM     75  C   UNL A   1      42.189  24.838  27.322  1.00  0.00     0.148 A 
ATOM     76  C   UNL A   1      43.879  25.961  25.381  1.00  0.00     0.002 A 
ATOM     77  C   UNL A   1      42.633  24.073  26.249  1.00  0.00     0.091 A 
ATOM     78  F   UNL A   1      41.360  24.341  28.250  1.00  0.00    -0.205 F 
ATOM     79  C   UNL A   1      43.465  24.636  25.269  1.00  0.00     0.022 A 
BRANCH  77  80
ATOM     80  S   UNL A   1      42.258  22.322  26.102  1.00  0.00     0.127 S 
ATOM     81  O   UNL A   1      42.950  21.968  24.866  1.00  0.00    -0.237 OA
ATOM     82  O   UNL A   1      42.858  21.776  27.321  1.00  0.00    -0.237 OA
ATOM     83  O   UNL A   1      40.804  22.238  26.067  1.00  0.00    -0.744 OA
ENDBRANCH  77  80
ENDBRANCH  49  73
BRANCH  61  84
ATOM     84  C   UNL A   1      45.089  26.869  33.948  1.00  0.00     0.023 A 
ATOM     85  C   UNL A   1      46.388  27.409  33.854  1.00  0.00     0.012 A 
ATOM     86  C   UNL A   1      44.864  25.750  34.773  1.00  0.00     0.148 A 
ATOM     87  C   UNL A   1      47.450  26.823  34.541  1.00  0.00     0.002 A 
ATOM     88  C   UNL A   1      45.919  25.199  35.491  1.00  0.00     0.091 A 
ATOM     89  F   UNL A   1      43.627  25.234  34.833  1.00  0.00    -0.205 F 
ATOM     90  C   UNL A   1      47.214  25.726  35.367  1.00  0.00     0.022 A 
BRANCH  88  91
ATOM     91  S   UNL A   1      45.672  23.844  36.645  1.00  0.00     0.127 S 
ATOM     92  O   UNL A   1      44.703  24.417  37.578  1.00  0.00    -0.237 OA
ATOM     93  O   UNL A   1      45.137  22.788  35.784  1.00  0.00    -0.237 OA
ATOM     94  O   UNL A   1      46.990  23.555  37.196  1.00  0.00    -0.744 OA
ENDBRANCH  88  91
ENDBRANCH  61  84
ENDBRANCH  35  36
ENDBRANCH  27  30
ENDBRANCH  25  26
ENDBRANCH   1  25
TORSDOF 16
ENDMDL
