MODEL 1
REMARK VINA RESULT:     -11.5      0.000      0.000
REMARK SMILES COc1cc(S(=O)(=O)CCO)cc(C(=O)NCCCNC(=O)c2ccc(-c3c4nc(c(-c5cccc(S(=O)(=O)[O-])c5F)c5ccc([nH]5)c(-c5cccc(S(=O)(=O)[O-])c5F)c5nc(c(-c6cccc(S(=O)(=O)[O-])c6F)c6ccc3[nH]6)C=C5)C=C4)cc2)c1OC
REMARK SMILES IDX 17 1 16 2 14 3 15 4 13 6 3 7 4 8 86 9 5 10 12 11 2 12 1 13
REMARK SMILES IDX 87 14 88 15 6 16 7 17 8 18 9 19 10 20 11 21 18 23 19 24
REMARK SMILES IDX 20 25 21 26 22 28 23 29 24 30 85 31 25 32 84 33 26 34 27 35
REMARK SMILES IDX 28 36 78 37 29 38 83 39 77 40 79 41 30 42 82 43 76 44 75 45
REMARK SMILES IDX 31 47 63 48 43 49 62 50 44 51 47 52 61 53 80 54 45 55 46 56
REMARK SMILES IDX 60 58 81 59 48 60 32 61 33 62 41 63 34 64 36 65 42 66 35 67
REMARK SMILES IDX 37 68 38 69 39 70 40 71 64 72 65 73 73 74 66 75 68 76 74 77
REMARK SMILES IDX 67 78 69 79 70 80 71 81 72 82 49 83 50 84 58 85 51 86 53 87
REMARK SMILES IDX 59 88 52 89 54 90 55 91 56 92 57 93
REMARK H PARENT 16 5 11 22 20 27 79 46 47 57
REMARK Flexibility Score: inf
ROOT
ATOM      1  C   UNL A   1      35.620  22.835  26.332  1.00  0.00     0.118 C 
ENDROOT
BRANCH   1   2
ATOM      2  N   UNL A   1      34.289  23.035  26.854  1.00  0.00    -0.352 N 
ATOM      3  C   UNL A   1      33.201  23.620  26.257  1.00  0.00     0.255 C 
ATOM      4  O   UNL A   1      32.099  23.488  26.792  1.00  0.00    -0.269 OA
ATOM      5  H   UNL A   1      34.140  22.703  27.769  1.00  0.00     0.163 HD
BRANCH   3   6
ATOM      6  C   UNL A   1      33.312  24.534  25.089  1.00  0.00     0.086 A 
ATOM      7  C   UNL A   1      33.443  25.127  22.738  1.00  0.00     0.162 A 
ATOM      8  C   UNL A   1      33.169  26.460  23.106  1.00  0.00     0.070 A 
ATOM      9  C   UNL A   1      33.501  24.133  23.738  1.00  0.00     0.173 A 
ATOM     10  C   UNL A   1      32.917  26.832  24.423  1.00  0.00     0.072 A 
ATOM     11  C   UNL A   1      33.022  25.880  25.421  1.00  0.00     0.038 A 
BRANCH   7  12
ATOM     12  O   UNL A   1      33.507  25.068  21.376  1.00  0.00    -0.493 OA
ATOM     13  C   UNL A   1      32.592  25.719  20.532  1.00  0.00     0.278 C 
ENDBRANCH   7  12
BRANCH   9  14
ATOM     14  O   UNL A   1      33.478  22.787  23.467  1.00  0.00    -0.492 OA
ATOM     15  C   UNL A   1      32.232  22.266  23.003  1.00  0.00     0.278 C 
ENDBRANCH   9  14
BRANCH  10  16
ATOM     16  S   UNL A   1      32.370  28.501  24.688  1.00  0.00     0.180 S 
ATOM     17  O   UNL A   1      33.193  29.327  23.825  1.00  0.00    -0.224 OA
ATOM     18  O   UNL A   1      30.926  28.489  24.517  1.00  0.00    -0.224 OA
BRANCH  16  19
ATOM     19  C   UNL A   1      32.692  29.008  26.351  1.00  0.00     0.170 C 
BRANCH  19  20
ATOM     20  C   UNL A   1      32.049  30.328  26.721  1.00  0.00     0.172 C 
BRANCH  20  21
ATOM     21  O   UNL A   1      31.479  30.936  25.573  1.00  0.00    -0.395 OA
ATOM     22  H   UNL A   1      32.105  30.880  24.834  1.00  0.00     0.210 HD
ENDBRANCH  20  21
ENDBRANCH  19  20
ENDBRANCH  16  19
ENDBRANCH  10  16
ENDBRANCH   3   6
ENDBRANCH   1   2
BRANCH   1  23
ATOM     23  C   UNL A   1      35.861  21.519  25.608  1.00  0.00     0.042 C 
BRANCH  23  24
ATOM     24  C   UNL A   1      37.122  21.487  24.749  1.00  0.00     0.118 C 
BRANCH  24  25
ATOM     25  N   UNL A   1      38.114  20.500  25.167  1.00  0.00    -0.352 N 
ATOM     26  C   UNL A   1      39.277  20.586  25.897  1.00  0.00     0.251 C 
ATOM     27  H   UNL A   1      37.908  19.586  24.864  1.00  0.00     0.163 HD
ATOM     28  O   UNL A   1      39.976  19.579  26.006  1.00  0.00    -0.269 OA
BRANCH  26  29
ATOM     29  C   UNL A   1      39.742  21.858  26.503  1.00  0.00     0.039 A 
ATOM     30  C   UNL A   1      40.703  21.803  27.522  1.00  0.00     0.014 A 
ATOM     31  C   UNL A   1      39.237  23.096  26.116  1.00  0.00     0.014 A 
ATOM     32  C   UNL A   1      41.234  22.982  28.056  1.00  0.00     0.010 A 
ATOM     33  C   UNL A   1      39.837  24.267  26.571  1.00  0.00     0.010 A 
ATOM     34  C   UNL A   1      40.856  24.227  27.533  1.00  0.00    -0.014 A 
BRANCH  34  35
ATOM     35  C   UNL A   1      41.536  25.495  27.917  1.00  0.00     0.031 A 
ATOM     36  C   UNL A   1      40.783  26.577  28.647  1.00  0.00     0.074 A 
ATOM     37  C   UNL A   1      42.786  25.737  27.469  1.00  0.00     0.049 A 
ATOM     38  N   UNL A   1      41.139  27.813  28.885  1.00  0.00    -0.248 NA
ATOM     39  C   UNL A   1      39.439  26.235  29.141  1.00  0.00     0.031 C 
ATOM     40  C   UNL A   1      43.600  24.806  26.682  1.00  0.00     0.029 A 
ATOM     41  N   UNL A   1      43.577  26.857  27.572  1.00  0.00    -0.354 N 
ATOM     42  C   UNL A   1      40.045  28.414  29.496  1.00  0.00     0.074 A 
ATOM     43  C   UNL A   1      39.005  27.409  29.578  1.00  0.00     0.031 C 
ATOM     44  C   UNL A   1      44.767  25.392  26.373  1.00  0.00     0.029 A 
ATOM     45  C   UNL A   1      44.771  26.753  26.895  1.00  0.00     0.049 A 
ATOM     46  H   UNL A   1      43.312  27.658  28.080  1.00  0.00     0.167 HD
ATOM     47  C   UNL A   1      39.924  29.675  29.973  1.00  0.00     0.034 A 
ATOM     48  C   UNL A   1      45.752  27.655  26.695  1.00  0.00     0.034 A 
ATOM     49  C   UNL A   1      40.985  30.645  29.968  1.00  0.00     0.049 A 
ATOM     50  C   UNL A   1      45.613  29.032  27.280  1.00  0.00     0.074 A 
ATOM     51  C   UNL A   1      41.002  31.903  30.544  1.00  0.00     0.029 A 
ATOM     52  N   UNL A   1      42.218  30.466  29.361  1.00  0.00    -0.354 N 
ATOM     53  N   UNL A   1      44.631  29.528  27.993  1.00  0.00    -0.248 NA
ATOM     54  C   UNL A   1      46.723  29.969  27.051  1.00  0.00     0.031 C 
ATOM     55  C   UNL A   1      42.245  32.489  30.278  1.00  0.00     0.029 A 
ATOM     56  C   UNL A   1      43.000  31.594  29.538  1.00  0.00     0.049 A 
ATOM     57  H   UNL A   1      42.496  29.656  28.874  1.00  0.00     0.167 HD
ATOM     58  C   UNL A   1      45.013  30.824  28.316  1.00  0.00     0.074 A 
ATOM     59  C   UNL A   1      46.328  31.029  27.743  1.00  0.00     0.031 C 
ATOM     60  C   UNL A   1      44.327  31.768  29.006  1.00  0.00     0.034 A 
BRANCH  47  61
ATOM     61  C   UNL A   1      38.616  30.061  30.613  1.00  0.00     0.023 A 
ATOM     62  C   UNL A   1      38.364  29.684  31.947  1.00  0.00     0.012 A 
ATOM     63  C   UNL A   1      37.668  30.842  29.923  1.00  0.00     0.148 A 
ATOM     64  C   UNL A   1      37.175  30.051  32.577  1.00  0.00     0.002 A 
ATOM     65  C   UNL A   1      36.501  31.236  30.570  1.00  0.00     0.091 A 
ATOM     66  F   UNL A   1      37.914  31.171  28.647  1.00  0.00    -0.205 F 
ATOM     67  C   UNL A   1      36.250  30.834  31.893  1.00  0.00     0.022 A 
BRANCH  65  68
ATOM     68  S   UNL A   1      35.280  32.302  29.794  1.00  0.00     0.127 S 
ATOM     69  O   UNL A   1      34.346  32.530  30.894  1.00  0.00    -0.237 OA
ATOM     70  O   UNL A   1      36.080  33.470  29.421  1.00  0.00    -0.237 OA
ATOM     71  O   UNL A   1      34.752  31.546  28.666  1.00  0.00    -0.744 OA
ENDBRANCH  65  68
ENDBRANCH  47  61
BRANCH  48  72
ATOM     72  C   UNL A   1      46.981  27.257  25.951  1.00  0.00     0.023 A 
ATOM     73  C   UNL A   1      47.925  26.429  26.587  1.00  0.00     0.012 A 
ATOM     74  C   UNL A   1      47.196  27.645  24.615  1.00  0.00     0.148 A 
ATOM     75  C   UNL A   1      49.072  26.010  25.912  1.00  0.00     0.002 A 
ATOM     76  C   UNL A   1      48.313  27.179  23.931  1.00  0.00     0.091 A 
ATOM     77  F   UNL A   1      46.295  28.449  24.031  1.00  0.00    -0.205 F 
ATOM     78  C   UNL A   1      49.261  26.375  24.581  1.00  0.00     0.022 A 
BRANCH  76  79
ATOM     79  S   UNL A   1      48.551  27.482  22.176  1.00  0.00     0.127 S 
ATOM     80  O   UNL A   1      49.751  28.314  22.174  1.00  0.00    -0.237 OA
ATOM     81  O   UNL A   1      48.737  26.128  21.653  1.00  0.00    -0.237 OA
ATOM     82  O   UNL A   1      47.324  28.127  21.728  1.00  0.00    -0.744 OA
ENDBRANCH  76  79
ENDBRANCH  48  72
BRANCH  60  83
ATOM     83  C   UNL A   1      44.980  33.110  29.192  1.00  0.00     0.023 A 
ATOM     84  C   UNL A   1      45.776  33.338  30.331  1.00  0.00     0.012 A 
ATOM     85  C   UNL A   1      44.883  34.108  28.202  1.00  0.00     0.148 A 
ATOM     86  C   UNL A   1      46.451  34.546  30.493  1.00  0.00     0.002 A 
ATOM     87  C   UNL A   1      45.591  35.294  28.351  1.00  0.00     0.091 A 
ATOM     88  F   UNL A   1      44.104  33.876  27.135  1.00  0.00    -0.205 F 
ATOM     89  C   UNL A   1      46.369  35.518  29.499  1.00  0.00     0.022 A 
BRANCH  87  90
ATOM     90  S   UNL A   1      45.614  36.569  27.084  1.00  0.00     0.127 S 
ATOM     91  O   UNL A   1      44.208  36.965  27.034  1.00  0.00    -0.237 OA
ATOM     92  O   UNL A   1      46.510  37.569  27.665  1.00  0.00    -0.237 OA
ATOM     93  O   UNL A   1      46.125  35.927  25.880  1.00  0.00    -0.744 OA
ENDBRANCH  87  90
ENDBRANCH  60  83
ENDBRANCH  34  35
ENDBRANCH  26  29
ENDBRANCH  24  25
ENDBRANCH  23  24
ENDBRANCH   1  23
TORSDOF 19
ENDMDL
MODEL 2
REMARK VINA RESULT:     -11.0      1.875      2.203
REMARK SMILES COc1cc(S(=O)(=O)CCO)cc(C(=O)NCCCNC(=O)c2ccc(-c3c4nc(c(-c5cccc(S(=O)(=O)[O-])c5F)c5ccc([nH]5)c(-c5cccc(S(=O)(=O)[O-])c5F)c5nc(c(-c6cccc(S(=O)(=O)[O-])c6F)c6ccc3[nH]6)C=C5)C=C4)cc2)c1OC
REMARK SMILES IDX 17 1 16 2 14 3 15 4 13 6 3 7 4 8 86 9 5 10 12 11 2 12 1 13
REMARK SMILES IDX 87 14 88 15 6 16 7 17 8 18 9 19 10 20 11 21 18 23 19 24
REMARK SMILES IDX 20 25 21 26 22 28 23 29 24 30 85 31 25 32 84 33 26 34 27 35
REMARK SMILES IDX 28 36 78 37 29 38 83 39 77 40 79 41 30 42 82 43 76 44 75 45
REMARK SMILES IDX 31 47 63 48 43 49 62 50 44 51 47 52 61 53 80 54 45 55 46 56
REMARK SMILES IDX 60 58 81 59 48 60 32 61 33 62 41 63 34 64 36 65 42 66 35 67
REMARK SMILES IDX 37 68 38 69 39 70 40 71 64 72 65 73 73 74 66 75 68 76 74 77
REMARK SMILES IDX 67 78 69 79 70 80 71 81 72 82 49 83 50 84 58 85 51 86 53 87
REMARK SMILES IDX 59 88 52 89 54 90 55 91 56 92 57 93
REMARK H PARENT 16 5 11 22 20 27 79 46 47 57
REMARK Flexibility Score: inf
ROOT
ATOM      1  C   UNL A   1      35.195  21.823  26.176  1.00  0.00     0.118 C 
ENDROOT
BRANCH   1   2
ATOM      2  N   UNL A   1      33.766  21.706  26.354  1.00  0.00    -0.352 N 
ATOM      3  C   UNL A   1      32.754  22.388  25.729  1.00  0.00     0.255 C 
ATOM      4  O   UNL A   1      31.600  21.977  25.865  1.00  0.00    -0.269 OA
ATOM      5  H   UNL A   1      33.478  21.039  27.019  1.00  0.00     0.163 HD
BRANCH   3   6
ATOM      6  C   UNL A   1      32.962  23.685  25.032  1.00  0.00     0.086 A 
ATOM      7  C   UNL A   1      33.422  25.142  23.144  1.00  0.00     0.162 A 
ATOM      8  C   UNL A   1      32.950  26.220  23.920  1.00  0.00     0.070 A 
ATOM      9  C   UNL A   1      33.417  23.842  23.693  1.00  0.00     0.173 A 
ATOM     10  C   UNL A   1      32.443  26.047  25.204  1.00  0.00     0.072 A 
ATOM     11  C   UNL A   1      32.479  24.789  25.777  1.00  0.00     0.038 A 
BRANCH   7  12
ATOM     12  O   UNL A   1      33.719  25.614  21.899  1.00  0.00    -0.493 OA
ATOM     13  C   UNL A   1      32.795  25.638  20.841  1.00  0.00     0.278 C 
ENDBRANCH   7  12
BRANCH   9  14
ATOM     14  O   UNL A   1      33.582  22.704  22.942  1.00  0.00    -0.492 OA
ATOM     15  C   UNL A   1      32.385  22.110  22.439  1.00  0.00     0.278 C 
ENDBRANCH   9  14
BRANCH  10  16
ATOM     16  S   UNL A   1      31.685  27.465  25.959  1.00  0.00     0.180 S 
ATOM     17  O   UNL A   1      30.957  28.135  24.896  1.00  0.00    -0.224 OA
ATOM     18  O   UNL A   1      30.971  26.974  27.127  1.00  0.00    -0.224 OA
BRANCH  16  19
ATOM     19  C   UNL A   1      32.913  28.597  26.537  1.00  0.00     0.170 C 
BRANCH  19  20
ATOM     20  C   UNL A   1      32.927  29.915  25.792  1.00  0.00     0.172 C 
BRANCH  20  21
ATOM     21  O   UNL A   1      33.293  29.710  24.437  1.00  0.00    -0.395 OA
ATOM     22  H   UNL A   1      33.734  28.851  24.348  1.00  0.00     0.210 HD
ENDBRANCH  20  21
ENDBRANCH  19  20
ENDBRANCH  16  19
ENDBRANCH  10  16
ENDBRANCH   3   6
ENDBRANCH   1   2
BRANCH   1  23
ATOM     23  C   UNL A   1      35.812  20.910  25.127  1.00  0.00     0.042 C 
BRANCH  23  24
ATOM     24  C   UNL A   1      37.244  21.266  24.737  1.00  0.00     0.118 C 
BRANCH  24  25
ATOM     25  N   UNL A   1      38.248  20.298  25.169  1.00  0.00    -0.352 N 
ATOM     26  C   UNL A   1      39.409  20.409  25.900  1.00  0.00     0.251 C 
ATOM     27  H   UNL A   1      38.055  19.378  24.878  1.00  0.00     0.163 HD
ATOM     28  O   UNL A   1      40.121  19.414  26.023  1.00  0.00    -0.269 OA
BRANCH  26  29
ATOM     29  C   UNL A   1      39.855  21.695  26.490  1.00  0.00     0.039 A 
ATOM     30  C   UNL A   1      40.805  21.665  27.520  1.00  0.00     0.014 A 
ATOM     31  C   UNL A   1      39.344  22.922  26.076  1.00  0.00     0.014 A 
ATOM     32  C   UNL A   1      41.320  22.858  28.040  1.00  0.00     0.010 A 
ATOM     33  C   UNL A   1      39.929  24.106  26.519  1.00  0.00     0.010 A 
ATOM     34  C   UNL A   1      40.937  24.091  27.493  1.00  0.00    -0.014 A 
BRANCH  34  35
ATOM     35  C   UNL A   1      41.602  25.371  27.864  1.00  0.00     0.031 A 
ATOM     36  C   UNL A   1      40.832  26.456  28.571  1.00  0.00     0.074 A 
ATOM     37  C   UNL A   1      42.853  25.618  27.423  1.00  0.00     0.049 A 
ATOM     38  N   UNL A   1      41.174  27.700  28.792  1.00  0.00    -0.248 NA
ATOM     39  C   UNL A   1      39.487  26.109  29.058  1.00  0.00     0.031 C 
ATOM     40  C   UNL A   1      43.682  24.684  26.657  1.00  0.00     0.029 A 
ATOM     41  N   UNL A   1      43.632  26.747  27.515  1.00  0.00    -0.354 N 
ATOM     42  C   UNL A   1      40.069  28.299  29.385  1.00  0.00     0.074 A 
ATOM     43  C   UNL A   1      39.038  27.285  29.473  1.00  0.00     0.031 C 
ATOM     44  C   UNL A   1      44.847  25.275  26.349  1.00  0.00     0.029 A 
ATOM     45  C   UNL A   1      44.833  26.644  26.851  1.00  0.00     0.049 A 
ATOM     46  H   UNL A   1      43.356  27.553  28.009  1.00  0.00     0.167 HD
ATOM     47  C   UNL A   1      39.932  29.566  29.842  1.00  0.00     0.034 A 
ATOM     48  C   UNL A   1      45.807  27.552  26.645  1.00  0.00     0.034 A 
ATOM     49  C   UNL A   1      40.984  30.546  29.831  1.00  0.00     0.049 A 
ATOM     50  C   UNL A   1      45.650  28.937  27.208  1.00  0.00     0.074 A 
ATOM     51  C   UNL A   1      40.984  31.812  30.388  1.00  0.00     0.029 A 
ATOM     52  N   UNL A   1      42.223  30.370  29.237  1.00  0.00    -0.354 N 
ATOM     53  N   UNL A   1      44.657  29.434  27.905  1.00  0.00    -0.248 NA
ATOM     54  C   UNL A   1      46.753  29.881  26.974  1.00  0.00     0.031 C 
ATOM     55  C   UNL A   1      42.224  32.406  30.124  1.00  0.00     0.029 A 
ATOM     56  C   UNL A   1      42.994  31.508  29.404  1.00  0.00     0.049 A 
ATOM     57  H   UNL A   1      42.513  29.555  28.765  1.00  0.00     0.167 HD
ATOM     58  C   UNL A   1      45.024  30.739  28.211  1.00  0.00     0.074 A 
ATOM     59  C   UNL A   1      46.342  30.948  27.646  1.00  0.00     0.031 C 
ATOM     60  C   UNL A   1      44.323  31.686  28.881  1.00  0.00     0.034 A 
BRANCH  47  61
ATOM     61  C   UNL A   1      38.615  29.949  30.464  1.00  0.00     0.023 A 
ATOM     62  C   UNL A   1      38.345  29.569  31.794  1.00  0.00     0.012 A 
ATOM     63  C   UNL A   1      37.675  30.730  29.763  1.00  0.00     0.148 A 
ATOM     64  C   UNL A   1      37.147  29.933  32.408  1.00  0.00     0.002 A 
ATOM     65  C   UNL A   1      36.499  31.121  30.395  1.00  0.00     0.091 A 
ATOM     66  F   UNL A   1      37.938  31.062  28.491  1.00  0.00    -0.205 F 
ATOM     67  C   UNL A   1      36.230  30.716  31.713  1.00  0.00     0.022 A 
BRANCH  65  68
ATOM     68  S   UNL A   1      35.287  32.187  29.604  1.00  0.00     0.127 S 
ATOM     69  O   UNL A   1      34.364  32.452  30.705  1.00  0.00    -0.237 OA
ATOM     70  O   UNL A   1      36.101  33.335  29.201  1.00  0.00    -0.237 OA
ATOM     71  O   UNL A   1      34.742  31.415  28.496  1.00  0.00    -0.744 OA
ENDBRANCH  65  68
ENDBRANCH  47  61
BRANCH  48  72
ATOM     72  C   UNL A   1      47.046  27.156  25.918  1.00  0.00     0.023 A 
ATOM     73  C   UNL A   1      47.157  27.450  24.546  1.00  0.00     0.012 A 
ATOM     74  C   UNL A   1      48.128  26.542  26.578  1.00  0.00     0.148 A 
ATOM     75  C   UNL A   1      48.314  27.123  23.838  1.00  0.00     0.002 A 
ATOM     76  C   UNL A   1      49.299  26.269  25.879  1.00  0.00     0.091 A 
ATOM     77  F   UNL A   1      47.999  26.253  27.881  1.00  0.00    -0.205 F 
ATOM     78  C   UNL A   1      49.389  26.544  24.507  1.00  0.00     0.022 A 
BRANCH  76  79
ATOM     79  S   UNL A   1      50.779  25.662  26.699  1.00  0.00     0.127 S 
ATOM     80  O   UNL A   1      51.702  25.511  25.579  1.00  0.00    -0.237 OA
ATOM     81  O   UNL A   1      51.093  26.757  27.617  1.00  0.00    -0.237 OA
ATOM     82  O   UNL A   1      50.371  24.431  27.364  1.00  0.00    -0.744 OA
ENDBRANCH  76  79
ENDBRANCH  48  72
BRANCH  60  83
ATOM     83  C   UNL A   1      44.962  33.037  29.051  1.00  0.00     0.023 A 
ATOM     84  C   UNL A   1      44.702  34.046  28.104  1.00  0.00     0.012 A 
ATOM     85  C   UNL A   1      45.739  33.336  30.188  1.00  0.00     0.148 A 
ATOM     86  C   UNL A   1      45.221  35.328  28.274  1.00  0.00     0.002 A 
ATOM     87  C   UNL A   1      46.220  34.626  30.372  1.00  0.00     0.091 A 
ATOM     88  F   UNL A   1      45.989  32.354  31.067  1.00  0.00    -0.205 F 
ATOM     89  C   UNL A   1      45.969  35.621  29.412  1.00  0.00     0.022 A 
BRANCH  87  90
ATOM     90  S   UNL A   1      47.119  35.120  31.847  1.00  0.00     0.127 S 
ATOM     91  O   UNL A   1      48.242  34.185  31.838  1.00  0.00    -0.237 OA
ATOM     92  O   UNL A   1      47.475  36.507  31.546  1.00  0.00    -0.237 OA
ATOM     93  O   UNL A   1      46.186  34.963  32.955  1.00  0.00    -0.744 OA
ENDBRANCH  87  90
ENDBRANCH  60  83
ENDBRANCH  34  35
ENDBRANCH  26  29
ENDBRANCH  24  25
ENDBRANCH  23  24
ENDBRANCH   1  23
TORSDOF 19
ENDMDL
MODEL 3
REMARK VINA RESULT:     -10.7      1.667      2.254
REMARK SMILES COc1cc(S(=O)(=O)CCO)cc(C(=O)NCCCNC(=O)c2ccc(-c3c4nc(c(-c5cccc(S(=O)(=O)[O-])c5F)c5ccc([nH]5)c(-c5cccc(S(=O)(=O)[O-])c5F)c5nc(c(-c6cccc(S(=O)(=O)[O-])c6F)c6ccc3[nH]6)C=C5)C=C4)cc2)c1OC
REMARK SMILES IDX 17 1 16 2 14 3 15 4 13 6 3 7 4 8 86 9 5 10 12 11 2 12 1 13
REMARK SMILES IDX 87 14 88 15 6 16 7 17 8 18 9 19 10 20 11 21 18 23 19 24
REMARK SMILES IDX 20 25 21 26 22 28 23 29 24 30 85 31 25 32 84 33 26 34 27 35
REMARK SMILES IDX 28 36 78 37 29 38 83 39 77 40 79 41 30 42 82 43 76 44 75 45
REMARK SMILES IDX 31 47 63 48 43 49 62 50 44 51 47 52 61 53 80 54 45 55 46 56
REMARK SMILES IDX 60 58 81 59 48 60 32 61 33 62 41 63 34 64 36 65 42 66 35 67
REMARK SMILES IDX 37 68 38 69 39 70 40 71 64 72 65 73 73 74 66 75 68 76 74 77
REMARK SMILES IDX 67 78 69 79 70 80 71 81 72 82 49 83 50 84 58 85 51 86 53 87
REMARK SMILES IDX 59 88 52 89 54 90 55 91 56 92 57 93
REMARK H PARENT 16 5 11 22 20 27 79 46 47 57
REMARK Flexibility Score: inf
ROOT
ATOM      1  C   UNL A   1      35.767  23.564  24.122  1.00  0.00     0.118 C 
ENDROOT
BRANCH   1   2
ATOM      2  N   UNL A   1      35.137  24.033  22.910  1.00  0.00    -0.352 N 
ATOM      3  C   UNL A   1      33.966  24.730  22.753  1.00  0.00     0.255 C 
ATOM      4  O   UNL A   1      33.724  25.227  21.652  1.00  0.00    -0.269 OA
ATOM      5  H   UNL A   1      35.617  23.824  22.076  1.00  0.00     0.163 HD
BRANCH   3   6
ATOM      6  C   UNL A   1      32.907  24.778  23.796  1.00  0.00     0.086 A 
ATOM      7  C   UNL A   1      31.280  23.866  25.352  1.00  0.00     0.162 A 
ATOM      8  C   UNL A   1      31.228  25.133  25.969  1.00  0.00     0.070 A 
ATOM      9  C   UNL A   1      32.145  23.667  24.255  1.00  0.00     0.173 A 
ATOM     10  C   UNL A   1      32.028  26.195  25.557  1.00  0.00     0.072 A 
ATOM     11  C   UNL A   1      32.842  26.033  24.451  1.00  0.00     0.038 A 
BRANCH   7  12
ATOM     12  O   UNL A   1      30.487  23.015  26.064  1.00  0.00    -0.493 OA
ATOM     13  C   UNL A   1      29.664  23.432  27.124  1.00  0.00     0.278 C 
ENDBRANCH   7  12
BRANCH   9  14
ATOM     14  O   UNL A   1      32.480  22.426  23.772  1.00  0.00    -0.492 OA
ATOM     15  C   UNL A   1      31.616  21.895  22.767  1.00  0.00     0.278 C 
ENDBRANCH   9  14
BRANCH  10  16
ATOM     16  S   UNL A   1      32.005  27.649  26.576  1.00  0.00     0.180 S 
ATOM     17  O   UNL A   1      30.880  27.482  27.477  1.00  0.00    -0.224 OA
ATOM     18  O   UNL A   1      33.349  27.792  27.114  1.00  0.00    -0.224 OA
BRANCH  16  19
ATOM     19  C   UNL A   1      31.680  29.089  25.603  1.00  0.00     0.170 C 
BRANCH  19  20
ATOM     20  C   UNL A   1      31.658  30.374  26.404  1.00  0.00     0.172 C 
BRANCH  20  21
ATOM     21  O   UNL A   1      32.916  30.589  27.022  1.00  0.00    -0.395 OA
ATOM     22  H   UNL A   1      32.858  31.353  27.617  1.00  0.00     0.210 HD
ENDBRANCH  20  21
ENDBRANCH  19  20
ENDBRANCH  16  19
ENDBRANCH  10  16
ENDBRANCH   3   6
ENDBRANCH   1   2
BRANCH   1  23
ATOM     23  C   UNL A   1      36.479  22.223  24.026  1.00  0.00     0.042 C 
BRANCH  23  24
ATOM     24  C   UNL A   1      36.612  21.478  25.351  1.00  0.00     0.118 C 
BRANCH  24  25
ATOM     25  N   UNL A   1      37.752  20.568  25.423  1.00  0.00    -0.352 N 
ATOM     26  C   UNL A   1      39.045  20.712  25.871  1.00  0.00     0.251 C 
ATOM     27  H   UNL A   1      37.555  19.666  25.081  1.00  0.00     0.163 HD
ATOM     28  O   UNL A   1      39.828  19.778  25.710  1.00  0.00    -0.269 OA
BRANCH  26  29
ATOM     29  C   UNL A   1      39.536  21.970  26.485  1.00  0.00     0.039 A 
ATOM     30  C   UNL A   1      40.492  21.889  27.506  1.00  0.00     0.014 A 
ATOM     31  C   UNL A   1      39.060  23.221  26.102  1.00  0.00     0.014 A 
ATOM     32  C   UNL A   1      41.048  23.054  28.048  1.00  0.00     0.010 A 
ATOM     33  C   UNL A   1      39.685  24.377  26.565  1.00  0.00     0.010 A 
ATOM     34  C   UNL A   1      40.700  24.309  27.530  1.00  0.00    -0.014 A 
BRANCH  34  35
ATOM     35  C   UNL A   1      41.407  25.560  27.922  1.00  0.00     0.031 A 
ATOM     36  C   UNL A   1      40.671  26.664  28.635  1.00  0.00     0.074 A 
ATOM     37  C   UNL A   1      42.671  25.766  27.496  1.00  0.00     0.049 A 
ATOM     38  N   UNL A   1      41.056  27.892  28.875  1.00  0.00    -0.248 NA
ATOM     39  C   UNL A   1      39.309  26.361  29.105  1.00  0.00     0.031 C 
ATOM     40  C   UNL A   1      43.473  24.811  26.726  1.00  0.00     0.029 A 
ATOM     41  N   UNL A   1      43.490  26.864  27.609  1.00  0.00    -0.354 N 
ATOM     42  C   UNL A   1      39.968  28.523  29.465  1.00  0.00     0.074 A 
ATOM     43  C   UNL A   1      38.899  27.548  29.531  1.00  0.00     0.031 C 
ATOM     44  C   UNL A   1      44.661  25.363  26.437  1.00  0.00     0.029 A 
ATOM     45  C   UNL A   1      44.693  26.726  26.955  1.00  0.00     0.049 A 
ATOM     46  H   UNL A   1      43.238  27.675  28.110  1.00  0.00     0.167 HD
ATOM     47  C   UNL A   1      39.872  29.790  29.936  1.00  0.00     0.034 A 
ATOM     48  C   UNL A   1      45.701  27.600  26.769  1.00  0.00     0.034 A 
ATOM     49  C   UNL A   1      40.959  30.730  29.947  1.00  0.00     0.049 A 
ATOM     50  C   UNL A   1      45.589  28.983  27.347  1.00  0.00     0.074 A 
ATOM     51  C   UNL A   1      41.000  31.989  30.519  1.00  0.00     0.029 A 
ATOM     52  N   UNL A   1      42.197  30.516  29.362  1.00  0.00    -0.354 N 
ATOM     53  N   UNL A   1      44.608  29.507  28.041  1.00  0.00    -0.248 NA
ATOM     54  C   UNL A   1      46.728  29.889  27.135  1.00  0.00     0.031 C 
ATOM     55  C   UNL A   1      42.263  32.540  30.273  1.00  0.00     0.029 A 
ATOM     56  C   UNL A   1      43.007  31.623  29.550  1.00  0.00     0.049 A 
ATOM     57  H   UNL A   1      42.462  29.697  28.883  1.00  0.00     0.167 HD
ATOM     58  C   UNL A   1      45.020  30.795  28.367  1.00  0.00     0.074 A 
ATOM     59  C   UNL A   1      46.350  30.962  27.816  1.00  0.00     0.031 C 
ATOM     60  C   UNL A   1      44.347  31.759  29.041  1.00  0.00     0.034 A 
BRANCH  47  61
ATOM     61  C   UNL A   1      38.564  30.213  30.551  1.00  0.00     0.023 A 
ATOM     62  C   UNL A   1      38.251  29.795  31.859  1.00  0.00     0.012 A 
ATOM     63  C   UNL A   1      37.677  31.066  29.865  1.00  0.00     0.148 A 
ATOM     64  C   UNL A   1      37.061  30.195  32.467  1.00  0.00     0.002 A 
ATOM     65  C   UNL A   1      36.510  31.490  30.492  1.00  0.00     0.091 A 
ATOM     66  F   UNL A   1      37.980  31.434  28.612  1.00  0.00    -0.205 F 
ATOM     67  C   UNL A   1      36.197  31.049  31.789  1.00  0.00     0.022 A 
BRANCH  65  68
ATOM     68  S   UNL A   1      35.367  32.646  29.724  1.00  0.00     0.127 S 
ATOM     69  O   UNL A   1      34.285  32.685  30.705  1.00  0.00    -0.237 OA
ATOM     70  O   UNL A   1      36.167  33.870  29.648  1.00  0.00    -0.237 OA
ATOM     71  O   UNL A   1      35.026  32.067  28.432  1.00  0.00    -0.744 OA
ENDBRANCH  65  68
ENDBRANCH  47  61
BRANCH  48  72
ATOM     72  C   UNL A   1      46.932  27.167  26.049  1.00  0.00     0.023 A 
ATOM     73  C   UNL A   1      47.040  27.422  24.668  1.00  0.00     0.012 A 
ATOM     74  C   UNL A   1      48.008  26.559  26.721  1.00  0.00     0.148 A 
ATOM     75  C   UNL A   1      48.190  27.059  23.966  1.00  0.00     0.002 A 
ATOM     76  C   UNL A   1      49.173  26.251  26.027  1.00  0.00     0.091 A 
ATOM     77  F   UNL A   1      47.881  26.308  28.033  1.00  0.00    -0.205 F 
ATOM     78  C   UNL A   1      49.260  26.485  24.646  1.00  0.00     0.022 A 
BRANCH  76  79
ATOM     79  S   UNL A   1      50.648  25.647  26.858  1.00  0.00     0.127 S 
ATOM     80  O   UNL A   1      50.172  24.398  27.445  1.00  0.00    -0.237 OA
ATOM     81  O   UNL A   1      51.584  25.490  25.745  1.00  0.00    -0.237 OA
ATOM     82  O   UNL A   1      51.015  26.698  27.798  1.00  0.00    -0.744 OA
ENDBRANCH  76  79
ENDBRANCH  48  72
BRANCH  60  83
ATOM     83  C   UNL A   1      45.033  33.084  29.234  1.00  0.00     0.023 A 
ATOM     84  C   UNL A   1      45.837  33.284  30.373  1.00  0.00     0.012 A 
ATOM     85  C   UNL A   1      44.957  34.090  28.252  1.00  0.00     0.148 A 
ATOM     86  C   UNL A   1      46.542  34.475  30.542  1.00  0.00     0.002 A 
ATOM     87  C   UNL A   1      45.694  35.258  28.407  1.00  0.00     0.091 A 
ATOM     88  F   UNL A   1      44.170  33.885  27.185  1.00  0.00    -0.205 F 
ATOM     89  C   UNL A   1      46.480  35.455  29.554  1.00  0.00     0.022 A 
BRANCH  87  90
ATOM     90  S   UNL A   1      45.745  36.541  27.149  1.00  0.00     0.127 S 
ATOM     91  O   UNL A   1      44.342  36.947  27.081  1.00  0.00    -0.237 OA
ATOM     92  O   UNL A   1      46.639  37.531  27.750  1.00  0.00    -0.237 OA
ATOM     93  O   UNL A   1      46.269  35.903  25.948  1.00  0.00    -0.744 OA
ENDBRANCH  87  90
ENDBRANCH  60  83
ENDBRANCH  34  35
ENDBRANCH  26  29
ENDBRANCH  24  25
ENDBRANCH  23  24
ENDBRANCH   1  23
TORSDOF 19
ENDMDL
