MODEL 1
REMARK VINA RESULT:     -12.3      0.000      0.000
REMARK SMILES CCc1cc2c(C)cc(=O)oc2cc1O[C@H](C)C(=O)NCCCNC(=O)c1ccc(-c2c3nc(c(-c4cccc(S(=O)(=O)[O-])c4F)c4ccc([nH]4)c(-c4cccc(S(=O)(=O)[O-])c4F)c4nc(c(-c5cccc(S(=O)(=O)[O-])c5F)c5ccc2[nH]5)C=C4)C=C3)cc1
REMARK SMILES IDX 22 1 21 2 20 3 18 4 19 5 16 7 17 8 15 9 14 10 3 11 4 12 5 13
REMARK SMILES IDX 13 14 6 15 12 16 7 17 8 18 11 19 9 20 10 21 2 22 1 23 23 24
REMARK SMILES IDX 24 25 25 26 26 28 27 29 28 30 89 31 29 32 88 33 30 34 31 35
REMARK SMILES IDX 32 36 82 37 33 38 87 39 81 40 83 41 34 42 86 43 80 44 79 45
REMARK SMILES IDX 35 47 67 48 47 49 66 50 48 51 51 52 65 53 84 54 49 55 50 56
REMARK SMILES IDX 64 58 85 59 52 60 36 61 37 62 45 63 38 64 40 65 46 66 39 67
REMARK SMILES IDX 41 68 42 69 43 70 44 71 68 72 69 73 77 74 70 75 72 76 78 77
REMARK SMILES IDX 71 78 73 79 74 80 75 81 76 82 53 83 54 84 62 85 55 86 57 87
REMARK SMILES IDX 63 88 56 89 58 90 59 91 60 92 61 93
REMARK H PARENT 20 6 24 27 83 46 51 57
REMARK Flexibility Score: inf
ROOT
ATOM      1  C   UNL A   1      31.479  31.920  26.766  1.00  0.00     0.042 C 
ENDROOT
BRANCH   1   2
ATOM      2  C   UNL A   1      31.607  30.402  26.723  1.00  0.00     0.118 C 
BRANCH   2   3
ATOM      3  N   UNL A   1      32.393  29.916  25.613  1.00  0.00    -0.353 N 
ATOM      4  C   UNL A   1      32.041  29.509  24.366  1.00  0.00     0.260 C 
ATOM      5  O   UNL A   1      32.976  29.400  23.559  1.00  0.00    -0.271 OA
ATOM      6  H   UNL A   1      33.359  29.873  25.792  1.00  0.00     0.163 HD
BRANCH   4   7
ATOM      7  C   UNL A   1      30.605  29.076  23.944  1.00  0.00     0.258 C 
ATOM      8  C   UNL A   1      29.781  30.285  23.511  1.00  0.00     0.064 C 
BRANCH   7   9
ATOM      9  O   UNL A   1      30.307  27.835  23.315  1.00  0.00    -0.480 OA
BRANCH   9  10
ATOM     10  C   UNL A   1      30.689  26.618  23.780  1.00  0.00     0.127 A 
ATOM     11  C   UNL A   1      31.335  25.764  22.863  1.00  0.00    -0.005 A 
ATOM     12  C   UNL A   1      31.624  24.431  23.243  1.00  0.00     0.019 A 
ATOM     13  C   UNL A   1      31.283  23.942  24.508  1.00  0.00     0.021 A 
ATOM     14  C   UNL A   1      30.489  26.180  25.082  1.00  0.00     0.094 A 
ATOM     15  C   UNL A   1      31.419  22.538  24.915  1.00  0.00    -0.033 A 
ATOM     16  C   UNL A   1      30.736  24.845  25.412  1.00  0.00     0.142 A 
ATOM     17  C   UNL A   1      32.142  21.559  24.042  1.00  0.00     0.045 C 
ATOM     18  C   UNL A   1      30.845  22.157  26.066  1.00  0.00     0.098 A 
ATOM     19  O   UNL A   1      30.280  24.434  26.680  1.00  0.00    -0.423 OA
ATOM     20  C   UNL A   1      30.139  23.087  26.961  1.00  0.00     0.336 A 
ATOM     21  O   UNL A   1      29.491  22.671  27.914  1.00  0.00    -0.246 OA
BRANCH  11  22
ATOM     22  C   UNL A   1      31.645  26.187  21.439  1.00  0.00     0.036 C 
ATOM     23  C   UNL A   1      32.705  25.349  20.734  1.00  0.00     0.009 C 
ENDBRANCH  11  22
ENDBRANCH   9  10
ENDBRANCH   7   9
ENDBRANCH   4   7
ENDBRANCH   2   3
ENDBRANCH   1   2
BRANCH   1  24
ATOM     24  C   UNL A   1      32.751  32.636  27.207  1.00  0.00     0.118 C 
BRANCH  24  25
ATOM     25  N   UNL A   1      32.518  34.013  27.631  1.00  0.00    -0.352 N 
ATOM     26  C   UNL A   1      33.118  34.775  28.603  1.00  0.00     0.251 C 
ATOM     27  H   UNL A   1      31.806  34.476  27.135  1.00  0.00     0.163 HD
ATOM     28  O   UNL A   1      32.655  35.890  28.842  1.00  0.00    -0.269 OA
BRANCH  26  29
ATOM     29  C   UNL A   1      34.285  34.280  29.370  1.00  0.00     0.039 A 
ATOM     30  C   UNL A   1      34.051  33.489  30.502  1.00  0.00     0.014 A 
ATOM     31  C   UNL A   1      35.595  34.598  29.014  1.00  0.00     0.014 A 
ATOM     32  C   UNL A   1      35.126  32.967  31.225  1.00  0.00     0.010 A 
ATOM     33  C   UNL A   1      36.663  33.996  29.672  1.00  0.00     0.010 A 
ATOM     34  C   UNL A   1      36.443  33.181  30.792  1.00  0.00    -0.014 A 
BRANCH  34  35
ATOM     35  C   UNL A   1      37.603  32.561  31.483  1.00  0.00     0.031 A 
ATOM     36  C   UNL A   1      38.345  31.419  30.841  1.00  0.00     0.074 A 
ATOM     37  C   UNL A   1      37.919  32.954  32.733  1.00  0.00     0.049 A 
ATOM     38  N   UNL A   1      39.313  30.685  31.326  1.00  0.00    -0.248 NA
ATOM     39  C   UNL A   1      37.917  31.021  29.487  1.00  0.00     0.031 C 
ATOM     40  C   UNL A   1      37.216  33.987  33.501  1.00  0.00     0.029 A 
ATOM     41  N   UNL A   1      38.893  32.511  33.592  1.00  0.00    -0.354 N 
ATOM     42  C   UNL A   1      39.573  29.713  30.367  1.00  0.00     0.074 A 
ATOM     43  C   UNL A   1      38.639  29.928  29.283  1.00  0.00     0.031 C 
ATOM     44  C   UNL A   1      37.788  34.102  34.710  1.00  0.00     0.029 A 
ATOM     45  C   UNL A   1      38.873  33.134  34.818  1.00  0.00     0.049 A 
ATOM     46  H   UNL A   1      39.544  31.812  33.353  1.00  0.00     0.167 HD
ATOM     47  C   UNL A   1      40.525  28.750  30.368  1.00  0.00     0.034 A 
ATOM     48  C   UNL A   1      39.642  32.945  35.909  1.00  0.00     0.034 A 
ATOM     49  C   UNL A   1      41.499  28.588  31.414  1.00  0.00     0.049 A 
ATOM     50  C   UNL A   1      40.744  31.922  35.854  1.00  0.00     0.074 A 
ATOM     51  C   UNL A   1      42.571  27.716  31.464  1.00  0.00     0.029 A 
ATOM     52  N   UNL A   1      41.520  29.319  32.592  1.00  0.00    -0.354 N 
ATOM     53  N   UNL A   1      41.079  31.122  34.869  1.00  0.00    -0.248 NA
ATOM     54  C   UNL A   1      41.599  31.800  37.043  1.00  0.00     0.031 C 
ATOM     55  C   UNL A   1      43.236  27.912  32.679  1.00  0.00     0.029 A 
ATOM     56  C   UNL A   1      42.585  28.917  33.378  1.00  0.00     0.049 A 
ATOM     57  H   UNL A   1      40.872  30.019  32.834  1.00  0.00     0.167 HD
ATOM     58  C   UNL A   1      42.200  30.427  35.308  1.00  0.00     0.074 A 
ATOM     59  C   UNL A   1      42.501  30.917  36.637  1.00  0.00     0.031 C 
ATOM     60  C   UNL A   1      42.905  29.457  34.674  1.00  0.00     0.034 A 
BRANCH  47  61
ATOM     61  C   UNL A   1      40.605  27.840  29.170  1.00  0.00     0.023 A 
ATOM     62  C   UNL A   1      39.737  26.730  29.084  1.00  0.00     0.012 A 
ATOM     63  C   UNL A   1      41.493  28.103  28.109  1.00  0.00     0.148 A 
ATOM     64  C   UNL A   1      39.778  25.877  27.982  1.00  0.00     0.002 A 
ATOM     65  C   UNL A   1      41.497  27.273  26.992  1.00  0.00     0.091 A 
ATOM     66  F   UNL A   1      42.325  29.149  28.215  1.00  0.00    -0.205 F 
ATOM     67  C   UNL A   1      40.651  26.155  26.934  1.00  0.00     0.022 A 
BRANCH  65  68
ATOM     68  S   UNL A   1      42.528  27.587  25.556  1.00  0.00     0.127 S 
ATOM     69  O   UNL A   1      43.865  27.593  26.146  1.00  0.00    -0.237 OA
ATOM     70  O   UNL A   1      42.241  26.428  24.710  1.00  0.00    -0.237 OA
ATOM     71  O   UNL A   1      42.078  28.860  25.009  1.00  0.00    -0.744 OA
ENDBRANCH  65  68
ENDBRANCH  47  61
BRANCH  48  72
ATOM     72  C   UNL A   1      39.448  33.802  37.113  1.00  0.00     0.023 A 
ATOM     73  C   UNL A   1      39.903  35.135  37.085  1.00  0.00     0.012 A 
ATOM     74  C   UNL A   1      38.792  33.326  38.264  1.00  0.00     0.148 A 
ATOM     75  C   UNL A   1      39.735  35.969  38.191  1.00  0.00     0.002 A 
ATOM     76  C   UNL A   1      38.581  34.177  39.343  1.00  0.00     0.091 A 
ATOM     77  F   UNL A   1      38.378  32.050  38.278  1.00  0.00    -0.205 F 
ATOM     78  C   UNL A   1      39.066  35.495  39.315  1.00  0.00     0.022 A 
BRANCH  76  79
ATOM     79  S   UNL A   1      37.624  33.690  40.784  1.00  0.00     0.127 S 
ATOM     80  O   UNL A   1      36.416  33.145  40.169  1.00  0.00    -0.237 OA
ATOM     81  O   UNL A   1      38.498  32.695  41.408  1.00  0.00    -0.237 OA
ATOM     82  O   UNL A   1      37.445  34.905  41.566  1.00  0.00    -0.744 OA
ENDBRANCH  76  79
ENDBRANCH  48  72
BRANCH  60  83
ATOM     83  C   UNL A   1      44.094  28.876  35.394  1.00  0.00     0.023 A 
ATOM     84  C   UNL A   1      45.372  29.430  35.189  1.00  0.00     0.012 A 
ATOM     85  C   UNL A   1      43.930  27.839  36.334  1.00  0.00     0.148 A 
ATOM     86  C   UNL A   1      46.475  28.942  35.887  1.00  0.00     0.002 A 
ATOM     87  C   UNL A   1      45.026  27.389  37.060  1.00  0.00     0.091 A 
ATOM     88  F   UNL A   1      42.707  27.312  36.500  1.00  0.00    -0.205 F 
ATOM     89  C   UNL A   1      46.300  27.932  36.831  1.00  0.00     0.022 A 
BRANCH  87  90
ATOM     90  S   UNL A   1      44.876  26.161  38.362  1.00  0.00     0.127 S 
ATOM     91  O   UNL A   1      44.303  25.028  37.639  1.00  0.00    -0.237 OA
ATOM     92  O   UNL A   1      46.267  25.978  38.781  1.00  0.00    -0.237 OA
ATOM     93  O   UNL A   1      44.016  26.758  39.376  1.00  0.00    -0.744 OA
ENDBRANCH  87  90
ENDBRANCH  60  83
ENDBRANCH  34  35
ENDBRANCH  26  29
ENDBRANCH  24  25
ENDBRANCH   1  24
TORSDOF 16
ENDMDL
MODEL 2
REMARK VINA RESULT:     -12.1      2.530      8.301
REMARK SMILES CCc1cc2c(C)cc(=O)oc2cc1O[C@H](C)C(=O)NCCCNC(=O)c1ccc(-c2c3nc(c(-c4cccc(S(=O)(=O)[O-])c4F)c4ccc([nH]4)c(-c4cccc(S(=O)(=O)[O-])c4F)c4nc(c(-c5cccc(S(=O)(=O)[O-])c5F)c5ccc2[nH]5)C=C4)C=C3)cc1
REMARK SMILES IDX 22 1 21 2 20 3 18 4 19 5 16 7 17 8 15 9 14 10 3 11 4 12 5 13
REMARK SMILES IDX 13 14 6 15 12 16 7 17 8 18 11 19 9 20 10 21 2 22 1 23 23 24
REMARK SMILES IDX 24 25 25 26 26 28 27 29 28 30 89 31 29 32 88 33 30 34 31 35
REMARK SMILES IDX 32 36 82 37 33 38 87 39 81 40 83 41 34 42 86 43 80 44 79 45
REMARK SMILES IDX 35 47 67 48 47 49 66 50 48 51 51 52 65 53 84 54 49 55 50 56
REMARK SMILES IDX 64 58 85 59 52 60 36 61 37 62 45 63 38 64 40 65 46 66 39 67
REMARK SMILES IDX 41 68 42 69 43 70 44 71 68 72 69 73 77 74 70 75 72 76 78 77
REMARK SMILES IDX 71 78 73 79 74 80 75 81 76 82 53 83 54 84 62 85 55 86 57 87
REMARK SMILES IDX 63 88 56 89 58 90 59 91 60 92 61 93
REMARK H PARENT 20 6 24 27 83 46 51 57
REMARK Flexibility Score: inf
ROOT
ATOM      1  C   UNL A   1      31.533  29.249  25.474  1.00  0.00     0.042 C 
ENDROOT
BRANCH   1   2
ATOM      2  C   UNL A   1      31.493  28.947  23.982  1.00  0.00     0.118 C 
BRANCH   2   3
ATOM      3  N   UNL A   1      30.256  28.340  23.545  1.00  0.00    -0.353 N 
ATOM      4  C   UNL A   1      29.682  27.145  23.837  1.00  0.00     0.260 C 
ATOM      5  O   UNL A   1      28.493  27.032  23.507  1.00  0.00    -0.271 OA
ATOM      6  H   UNL A   1      29.734  28.895  22.922  1.00  0.00     0.163 HD
BRANCH   4   7
ATOM      7  C   UNL A   1      30.437  25.918  24.432  1.00  0.00     0.258 C 
ATOM      8  C   UNL A   1      29.901  25.574  25.819  1.00  0.00     0.064 C 
BRANCH   7   9
ATOM      9  O   UNL A   1      30.934  24.840  23.647  1.00  0.00    -0.480 OA
BRANCH   9  10
ATOM     10  C   UNL A   1      31.770  23.871  24.101  1.00  0.00     0.127 A 
ATOM     11  C   UNL A   1      33.148  24.171  24.096  1.00  0.00    -0.005 A 
ATOM     12  C   UNL A   1      34.079  23.153  24.415  1.00  0.00     0.019 A 
ATOM     13  C   UNL A   1      33.663  21.857  24.735  1.00  0.00     0.021 A 
ATOM     14  C   UNL A   1      31.352  22.631  24.565  1.00  0.00     0.094 A 
ATOM     15  C   UNL A   1      34.574  20.722  24.932  1.00  0.00    -0.033 A 
ATOM     16  C   UNL A   1      32.294  21.632  24.822  1.00  0.00     0.142 A 
ATOM     17  C   UNL A   1      36.054  20.938  25.004  1.00  0.00     0.045 C 
ATOM     18  C   UNL A   1      34.042  19.493  25.005  1.00  0.00     0.098 A 
ATOM     19  O   UNL A   1      31.772  20.344  25.054  1.00  0.00    -0.423 OA
ATOM     20  C   UNL A   1      32.595  19.237  24.955  1.00  0.00     0.336 A 
ATOM     21  O   UNL A   1      32.162  18.094  24.860  1.00  0.00    -0.246 OA
BRANCH  11  22
ATOM     22  C   UNL A   1      33.683  25.522  23.660  1.00  0.00     0.036 C 
ATOM     23  C   UNL A   1      34.077  26.456  24.798  1.00  0.00     0.009 C 
ENDBRANCH  11  22
ENDBRANCH   9  10
ENDBRANCH   7   9
ENDBRANCH   4   7
ENDBRANCH   2   3
ENDBRANCH   1   2
BRANCH   1  24
ATOM     24  C   UNL A   1      32.867  29.809  25.956  1.00  0.00     0.118 C 
BRANCH  24  25
ATOM     25  N   UNL A   1      32.770  31.179  26.450  1.00  0.00    -0.352 N 
ATOM     26  C   UNL A   1      33.541  31.874  27.350  1.00  0.00     0.251 C 
ATOM     27  H   UNL A   1      32.021  31.695  26.075  1.00  0.00     0.163 HD
ATOM     28  O   UNL A   1      33.175  33.000  27.686  1.00  0.00    -0.269 OA
BRANCH  26  29
ATOM     29  C   UNL A   1      34.775  31.294  27.929  1.00  0.00     0.039 A 
ATOM     30  C   UNL A   1      35.908  32.110  28.034  1.00  0.00     0.014 A 
ATOM     31  C   UNL A   1      34.845  29.964  28.343  1.00  0.00     0.014 A 
ATOM     32  C   UNL A   1      37.077  31.613  28.615  1.00  0.00     0.010 A 
ATOM     33  C   UNL A   1      35.973  29.501  29.012  1.00  0.00     0.010 A 
ATOM     34  C   UNL A   1      37.107  30.315  29.148  1.00  0.00    -0.014 A 
BRANCH  34  35
ATOM     35  C   UNL A   1      38.303  29.790  29.857  1.00  0.00     0.031 A 
ATOM     36  C   UNL A   1      38.656  30.302  31.228  1.00  0.00     0.074 A 
ATOM     37  C   UNL A   1      39.128  28.933  29.222  1.00  0.00     0.049 A 
ATOM     38  N   UNL A   1      39.707  30.042  31.962  1.00  0.00    -0.248 NA
ATOM     39  C   UNL A   1      37.725  31.265  31.842  1.00  0.00     0.031 C 
ATOM     40  C   UNL A   1      38.945  28.434  27.856  1.00  0.00     0.029 A 
ATOM     41  N   UNL A   1      40.303  28.354  29.630  1.00  0.00    -0.354 N 
ATOM     42  C   UNL A   1      39.591  30.844  33.092  1.00  0.00     0.074 A 
ATOM     43  C   UNL A   1      38.384  31.624  32.934  1.00  0.00     0.031 C 
ATOM     44  C   UNL A   1      39.965  27.618  27.545  1.00  0.00     0.029 A 
ATOM     45  C   UNL A   1      40.889  27.561  28.671  1.00  0.00     0.049 A 
ATOM     46  H   UNL A   1      40.691  28.493  30.525  1.00  0.00     0.167 HD
ATOM     47  C   UNL A   1      40.395  30.901  34.181  1.00  0.00     0.034 A 
ATOM     48  C   UNL A   1      42.045  26.866  28.695  1.00  0.00     0.034 A 
ATOM     49  C   UNL A   1      41.553  30.068  34.365  1.00  0.00     0.049 A 
ATOM     50  C   UNL A   1      42.878  26.886  29.948  1.00  0.00     0.074 A 
ATOM     51  C   UNL A   1      42.374  29.970  35.473  1.00  0.00     0.029 A 
ATOM     52  N   UNL A   1      42.052  29.188  33.417  1.00  0.00    -0.354 N 
ATOM     53  N   UNL A   1      42.663  27.525  31.073  1.00  0.00    -0.248 NA
ATOM     54  C   UNL A   1      44.094  26.059  29.951  1.00  0.00     0.031 C 
ATOM     55  C   UNL A   1      43.377  29.036  35.192  1.00  0.00     0.029 A 
ATOM     56  C   UNL A   1      43.170  28.543  33.913  1.00  0.00     0.049 A 
ATOM     57  H   UNL A   1      41.666  29.045  32.522  1.00  0.00     0.167 HD
ATOM     58  C   UNL A   1      43.696  27.153  31.926  1.00  0.00     0.074 A 
ATOM     59  C   UNL A   1      44.523  26.215  31.196  1.00  0.00     0.031 C 
ATOM     60  C   UNL A   1      43.948  27.567  33.193  1.00  0.00     0.034 A 
BRANCH  47  61
ATOM     61  C   UNL A   1      40.011  31.847  35.288  1.00  0.00     0.023 A 
ATOM     62  C   UNL A   1      40.587  33.135  35.330  1.00  0.00     0.012 A 
ATOM     63  C   UNL A   1      39.050  31.491  36.253  1.00  0.00     0.148 A 
ATOM     64  C   UNL A   1      40.243  34.037  36.335  1.00  0.00     0.002 A 
ATOM     65  C   UNL A   1      38.678  32.413  37.227  1.00  0.00     0.091 A 
ATOM     66  F   UNL A   1      38.527  30.257  36.213  1.00  0.00    -0.205 F 
ATOM     67  C   UNL A   1      39.282  33.680  37.276  1.00  0.00     0.022 A 
BRANCH  65  68
ATOM     68  S   UNL A   1      37.395  32.078  38.439  1.00  0.00     0.127 S 
ATOM     69  O   UNL A   1      37.178  30.645  38.253  1.00  0.00    -0.237 OA
ATOM     70  O   UNL A   1      38.055  32.437  39.695  1.00  0.00    -0.237 OA
ATOM     71  O   UNL A   1      36.273  32.935  38.082  1.00  0.00    -0.744 OA
ENDBRANCH  65  68
ENDBRANCH  47  61
BRANCH  48  72
ATOM     72  C   UNL A   1      42.434  26.029  27.526  1.00  0.00     0.023 A 
ATOM     73  C   UNL A   1      43.243  26.592  26.519  1.00  0.00     0.012 A 
ATOM     74  C   UNL A   1      42.044  24.680  27.417  1.00  0.00     0.148 A 
ATOM     75  C   UNL A   1      43.632  25.838  25.411  1.00  0.00     0.002 A 
ATOM     76  C   UNL A   1      42.477  23.919  26.337  1.00  0.00     0.091 A 
ATOM     77  F   UNL A   1      41.262  24.165  28.377  1.00  0.00    -0.205 F 
ATOM     78  C   UNL A   1      43.258  24.500  25.325  1.00  0.00     0.022 A 
BRANCH  76  79
ATOM     79  S   UNL A   1      42.147  22.158  26.204  1.00  0.00     0.127 S 
ATOM     80  O   UNL A   1      40.695  22.137  26.043  1.00  0.00    -0.237 OA
ATOM     81  O   UNL A   1      42.904  21.795  25.005  1.00  0.00    -0.237 OA
ATOM     82  O   UNL A   1      42.655  21.569  27.435  1.00  0.00    -0.744 OA
ENDBRANCH  76  79
ENDBRANCH  48  72
BRANCH  60  83
ATOM     83  C   UNL A   1      45.150  26.987  33.890  1.00  0.00     0.023 A 
ATOM     84  C   UNL A   1      46.381  27.669  33.838  1.00  0.00     0.012 A 
ATOM     85  C   UNL A   1      45.039  25.815  34.664  1.00  0.00     0.148 A 
ATOM     86  C   UNL A   1      47.492  27.178  34.521  1.00  0.00     0.002 A 
ATOM     87  C   UNL A   1      46.138  25.357  35.380  1.00  0.00     0.091 A 
ATOM     88  F   UNL A   1      43.863  25.170  34.684  1.00  0.00    -0.205 F 
ATOM     89  C   UNL A   1      47.367  26.031  35.302  1.00  0.00     0.022 A 
BRANCH  87  90
ATOM     90  S   UNL A   1      46.042  23.945  36.487  1.00  0.00     0.127 S 
ATOM     91  O   UNL A   1      45.726  22.861  35.559  1.00  0.00    -0.237 OA
ATOM     92  O   UNL A   1      47.393  23.895  37.048  1.00  0.00    -0.237 OA
ATOM     93  O   UNL A   1      45.000  24.266  37.454  1.00  0.00    -0.744 OA
ENDBRANCH  87  90
ENDBRANCH  60  83
ENDBRANCH  34  35
ENDBRANCH  26  29
ENDBRANCH  24  25
ENDBRANCH   1  24
TORSDOF 16
ENDMDL
MODEL 3
REMARK VINA RESULT:     -12.1      5.830     10.927
REMARK SMILES CCc1cc2c(C)cc(=O)oc2cc1O[C@H](C)C(=O)NCCCNC(=O)c1ccc(-c2c3nc(c(-c4cccc(S(=O)(=O)[O-])c4F)c4ccc([nH]4)c(-c4cccc(S(=O)(=O)[O-])c4F)c4nc(c(-c5cccc(S(=O)(=O)[O-])c5F)c5ccc2[nH]5)C=C4)C=C3)cc1
REMARK SMILES IDX 22 1 21 2 20 3 18 4 19 5 16 7 17 8 15 9 14 10 3 11 4 12 5 13
REMARK SMILES IDX 13 14 6 15 12 16 7 17 8 18 11 19 9 20 10 21 2 22 1 23 23 24
REMARK SMILES IDX 24 25 25 26 26 28 27 29 28 30 89 31 29 32 88 33 30 34 31 35
REMARK SMILES IDX 32 36 82 37 33 38 87 39 81 40 83 41 34 42 86 43 80 44 79 45
REMARK SMILES IDX 35 47 67 48 47 49 66 50 48 51 51 52 65 53 84 54 49 55 50 56
REMARK SMILES IDX 64 58 85 59 52 60 36 61 37 62 45 63 38 64 40 65 46 66 39 67
REMARK SMILES IDX 41 68 42 69 43 70 44 71 68 72 69 73 77 74 70 75 72 76 78 77
REMARK SMILES IDX 71 78 73 79 74 80 75 81 76 82 53 83 54 84 62 85 55 86 57 87
REMARK SMILES IDX 63 88 56 89 58 90 59 91 60 92 61 93
REMARK H PARENT 20 6 24 27 83 46 51 57
REMARK Flexibility Score: inf
ROOT
ATOM      1  C   UNL A   1      35.228  22.396  24.535  1.00  0.00     0.042 C 
ENDROOT
BRANCH   1   2
ATOM      2  C   UNL A   1      34.797  23.857  24.519  1.00  0.00     0.118 C 
BRANCH   2   3
ATOM      3  N   UNL A   1      34.563  24.378  23.192  1.00  0.00    -0.353 N 
ATOM      4  C   UNL A   1      33.453  24.895  22.606  1.00  0.00     0.260 C 
ATOM      5  O   UNL A   1      33.646  25.498  21.540  1.00  0.00    -0.271 OA
ATOM      6  H   UNL A   1      35.353  24.355  22.605  1.00  0.00     0.163 HD
BRANCH   4   7
ATOM      7  C   UNL A   1      31.996  24.681  23.117  1.00  0.00     0.258 C 
ATOM      8  C   UNL A   1      31.644  23.196  23.139  1.00  0.00     0.064 C 
BRANCH   7   9
ATOM      9  O   UNL A   1      31.372  25.507  24.093  1.00  0.00    -0.480 OA
BRANCH   9  10
ATOM     10  C   UNL A   1      31.099  26.827  23.933  1.00  0.00     0.127 A 
ATOM     11  C   UNL A   1      31.329  27.661  25.047  1.00  0.00    -0.005 A 
ATOM     12  C   UNL A   1      30.925  29.016  24.992  1.00  0.00     0.019 A 
ATOM     13  C   UNL A   1      30.302  29.547  23.858  1.00  0.00     0.021 A 
ATOM     14  C   UNL A   1      30.622  27.390  22.757  1.00  0.00     0.094 A 
ATOM     15  C   UNL A   1      29.728  30.897  23.786  1.00  0.00    -0.033 A 
ATOM     16  C   UNL A   1      30.183  28.716  22.750  1.00  0.00     0.142 A 
ATOM     17  C   UNL A   1      29.964  31.884  24.888  1.00  0.00     0.045 C 
ATOM     18  C   UNL A   1      28.961  31.200  22.729  1.00  0.00     0.098 A 
ATOM     19  O   UNL A   1      29.497  29.127  21.590  1.00  0.00    -0.423 OA
ATOM     20  C   UNL A   1      28.716  30.269  21.617  1.00  0.00     0.336 A 
ATOM     21  O   UNL A   1      27.881  30.523  20.756  1.00  0.00    -0.246 OA
BRANCH  11  22
ATOM     22  C   UNL A   1      31.904  27.136  26.349  1.00  0.00     0.036 C 
ATOM     23  C   UNL A   1      31.718  28.054  27.551  1.00  0.00     0.009 C 
ENDBRANCH  11  22
ENDBRANCH   9  10
ENDBRANCH   7   9
ENDBRANCH   4   7
ENDBRANCH   2   3
ENDBRANCH   1   2
BRANCH   1  24
ATOM     24  C   UNL A   1      35.922  21.971  25.825  1.00  0.00     0.118 C 
BRANCH  24  25
ATOM     25  N   UNL A   1      36.971  20.977  25.614  1.00  0.00    -0.352 N 
ATOM     26  C   UNL A   1      38.336  21.061  25.737  1.00  0.00     0.251 C 
ATOM     27  H   UNL A   1      36.642  20.093  25.333  1.00  0.00     0.163 HD
ATOM     28  O   UNL A   1      39.015  20.097  25.387  1.00  0.00    -0.269 OA
BRANCH  26  29
ATOM     29  C   UNL A   1      38.996  22.280  26.259  1.00  0.00     0.039 A 
ATOM     30  C   UNL A   1      40.033  22.130  27.188  1.00  0.00     0.014 A 
ATOM     31  C   UNL A   1      38.600  23.561  25.874  1.00  0.00     0.014 A 
ATOM     32  C   UNL A   1      40.711  23.253  27.669  1.00  0.00     0.010 A 
ATOM     33  C   UNL A   1      39.339  24.669  26.274  1.00  0.00     0.010 A 
ATOM     34  C   UNL A   1      40.397  24.532  27.184  1.00  0.00    -0.014 A 
BRANCH  34  35
ATOM     35  C   UNL A   1      41.161  25.735  27.603  1.00  0.00     0.031 A 
ATOM     36  C   UNL A   1      40.491  26.813  28.414  1.00  0.00     0.074 A 
ATOM     37  C   UNL A   1      42.423  25.907  27.162  1.00  0.00     0.049 A 
ATOM     38  N   UNL A   1      40.958  27.976  28.789  1.00  0.00    -0.248 NA
ATOM     39  C   UNL A   1      39.097  26.569  28.827  1.00  0.00     0.031 C 
ATOM     40  C   UNL A   1      43.153  24.979  26.293  1.00  0.00     0.029 A 
ATOM     41  N   UNL A   1      43.308  26.937  27.359  1.00  0.00    -0.354 N 
ATOM     42  C   UNL A   1      39.906  28.620  29.431  1.00  0.00     0.074 A 
ATOM     43  C   UNL A   1      38.766  27.733  29.367  1.00  0.00     0.031 C 
ATOM     44  C   UNL A   1      44.373  25.478  26.041  1.00  0.00     0.029 A 
ATOM     45  C   UNL A   1      44.504  26.772  26.700  1.00  0.00     0.049 A 
ATOM     46  H   UNL A   1      43.106  27.722  27.920  1.00  0.00     0.167 HD
ATOM     47  C   UNL A   1      39.898  29.825  30.050  1.00  0.00     0.034 A 
ATOM     48  C   UNL A   1      45.585  27.575  26.632  1.00  0.00     0.034 A 
ATOM     49  C   UNL A   1      41.055  30.669  30.174  1.00  0.00     0.049 A 
ATOM     50  C   UNL A   1      45.576  28.872  27.394  1.00  0.00     0.074 A 
ATOM     51  C   UNL A   1      41.183  31.857  30.871  1.00  0.00     0.029 A 
ATOM     52  N   UNL A   1      42.286  30.412  29.590  1.00  0.00    -0.354 N 
ATOM     53  N   UNL A   1      44.624  29.388  28.135  1.00  0.00    -0.248 NA
ATOM     54  C   UNL A   1      46.802  29.681  27.345  1.00  0.00     0.031 C 
ATOM     55  C   UNL A   1      42.490  32.324  30.700  1.00  0.00     0.029 A 
ATOM     56  C   UNL A   1      43.180  31.419  29.909  1.00  0.00     0.049 A 
ATOM     57  H   UNL A   1      42.493  29.628  29.031  1.00  0.00     0.167 HD
ATOM     58  C   UNL A   1      45.147  30.563  28.664  1.00  0.00     0.074 A 
ATOM     59  C   UNL A   1      46.507  30.670  28.178  1.00  0.00     0.031 C 
ATOM     60  C   UNL A   1      44.549  31.479  29.464  1.00  0.00     0.034 A 
BRANCH  47  61
ATOM     61  C   UNL A   1      38.614  30.270  30.700  1.00  0.00     0.023 A 
ATOM     62  C   UNL A   1      38.370  29.941  32.050  1.00  0.00     0.012 A 
ATOM     63  C   UNL A   1      37.675  31.053  30.002  1.00  0.00     0.148 A 
ATOM     64  C   UNL A   1      37.197  30.349  32.683  1.00  0.00     0.002 A 
ATOM     65  C   UNL A   1      36.527  31.496  30.654  1.00  0.00     0.091 A 
ATOM     66  F   UNL A   1      37.911  31.341  28.714  1.00  0.00    -0.205 F 
ATOM     67  C   UNL A   1      36.282  31.134  31.988  1.00  0.00     0.022 A 
BRANCH  65  68
ATOM     68  S   UNL A   1      35.323  32.574  29.871  1.00  0.00     0.127 S 
ATOM     69  O   UNL A   1      34.806  31.717  28.806  1.00  0.00    -0.237 OA
ATOM     70  O   UNL A   1      34.380  32.827  30.961  1.00  0.00    -0.237 OA
ATOM     71  O   UNL A   1      36.063  33.747  29.428  1.00  0.00    -0.744 OA
ENDBRANCH  65  68
ENDBRANCH  47  61
BRANCH  48  72
ATOM     72  C   UNL A   1      46.793  27.133  25.880  1.00  0.00     0.023 A 
ATOM     73  C   UNL A   1      47.672  26.208  26.479  1.00  0.00     0.012 A 
ATOM     74  C   UNL A   1      47.062  27.587  24.575  1.00  0.00     0.148 A 
ATOM     75  C   UNL A   1      48.810  25.767  25.804  1.00  0.00     0.002 A 
ATOM     76  C   UNL A   1      48.171  27.104  23.888  1.00  0.00     0.091 A 
ATOM     77  F   UNL A   1      46.222  28.478  24.026  1.00  0.00    -0.205 F 
ATOM     78  C   UNL A   1      49.055  26.206  24.507  1.00  0.00     0.022 A 
BRANCH  76  79
ATOM     79  S   UNL A   1      48.498  27.521  22.171  1.00  0.00     0.127 S 
ATOM     80  O   UNL A   1      47.248  28.166  21.777  1.00  0.00    -0.237 OA
ATOM     81  O   UNL A   1      49.644  28.423  22.289  1.00  0.00    -0.237 OA
ATOM     82  O   UNL A   1      48.794  26.258  21.510  1.00  0.00    -0.744 OA
ENDBRANCH  76  79
ENDBRANCH  48  72
BRANCH  60  83
ATOM     83  C   UNL A   1      45.365  32.669  29.895  1.00  0.00     0.023 A 
ATOM     84  C   UNL A   1      46.154  32.588  31.059  1.00  0.00     0.012 A 
ATOM     85  C   UNL A   1      45.416  33.833  29.102  1.00  0.00     0.148 A 
ATOM     86  C   UNL A   1      46.959  33.658  31.444  1.00  0.00     0.002 A 
ATOM     87  C   UNL A   1      46.257  34.877  29.467  1.00  0.00     0.091 A 
ATOM     88  F   UNL A   1      44.642  33.897  28.008  1.00  0.00    -0.205 F 
ATOM     89  C   UNL A   1      47.021  34.796  30.642  1.00  0.00     0.022 A 
BRANCH  87  90
ATOM     90  S   UNL A   1      46.472  36.338  28.444  1.00  0.00     0.127 S 
ATOM     91  O   UNL A   1      45.093  36.794  28.282  1.00  0.00    -0.237 OA
ATOM     92  O   UNL A   1      47.303  37.194  29.292  1.00  0.00    -0.237 OA
ATOM     93  O   UNL A   1      47.127  35.880  27.226  1.00  0.00    -0.744 OA
ENDBRANCH  87  90
ENDBRANCH  60  83
ENDBRANCH  34  35
ENDBRANCH  26  29
ENDBRANCH  24  25
ENDBRANCH   1  24
TORSDOF 16
ENDMDL
