MODEL 1
REMARK VINA RESULT:     -12.7      0.000      0.000
REMARK SMILES CC(C)[C@@H](NC(=O)[C@@H]1CC[C@H]2CCCC[C@@H]2[NH2+]1)C(=O)NCCCNC(=O)c1ccc(-c2c3nc(c(-c4cccc(S(=O)(=O)[O-])c4F)c4ccc([nH]4)c(-c4cccc(S(=O)(=O)[O-])c4F)c4nc(c(-c5cccc(S(=O)(=O)[O-])c5F)c5ccc2[nH]5)C=C4)C=C3)cc1
REMARK SMILES IDX 22 1 21 2 20 3 18 4 19 5 4 7 2 8 1 9 3 10 5 11 6 12 7 14
REMARK SMILES IDX 8 15 9 16 17 17 10 18 16 19 11 22 15 23 12 24 14 25 13 26
REMARK SMILES IDX 23 27 24 28 25 29 26 31 27 32 28 33 89 34 29 35 88 36 30 37
REMARK SMILES IDX 31 38 32 39 82 40 33 41 87 42 81 43 83 44 34 45 86 46 80 47
REMARK SMILES IDX 79 48 35 50 67 51 47 52 66 53 48 54 51 55 65 56 84 57 49 58
REMARK SMILES IDX 50 59 64 61 85 62 52 63 36 64 37 65 45 66 38 67 40 68 46 69
REMARK SMILES IDX 39 70 41 71 42 72 43 73 44 74 68 75 69 76 77 77 70 78 72 79
REMARK SMILES IDX 78 80 71 81 73 82 74 83 75 84 76 85 53 86 54 87 62 88 55 89
REMARK SMILES IDX 57 90 63 91 56 92 58 93 59 94 60 95 61 96
REMARK H PARENT 20 6 5 13 17 20 17 21 24 30 83 49 51 60
REMARK Flexibility Score: inf
ROOT
ATOM      1  C   UNL A   1      32.440  29.936  25.521  1.00  0.00     0.042 C 
ENDROOT
BRANCH   1   2
ATOM      2  C   UNL A   1      33.497  28.894  25.230  1.00  0.00     0.117 C 
BRANCH   2   3
ATOM      3  N   UNL A   1      33.909  28.890  23.836  1.00  0.00    -0.354 N 
ATOM      4  C   UNL A   1      33.776  27.956  22.860  1.00  0.00     0.242 C 
ATOM      5  O   UNL A   1      34.181  28.259  21.733  1.00  0.00    -0.273 OA
ATOM      6  H   UNL A   1      34.367  29.713  23.548  1.00  0.00     0.163 HD
BRANCH   4   7
ATOM      7  C   UNL A   1      33.178  26.560  23.117  1.00  0.00     0.174 C 
BRANCH   7   8
ATOM      8  C   UNL A   1      31.754  26.447  22.475  1.00  0.00     0.015 C 
ATOM      9  C   UNL A   1      30.938  27.741  22.556  1.00  0.00     0.010 C 
ATOM     10  C   UNL A   1      31.801  25.987  21.009  1.00  0.00     0.010 C 
ENDBRANCH   7   8
BRANCH   7  11
ATOM     11  N   UNL A   1      34.072  25.450  22.721  1.00  0.00    -0.339 N 
ATOM     12  C   UNL A   1      34.159  24.177  23.248  1.00  0.00     0.278 C 
ATOM     13  H   UNL A   1      34.690  25.647  21.979  1.00  0.00     0.164 HD
ATOM     14  O   UNL A   1      34.334  23.265  22.434  1.00  0.00    -0.268 OA
BRANCH  12  15
ATOM     15  C   UNL A   1      34.180  23.958  24.796  1.00  0.00     0.272 C 
ATOM     16  C   UNL A   1      35.597  23.546  25.232  1.00  0.00     0.076 C 
ATOM     17  N   UNL A   1      33.098  23.053  25.243  1.00  0.00    -0.333 N 
ATOM     18  C   UNL A   1      35.852  22.072  25.503  1.00  0.00     0.016 C 
ATOM     19  C   UNL A   1      33.440  21.630  25.390  1.00  0.00     0.186 C 
ATOM     20  H   UNL A   1      32.340  23.120  24.563  1.00  0.00     0.347 HD
ATOM     21  H   UNL A   1      32.857  23.369  26.183  1.00  0.00     0.347 HD
ATOM     22  C   UNL A   1      34.803  21.229  24.805  1.00  0.00     0.048 C 
ATOM     23  C   UNL A   1      32.315  20.762  24.819  1.00  0.00     0.065 C 
ATOM     24  C   UNL A   1      35.091  19.735  24.979  1.00  0.00     0.010 C 
ATOM     25  C   UNL A   1      32.619  19.270  24.972  1.00  0.00     0.006 C 
ATOM     26  C   UNL A   1      33.972  18.896  24.375  1.00  0.00     0.001 C 
ENDBRANCH  12  15
ENDBRANCH   7  11
ENDBRANCH   4   7
ENDBRANCH   2   3
ENDBRANCH   1   2
BRANCH   1  27
ATOM     27  C   UNL A   1      32.368  30.366  26.976  1.00  0.00     0.118 C 
BRANCH  27  28
ATOM     28  N   UNL A   1      32.385  31.812  27.187  1.00  0.00    -0.352 N 
ATOM     29  C   UNL A   1      33.421  32.612  27.614  1.00  0.00     0.251 C 
ATOM     30  H   UNL A   1      31.539  32.278  26.997  1.00  0.00     0.163 HD
ATOM     31  O   UNL A   1      33.259  33.814  27.801  1.00  0.00    -0.269 OA
BRANCH  29  32
ATOM     32  C   UNL A   1      34.720  31.972  27.887  1.00  0.00     0.039 A 
ATOM     33  C   UNL A   1      35.863  32.765  27.995  1.00  0.00     0.014 A 
ATOM     34  C   UNL A   1      34.750  30.617  28.216  1.00  0.00     0.014 A 
ATOM     35  C   UNL A   1      37.017  32.217  28.555  1.00  0.00     0.010 A 
ATOM     36  C   UNL A   1      35.848  30.121  28.898  1.00  0.00     0.010 A 
ATOM     37  C   UNL A   1      36.995  30.912  29.073  1.00  0.00    -0.014 A 
BRANCH  37  38
ATOM     38  C   UNL A   1      38.144  30.334  29.813  1.00  0.00     0.031 A 
ATOM     39  C   UNL A   1      38.408  30.780  31.226  1.00  0.00     0.074 A 
ATOM     40  C   UNL A   1      39.018  29.525  29.180  1.00  0.00     0.049 A 
ATOM     41  N   UNL A   1      39.429  30.520  31.997  1.00  0.00    -0.248 NA
ATOM     42  C   UNL A   1      37.421  31.693  31.829  1.00  0.00     0.031 C 
ATOM     43  C   UNL A   1      38.926  29.102  27.779  1.00  0.00     0.029 A 
ATOM     44  N   UNL A   1      40.169  28.929  29.627  1.00  0.00    -0.354 N 
ATOM     45  C   UNL A   1      39.236  31.282  33.143  1.00  0.00     0.074 A 
ATOM     46  C   UNL A   1      38.037  32.062  32.941  1.00  0.00     0.031 C 
ATOM     47  C   UNL A   1      39.959  28.292  27.494  1.00  0.00     0.029 A 
ATOM     48  C   UNL A   1      40.802  28.161  28.676  1.00  0.00     0.049 A 
ATOM     49  H   UNL A   1      40.511  29.041  30.543  1.00  0.00     0.167 HD
ATOM     50  C   UNL A   1      39.962  31.297  34.286  1.00  0.00     0.034 A 
ATOM     51  C   UNL A   1      41.930  27.428  28.758  1.00  0.00     0.034 A 
ATOM     52  C   UNL A   1      41.098  30.449  34.513  1.00  0.00     0.049 A 
ATOM     53  C   UNL A   1      42.667  27.383  30.068  1.00  0.00     0.074 A 
ATOM     54  C   UNL A   1      41.844  30.298  35.666  1.00  0.00     0.029 A 
ATOM     55  N   UNL A   1      41.637  29.593  33.566  1.00  0.00    -0.354 N 
ATOM     56  N   UNL A   1      42.388  27.997  31.193  1.00  0.00    -0.248 NA
ATOM     57  C   UNL A   1      43.853  26.518  30.134  1.00  0.00     0.031 C 
ATOM     58  C   UNL A   1      42.839  29.346  35.415  1.00  0.00     0.029 A 
ATOM     59  C   UNL A   1      42.705  28.901  34.109  1.00  0.00     0.049 A 
ATOM     60  H   UNL A   1      41.311  29.492  32.643  1.00  0.00     0.167 HD
ATOM     61  C   UNL A   1      43.337  27.565  32.111  1.00  0.00     0.074 A 
ATOM     62  C   UNL A   1      44.191  26.623  31.413  1.00  0.00     0.031 C 
ATOM     63  C   UNL A   1      43.499  27.922  33.409  1.00  0.00     0.034 A 
BRANCH  50  64
ATOM     64  C   UNL A   1      39.484  32.202  35.391  1.00  0.00     0.023 A 
ATOM     65  C   UNL A   1      38.526  31.725  36.312  1.00  0.00     0.012 A 
ATOM     66  C   UNL A   1      39.968  33.517  35.523  1.00  0.00     0.148 A 
ATOM     67  C   UNL A   1      38.015  32.557  37.306  1.00  0.00     0.002 A 
ATOM     68  C   UNL A   1      39.491  34.326  36.550  1.00  0.00     0.091 A 
ATOM     69  F   UNL A   1      40.857  33.968  34.626  1.00  0.00    -0.205 F 
ATOM     70  C   UNL A   1      38.503  33.854  37.430  1.00  0.00     0.022 A 
BRANCH  68  71
ATOM     71  S   UNL A   1      40.121  35.984  36.835  1.00  0.00     0.127 S 
ATOM     72  O   UNL A   1      41.548  35.730  37.024  1.00  0.00    -0.237 OA
ATOM     73  O   UNL A   1      39.785  36.665  35.583  1.00  0.00    -0.237 OA
ATOM     74  O   UNL A   1      39.405  36.482  38.001  1.00  0.00    -0.744 OA
ENDBRANCH  68  71
ENDBRANCH  50  64
BRANCH  51  75
ATOM     75  C   UNL A   1      42.352  26.582  27.604  1.00  0.00     0.023 A 
ATOM     76  C   UNL A   1      43.206  27.140  26.631  1.00  0.00     0.012 A 
ATOM     77  C   UNL A   1      41.969  25.233  27.486  1.00  0.00     0.148 A 
ATOM     78  C   UNL A   1      43.648  26.380  25.548  1.00  0.00     0.002 A 
ATOM     79  C   UNL A   1      42.452  24.466  26.429  1.00  0.00     0.091 A 
ATOM     80  F   UNL A   1      41.152  24.721  28.416  1.00  0.00    -0.205 F 
ATOM     81  C   UNL A   1      43.280  25.042  25.452  1.00  0.00     0.022 A 
BRANCH  79  82
ATOM     82  S   UNL A   1      42.136  22.703  26.289  1.00  0.00     0.127 S 
ATOM     83  O   UNL A   1      42.788  22.185  27.488  1.00  0.00    -0.237 OA
ATOM     84  O   UNL A   1      40.674  22.655  26.312  1.00  0.00    -0.237 OA
ATOM     85  O   UNL A   1      42.728  22.297  25.021  1.00  0.00    -0.744 OA
ENDBRANCH  79  82
ENDBRANCH  51  75
BRANCH  63  86
ATOM     86  C   UNL A   1      44.617  27.270  34.175  1.00  0.00     0.023 A 
ATOM     87  C   UNL A   1      45.872  27.903  34.249  1.00  0.00     0.012 A 
ATOM     88  C   UNL A   1      44.394  26.079  34.893  1.00  0.00     0.148 A 
ATOM     89  C   UNL A   1      46.900  27.345  35.007  1.00  0.00     0.002 A 
ATOM     90  C   UNL A   1      45.409  25.554  35.684  1.00  0.00     0.091 A 
ATOM     91  F   UNL A   1      43.197  25.483  34.790  1.00  0.00    -0.205 F 
ATOM     92  C   UNL A   1      46.665  26.180  35.734  1.00  0.00     0.022 A 
BRANCH  90  93
ATOM     93  S   UNL A   1      45.158  24.112  36.725  1.00  0.00     0.127 S 
ATOM     94  O   UNL A   1      46.533  23.736  37.049  1.00  0.00    -0.237 OA
ATOM     95  O   UNL A   1      44.398  24.666  37.847  1.00  0.00    -0.237 OA
ATOM     96  O   UNL A   1      44.417  23.158  35.911  1.00  0.00    -0.744 OA
ENDBRANCH  90  93
ENDBRANCH  63  86
ENDBRANCH  37  38
ENDBRANCH  29  32
ENDBRANCH  27  28
ENDBRANCH   1  27
TORSDOF 16
ENDMDL
MODEL 2
REMARK VINA RESULT:     -12.6      1.276      1.948
REMARK SMILES CC(C)[C@@H](NC(=O)[C@@H]1CC[C@H]2CCCC[C@@H]2[NH2+]1)C(=O)NCCCNC(=O)c1ccc(-c2c3nc(c(-c4cccc(S(=O)(=O)[O-])c4F)c4ccc([nH]4)c(-c4cccc(S(=O)(=O)[O-])c4F)c4nc(c(-c5cccc(S(=O)(=O)[O-])c5F)c5ccc2[nH]5)C=C4)C=C3)cc1
REMARK SMILES IDX 22 1 21 2 20 3 18 4 19 5 4 7 2 8 1 9 3 10 5 11 6 12 7 14
REMARK SMILES IDX 8 15 9 16 17 17 10 18 16 19 11 22 15 23 12 24 14 25 13 26
REMARK SMILES IDX 23 27 24 28 25 29 26 31 27 32 28 33 89 34 29 35 88 36 30 37
REMARK SMILES IDX 31 38 32 39 82 40 33 41 87 42 81 43 83 44 34 45 86 46 80 47
REMARK SMILES IDX 79 48 35 50 67 51 47 52 66 53 48 54 51 55 65 56 84 57 49 58
REMARK SMILES IDX 50 59 64 61 85 62 52 63 36 64 37 65 45 66 38 67 40 68 46 69
REMARK SMILES IDX 39 70 41 71 42 72 43 73 44 74 68 75 69 76 77 77 70 78 72 79
REMARK SMILES IDX 78 80 71 81 73 82 74 83 75 84 76 85 53 86 54 87 62 88 55 89
REMARK SMILES IDX 57 90 63 91 56 92 58 93 59 94 60 95 61 96
REMARK H PARENT 20 6 5 13 17 20 17 21 24 30 83 49 51 60
REMARK Flexibility Score: inf
ROOT
ATOM      1  C   UNL A   1      31.734  29.349  27.144  1.00  0.00     0.042 C 
ENDROOT
BRANCH   1   2
ATOM      2  C   UNL A   1      32.194  27.916  26.999  1.00  0.00     0.117 C 
BRANCH   2   3
ATOM      3  N   UNL A   1      31.088  26.972  26.990  1.00  0.00    -0.354 N 
ATOM      4  C   UNL A   1      30.464  26.326  25.972  1.00  0.00     0.242 C 
ATOM      5  O   UNL A   1      29.574  25.524  26.277  1.00  0.00    -0.273 OA
ATOM      6  H   UNL A   1      30.727  26.765  27.881  1.00  0.00     0.163 HD
BRANCH   4   7
ATOM      7  C   UNL A   1      30.804  26.577  24.490  1.00  0.00     0.174 C 
BRANCH   7   8
ATOM      8  C   UNL A   1      30.203  27.943  24.015  1.00  0.00     0.015 C 
ATOM      9  C   UNL A   1      31.149  28.756  23.127  1.00  0.00     0.010 C 
ATOM     10  C   UNL A   1      28.862  27.776  23.283  1.00  0.00     0.010 C 
ENDBRANCH   7   8
BRANCH   7  11
ATOM     11  N   UNL A   1      32.245  26.451  24.183  1.00  0.00    -0.339 N 
ATOM     12  C   UNL A   1      32.934  25.360  23.690  1.00  0.00     0.278 C 
ATOM     13  H   UNL A   1      32.787  27.255  24.354  1.00  0.00     0.164 HD
ATOM     14  O   UNL A   1      33.813  25.606  22.858  1.00  0.00    -0.268 OA
BRANCH  12  15
ATOM     15  C   UNL A   1      32.691  23.933  24.283  1.00  0.00     0.272 C 
ATOM     16  C   UNL A   1      32.698  24.013  25.819  1.00  0.00     0.076 C 
ATOM     17  N   UNL A   1      33.609  22.929  23.703  1.00  0.00    -0.333 N 
ATOM     18  C   UNL A   1      33.961  23.575  26.545  1.00  0.00     0.016 C 
ATOM     19  C   UNL A   1      34.844  22.646  24.451  1.00  0.00     0.186 C 
ATOM     20  H   UNL A   1      33.879  23.257  22.775  1.00  0.00     0.347 HD
ATOM     21  H   UNL A   1      33.085  22.053  23.710  1.00  0.00     0.347 HD
ATOM     22  C   UNL A   1      35.143  23.625  25.597  1.00  0.00     0.048 C 
ATOM     23  C   UNL A   1      36.028  22.547  23.485  1.00  0.00     0.065 C 
ATOM     24  C   UNL A   1      36.446  23.283  26.324  1.00  0.00     0.010 C 
ATOM     25  C   UNL A   1      37.333  22.231  24.219  1.00  0.00     0.006 C 
ATOM     26  C   UNL A   1      37.612  23.222  25.344  1.00  0.00     0.001 C 
ENDBRANCH  12  15
ENDBRANCH   7  11
ENDBRANCH   4   7
ENDBRANCH   2   3
ENDBRANCH   1   2
BRANCH   1  27
ATOM     27  C   UNL A   1      32.602  30.362  26.416  1.00  0.00     0.118 C 
BRANCH  27  28
ATOM     28  N   UNL A   1      32.507  31.727  26.929  1.00  0.00    -0.352 N 
ATOM     29  C   UNL A   1      33.446  32.459  27.622  1.00  0.00     0.251 C 
ATOM     30  H   UNL A   1      31.654  32.187  26.755  1.00  0.00     0.163 HD
ATOM     31  O   UNL A   1      33.190  33.583  28.040  1.00  0.00    -0.269 OA
BRANCH  29  32
ATOM     32  C   UNL A   1      34.752  31.831  27.886  1.00  0.00     0.039 A 
ATOM     33  C   UNL A   1      35.883  32.637  28.015  1.00  0.00     0.014 A 
ATOM     34  C   UNL A   1      34.800  30.470  28.186  1.00  0.00     0.014 A 
ATOM     35  C   UNL A   1      37.043  32.094  28.568  1.00  0.00     0.010 A 
ATOM     36  C   UNL A   1      35.902  29.975  28.862  1.00  0.00     0.010 A 
ATOM     37  C   UNL A   1      37.037  30.777  29.059  1.00  0.00    -0.014 A 
BRANCH  37  38
ATOM     38  C   UNL A   1      38.192  30.200  29.791  1.00  0.00     0.031 A 
ATOM     39  C   UNL A   1      38.446  30.622  31.213  1.00  0.00     0.074 A 
ATOM     40  C   UNL A   1      39.077  29.414  29.144  1.00  0.00     0.049 A 
ATOM     41  N   UNL A   1      39.468  30.360  31.982  1.00  0.00    -0.248 NA
ATOM     42  C   UNL A   1      37.445  31.510  31.830  1.00  0.00     0.031 C 
ATOM     43  C   UNL A   1      38.995  29.018  27.735  1.00  0.00     0.029 A 
ATOM     44  N   UNL A   1      40.235  28.824  29.583  1.00  0.00    -0.354 N 
ATOM     45  C   UNL A   1      39.262  31.097  33.141  1.00  0.00     0.074 A 
ATOM     46  C   UNL A   1      38.053  31.865  32.950  1.00  0.00     0.031 C 
ATOM     47  C   UNL A   1      40.039  28.226  27.438  1.00  0.00     0.029 A 
ATOM     48  C   UNL A   1      40.880  28.083  28.620  1.00  0.00     0.049 A 
ATOM     49  H   UNL A   1      40.573  28.923  30.503  1.00  0.00     0.167 HD
ATOM     50  C   UNL A   1      39.984  31.099  34.287  1.00  0.00     0.034 A 
ATOM     51  C   UNL A   1      42.016  27.362  28.691  1.00  0.00     0.034 A 
ATOM     52  C   UNL A   1      41.130  30.261  34.501  1.00  0.00     0.049 A 
ATOM     53  C   UNL A   1      42.751  27.302  30.003  1.00  0.00     0.074 A 
ATOM     54  C   UNL A   1      41.875  30.097  35.653  1.00  0.00     0.029 A 
ATOM     55  N   UNL A   1      41.683  29.430  33.539  1.00  0.00    -0.354 N 
ATOM     56  N   UNL A   1      42.460  27.890  31.139  1.00  0.00    -0.248 NA
ATOM     57  C   UNL A   1      43.947  26.450  30.055  1.00  0.00     0.031 C 
ATOM     58  C   UNL A   1      42.883  29.163  35.387  1.00  0.00     0.029 A 
ATOM     59  C   UNL A   1      42.758  28.741  34.071  1.00  0.00     0.049 A 
ATOM     60  H   UNL A   1      41.361  29.343  32.613  1.00  0.00     0.167 HD
ATOM     61  C   UNL A   1      43.412  27.452  32.051  1.00  0.00     0.074 A 
ATOM     62  C   UNL A   1      44.280  26.535  31.337  1.00  0.00     0.031 C 
ATOM     63  C   UNL A   1      43.566  27.786  33.356  1.00  0.00     0.034 A 
BRANCH  50  64
ATOM     64  C   UNL A   1      39.491  31.976  35.408  1.00  0.00     0.023 A 
ATOM     65  C   UNL A   1      38.536  31.469  36.316  1.00  0.00     0.012 A 
ATOM     66  C   UNL A   1      39.959  33.294  35.567  1.00  0.00     0.148 A 
ATOM     67  C   UNL A   1      38.012  32.276  37.324  1.00  0.00     0.002 A 
ATOM     68  C   UNL A   1      39.469  34.077  36.608  1.00  0.00     0.091 A 
ATOM     69  F   UNL A   1      40.845  33.773  34.682  1.00  0.00    -0.205 F 
ATOM     70  C   UNL A   1      38.484  33.576  37.475  1.00  0.00     0.022 A 
BRANCH  68  71
ATOM     71  S   UNL A   1      40.078  35.736  36.927  1.00  0.00     0.127 S 
ATOM     72  O   UNL A   1      39.386  36.072  38.170  1.00  0.00    -0.237 OA
ATOM     73  O   UNL A   1      41.518  35.518  37.072  1.00  0.00    -0.237 OA
ATOM     74  O   UNL A   1      39.703  36.524  35.760  1.00  0.00    -0.744 OA
ENDBRANCH  68  71
ENDBRANCH  50  64
BRANCH  51  75
ATOM     75  C   UNL A   1      42.453  26.545  27.523  1.00  0.00     0.023 A 
ATOM     76  C   UNL A   1      43.269  27.144  26.542  1.00  0.00     0.012 A 
ATOM     77  C   UNL A   1      42.120  25.183  27.396  1.00  0.00     0.148 A 
ATOM     78  C   UNL A   1      43.723  26.413  25.445  1.00  0.00     0.002 A 
ATOM     79  C   UNL A   1      42.616  24.445  26.325  1.00  0.00     0.091 A 
ATOM     80  F   UNL A   1      41.339  24.630  28.335  1.00  0.00    -0.205 F 
ATOM     81  C   UNL A   1      43.405  25.062  25.341  1.00  0.00     0.022 A 
BRANCH  79  82
ATOM     82  S   UNL A   1      42.366  22.672  26.172  1.00  0.00     0.127 S 
ATOM     83  O   UNL A   1      40.910  22.577  26.139  1.00  0.00    -0.237 OA
ATOM     84  O   UNL A   1      43.032  22.382  24.902  1.00  0.00    -0.237 OA
ATOM     85  O   UNL A   1      43.014  22.082  27.336  1.00  0.00    -0.744 OA
ENDBRANCH  79  82
ENDBRANCH  51  75
BRANCH  63  86
ATOM     86  C   UNL A   1      44.690  27.134  34.112  1.00  0.00     0.023 A 
ATOM     87  C   UNL A   1      45.976  27.706  34.081  1.00  0.00     0.012 A 
ATOM     88  C   UNL A   1      44.449  26.008  34.924  1.00  0.00     0.148 A 
ATOM     89  C   UNL A   1      47.014  27.151  34.827  1.00  0.00     0.002 A 
ATOM     90  C   UNL A   1      45.477  25.488  35.701  1.00  0.00     0.091 A 
ATOM     91  F   UNL A   1      43.221  25.467  34.921  1.00  0.00    -0.205 F 
ATOM     92  C   UNL A   1      46.762  26.053  35.646  1.00  0.00     0.022 A 
BRANCH  90  93
ATOM     93  S   UNL A   1      45.213  24.137  36.854  1.00  0.00     0.127 S 
ATOM     94  O   UNL A   1      44.709  23.087  35.972  1.00  0.00    -0.237 OA
ATOM     95  O   UNL A   1      46.561  23.903  37.374  1.00  0.00    -0.237 OA
ATOM     96  O   UNL A   1      44.267  24.638  37.842  1.00  0.00    -0.744 OA
ENDBRANCH  90  93
ENDBRANCH  63  86
ENDBRANCH  37  38
ENDBRANCH  29  32
ENDBRANCH  27  28
ENDBRANCH   1  27
TORSDOF 16
ENDMDL
MODEL 3
REMARK VINA RESULT:     -12.5      4.780     10.349
REMARK SMILES CC(C)[C@@H](NC(=O)[C@@H]1CC[C@H]2CCCC[C@@H]2[NH2+]1)C(=O)NCCCNC(=O)c1ccc(-c2c3nc(c(-c4cccc(S(=O)(=O)[O-])c4F)c4ccc([nH]4)c(-c4cccc(S(=O)(=O)[O-])c4F)c4nc(c(-c5cccc(S(=O)(=O)[O-])c5F)c5ccc2[nH]5)C=C4)C=C3)cc1
REMARK SMILES IDX 22 1 21 2 20 3 18 4 19 5 4 7 2 8 1 9 3 10 5 11 6 12 7 14
REMARK SMILES IDX 8 15 9 16 17 17 10 18 16 19 11 22 15 23 12 24 14 25 13 26
REMARK SMILES IDX 23 27 24 28 25 29 26 31 27 32 28 33 89 34 29 35 88 36 30 37
REMARK SMILES IDX 31 38 32 39 82 40 33 41 87 42 81 43 83 44 34 45 86 46 80 47
REMARK SMILES IDX 79 48 35 50 67 51 47 52 66 53 48 54 51 55 65 56 84 57 49 58
REMARK SMILES IDX 50 59 64 61 85 62 52 63 36 64 37 65 45 66 38 67 40 68 46 69
REMARK SMILES IDX 39 70 41 71 42 72 43 73 44 74 68 75 69 76 77 77 70 78 72 79
REMARK SMILES IDX 78 80 71 81 73 82 74 83 75 84 76 85 53 86 54 87 62 88 55 89
REMARK SMILES IDX 57 90 63 91 56 92 58 93 59 94 60 95 61 96
REMARK H PARENT 20 6 5 13 17 20 17 21 24 30 83 49 51 60
REMARK Flexibility Score: inf
ROOT
ATOM      1  C   UNL A   1      36.323  21.113  25.576  1.00  0.00     0.042 C 
ENDROOT
BRANCH   1   2
ATOM      2  C   UNL A   1      35.450  22.323  25.819  1.00  0.00     0.117 C 
BRANCH   2   3
ATOM      3  N   UNL A   1      34.588  22.167  26.980  1.00  0.00    -0.354 N 
ATOM      4  C   UNL A   1      33.322  22.591  27.225  1.00  0.00     0.242 C 
ATOM      5  O   UNL A   1      32.815  22.255  28.301  1.00  0.00    -0.273 OA
ATOM      6  H   UNL A   1      34.996  21.663  27.720  1.00  0.00     0.163 HD
BRANCH   4   7
ATOM      7  C   UNL A   1      32.534  23.479  26.243  1.00  0.00     0.174 C 
BRANCH   7   8
ATOM      8  C   UNL A   1      31.606  22.601  25.337  1.00  0.00     0.015 C 
ATOM      9  C   UNL A   1      31.416  23.163  23.925  1.00  0.00     0.010 C 
ATOM     10  C   UNL A   1      32.091  21.147  25.226  1.00  0.00     0.010 C 
ENDBRANCH   7   8
BRANCH   7  11
ATOM     11  N   UNL A   1      31.807  24.587  26.899  1.00  0.00    -0.339 N 
ATOM     12  C   UNL A   1      31.602  25.876  26.447  1.00  0.00     0.278 C 
ATOM     13  H   UNL A   1      31.416  24.377  27.778  1.00  0.00     0.164 HD
ATOM     14  O   UNL A   1      30.487  26.358  26.671  1.00  0.00    -0.268 OA
BRANCH  12  15
ATOM     15  C   UNL A   1      32.780  26.697  25.828  1.00  0.00     0.272 C 
ATOM     16  C   UNL A   1      32.969  27.998  26.626  1.00  0.00     0.076 C 
ATOM     17  N   UNL A   1      32.625  26.874  24.367  1.00  0.00    -0.333 N 
ATOM     18  C   UNL A   1      32.400  29.279  26.035  1.00  0.00     0.016 C 
ATOM     19  C   UNL A   1      31.984  28.119  23.913  1.00  0.00     0.186 C 
ATOM     20  H   UNL A   1      32.066  26.094  24.020  1.00  0.00     0.347 HD
ATOM     21  H   UNL A   1      33.576  26.914  24.000  1.00  0.00     0.347 HD
ATOM     22  C   UNL A   1      31.321  28.946  25.024  1.00  0.00     0.048 C 
ATOM     23  C   UNL A   1      30.994  27.813  22.785  1.00  0.00     0.065 C 
ATOM     24  C   UNL A   1      30.662  30.218  24.483  1.00  0.00     0.010 C 
ATOM     25  C   UNL A   1      30.319  29.084  22.265  1.00  0.00     0.006 C 
ATOM     26  C   UNL A   1      29.660  29.882  23.385  1.00  0.00     0.001 C 
ENDBRANCH  12  15
ENDBRANCH   7  11
ENDBRANCH   4   7
ENDBRANCH   2   3
ENDBRANCH   1   2
BRANCH   1  27
ATOM     27  C   UNL A   1      37.706  21.437  25.038  1.00  0.00     0.118 C 
BRANCH  27  28
ATOM     28  N   UNL A   1      38.744  20.475  25.402  1.00  0.00    -0.352 N 
ATOM     29  C   UNL A   1      39.845  20.654  26.211  1.00  0.00     0.251 C 
ATOM     30  H   UNL A   1      38.642  19.575  25.017  1.00  0.00     0.163 HD
ATOM     31  O   UNL A   1      40.665  19.756  26.373  1.00  0.00    -0.269 OA
BRANCH  29  32
ATOM     32  C   UNL A   1      40.033  21.974  26.838  1.00  0.00     0.039 A 
ATOM     33  C   UNL A   1      40.924  22.102  27.904  1.00  0.00     0.014 A 
ATOM     34  C   UNL A   1      39.462  23.095  26.237  1.00  0.00     0.014 A 
ATOM     35  C   UNL A   1      41.339  23.378  28.289  1.00  0.00     0.010 A 
ATOM     36  C   UNL A   1      39.983  24.345  26.528  1.00  0.00     0.010 A 
ATOM     37  C   UNL A   1      40.924  24.503  27.557  1.00  0.00    -0.014 A 
BRANCH  37  38
ATOM     38  C   UNL A   1      41.453  25.862  27.829  1.00  0.00     0.031 A 
ATOM     39  C   UNL A   1      42.855  26.204  27.402  1.00  0.00     0.074 A 
ATOM     40  C   UNL A   1      40.734  26.732  28.568  1.00  0.00     0.049 A 
ATOM     41  N   UNL A   1      43.561  27.270  27.665  1.00  0.00    -0.248 NA
ATOM     42  C   UNL A   1      43.580  25.182  26.627  1.00  0.00     0.031 C 
ATOM     43  C   UNL A   1      39.403  26.478  29.128  1.00  0.00     0.029 A 
ATOM     44  N   UNL A   1      41.033  28.001  28.996  1.00  0.00    -0.354 N 
ATOM     45  C   UNL A   1      44.825  27.019  27.145  1.00  0.00     0.074 A 
ATOM     46  C   UNL A   1      44.807  25.678  26.608  1.00  0.00     0.031 C 
ATOM     47  C   UNL A   1      38.990  27.568  29.796  1.00  0.00     0.029 A 
ATOM     48  C   UNL A   1      40.034  28.584  29.741  1.00  0.00     0.049 A 
ATOM     49  H   UNL A   1      41.883  28.451  28.789  1.00  0.00     0.167 HD
ATOM     50  C   UNL A   1      45.894  27.846  27.072  1.00  0.00     0.034 A 
ATOM     51  C   UNL A   1      39.968  29.806  30.306  1.00  0.00     0.034 A 
ATOM     52  C   UNL A   1      45.872  29.209  27.524  1.00  0.00     0.049 A 
ATOM     53  C   UNL A   1      41.131  30.744  30.129  1.00  0.00     0.074 A 
ATOM     54  C   UNL A   1      46.855  30.173  27.405  1.00  0.00     0.029 A 
ATOM     55  N   UNL A   1      44.797  29.804  28.166  1.00  0.00    -0.354 N 
ATOM     56  N   UNL A   1      42.267  30.542  29.504  1.00  0.00    -0.248 NA
ATOM     57  C   UNL A   1      40.991  32.091  30.702  1.00  0.00     0.031 C 
ATOM     58  C   UNL A   1      46.372  31.356  27.978  1.00  0.00     0.029 A 
ATOM     59  C   UNL A   1      45.086  31.127  28.445  1.00  0.00     0.049 A 
ATOM     60  H   UNL A   1      43.953  29.352  28.393  1.00  0.00     0.167 HD
ATOM     61  C   UNL A   1      42.961  31.744  29.574  1.00  0.00     0.074 A 
ATOM     62  C   UNL A   1      42.109  32.675  30.289  1.00  0.00     0.031 C 
ATOM     63  C   UNL A   1      44.195  32.049  29.102  1.00  0.00     0.034 A 
BRANCH  50  64
ATOM     64  C   UNL A   1      47.134  27.310  26.406  1.00  0.00     0.023 A 
ATOM     65  C   UNL A   1      47.305  27.486  25.015  1.00  0.00     0.012 A 
ATOM     66  C   UNL A   1      48.125  26.632  27.139  1.00  0.00     0.148 A 
ATOM     67  C   UNL A   1      48.408  26.945  24.358  1.00  0.00     0.002 A 
ATOM     68  C   UNL A   1      49.250  26.139  26.484  1.00  0.00     0.091 A 
ATOM     69  F   UNL A   1      47.939  26.447  28.454  1.00  0.00    -0.205 F 
ATOM     70  C   UNL A   1      49.384  26.279  25.093  1.00  0.00     0.022 A 
BRANCH  68  71
ATOM     71  S   UNL A   1      50.596  25.338  27.363  1.00  0.00     0.127 S 
ATOM     72  O   UNL A   1      51.022  26.395  28.278  1.00  0.00    -0.237 OA
ATOM     73  O   UNL A   1      49.921  24.210  28.007  1.00  0.00    -0.237 OA
ATOM     74  O   UNL A   1      51.561  24.957  26.340  1.00  0.00    -0.744 OA
ENDBRANCH  68  71
ENDBRANCH  50  64
BRANCH  51  75
ATOM     75  C   UNL A   1      38.713  30.249  30.976  1.00  0.00     0.023 A 
ATOM     76  C   UNL A   1      38.546  29.979  32.350  1.00  0.00     0.012 A 
ATOM     77  C   UNL A   1      37.716  30.973  30.295  1.00  0.00     0.148 A 
ATOM     78  C   UNL A   1      37.399  30.397  33.026  1.00  0.00     0.002 A 
ATOM     79  C   UNL A   1      36.597  31.429  30.986  1.00  0.00     0.091 A 
ATOM     80  F   UNL A   1      37.888  31.216  28.989  1.00  0.00    -0.205 F 
ATOM     81  C   UNL A   1      36.430  31.130  32.348  1.00  0.00     0.022 A 
BRANCH  79  82
ATOM     82  S   UNL A   1      35.356  32.487  30.230  1.00  0.00     0.127 S 
ATOM     83  O   UNL A   1      36.150  33.649  29.843  1.00  0.00    -0.237 OA
ATOM     84  O   UNL A   1      34.891  31.659  29.117  1.00  0.00    -0.237 OA
ATOM     85  O   UNL A   1      34.355  32.719  31.263  1.00  0.00    -0.744 OA
ENDBRANCH  79  82
ENDBRANCH  51  75
BRANCH  63  86
ATOM     86  C   UNL A   1      44.690  33.454  29.310  1.00  0.00     0.023 A 
ATOM     87  C   UNL A   1      45.367  33.785  30.499  1.00  0.00     0.012 A 
ATOM     88  C   UNL A   1      44.562  34.417  28.290  1.00  0.00     0.148 A 
ATOM     89  C   UNL A   1      45.888  35.065  30.680  1.00  0.00     0.002 A 
ATOM     90  C   UNL A   1      45.126  35.675  28.459  1.00  0.00     0.091 A 
ATOM     91  F   UNL A   1      43.895  34.084  27.175  1.00  0.00    -0.205 F 
ATOM     92  C   UNL A   1      45.780  36.004  29.657  1.00  0.00     0.022 A 
BRANCH  90  93
ATOM     93  S   UNL A   1      45.115  36.909  27.154  1.00  0.00     0.127 S 
ATOM     94  O   UNL A   1      45.911  36.254  26.118  1.00  0.00    -0.237 OA
ATOM     95  O   UNL A   1      43.688  37.024  26.845  1.00  0.00    -0.237 OA
ATOM     96  O   UNL A   1      45.701  38.108  27.737  1.00  0.00    -0.744 OA
ENDBRANCH  90  93
ENDBRANCH  63  86
ENDBRANCH  37  38
ENDBRANCH  29  32
ENDBRANCH  27  28
ENDBRANCH   1  27
TORSDOF 16
ENDMDL
