MODEL 1
REMARK VINA RESULT:     -13.5      0.000      0.000
REMARK SMILES O=C1O[C@@H](c2ccc(O)c(O)c2)[C@H](C(=O)NCCCNC(=O)c2ccc(-c3c4nc(c(-c5cccc(S(=O)(=O)[O-])c5F)c5ccc([nH]5)c(-c5cccc(S(=O)(=O)[O-])c5F)c5nc(c(-c6cccc(S(=O)(=O)[O-])c6F)c6ccc3[nH]6)C=C5)C=C4)cc2)/C1=C\c1ccc(O)c(O)c1
REMARK SMILES IDX 18 1 17 2 16 3 14 4 15 5 13 7 1 8 2 9 3 10 86 11 4 12 87 13
REMARK SMILES IDX 5 14 6 15 12 16 7 17 10 18 8 19 11 20 9 22 88 24 89 25 95 26
REMARK SMILES IDX 90 27 93 28 91 29 94 30 92 32 19 34 20 35 21 36 22 38 23 39
REMARK SMILES IDX 24 40 85 41 25 42 84 43 26 44 27 45 28 46 78 47 29 48 83 49
REMARK SMILES IDX 77 50 79 51 30 52 82 53 76 54 75 55 31 57 63 58 43 59 62 60
REMARK SMILES IDX 44 61 47 62 61 63 80 64 45 65 46 66 60 68 81 69 48 70 32 71
REMARK SMILES IDX 33 72 41 73 34 74 36 75 42 76 35 77 37 78 38 79 39 80 40 81
REMARK SMILES IDX 64 82 65 83 73 84 66 85 68 86 74 87 67 88 69 89 70 90 71 91
REMARK SMILES IDX 72 92 49 93 50 94 58 95 51 96 53 97 59 98 52 99 54 100
REMARK SMILES IDX 55 101 56 102 57 103
REMARK H PARENT 16 6 11 21 9 23 94 31 92 33 20 37 79 56 47 67
REMARK Flexibility Score: inf
ROOT
ATOM      1  C   UNL A   1      37.797  20.078  24.918  1.00  0.00     0.042 C 
ENDROOT
BRANCH   1   2
ATOM      2  C   UNL A   1      37.354  21.320  24.169  1.00  0.00     0.117 C 
BRANCH   2   3
ATOM      3  N   UNL A   1      37.124  22.475  25.017  1.00  0.00    -0.355 N 
ATOM      4  C   UNL A   1      36.004  22.928  25.653  1.00  0.00     0.231 C 
ATOM      5  O   UNL A   1      36.169  23.849  26.457  1.00  0.00    -0.274 OA
ATOM      6  H   UNL A   1      37.922  23.034  25.159  1.00  0.00     0.163 HD
BRANCH   4   7
ATOM      7  C   UNL A   1      34.614  22.387  25.299  1.00  0.00     0.161 C 
ATOM      8  O   UNL A   1      32.532  22.608  28.198  1.00  0.00    -0.247 OA
ATOM      9  C   UNL A   1      33.191  22.268  27.232  1.00  0.00     0.335 C 
ATOM     10  O   UNL A   1      33.711  21.034  27.039  1.00  0.00    -0.453 OA
ATOM     11  C   UNL A   1      33.548  23.096  26.067  1.00  0.00     0.054 C 
ATOM     12  C   UNL A   1      34.386  20.953  25.770  1.00  0.00     0.224 C 
ATOM     13  C   UNL A   1      32.897  24.251  25.857  1.00  0.00     0.020 C 
BRANCH  12  14
ATOM     14  C   UNL A   1      33.627  20.074  24.772  1.00  0.00    -0.002 A 
ATOM     15  C   UNL A   1      32.768  20.642  23.802  1.00  0.00     0.012 A 
ATOM     16  C   UNL A   1      33.830  18.686  24.733  1.00  0.00     0.057 A 
ATOM     17  C   UNL A   1      32.139  19.863  22.824  1.00  0.00     0.050 A 
ATOM     18  C   UNL A   1      33.189  17.916  23.769  1.00  0.00     0.157 A 
ATOM     19  C   UNL A   1      32.356  18.496  22.816  1.00  0.00     0.157 A 
BRANCH  18  20
ATOM     20  O   UNL A   1      33.391  16.566  23.752  1.00  0.00    -0.504 OA
ATOM     21  H   UNL A   1      32.668  15.982  23.866  1.00  0.00     0.293 HD
ENDBRANCH  18  20
BRANCH  19  22
ATOM     22  O   UNL A   1      31.778  17.679  21.887  1.00  0.00    -0.504 OA
ATOM     23  H   UNL A   1      32.037  17.736  20.987  1.00  0.00     0.293 HD
ENDBRANCH  19  22
ENDBRANCH  12  14
BRANCH  13  24
ATOM     24  C   UNL A   1      33.134  25.149  24.729  1.00  0.00    -0.021 A 
ATOM     25  C   UNL A   1      33.535  26.479  24.930  1.00  0.00     0.012 A 
ATOM     26  C   UNL A   1      33.004  24.653  23.427  1.00  0.00     0.058 A 
ATOM     27  C   UNL A   1      33.775  27.322  23.841  1.00  0.00     0.051 A 
ATOM     28  C   UNL A   1      33.252  25.493  22.352  1.00  0.00     0.157 A 
ATOM     29  C   UNL A   1      33.627  26.819  22.554  1.00  0.00     0.157 A 
BRANCH  28  30
ATOM     30  O   UNL A   1      33.127  25.007  21.082  1.00  0.00    -0.504 OA
ATOM     31  H   UNL A   1      32.426  25.302  20.534  1.00  0.00     0.293 HD
ENDBRANCH  28  30
BRANCH  29  32
ATOM     32  O   UNL A   1      33.844  27.592  21.447  1.00  0.00    -0.504 OA
ATOM     33  H   UNL A   1      34.553  28.205  21.436  1.00  0.00     0.293 HD
ENDBRANCH  29  32
ENDBRANCH  13  24
ENDBRANCH   4   7
ENDBRANCH   2   3
ENDBRANCH   1   2
BRANCH   1  34
ATOM     34  C   UNL A   1      38.835  20.347  25.996  1.00  0.00     0.118 C 
BRANCH  34  35
ATOM     35  N   UNL A   1      39.906  19.357  26.007  1.00  0.00    -0.352 N 
ATOM     36  C   UNL A   1      41.267  19.515  26.084  1.00  0.00     0.251 C 
ATOM     37  H   UNL A   1      39.602  18.421  25.949  1.00  0.00     0.163 HD
ATOM     38  O   UNL A   1      41.999  18.551  25.871  1.00  0.00    -0.269 OA
BRANCH  36  39
ATOM     39  C   UNL A   1      41.853  20.835  26.400  1.00  0.00     0.039 A 
ATOM     40  C   UNL A   1      42.129  21.723  25.357  1.00  0.00     0.014 A 
ATOM     41  C   UNL A   1      42.138  21.196  27.718  1.00  0.00     0.014 A 
ATOM     42  C   UNL A   1      42.615  23.000  25.647  1.00  0.00     0.010 A 
ATOM     43  C   UNL A   1      42.522  22.500  28.012  1.00  0.00     0.010 A 
ATOM     44  C   UNL A   1      42.772  23.415  26.980  1.00  0.00    -0.014 A 
BRANCH  44  45
ATOM     45  C   UNL A   1      43.177  24.804  27.315  1.00  0.00     0.031 A 
ATOM     46  C   UNL A   1      42.196  25.750  27.955  1.00  0.00     0.074 A 
ATOM     47  C   UNL A   1      44.400  25.243  26.952  1.00  0.00     0.049 A 
ATOM     48  N   UNL A   1      42.351  27.013  28.258  1.00  0.00    -0.248 NA
ATOM     49  C   UNL A   1      40.859  25.221  28.270  1.00  0.00     0.031 C 
ATOM     50  C   UNL A   1      45.408  24.449  26.245  1.00  0.00     0.029 A 
ATOM     51  N   UNL A   1      44.992  26.473  27.096  1.00  0.00    -0.354 N 
ATOM     52  C   UNL A   1      41.124  27.438  28.752  1.00  0.00     0.074 A 
ATOM     53  C   UNL A   1      40.226  26.307  28.688  1.00  0.00     0.031 C 
ATOM     54  C   UNL A   1      46.491  25.211  26.019  1.00  0.00     0.029 A 
ATOM     55  C   UNL A   1      46.241  26.556  26.524  1.00  0.00     0.049 A 
ATOM     56  H   UNL A   1      44.564  27.226  27.565  1.00  0.00     0.167 HD
ATOM     57  C   UNL A   1      40.782  28.655  29.236  1.00  0.00     0.034 A 
ATOM     58  C   UNL A   1      47.082  27.601  26.399  1.00  0.00     0.034 A 
ATOM     59  C   UNL A   1      41.691  29.764  29.340  1.00  0.00     0.049 A 
ATOM     60  C   UNL A   1      46.692  28.928  26.990  1.00  0.00     0.074 A 
ATOM     61  C   UNL A   1      41.471  31.000  29.923  1.00  0.00     0.029 A 
ATOM     62  N   UNL A   1      42.980  29.783  28.834  1.00  0.00    -0.354 N 
ATOM     63  N   UNL A   1      45.589  29.258  27.616  1.00  0.00    -0.248 NA
ATOM     64  C   UNL A   1      47.672  30.019  26.888  1.00  0.00     0.031 C 
ATOM     65  C   UNL A   1      42.612  31.784  29.725  1.00  0.00     0.029 A 
ATOM     66  C   UNL A   1      43.560  31.018  29.065  1.00  0.00     0.049 A 
ATOM     67  H   UNL A   1      43.419  29.029  28.376  1.00  0.00     0.167 HD
ATOM     68  C   UNL A   1      45.758  30.580  28.013  1.00  0.00     0.074 A 
ATOM     69  C   UNL A   1      47.078  30.982  27.578  1.00  0.00     0.031 C 
ATOM     70  C   UNL A   1      44.891  31.392  28.666  1.00  0.00     0.034 A 
BRANCH  57  71
ATOM     71  C   UNL A   1      39.372  28.856  29.723  1.00  0.00     0.023 A 
ATOM     72  C   UNL A   1      39.030  28.530  31.051  1.00  0.00     0.012 A 
ATOM     73  C   UNL A   1      38.407  29.453  28.886  1.00  0.00     0.148 A 
ATOM     74  C   UNL A   1      37.743  28.771  31.532  1.00  0.00     0.002 A 
ATOM     75  C   UNL A   1      37.143  29.736  29.388  1.00  0.00     0.091 A 
ATOM     76  F   UNL A   1      38.747  29.734  27.620  1.00  0.00    -0.205 F 
ATOM     77  C   UNL A   1      36.806  29.387  30.705  1.00  0.00     0.022 A 
BRANCH  75  78
ATOM     78  S   UNL A   1      35.894  30.604  28.432  1.00  0.00     0.127 S 
ATOM     79  O   UNL A   1      35.069  31.187  29.489  1.00  0.00    -0.237 OA
ATOM     80  O   UNL A   1      36.699  31.569  27.684  1.00  0.00    -0.237 OA
ATOM     81  O   UNL A   1      35.235  29.594  27.617  1.00  0.00    -0.744 OA
ENDBRANCH  75  78
ENDBRANCH  57  71
BRANCH  58  82
ATOM     82  C   UNL A   1      48.391  27.429  25.706  1.00  0.00     0.023 A 
ATOM     83  C   UNL A   1      49.546  27.121  26.452  1.00  0.00     0.012 A 
ATOM     84  C   UNL A   1      48.493  27.561  24.307  1.00  0.00     0.148 A 
ATOM     85  C   UNL A   1      50.784  26.993  25.822  1.00  0.00     0.002 A 
ATOM     86  C   UNL A   1      49.717  27.369  23.680  1.00  0.00     0.091 A 
ATOM     87  F   UNL A   1      47.386  27.864  23.615  1.00  0.00    -0.205 F 
ATOM     88  C   UNL A   1      50.869  27.108  24.436  1.00  0.00     0.022 A 
BRANCH  86  89
ATOM     89  S   UNL A   1      49.885  27.354  21.891  1.00  0.00     0.127 S 
ATOM     90  O   UNL A   1      48.919  26.328  21.507  1.00  0.00    -0.237 OA
ATOM     91  O   UNL A   1      49.505  28.722  21.540  1.00  0.00    -0.237 OA
ATOM     92  O   UNL A   1      51.282  27.039  21.628  1.00  0.00    -0.744 OA
ENDBRANCH  86  89
ENDBRANCH  58  82
BRANCH  70  93
ATOM     93  C   UNL A   1      45.351  32.788  28.995  1.00  0.00     0.023 A 
ATOM     94  C   UNL A   1      46.028  33.045  30.204  1.00  0.00     0.012 A 
ATOM     95  C   UNL A   1      45.174  33.833  28.066  1.00  0.00     0.148 A 
ATOM     96  C   UNL A   1      46.488  34.328  30.500  1.00  0.00     0.002 A 
ATOM     97  C   UNL A   1      45.685  35.095  28.343  1.00  0.00     0.091 A 
ATOM     98  F   UNL A   1      44.515  33.573  26.928  1.00  0.00    -0.205 F 
ATOM     99  C   UNL A   1      46.329  35.349  29.564  1.00  0.00     0.022 A 
BRANCH  97 100
ATOM    100  S   UNL A   1      45.615  36.444  27.159  1.00  0.00     0.127 S 
ATOM    101  O   UNL A   1      44.175  36.667  27.047  1.00  0.00    -0.237 OA
ATOM    102  O   UNL A   1      46.346  37.503  27.855  1.00  0.00    -0.237 OA
ATOM    103  O   UNL A   1      46.264  35.954  25.950  1.00  0.00    -0.744 OA
ENDBRANCH  97 100
ENDBRANCH  70  93
ENDBRANCH  44  45
ENDBRANCH  36  39
ENDBRANCH  34  35
ENDBRANCH   1  34
TORSDOF 19
ENDMDL
MODEL 2
REMARK VINA RESULT:     -13.5      6.368     11.571
REMARK SMILES O=C1O[C@@H](c2ccc(O)c(O)c2)[C@H](C(=O)NCCCNC(=O)c2ccc(-c3c4nc(c(-c5cccc(S(=O)(=O)[O-])c5F)c5ccc([nH]5)c(-c5cccc(S(=O)(=O)[O-])c5F)c5nc(c(-c6cccc(S(=O)(=O)[O-])c6F)c6ccc3[nH]6)C=C5)C=C4)cc2)/C1=C\c1ccc(O)c(O)c1
REMARK SMILES IDX 18 1 17 2 16 3 14 4 15 5 13 7 1 8 2 9 3 10 86 11 4 12 87 13
REMARK SMILES IDX 5 14 6 15 12 16 7 17 10 18 8 19 11 20 9 22 88 24 89 25 95 26
REMARK SMILES IDX 90 27 93 28 91 29 94 30 92 32 19 34 20 35 21 36 22 38 23 39
REMARK SMILES IDX 24 40 85 41 25 42 84 43 26 44 27 45 28 46 78 47 29 48 83 49
REMARK SMILES IDX 77 50 79 51 30 52 82 53 76 54 75 55 31 57 63 58 43 59 62 60
REMARK SMILES IDX 44 61 47 62 61 63 80 64 45 65 46 66 60 68 81 69 48 70 32 71
REMARK SMILES IDX 33 72 41 73 34 74 36 75 42 76 35 77 37 78 38 79 39 80 40 81
REMARK SMILES IDX 64 82 65 83 73 84 66 85 68 86 74 87 67 88 69 89 70 90 71 91
REMARK SMILES IDX 72 92 49 93 50 94 58 95 51 96 53 97 59 98 52 99 54 100
REMARK SMILES IDX 55 101 56 102 57 103
REMARK H PARENT 16 6 11 21 9 23 94 31 92 33 20 37 79 56 47 67
REMARK Flexibility Score: inf
ROOT
ATOM      1  C   UNL A   1      31.693  31.257  26.690  1.00  0.00     0.042 C 
ENDROOT
BRANCH   1   2
ATOM      2  C   UNL A   1      31.757  29.825  27.184  1.00  0.00     0.117 C 
BRANCH   2   3
ATOM      3  N   UNL A   1      33.006  29.148  26.883  1.00  0.00    -0.355 N 
ATOM      4  C   UNL A   1      33.395  28.388  25.818  1.00  0.00     0.231 C 
ATOM      5  O   UNL A   1      34.592  28.097  25.765  1.00  0.00    -0.274 OA
ATOM      6  H   UNL A   1      33.699  29.257  27.575  1.00  0.00     0.163 HD
BRANCH   4   7
ATOM      7  C   UNL A   1      32.372  27.845  24.814  1.00  0.00     0.161 C 
ATOM      8  O   UNL A   1      34.014  27.344  21.675  1.00  0.00    -0.247 OA
ATOM      9  C   UNL A   1      33.302  27.687  22.603  1.00  0.00     0.335 C 
ATOM     10  O   UNL A   1      32.609  28.848  22.666  1.00  0.00    -0.453 OA
ATOM     11  C   UNL A   1      33.020  26.925  23.831  1.00  0.00     0.054 C 
ATOM     12  C   UNL A   1      31.825  28.913  23.871  1.00  0.00     0.224 C 
ATOM     13  C   UNL A   1      33.322  25.618  23.878  1.00  0.00     0.020 C 
BRANCH  12  14
ATOM     14  C   UNL A   1      30.325  28.794  23.586  1.00  0.00    -0.002 A 
ATOM     15  C   UNL A   1      29.665  27.544  23.645  1.00  0.00     0.012 A 
ATOM     16  C   UNL A   1      29.544  29.934  23.345  1.00  0.00     0.057 A 
ATOM     17  C   UNL A   1      28.281  27.430  23.479  1.00  0.00     0.050 A 
ATOM     18  C   UNL A   1      28.170  29.812  23.164  1.00  0.00     0.157 A 
ATOM     19  C   UNL A   1      27.539  28.573  23.238  1.00  0.00     0.157 A 
BRANCH  18  20
ATOM     20  O   UNL A   1      27.427  30.932  22.922  1.00  0.00    -0.504 OA
ATOM     21  H   UNL A   1      26.774  31.203  23.535  1.00  0.00     0.293 HD
ENDBRANCH  18  20
BRANCH  19  22
ATOM     22  O   UNL A   1      26.184  28.533  23.072  1.00  0.00    -0.504 OA
ATOM     23  H   UNL A   1      25.646  29.200  23.451  1.00  0.00     0.293 HD
ENDBRANCH  19  22
ENDBRANCH  12  14
BRANCH  13  24
ATOM     24  C   UNL A   1      33.070  24.744  25.021  1.00  0.00    -0.021 A 
ATOM     25  C   UNL A   1      31.762  24.422  25.416  1.00  0.00     0.012 A 
ATOM     26  C   UNL A   1      34.157  24.180  25.698  1.00  0.00     0.058 A 
ATOM     27  C   UNL A   1      31.535  23.571  26.501  1.00  0.00     0.051 A 
ATOM     28  C   UNL A   1      33.924  23.328  26.767  1.00  0.00     0.157 A 
ATOM     29  C   UNL A   1      32.625  23.030  27.174  1.00  0.00     0.157 A 
BRANCH  28  30
ATOM     30  O   UNL A   1      34.985  22.777  27.427  1.00  0.00    -0.504 OA
ATOM     31  H   UNL A   1      35.339  23.201  28.184  1.00  0.00     0.293 HD
ENDBRANCH  28  30
BRANCH  29  32
ATOM     32  O   UNL A   1      32.471  22.193  28.243  1.00  0.00    -0.504 OA
ATOM     33  H   UNL A   1      32.257  22.542  29.085  1.00  0.00     0.293 HD
ENDBRANCH  29  32
ENDBRANCH  13  24
ENDBRANCH   4   7
ENDBRANCH   2   3
ENDBRANCH   1   2
BRANCH   1  34
ATOM     34  C   UNL A   1      32.933  32.076  27.013  1.00  0.00     0.118 C 
BRANCH  34  35
ATOM     35  N   UNL A   1      32.618  33.453  27.377  1.00  0.00    -0.352 N 
ATOM     36  C   UNL A   1      33.099  34.239  28.395  1.00  0.00     0.251 C 
ATOM     37  H   UNL A   1      31.952  33.891  26.798  1.00  0.00     0.163 HD
ATOM     38  O   UNL A   1      32.545  35.307  28.645  1.00  0.00    -0.269 OA
BRANCH  36  39
ATOM     39  C   UNL A   1      34.258  33.799  29.200  1.00  0.00     0.039 A 
ATOM     40  C   UNL A   1      34.052  32.916  30.263  1.00  0.00     0.014 A 
ATOM     41  C   UNL A   1      35.545  34.260  28.917  1.00  0.00     0.014 A 
ATOM     42  C   UNL A   1      35.146  32.437  30.986  1.00  0.00     0.010 A 
ATOM     43  C   UNL A   1      36.640  33.702  29.567  1.00  0.00     0.010 A 
ATOM     44  C   UNL A   1      36.454  32.790  30.615  1.00  0.00    -0.014 A 
BRANCH  44  45
ATOM     45  C   UNL A   1      37.636  32.203  31.295  1.00  0.00     0.031 A 
ATOM     46  C   UNL A   1      38.399  31.074  30.656  1.00  0.00     0.074 A 
ATOM     47  C   UNL A   1      37.963  32.622  32.534  1.00  0.00     0.049 A 
ATOM     48  N   UNL A   1      39.413  30.395  31.129  1.00  0.00    -0.248 NA
ATOM     49  C   UNL A   1      37.950  30.625  29.327  1.00  0.00     0.031 C 
ATOM     50  C   UNL A   1      37.246  33.648  33.297  1.00  0.00     0.029 A 
ATOM     51  N   UNL A   1      38.961  32.217  33.385  1.00  0.00    -0.354 N 
ATOM     52  C   UNL A   1      39.691  29.418  30.182  1.00  0.00     0.074 A 
ATOM     53  C   UNL A   1      38.726  29.572  29.117  1.00  0.00     0.031 C 
ATOM     54  C   UNL A   1      37.827  33.790  34.500  1.00  0.00     0.029 A 
ATOM     55  C   UNL A   1      38.929  32.841  34.612  1.00  0.00     0.049 A 
ATOM     56  H   UNL A   1      39.638  31.544  33.142  1.00  0.00     0.167 HD
ATOM     57  C   UNL A   1      40.675  28.488  30.189  1.00  0.00     0.034 A 
ATOM     58  C   UNL A   1      39.684  32.654  35.713  1.00  0.00     0.034 A 
ATOM     59  C   UNL A   1      41.661  28.367  31.229  1.00  0.00     0.049 A 
ATOM     60  C   UNL A   1      40.800  31.646  35.671  1.00  0.00     0.074 A 
ATOM     61  C   UNL A   1      42.765  27.535  31.269  1.00  0.00     0.029 A 
ATOM     62  N   UNL A   1      41.652  29.079  32.416  1.00  0.00    -0.354 N 
ATOM     63  N   UNL A   1      41.157  30.854  34.690  1.00  0.00    -0.248 NA
ATOM     64  C   UNL A   1      41.638  31.529  36.872  1.00  0.00     0.031 C 
ATOM     65  C   UNL A   1      43.397  27.708  32.504  1.00  0.00     0.029 A 
ATOM     66  C   UNL A   1      42.715  28.687  33.210  1.00  0.00     0.049 A 
ATOM     67  H   UNL A   1      40.986  29.764  32.660  1.00  0.00     0.167 HD
ATOM     68  C   UNL A   1      42.280  30.171  35.143  1.00  0.00     0.074 A 
ATOM     69  C   UNL A   1      42.559  30.662  36.476  1.00  0.00     0.031 C 
ATOM     70  C   UNL A   1      43.007  29.214  34.517  1.00  0.00     0.034 A 
BRANCH  57  71
ATOM     71  C   UNL A   1      40.763  27.538  29.024  1.00  0.00     0.023 A 
ATOM     72  C   UNL A   1      39.853  26.467  28.916  1.00  0.00     0.012 A 
ATOM     73  C   UNL A   1      41.693  27.762  27.990  1.00  0.00     0.148 A 
ATOM     74  C   UNL A   1      39.884  25.618  27.810  1.00  0.00     0.002 A 
ATOM     75  C   UNL A   1      41.685  26.943  26.868  1.00  0.00     0.091 A 
ATOM     76  F   UNL A   1      42.564  28.773  28.123  1.00  0.00    -0.205 F 
ATOM     77  C   UNL A   1      40.789  25.866  26.781  1.00  0.00     0.022 A 
BRANCH  75  78
ATOM     78  S   UNL A   1      42.751  27.230  25.451  1.00  0.00     0.127 S 
ATOM     79  O   UNL A   1      44.047  27.435  26.096  1.00  0.00    -0.237 OA
ATOM     80  O   UNL A   1      42.627  25.972  24.717  1.00  0.00    -0.237 OA
ATOM     81  O   UNL A   1      42.208  28.394  24.766  1.00  0.00    -0.744 OA
ENDBRANCH  75  78
ENDBRANCH  57  71
BRANCH  58  82
ATOM     82  C   UNL A   1      39.426  33.459  36.941  1.00  0.00     0.023 A 
ATOM     83  C   UNL A   1      39.904  34.781  37.028  1.00  0.00     0.012 A 
ATOM     84  C   UNL A   1      38.701  32.920  38.021  1.00  0.00     0.148 A 
ATOM     85  C   UNL A   1      39.704  35.534  38.185  1.00  0.00     0.002 A 
ATOM     86  C   UNL A   1      38.449  33.697  39.145  1.00  0.00     0.091 A 
ATOM     87  F   UNL A   1      38.261  31.657  37.925  1.00  0.00    -0.205 F 
ATOM     88  C   UNL A   1      38.969  34.997  39.239  1.00  0.00     0.022 A 
BRANCH  86  89
ATOM     89  S   UNL A   1      37.389  33.135  40.481  1.00  0.00     0.127 S 
ATOM     90  O   UNL A   1      37.348  34.309  41.348  1.00  0.00    -0.237 OA
ATOM     91  O   UNL A   1      36.140  32.843  39.775  1.00  0.00    -0.237 OA
ATOM     92  O   UNL A   1      38.044  31.959  41.037  1.00  0.00    -0.744 OA
ENDBRANCH  86  89
ENDBRANCH  58  82
BRANCH  70  93
ATOM     93  C   UNL A   1      44.205  28.657  35.241  1.00  0.00     0.023 A 
ATOM     94  C   UNL A   1      45.479  29.224  35.042  1.00  0.00     0.012 A 
ATOM     95  C   UNL A   1      44.050  27.615  36.177  1.00  0.00     0.148 A 
ATOM     96  C   UNL A   1      46.587  28.738  35.736  1.00  0.00     0.002 A 
ATOM     97  C   UNL A   1      45.148  27.174  36.905  1.00  0.00     0.091 A 
ATOM     98  F   UNL A   1      42.833  27.078  36.340  1.00  0.00    -0.205 F 
ATOM     99  C   UNL A   1      46.420  27.722  36.675  1.00  0.00     0.022 A 
BRANCH  97 100
ATOM    100  S   UNL A   1      45.011  25.942  38.205  1.00  0.00     0.127 S 
ATOM    101  O   UNL A   1      46.399  25.821  38.646  1.00  0.00    -0.237 OA
ATOM    102  O   UNL A   1      44.120  26.600  39.160  1.00  0.00    -0.237 OA
ATOM    103  O   UNL A   1      44.452  24.752  37.576  1.00  0.00    -0.744 OA
ENDBRANCH  97 100
ENDBRANCH  70  93
ENDBRANCH  44  45
ENDBRANCH  36  39
ENDBRANCH  34  35
ENDBRANCH   1  34
TORSDOF 19
ENDMDL
MODEL 3
REMARK VINA RESULT:     -13.4      5.213      8.286
REMARK SMILES O=C1O[C@@H](c2ccc(O)c(O)c2)[C@H](C(=O)NCCCNC(=O)c2ccc(-c3c4nc(c(-c5cccc(S(=O)(=O)[O-])c5F)c5ccc([nH]5)c(-c5cccc(S(=O)(=O)[O-])c5F)c5nc(c(-c6cccc(S(=O)(=O)[O-])c6F)c6ccc3[nH]6)C=C5)C=C4)cc2)/C1=C\c1ccc(O)c(O)c1
REMARK SMILES IDX 18 1 17 2 16 3 14 4 15 5 13 7 1 8 2 9 3 10 86 11 4 12 87 13
REMARK SMILES IDX 5 14 6 15 12 16 7 17 10 18 8 19 11 20 9 22 88 24 89 25 95 26
REMARK SMILES IDX 90 27 93 28 91 29 94 30 92 32 19 34 20 35 21 36 22 38 23 39
REMARK SMILES IDX 24 40 85 41 25 42 84 43 26 44 27 45 28 46 78 47 29 48 83 49
REMARK SMILES IDX 77 50 79 51 30 52 82 53 76 54 75 55 31 57 63 58 43 59 62 60
REMARK SMILES IDX 44 61 47 62 61 63 80 64 45 65 46 66 60 68 81 69 48 70 32 71
REMARK SMILES IDX 33 72 41 73 34 74 36 75 42 76 35 77 37 78 38 79 39 80 40 81
REMARK SMILES IDX 64 82 65 83 73 84 66 85 68 86 74 87 67 88 69 89 70 90 71 91
REMARK SMILES IDX 72 92 49 93 50 94 58 95 51 96 53 97 59 98 52 99 54 100
REMARK SMILES IDX 55 101 56 102 57 103
REMARK H PARENT 16 6 11 21 9 23 94 31 92 33 20 37 79 56 47 67
REMARK Flexibility Score: inf
ROOT
ATOM      1  C   UNL A   1      32.374  27.548  27.243  1.00  0.00     0.042 C 
ENDROOT
BRANCH   1   2
ATOM      2  C   UNL A   1      32.068  26.437  26.257  1.00  0.00     0.117 C 
BRANCH   2   3
ATOM      3  N   UNL A   1      31.401  25.289  26.843  1.00  0.00    -0.355 N 
ATOM      4  C   UNL A   1      31.720  23.962  26.857  1.00  0.00     0.231 C 
ATOM      5  O   UNL A   1      31.043  23.246  27.601  1.00  0.00    -0.274 OA
ATOM      6  H   UNL A   1      30.566  25.508  27.317  1.00  0.00     0.163 HD
BRANCH   4   7
ATOM      7  C   UNL A   1      32.788  23.390  25.918  1.00  0.00     0.161 C 
ATOM      8  O   UNL A   1      31.680  20.201  24.738  1.00  0.00    -0.247 OA
ATOM      9  C   UNL A   1      32.263  21.145  25.242  1.00  0.00     0.335 C 
ATOM     10  O   UNL A   1      33.137  21.061  26.272  1.00  0.00    -0.453 OA
ATOM     11  C   UNL A   1      32.170  22.559  24.842  1.00  0.00     0.054 C 
ATOM     12  C   UNL A   1      33.687  22.353  26.585  1.00  0.00     0.224 C 
ATOM     13  C   UNL A   1      31.626  22.872  23.656  1.00  0.00     0.020 C 
BRANCH  12  14
ATOM     14  C   UNL A   1      35.165  22.456  26.197  1.00  0.00    -0.002 A 
ATOM     15  C   UNL A   1      35.880  23.667  26.351  1.00  0.00     0.012 A 
ATOM     16  C   UNL A   1      35.877  21.328  25.761  1.00  0.00     0.057 A 
ATOM     17  C   UNL A   1      37.251  23.755  26.089  1.00  0.00     0.050 A 
ATOM     18  C   UNL A   1      37.237  21.426  25.486  1.00  0.00     0.157 A 
ATOM     19  C   UNL A   1      37.923  22.625  25.656  1.00  0.00     0.157 A 
BRANCH  18  20
ATOM     20  O   UNL A   1      37.911  20.320  25.054  1.00  0.00    -0.504 OA
ATOM     21  H   UNL A   1      38.718  20.075  25.460  1.00  0.00     0.293 HD
ENDBRANCH  18  20
BRANCH  19  22
ATOM     22  O   UNL A   1      39.262  22.640  25.388  1.00  0.00    -0.504 OA
ATOM     23  H   UNL A   1      39.580  22.315  24.567  1.00  0.00     0.293 HD
ENDBRANCH  19  22
ENDBRANCH  12  14
BRANCH  13  24
ATOM     24  C   UNL A   1      31.499  24.229  23.129  1.00  0.00    -0.021 A 
ATOM     25  C   UNL A   1      30.394  25.033  23.448  1.00  0.00     0.012 A 
ATOM     26  C   UNL A   1      32.526  24.747  22.332  1.00  0.00     0.058 A 
ATOM     27  C   UNL A   1      30.294  26.336  22.950  1.00  0.00     0.051 A 
ATOM     28  C   UNL A   1      32.424  26.043  21.850  1.00  0.00     0.157 A 
ATOM     29  C   UNL A   1      31.314  26.831  22.148  1.00  0.00     0.157 A 
BRANCH  28  30
ATOM     30  O   UNL A   1      33.427  26.548  21.073  1.00  0.00    -0.504 OA
ATOM     31  H   UNL A   1      33.404  27.444  20.800  1.00  0.00     0.293 HD
ENDBRANCH  28  30
BRANCH  29  32
ATOM     32  O   UNL A   1      31.276  28.095  21.629  1.00  0.00    -0.504 OA
ATOM     33  H   UNL A   1      32.022  28.657  21.707  1.00  0.00     0.293 HD
ENDBRANCH  29  32
ENDBRANCH  13  24
ENDBRANCH   4   7
ENDBRANCH   2   3
ENDBRANCH   1   2
BRANCH   1  34
ATOM     34  C   UNL A   1      33.734  28.197  27.037  1.00  0.00     0.118 C 
BRANCH  34  35
ATOM     35  N   UNL A   1      33.661  29.652  26.988  1.00  0.00    -0.352 N 
ATOM     36  C   UNL A   1      34.480  30.606  27.540  1.00  0.00     0.251 C 
ATOM     37  H   UNL A   1      32.899  30.010  26.476  1.00  0.00     0.163 HD
ATOM     38  O   UNL A   1      34.119  31.780  27.547  1.00  0.00    -0.269 OA
BRANCH  36  39
ATOM     39  C   UNL A   1      35.777  30.226  28.140  1.00  0.00     0.039 A 
ATOM     40  C   UNL A   1      35.796  29.683  29.428  1.00  0.00     0.014 A 
ATOM     41  C   UNL A   1      36.971  30.410  27.443  1.00  0.00     0.014 A 
ATOM     42  C   UNL A   1      37.005  29.254  29.978  1.00  0.00     0.010 A 
ATOM     43  C   UNL A   1      38.157  29.887  27.948  1.00  0.00     0.010 A 
ATOM     44  C   UNL A   1      38.190  29.310  29.225  1.00  0.00    -0.014 A 
BRANCH  44  45
ATOM     45  C   UNL A   1      39.465  28.754  29.745  1.00  0.00     0.031 A 
ATOM     46  C   UNL A   1      40.198  29.448  30.862  1.00  0.00     0.074 A 
ATOM     47  C   UNL A   1      40.013  27.679  29.144  1.00  0.00     0.049 A 
ATOM     48  N   UNL A   1      41.352  29.148  31.399  1.00  0.00    -0.248 NA
ATOM     49  C   UNL A   1      39.571  30.653  31.432  1.00  0.00     0.031 C 
ATOM     50  C   UNL A   1      39.445  26.971  27.994  1.00  0.00     0.029 A 
ATOM     51  N   UNL A   1      41.186  27.011  29.394  1.00  0.00    -0.354 N 
ATOM     52  C   UNL A   1      41.609  30.145  32.331  1.00  0.00     0.074 A 
ATOM     53  C   UNL A   1      40.504  31.075  32.273  1.00  0.00     0.031 C 
ATOM     54  C   UNL A   1      40.268  25.970  27.640  1.00  0.00     0.029 A 
ATOM     55  C   UNL A   1      41.441  25.990  28.507  1.00  0.00     0.049 A 
ATOM     56  H   UNL A   1      41.789  27.240  30.138  1.00  0.00     0.167 HD
ATOM     57  C   UNL A   1      42.660  30.265  33.175  1.00  0.00     0.034 A 
ATOM     58  C   UNL A   1      42.508  25.175  28.387  1.00  0.00     0.034 A 
ATOM     59  C   UNL A   1      43.735  29.313  33.262  1.00  0.00     0.049 A 
ATOM     60  C   UNL A   1      43.638  25.304  29.371  1.00  0.00     0.074 A 
ATOM     61  C   UNL A   1      44.784  29.286  34.164  1.00  0.00     0.029 A 
ATOM     62  N   UNL A   1      43.913  28.238  32.407  1.00  0.00    -0.354 N 
ATOM     63  N   UNL A   1      43.774  26.148  30.364  1.00  0.00    -0.248 NA
ATOM     64  C   UNL A   1      44.747  24.347  29.242  1.00  0.00     0.031 C 
ATOM     65  C   UNL A   1      45.624  28.221  33.824  1.00  0.00     0.029 A 
ATOM     66  C   UNL A   1      45.069  27.555  32.742  1.00  0.00     0.049 A 
ATOM     67  H   UNL A   1      43.306  27.996  31.670  1.00  0.00     0.167 HD
ATOM     68  C   UNL A   1      44.963  25.802  30.997  1.00  0.00     0.074 A 
ATOM     69  C   UNL A   1      45.495  24.657  30.291  1.00  0.00     0.031 C 
ATOM     70  C   UNL A   1      45.566  26.390  32.059  1.00  0.00     0.034 A 
BRANCH  57  71
ATOM     71  C   UNL A   1      42.697  31.451  34.102  1.00  0.00     0.023 A 
ATOM     72  C   UNL A   1      43.261  32.668  33.668  1.00  0.00     0.012 A 
ATOM     73  C   UNL A   1      42.090  31.383  35.372  1.00  0.00     0.148 A 
ATOM     74  C   UNL A   1      43.243  33.792  34.494  1.00  0.00     0.002 A 
ATOM     75  C   UNL A   1      42.032  32.520  36.168  1.00  0.00     0.091 A 
ATOM     76  F   UNL A   1      41.579  30.210  35.772  1.00  0.00    -0.205 F 
ATOM     77  C   UNL A   1      42.616  33.721  35.736  1.00  0.00     0.022 A 
BRANCH  75  78
ATOM     78  S   UNL A   1      41.172  32.556  37.744  1.00  0.00     0.127 S 
ATOM     79  O   UNL A   1      42.006  31.669  38.553  1.00  0.00    -0.237 OA
ATOM     80  O   UNL A   1      41.256  33.970  38.105  1.00  0.00    -0.237 OA
ATOM     81  O   UNL A   1      39.825  32.070  37.481  1.00  0.00    -0.744 OA
ENDBRANCH  75  78
ENDBRANCH  57  71
BRANCH  58  82
ATOM     82  C   UNL A   1      42.546  24.147  27.308  1.00  0.00     0.023 A 
ATOM     83  C   UNL A   1      43.121  24.461  26.060  1.00  0.00     0.012 A 
ATOM     84  C   UNL A   1      42.022  22.857  27.517  1.00  0.00     0.148 A 
ATOM     85  C   UNL A   1      43.131  23.522  25.028  1.00  0.00     0.002 A 
ATOM     86  C   UNL A   1      42.094  21.907  26.506  1.00  0.00     0.091 A 
ATOM     87  F   UNL A   1      41.470  22.580  28.707  1.00  0.00    -0.205 F 
ATOM     88  C   UNL A   1      42.627  22.243  25.253  1.00  0.00     0.022 A 
BRANCH  86  89
ATOM     89  S   UNL A   1      41.601  20.199  26.761  1.00  0.00     0.127 S 
ATOM     90  O   UNL A   1      40.172  20.334  27.028  1.00  0.00    -0.237 OA
ATOM     91  O   UNL A   1      41.934  19.592  25.471  1.00  0.00    -0.237 OA
ATOM     92  O   UNL A   1      42.411  19.715  27.870  1.00  0.00    -0.744 OA
ENDBRANCH  86  89
ENDBRANCH  58  82
BRANCH  70  93
ATOM     93  C   UNL A   1      46.851  25.784  32.559  1.00  0.00     0.023 A 
ATOM     94  C   UNL A   1      48.088  26.232  32.053  1.00  0.00     0.012 A 
ATOM     95  C   UNL A   1      46.832  24.820  33.586  1.00  0.00     0.148 A 
ATOM     96  C   UNL A   1      49.284  25.702  32.536  1.00  0.00     0.002 A 
ATOM     97  C   UNL A   1      48.029  24.338  34.101  1.00  0.00     0.091 A 
ATOM     98  F   UNL A   1      45.645  24.396  34.042  1.00  0.00    -0.205 F 
ATOM     99  C   UNL A   1      49.255  24.765  33.568  1.00  0.00     0.022 A 
BRANCH  97 100
ATOM    100  S   UNL A   1      48.093  23.207  35.494  1.00  0.00     0.127 S 
ATOM    101  O   UNL A   1      47.091  23.783  36.390  1.00  0.00    -0.237 OA
ATOM    102  O   UNL A   1      47.705  21.937  34.879  1.00  0.00    -0.237 OA
ATOM    103  O   UNL A   1      49.464  23.248  35.985  1.00  0.00    -0.744 OA
ENDBRANCH  97 100
ENDBRANCH  70  93
ENDBRANCH  44  45
ENDBRANCH  36  39
ENDBRANCH  34  35
ENDBRANCH   1  34
TORSDOF 19
ENDMDL
