MODEL 1
REMARK VINA RESULT:     -12.3      0.000      0.000
REMARK SMILES O=C(NCCCNC(=O)c1ncoc1-c1cc(F)cc(F)c1)c1ccc(-c2c3nc(c(-c4cccc(S(=O)(=O)[O-])c4F)c4ccc([nH]4)c(-c4cccc(S(=O)(=O)[O-])c4F)c4nc(c(-c5cccc(S(=O)(=O)[O-])c5F)c5ccc2[nH]5)C=C4)C=C3)cc1
REMARK SMILES IDX 4 1 3 2 1 3 2 4 23 6 24 7 85 8 25 9 84 10 26 11 27 12 28 13
REMARK SMILES IDX 78 14 29 15 83 16 77 17 79 18 30 19 82 20 76 21 75 22 31 24
REMARK SMILES IDX 63 25 43 26 62 27 44 28 47 29 61 30 80 31 45 32 46 33 60 35
REMARK SMILES IDX 81 36 48 37 32 38 33 39 41 40 34 41 36 42 42 43 35 44 37 45
REMARK SMILES IDX 38 46 39 47 40 48 64 49 65 50 73 51 66 52 68 53 74 54 67 55
REMARK SMILES IDX 69 56 70 57 71 58 72 59 49 60 50 61 58 62 51 63 53 64 59 65
REMARK SMILES IDX 52 66 54 67 55 68 56 69 57 70 5 71 6 72 7 73 8 74 9 76 10 77
REMARK SMILES IDX 11 78 14 79 12 80 13 81 15 82 16 83 22 84 17 85 20 86 18 87
REMARK SMILES IDX 19 88 21 89
REMARK H PARENT 3 5 79 23 47 34 7 75
REMARK Flexibility Score: inf
ROOT
ATOM      1  C   UNL A   1      32.634  32.177  27.140  1.00  0.00     0.118 C 
ENDROOT
BRANCH   1   2
ATOM      2  N   UNL A   1      32.549  33.583  27.501  1.00  0.00    -0.352 N 
ATOM      3  O   UNL A   1      32.823  35.432  28.736  1.00  0.00    -0.269 OA
ATOM      4  C   UNL A   1      33.213  34.298  28.466  1.00  0.00     0.251 C 
ATOM      5  H   UNL A   1      31.911  34.108  26.965  1.00  0.00     0.163 HD
BRANCH   4   6
ATOM      6  C   UNL A   1      34.369  33.720  29.186  1.00  0.00     0.039 A 
ATOM      7  C   UNL A   1      34.203  32.738  30.168  1.00  0.00     0.014 A 
ATOM      8  C   UNL A   1      35.656  34.121  28.815  1.00  0.00     0.014 A 
ATOM      9  C   UNL A   1      35.311  32.241  30.853  1.00  0.00     0.010 A 
ATOM     10  C   UNL A   1      36.770  33.576  29.458  1.00  0.00     0.010 A 
ATOM     11  C   UNL A   1      36.606  32.649  30.499  1.00  0.00    -0.014 A 
BRANCH  11  12
ATOM     12  C   UNL A   1      37.789  32.055  31.171  1.00  0.00     0.031 A 
ATOM     13  C   UNL A   1      38.548  30.923  30.540  1.00  0.00     0.074 A 
ATOM     14  C   UNL A   1      38.144  32.509  32.388  1.00  0.00     0.049 A 
ATOM     15  N   UNL A   1      39.579  30.265  31.004  1.00  0.00    -0.248 NA
ATOM     16  C   UNL A   1      38.083  30.457  29.224  1.00  0.00     0.031 C 
ATOM     17  C   UNL A   1      37.445  33.561  33.128  1.00  0.00     0.029 A 
ATOM     18  N   UNL A   1      39.157  32.125  33.229  1.00  0.00    -0.354 N 
ATOM     19  C   UNL A   1      39.864  29.286  30.062  1.00  0.00     0.074 A 
ATOM     20  C   UNL A   1      38.892  29.430  28.998  1.00  0.00     0.031 C 
ATOM     21  C   UNL A   1      38.041  33.731  34.317  1.00  0.00     0.029 A 
ATOM     22  C   UNL A   1      39.141  32.779  34.438  1.00  0.00     0.049 A 
ATOM     23  H   UNL A   1      39.831  31.448  32.990  1.00  0.00     0.167 HD
ATOM     24  C   UNL A   1      40.858  28.367  30.071  1.00  0.00     0.034 A 
ATOM     25  C   UNL A   1      39.909  32.620  35.533  1.00  0.00     0.034 A 
ATOM     26  C   UNL A   1      41.850  28.257  31.106  1.00  0.00     0.049 A 
ATOM     27  C   UNL A   1      41.029  31.620  35.504  1.00  0.00     0.074 A 
ATOM     28  C   UNL A   1      42.955  27.424  31.154  1.00  0.00     0.029 A 
ATOM     29  N   UNL A   1      41.854  28.995  32.281  1.00  0.00    -0.354 N 
ATOM     30  N   UNL A   1      41.386  30.818  34.530  1.00  0.00    -0.248 NA
ATOM     31  C   UNL A   1      41.871  31.522  36.704  1.00  0.00     0.031 C 
ATOM     32  C   UNL A   1      43.621  27.653  32.364  1.00  0.00     0.029 A 
ATOM     33  C   UNL A   1      42.933  28.630  33.066  1.00  0.00     0.049 A 
ATOM     34  H   UNL A   1      41.187  29.678  32.519  1.00  0.00     0.167 HD
ATOM     35  C   UNL A   1      42.505  30.134  34.991  1.00  0.00     0.074 A 
ATOM     36  C   UNL A   1      42.779  30.632  36.324  1.00  0.00     0.031 C 
ATOM     37  C   UNL A   1      43.226  29.168  34.371  1.00  0.00     0.034 A 
BRANCH  24  38
ATOM     38  C   UNL A   1      40.958  27.437  28.891  1.00  0.00     0.023 A 
ATOM     39  C   UNL A   1      40.084  26.334  28.808  1.00  0.00     0.012 A 
ATOM     40  C   UNL A   1      41.869  27.677  27.846  1.00  0.00     0.148 A 
ATOM     41  C   UNL A   1      40.133  25.471  27.714  1.00  0.00     0.002 A 
ATOM     42  C   UNL A   1      41.890  26.829  26.743  1.00  0.00     0.091 A 
ATOM     43  F   UNL A   1      42.715  28.713  27.954  1.00  0.00    -0.205 F 
ATOM     44  C   UNL A   1      41.028  25.723  26.678  1.00  0.00     0.022 A 
BRANCH  42  45
ATOM     45  S   UNL A   1      42.975  27.130  25.342  1.00  0.00     0.127 S 
ATOM     46  O   UNL A   1      42.910  25.853  24.635  1.00  0.00    -0.237 OA
ATOM     47  O   UNL A   1      42.309  28.239  24.656  1.00  0.00    -0.237 OA
ATOM     48  O   UNL A   1      44.266  27.476  25.923  1.00  0.00    -0.744 OA
ENDBRANCH  42  45
ENDBRANCH  24  38
BRANCH  25  49
ATOM     49  C   UNL A   1      39.657  33.480  36.721  1.00  0.00     0.023 A 
ATOM     50  C   UNL A   1      40.025  34.837  36.683  1.00  0.00     0.012 A 
ATOM     51  C   UNL A   1      38.962  32.985  37.842  1.00  0.00     0.148 A 
ATOM     52  C   UNL A   1      39.708  35.688  37.744  1.00  0.00     0.002 A 
ATOM     53  C   UNL A   1      38.601  33.848  38.870  1.00  0.00     0.091 A 
ATOM     54  F   UNL A   1      38.636  31.684  37.864  1.00  0.00    -0.205 F 
ATOM     55  C   UNL A   1      38.984  35.198  38.828  1.00  0.00     0.022 A 
BRANCH  53  56
ATOM     56  S   UNL A   1      37.541  33.334  40.227  1.00  0.00     0.127 S 
ATOM     57  O   UNL A   1      36.357  32.857  39.517  1.00  0.00    -0.237 OA
ATOM     58  O   UNL A   1      38.344  32.287  40.860  1.00  0.00    -0.237 OA
ATOM     59  O   UNL A   1      37.355  34.522  41.048  1.00  0.00    -0.744 OA
ENDBRANCH  53  56
ENDBRANCH  25  49
BRANCH  37  60
ATOM     60  C   UNL A   1      44.394  28.580  35.114  1.00  0.00     0.023 A 
ATOM     61  C   UNL A   1      45.678  29.124  34.920  1.00  0.00     0.012 A 
ATOM     62  C   UNL A   1      44.208  27.565  36.072  1.00  0.00     0.148 A 
ATOM     63  C   UNL A   1      46.764  28.656  35.658  1.00  0.00     0.002 A 
ATOM     64  C   UNL A   1      45.288  27.128  36.830  1.00  0.00     0.091 A 
ATOM     65  F   UNL A   1      42.980  27.048  36.225  1.00  0.00    -0.205 F 
ATOM     66  C   UNL A   1      46.567  27.668  36.620  1.00  0.00     0.022 A 
BRANCH  64  67
ATOM     67  S   UNL A   1      45.111  25.921  38.149  1.00  0.00     0.127 S 
ATOM     68  O   UNL A   1      46.471  25.861  38.682  1.00  0.00    -0.237 OA
ATOM     69  O   UNL A   1      44.137  26.564  39.032  1.00  0.00    -0.237 OA
ATOM     70  O   UNL A   1      44.634  24.700  37.513  1.00  0.00    -0.744 OA
ENDBRANCH  64  67
ENDBRANCH  37  60
ENDBRANCH  11  12
ENDBRANCH   4   6
ENDBRANCH   1   2
BRANCH   1  71
ATOM     71  C   UNL A   1      31.404  31.694  26.373  1.00  0.00     0.042 C 
BRANCH  71  72
ATOM     72  C   UNL A   1      31.462  30.228  25.949  1.00  0.00     0.118 C 
BRANCH  72  73
ATOM     73  N   UNL A   1      32.169  30.062  24.690  1.00  0.00    -0.351 N 
ATOM     74  C   UNL A   1      31.928  29.195  23.656  1.00  0.00     0.273 C 
ATOM     75  H   UNL A   1      32.938  30.662  24.560  1.00  0.00     0.163 HD
ATOM     76  O   UNL A   1      32.807  29.061  22.800  1.00  0.00    -0.267 OA
BRANCH  74  77
ATOM     77  C   UNL A   1      30.669  28.468  23.583  1.00  0.00     0.174 A 
ATOM     78  N   UNL A   1      30.469  27.160  24.003  1.00  0.00    -0.211 NA
ATOM     79  C   UNL A   1      29.455  29.001  23.186  1.00  0.00     0.167 A 
ATOM     80  C   UNL A   1      29.179  26.972  23.843  1.00  0.00     0.309 A 
ATOM     81  O   UNL A   1      28.493  28.042  23.361  1.00  0.00    -0.443 OA
BRANCH  79  82
ATOM     82  C   UNL A   1      29.006  30.261  22.631  1.00  0.00     0.026 A 
ATOM     83  C   UNL A   1      28.415  30.303  21.361  1.00  0.00     0.051 A 
ATOM     84  C   UNL A   1      29.163  31.451  23.349  1.00  0.00     0.051 A 
ATOM     85  C   UNL A   1      27.996  31.521  20.832  1.00  0.00     0.126 A 
ATOM     86  C   UNL A   1      28.746  32.658  22.792  1.00  0.00     0.126 A 
ATOM     87  F   UNL A   1      27.422  31.547  19.622  1.00  0.00    -0.207 F 
ATOM     88  C   UNL A   1      28.160  32.704  21.536  1.00  0.00     0.078 A 
ATOM     89  F   UNL A   1      28.916  33.792  23.482  1.00  0.00    -0.207 F 
ENDBRANCH  79  82
ENDBRANCH  74  77
ENDBRANCH  72  73
ENDBRANCH  71  72
ENDBRANCH   1  71
TORSDOF 14
ENDMDL
MODEL 2
REMARK VINA RESULT:     -12.3      1.636      7.961
REMARK SMILES O=C(NCCCNC(=O)c1ncoc1-c1cc(F)cc(F)c1)c1ccc(-c2c3nc(c(-c4cccc(S(=O)(=O)[O-])c4F)c4ccc([nH]4)c(-c4cccc(S(=O)(=O)[O-])c4F)c4nc(c(-c5cccc(S(=O)(=O)[O-])c5F)c5ccc2[nH]5)C=C4)C=C3)cc1
REMARK SMILES IDX 4 1 3 2 1 3 2 4 23 6 24 7 85 8 25 9 84 10 26 11 27 12 28 13
REMARK SMILES IDX 78 14 29 15 83 16 77 17 79 18 30 19 82 20 76 21 75 22 31 24
REMARK SMILES IDX 63 25 43 26 62 27 44 28 47 29 61 30 80 31 45 32 46 33 60 35
REMARK SMILES IDX 81 36 48 37 32 38 33 39 41 40 34 41 36 42 42 43 35 44 37 45
REMARK SMILES IDX 38 46 39 47 40 48 64 49 65 50 73 51 66 52 68 53 74 54 67 55
REMARK SMILES IDX 69 56 70 57 71 58 72 59 49 60 50 61 58 62 51 63 53 64 59 65
REMARK SMILES IDX 52 66 54 67 55 68 56 69 57 70 5 71 6 72 7 73 8 74 9 76 10 77
REMARK SMILES IDX 11 78 14 79 12 80 13 81 15 82 16 83 22 84 17 85 20 86 18 87
REMARK SMILES IDX 19 88 21 89
REMARK H PARENT 3 5 79 23 47 34 7 75
REMARK Flexibility Score: inf
ROOT
ATOM      1  C   UNL A   1      32.603  31.734  27.228  1.00  0.00     0.118 C 
ENDROOT
BRANCH   1   2
ATOM      2  N   UNL A   1      32.878  33.157  27.346  1.00  0.00    -0.352 N 
ATOM      3  O   UNL A   1      33.769  35.040  28.169  1.00  0.00    -0.269 OA
ATOM      4  C   UNL A   1      33.858  33.821  28.039  1.00  0.00     0.251 C 
ATOM      5  H   UNL A   1      32.260  33.738  26.846  1.00  0.00     0.163 HD
BRANCH   4   6
ATOM      6  C   UNL A   1      35.000  33.093  28.635  1.00  0.00     0.039 A 
ATOM      7  C   UNL A   1      36.316  33.340  28.233  1.00  0.00     0.014 A 
ATOM      8  C   UNL A   1      34.749  32.191  29.674  1.00  0.00     0.014 A 
ATOM      9  C   UNL A   1      37.365  32.610  28.789  1.00  0.00     0.010 A 
ATOM     10  C   UNL A   1      35.806  31.506  30.275  1.00  0.00     0.010 A 
ATOM     11  C   UNL A   1      37.121  31.691  29.821  1.00  0.00    -0.014 A 
BRANCH  11  12
ATOM     12  C   UNL A   1      38.250  30.977  30.472  1.00  0.00     0.031 A 
ATOM     13  C   UNL A   1      38.695  31.338  31.860  1.00  0.00     0.074 A 
ATOM     14  C   UNL A   1      38.911  30.032  29.776  1.00  0.00     0.049 A 
ATOM     15  N   UNL A   1      39.681  30.842  32.561  1.00  0.00    -0.248 NA
ATOM     16  C   UNL A   1      37.947  32.403  32.547  1.00  0.00     0.031 C 
ATOM     17  C   UNL A   1      38.610  29.641  28.398  1.00  0.00     0.029 A 
ATOM     18  N   UNL A   1      39.987  29.254  30.118  1.00  0.00    -0.354 N 
ATOM     19  C   UNL A   1      39.699  31.555  33.752  1.00  0.00     0.074 A 
ATOM     20  C   UNL A   1      38.627  32.525  33.679  1.00  0.00     0.031 C 
ATOM     21  C   UNL A   1      39.488  28.706  28.006  1.00  0.00     0.029 A 
ATOM     22  C   UNL A   1      40.433  28.457  29.091  1.00  0.00     0.049 A 
ATOM     23  H   UNL A   1      40.401  29.265  31.012  1.00  0.00     0.167 HD
ATOM     24  C   UNL A   1      40.519  31.400  34.819  1.00  0.00     0.034 A 
ATOM     25  C   UNL A   1      41.495  27.631  29.017  1.00  0.00     0.034 A 
ATOM     26  C   UNL A   1      41.553  30.405  34.908  1.00  0.00     0.049 A 
ATOM     27  C   UNL A   1      42.366  27.448  30.226  1.00  0.00     0.074 A 
ATOM     28  C   UNL A   1      42.368  30.104  35.986  1.00  0.00     0.029 A 
ATOM     29  N   UNL A   1      41.923  29.553  33.878  1.00  0.00    -0.354 N 
ATOM     30  N   UNL A   1      42.261  28.012  31.405  1.00  0.00    -0.248 NA
ATOM     31  C   UNL A   1      43.480  26.496  30.111  1.00  0.00     0.031 C 
ATOM     32  C   UNL A   1      43.237  29.077  35.602  1.00  0.00     0.029 A 
ATOM     33  C   UNL A   1      42.961  28.735  34.288  1.00  0.00     0.049 A 
ATOM     34  H   UNL A   1      41.506  29.533  32.986  1.00  0.00     0.167 HD
ATOM     35  C   UNL A   1      43.281  27.470  32.178  1.00  0.00     0.074 A 
ATOM     36  C   UNL A   1      43.980  26.517  31.340  1.00  0.00     0.031 C 
ATOM     37  C   UNL A   1      43.617  27.753  33.461  1.00  0.00     0.034 A 
BRANCH  24  38
ATOM     38  C   UNL A   1      40.294  32.296  36.008  1.00  0.00     0.023 A 
ATOM     39  C   UNL A   1      41.114  33.430  36.181  1.00  0.00     0.012 A 
ATOM     40  C   UNL A   1      39.248  32.055  36.918  1.00  0.00     0.148 A 
ATOM     41  C   UNL A   1      40.912  34.294  37.256  1.00  0.00     0.002 A 
ATOM     42  C   UNL A   1      39.033  32.940  37.969  1.00  0.00     0.091 A 
ATOM     43  F   UNL A   1      38.495  30.956  36.757  1.00  0.00    -0.205 F 
ATOM     44  C   UNL A   1      39.867  34.056  38.144  1.00  0.00     0.022 A 
BRANCH  42  45
ATOM     45  S   UNL A   1      37.665  32.728  39.116  1.00  0.00     0.127 S 
ATOM     46  O   UNL A   1      36.512  32.833  38.226  1.00  0.00    -0.237 OA
ATOM     47  O   UNL A   1      37.902  31.385  39.650  1.00  0.00    -0.237 OA
ATOM     48  O   UNL A   1      37.817  33.795  40.097  1.00  0.00    -0.744 OA
ENDBRANCH  42  45
ENDBRANCH  24  38
BRANCH  25  49
ATOM     49  C   UNL A   1      41.739  26.883  27.754  1.00  0.00     0.023 A 
ATOM     50  C   UNL A   1      42.351  27.539  26.670  1.00  0.00     0.012 A 
ATOM     51  C   UNL A   1      41.465  25.504  27.660  1.00  0.00     0.148 A 
ATOM     52  C   UNL A   1      42.683  26.834  25.511  1.00  0.00     0.002 A 
ATOM     53  C   UNL A   1      41.847  24.798  26.526  1.00  0.00     0.091 A 
ATOM     54  F   UNL A   1      40.865  24.904  28.699  1.00  0.00    -0.205 F 
ATOM     55  C   UNL A   1      42.446  25.463  25.445  1.00  0.00     0.022 A 
BRANCH  53  56
ATOM     56  S   UNL A   1      41.716  23.009  26.422  1.00  0.00     0.127 S 
ATOM     57  O   UNL A   1      42.452  22.585  27.609  1.00  0.00    -0.237 OA
ATOM     58  O   UNL A   1      40.268  22.806  26.490  1.00  0.00    -0.237 OA
ATOM     59  O   UNL A   1      42.309  22.648  25.142  1.00  0.00    -0.744 OA
ENDBRANCH  53  56
ENDBRANCH  25  49
BRANCH  37  60
ATOM     60  C   UNL A   1      44.789  27.022  34.055  1.00  0.00     0.023 A 
ATOM     61  C   UNL A   1      46.082  27.561  33.909  1.00  0.00     0.012 A 
ATOM     62  C   UNL A   1      44.604  25.865  34.835  1.00  0.00     0.148 A 
ATOM     63  C   UNL A   1      47.176  26.950  34.520  1.00  0.00     0.002 A 
ATOM     64  C   UNL A   1      45.694  25.282  35.472  1.00  0.00     0.091 A 
ATOM     65  F   UNL A   1      43.367  25.358  34.943  1.00  0.00    -0.205 F 
ATOM     66  C   UNL A   1      46.981  25.820  35.310  1.00  0.00     0.022 A 
BRANCH  64  67
ATOM     67  S   UNL A   1      45.522  23.876  36.576  1.00  0.00     0.127 S 
ATOM     68  O   UNL A   1      46.913  23.615  36.944  1.00  0.00    -0.237 OA
ATOM     69  O   UNL A   1      44.698  24.423  37.655  1.00  0.00    -0.237 OA
ATOM     70  O   UNL A   1      44.875  22.830  35.795  1.00  0.00    -0.744 OA
ENDBRANCH  64  67
ENDBRANCH  37  60
ENDBRANCH  11  12
ENDBRANCH   4   6
ENDBRANCH   1   2
BRANCH   1  71
ATOM     71  C   UNL A   1      31.463  31.436  26.255  1.00  0.00     0.042 C 
BRANCH  71  72
ATOM     72  C   UNL A   1      31.403  29.985  25.780  1.00  0.00     0.118 C 
BRANCH  72  73
ATOM     73  N   UNL A   1      32.061  29.814  24.495  1.00  0.00    -0.351 N 
ATOM     74  C   UNL A   1      31.741  28.987  23.450  1.00  0.00     0.273 C 
ATOM     75  H   UNL A   1      32.856  30.377  24.354  1.00  0.00     0.163 HD
ATOM     76  O   UNL A   1      32.584  28.829  22.562  1.00  0.00    -0.267 OA
BRANCH  74  77
ATOM     77  C   UNL A   1      30.443  28.329  23.401  1.00  0.00     0.174 A 
ATOM     78  N   UNL A   1      30.184  27.030  23.814  1.00  0.00    -0.211 NA
ATOM     79  C   UNL A   1      29.250  28.930  23.039  1.00  0.00     0.167 A 
ATOM     80  C   UNL A   1      28.883  26.912  23.684  1.00  0.00     0.309 A 
ATOM     81  O   UNL A   1      28.243  28.022  23.229  1.00  0.00    -0.443 OA
BRANCH  79  82
ATOM     82  C   UNL A   1      28.856  30.218  22.506  1.00  0.00     0.026 A 
ATOM     83  C   UNL A   1      28.290  30.310  21.227  1.00  0.00     0.051 A 
ATOM     84  C   UNL A   1      29.043  31.385  23.254  1.00  0.00     0.051 A 
ATOM     85  C   UNL A   1      27.924  31.554  20.721  1.00  0.00     0.126 A 
ATOM     86  C   UNL A   1      28.679  32.618  22.719  1.00  0.00     0.126 A 
ATOM     87  F   UNL A   1      27.373  31.629  19.502  1.00  0.00    -0.207 F 
ATOM     88  C   UNL A   1      28.117  32.714  21.454  1.00  0.00     0.078 A 
ATOM     89  F   UNL A   1      28.876  33.730  23.438  1.00  0.00    -0.207 F 
ENDBRANCH  79  82
ENDBRANCH  74  77
ENDBRANCH  72  73
ENDBRANCH  71  72
ENDBRANCH   1  71
TORSDOF 14
ENDMDL
MODEL 3
REMARK VINA RESULT:     -12.1      7.492     12.585
REMARK SMILES O=C(NCCCNC(=O)c1ncoc1-c1cc(F)cc(F)c1)c1ccc(-c2c3nc(c(-c4cccc(S(=O)(=O)[O-])c4F)c4ccc([nH]4)c(-c4cccc(S(=O)(=O)[O-])c4F)c4nc(c(-c5cccc(S(=O)(=O)[O-])c5F)c5ccc2[nH]5)C=C4)C=C3)cc1
REMARK SMILES IDX 4 1 3 2 1 3 2 4 23 6 24 7 85 8 25 9 84 10 26 11 27 12 28 13
REMARK SMILES IDX 78 14 29 15 83 16 77 17 79 18 30 19 82 20 76 21 75 22 31 24
REMARK SMILES IDX 63 25 43 26 62 27 44 28 47 29 61 30 80 31 45 32 46 33 60 35
REMARK SMILES IDX 81 36 48 37 32 38 33 39 41 40 34 41 36 42 42 43 35 44 37 45
REMARK SMILES IDX 38 46 39 47 40 48 64 49 65 50 73 51 66 52 68 53 74 54 67 55
REMARK SMILES IDX 69 56 70 57 71 58 72 59 49 60 50 61 58 62 51 63 53 64 59 65
REMARK SMILES IDX 52 66 54 67 55 68 56 69 57 70 5 71 6 72 7 73 8 74 9 76 10 77
REMARK SMILES IDX 11 78 14 79 12 80 13 81 15 82 16 83 22 84 17 85 20 86 18 87
REMARK SMILES IDX 19 88 21 89
REMARK H PARENT 3 5 79 23 47 34 7 75
REMARK Flexibility Score: inf
ROOT
ATOM      1  C   UNL A   1      38.746  20.439  25.719  1.00  0.00     0.118 C 
ENDROOT
BRANCH   1   2
ATOM      2  N   UNL A   1      39.851  19.536  26.002  1.00  0.00    -0.352 N 
ATOM      3  O   UNL A   1      41.971  18.868  26.270  1.00  0.00    -0.269 OA
ATOM      4  C   UNL A   1      41.170  19.799  26.275  1.00  0.00     0.251 C 
ATOM      5  H   UNL A   1      39.613  18.581  25.997  1.00  0.00     0.163 HD
BRANCH   4   6
ATOM      6  C   UNL A   1      41.632  21.175  26.558  1.00  0.00     0.039 A 
ATOM      7  C   UNL A   1      41.762  22.127  25.542  1.00  0.00     0.014 A 
ATOM      8  C   UNL A   1      41.873  21.540  27.886  1.00  0.00     0.014 A 
ATOM      9  C   UNL A   1      42.236  23.404  25.838  1.00  0.00     0.010 A 
ATOM     10  C   UNL A   1      42.287  22.839  28.190  1.00  0.00     0.010 A 
ATOM     11  C   UNL A   1      42.495  23.775  27.166  1.00  0.00    -0.014 A 
BRANCH  11  12
ATOM     12  C   UNL A   1      42.917  25.162  27.489  1.00  0.00     0.031 A 
ATOM     13  C   UNL A   1      41.962  26.132  28.123  1.00  0.00     0.074 A 
ATOM     14  C   UNL A   1      44.159  25.560  27.152  1.00  0.00     0.049 A 
ATOM     15  N   UNL A   1      42.155  27.387  28.438  1.00  0.00    -0.248 NA
ATOM     16  C   UNL A   1      40.612  25.636  28.432  1.00  0.00     0.031 C 
ATOM     17  C   UNL A   1      45.153  24.726  26.474  1.00  0.00     0.029 A 
ATOM     18  N   UNL A   1      44.785  26.771  27.303  1.00  0.00    -0.354 N 
ATOM     19  C   UNL A   1      40.946  27.843  28.946  1.00  0.00     0.074 A 
ATOM     20  C   UNL A   1      40.020  26.731  28.892  1.00  0.00     0.031 C 
ATOM     21  C   UNL A   1      46.260  25.452  26.257  1.00  0.00     0.029 A 
ATOM     22  C   UNL A   1      46.042  26.810  26.748  1.00  0.00     0.049 A 
ATOM     23  H   UNL A   1      44.375  27.538  27.766  1.00  0.00     0.167 HD
ATOM     24  C   UNL A   1      40.641  29.069  29.433  1.00  0.00     0.034 A 
ATOM     25  C   UNL A   1      46.918  27.826  26.625  1.00  0.00     0.034 A 
ATOM     26  C   UNL A   1      41.576  30.158  29.528  1.00  0.00     0.049 A 
ATOM     27  C   UNL A   1      46.572  29.166  27.208  1.00  0.00     0.074 A 
ATOM     28  C   UNL A   1      41.389  31.405  30.099  1.00  0.00     0.029 A 
ATOM     29  N   UNL A   1      42.871  30.135  29.032  1.00  0.00    -0.354 N 
ATOM     30  N   UNL A   1      45.480  29.528  27.837  1.00  0.00    -0.248 NA
ATOM     31  C   UNL A   1      47.582  30.226  27.094  1.00  0.00     0.031 C 
ATOM     32  C   UNL A   1      42.570  32.139  29.938  1.00  0.00     0.029 A 
ATOM     33  C   UNL A   1      43.491  31.348  29.271  1.00  0.00     0.049 A 
ATOM     34  H   UNL A   1      43.286  29.368  28.577  1.00  0.00     0.167 HD
ATOM     35  C   UNL A   1      45.679  30.851  28.213  1.00  0.00     0.074 A 
ATOM     36  C   UNL A   1      47.004  31.220  27.759  1.00  0.00     0.031 C 
ATOM     37  C   UNL A   1      44.830  31.688  28.859  1.00  0.00     0.034 A 
BRANCH  24  38
ATOM     38  C   UNL A   1      39.247  29.284  29.957  1.00  0.00     0.023 A 
ATOM     39  C   UNL A   1      38.912  28.808  31.242  1.00  0.00     0.012 A 
ATOM     40  C   UNL A   1      38.288  29.998  29.214  1.00  0.00     0.148 A 
ATOM     41  C   UNL A   1      37.638  29.017  31.766  1.00  0.00     0.002 A 
ATOM     42  C   UNL A   1      37.029  30.230  29.758  1.00  0.00     0.091 A 
ATOM     43  F   UNL A   1      38.611  30.419  27.982  1.00  0.00    -0.205 F 
ATOM     44  C   UNL A   1      36.700  29.736  31.030  1.00  0.00     0.022 A 
BRANCH  42  45
ATOM     45  S   UNL A   1      35.791  31.202  28.890  1.00  0.00     0.127 S 
ATOM     46  O   UNL A   1      36.606  32.254  28.289  1.00  0.00    -0.237 OA
ATOM     47  O   UNL A   1      35.241  30.239  27.935  1.00  0.00    -0.237 OA
ATOM     48  O   UNL A   1      34.849  31.629  29.917  1.00  0.00    -0.744 OA
ENDBRANCH  42  45
ENDBRANCH  24  38
BRANCH  25  49
ATOM     49  C   UNL A   1      48.226  27.573  25.962  1.00  0.00     0.023 A 
ATOM     50  C   UNL A   1      49.311  27.109  26.728  1.00  0.00     0.012 A 
ATOM     51  C   UNL A   1      48.367  27.690  24.565  1.00  0.00     0.148 A 
ATOM     52  C   UNL A   1      50.518  26.769  26.113  1.00  0.00     0.002 A 
ATOM     53  C   UNL A   1      49.552  27.298  23.954  1.00  0.00     0.091 A 
ATOM     54  F   UNL A   1      47.325  28.150  23.858  1.00  0.00    -0.205 F 
ATOM     55  C   UNL A   1      50.633  26.848  24.727  1.00  0.00     0.022 A 
BRANCH  53  56
ATOM     56  S   UNL A   1      49.730  27.225  22.167  1.00  0.00     0.127 S 
ATOM     57  O   UNL A   1      49.489  28.614  21.786  1.00  0.00    -0.237 OA
ATOM     58  O   UNL A   1      51.116  26.777  22.018  1.00  0.00    -0.237 OA
ATOM     59  O   UNL A   1      48.739  26.259  21.715  1.00  0.00    -0.744 OA
ENDBRANCH  53  56
ENDBRANCH  25  49
BRANCH  37  60
ATOM     60  C   UNL A   1      45.301  33.091  29.129  1.00  0.00     0.023 A 
ATOM     61  C   UNL A   1      46.027  33.359  30.305  1.00  0.00     0.012 A 
ATOM     62  C   UNL A   1      45.114  34.114  28.181  1.00  0.00     0.148 A 
ATOM     63  C   UNL A   1      46.549  34.631  30.541  1.00  0.00     0.002 A 
ATOM     64  C   UNL A   1      45.668  35.370  28.404  1.00  0.00     0.091 A 
ATOM     65  F   UNL A   1      44.402  33.841  27.078  1.00  0.00    -0.205 F 
ATOM     66  C   UNL A   1      46.380  35.631  29.586  1.00  0.00     0.022 A 
BRANCH  64  67
ATOM     67  S   UNL A   1      45.573  36.692  27.192  1.00  0.00     0.127 S 
ATOM     68  O   UNL A   1      46.309  37.763  27.861  1.00  0.00    -0.237 OA
ATOM     69  O   UNL A   1      46.259  36.109  26.038  1.00  0.00    -0.237 OA
ATOM     70  O   UNL A   1      44.153  36.943  26.984  1.00  0.00    -0.744 OA
ENDBRANCH  64  67
ENDBRANCH  37  60
ENDBRANCH  11  12
ENDBRANCH   4   6
ENDBRANCH   1   2
BRANCH   1  71
ATOM     71  C   UNL A   1      37.604  19.751  24.973  1.00  0.00     0.042 C 
BRANCH  71  72
ATOM     72  C   UNL A   1      36.407  20.654  24.683  1.00  0.00     0.118 C 
BRANCH  72  73
ATOM     73  N   UNL A   1      35.521  20.757  25.831  1.00  0.00    -0.351 N 
ATOM     74  C   UNL A   1      34.155  20.849  25.880  1.00  0.00     0.273 C 
ATOM     75  H   UNL A   1      35.971  20.760  26.707  1.00  0.00     0.163 HD
ATOM     76  O   UNL A   1      33.638  21.178  26.951  1.00  0.00    -0.267 OA
BRANCH  74  77
ATOM     77  C   UNL A   1      33.355  20.561  24.698  1.00  0.00     0.174 A 
ATOM     78  N   UNL A   1      32.832  21.508  23.829  1.00  0.00    -0.211 NA
ATOM     79  C   UNL A   1      33.084  19.298  24.199  1.00  0.00     0.167 A 
ATOM     80  C   UNL A   1      32.285  20.792  22.874  1.00  0.00     0.309 A 
ATOM     81  O   UNL A   1      32.403  19.445  23.021  1.00  0.00    -0.443 OA
BRANCH  79  82
ATOM     82  C   UNL A   1      33.319  17.937  24.635  1.00  0.00     0.026 A 
ATOM     83  C   UNL A   1      32.247  17.128  25.036  1.00  0.00     0.051 A 
ATOM     84  C   UNL A   1      34.617  17.415  24.670  1.00  0.00     0.051 A 
ATOM     85  C   UNL A   1      32.485  15.825  25.462  1.00  0.00     0.126 A 
ATOM     86  C   UNL A   1      34.828  16.112  25.112  1.00  0.00     0.126 A 
ATOM     87  F   UNL A   1      31.451  15.057  25.832  1.00  0.00    -0.207 F 
ATOM     88  C   UNL A   1      33.770  15.307  25.509  1.00  0.00     0.078 A 
ATOM     89  F   UNL A   1      36.076  15.628  25.156  1.00  0.00    -0.207 F 
ENDBRANCH  79  82
ENDBRANCH  74  77
ENDBRANCH  72  73
ENDBRANCH  71  72
ENDBRANCH   1  71
TORSDOF 14
ENDMDL
