MODEL 1
REMARK VINA RESULT:     -11.6      0.000      0.000
REMARK SMILES COc1ncccc1C(=O)N[C@@](C)(C(=O)NCCCNC(=O)c1ccc(-c2c3nc(c(-c4cccc(S(=O)(=O)[O-])c4F)c4ccc([nH]4)c(-c4cccc(S(=O)(=O)[O-])c4F)c4nc(c(-c5cccc(S(=O)(=O)[O-])c5F)c5ccc2[nH]5)C=C4)C=C3)cc1)C(F)(F)F
REMARK SMILES IDX 18 1 17 2 16 3 14 4 15 5 12 7 13 8 11 9 9 10 10 11 8 13 3 14
REMARK SMILES IDX 4 15 5 16 7 17 6 18 2 19 1 20 86 21 87 22 88 23 89 24 19 25
REMARK SMILES IDX 20 26 21 27 22 29 23 30 24 31 85 32 25 33 84 34 26 35 27 36
REMARK SMILES IDX 28 37 78 38 29 39 83 40 77 41 79 42 30 43 82 44 76 45 75 46
REMARK SMILES IDX 31 48 63 49 43 50 62 51 44 52 47 53 61 54 80 55 45 56 46 57
REMARK SMILES IDX 60 59 81 60 48 61 32 62 33 63 41 64 34 65 36 66 42 67 35 68
REMARK SMILES IDX 37 69 38 70 39 71 40 72 64 73 65 74 73 75 66 76 68 77 74 78
REMARK SMILES IDX 67 79 69 80 70 81 71 82 72 83 49 84 50 85 58 86 51 87 53 88
REMARK SMILES IDX 59 89 52 90 54 91 55 92 56 93 57 94
REMARK H PARENT 16 6 11 12 20 28 79 47 47 58
REMARK Flexibility Score: inf
ROOT
ATOM      1  C   UNL A   1      31.779  29.024  27.171  1.00  0.00     0.042 C 
ENDROOT
BRANCH   1   2
ATOM      2  C   UNL A   1      31.451  27.652  26.604  1.00  0.00     0.117 C 
BRANCH   2   3
ATOM      3  N   UNL A   1      31.012  27.709  25.219  1.00  0.00    -0.354 N 
ATOM      4  C   UNL A   1      31.202  26.926  24.123  1.00  0.00     0.254 C 
ATOM      5  O   UNL A   1      30.644  27.342  23.103  1.00  0.00    -0.272 OA
ATOM      6  H   UNL A   1      30.449  28.495  25.031  1.00  0.00     0.163 HD
BRANCH   4   7
ATOM      7  C   UNL A   1      32.122  25.679  24.111  1.00  0.00     0.212 C 
ATOM      8  C   UNL A   1      31.901  24.795  22.868  1.00  0.00     0.056 C 
BRANCH   7   9
ATOM      9  N   UNL A   1      31.703  24.946  25.361  1.00  0.00    -0.330 N 
ATOM     10  C   UNL A   1      31.833  23.832  26.138  1.00  0.00     0.257 C 
ATOM     11  O   UNL A   1      31.311  24.011  27.243  1.00  0.00    -0.269 OA
ATOM     12  H   UNL A   1      31.050  25.525  25.816  1.00  0.00     0.165 HD
BRANCH  10  13
ATOM     13  C   UNL A   1      32.439  22.503  25.844  1.00  0.00     0.101 A 
ATOM     14  C   UNL A   1      33.767  22.234  26.221  1.00  0.00     0.226 A 
ATOM     15  N   UNL A   1      34.424  21.064  25.985  1.00  0.00    -0.221 NA
ATOM     16  C   UNL A   1      33.758  20.100  25.333  1.00  0.00     0.115 A 
ATOM     17  C   UNL A   1      31.810  21.464  25.168  1.00  0.00     0.021 A 
ATOM     18  C   UNL A   1      32.456  20.252  24.909  1.00  0.00     0.021 A 
BRANCH  14  19
ATOM     19  O   UNL A   1      34.577  23.178  26.791  1.00  0.00    -0.480 OA
ATOM     20  C   UNL A   1      35.601  23.560  25.881  1.00  0.00     0.280 C 
ENDBRANCH  14  19
ENDBRANCH  10  13
ENDBRANCH   7   9
BRANCH   7  21
ATOM     21  C   UNL A   1      33.533  26.271  23.959  1.00  0.00     0.420 C 
ATOM     22  F   UNL A   1      33.576  27.428  23.268  1.00  0.00    -0.168 F 
ATOM     23  F   UNL A   1      34.078  26.505  25.184  1.00  0.00    -0.168 F 
ATOM     24  F   UNL A   1      34.385  25.403  23.356  1.00  0.00    -0.168 F 
ENDBRANCH   7  21
ENDBRANCH   4   7
ENDBRANCH   2   3
ENDBRANCH   1   2
BRANCH   1  25
ATOM     25  C   UNL A   1      32.653  29.896  26.283  1.00  0.00     0.118 C 
BRANCH  25  26
ATOM     26  N   UNL A   1      32.536  31.318  26.578  1.00  0.00    -0.352 N 
ATOM     27  C   UNL A   1      33.331  32.115  27.372  1.00  0.00     0.251 C 
ATOM     28  H   UNL A   1      31.778  31.776  26.147  1.00  0.00     0.163 HD
ATOM     29  O   UNL A   1      32.984  33.259  27.631  1.00  0.00    -0.269 OA
BRANCH  27  30
ATOM     30  C   UNL A   1      34.589  31.567  27.927  1.00  0.00     0.039 A 
ATOM     31  C   UNL A   1      35.713  32.390  28.008  1.00  0.00     0.014 A 
ATOM     32  C   UNL A   1      34.643  30.253  28.394  1.00  0.00     0.014 A 
ATOM     33  C   UNL A   1      36.870  31.913  28.628  1.00  0.00     0.010 A 
ATOM     34  C   UNL A   1      35.753  29.822  29.109  1.00  0.00     0.010 A 
ATOM     35  C   UNL A   1      36.886  30.639  29.219  1.00  0.00    -0.014 A 
BRANCH  35  36
ATOM     36  C   UNL A   1      38.078  30.136  29.949  1.00  0.00     0.031 A 
ATOM     37  C   UNL A   1      38.353  30.602  31.355  1.00  0.00     0.074 A 
ATOM     38  C   UNL A   1      38.954  29.327  29.322  1.00  0.00     0.049 A 
ATOM     39  N   UNL A   1      39.354  30.303  32.142  1.00  0.00    -0.248 NA
ATOM     40  C   UNL A   1      37.396  31.555  31.942  1.00  0.00     0.031 C 
ATOM     41  C   UNL A   1      38.845  28.873  27.934  1.00  0.00     0.029 A 
ATOM     42  N   UNL A   1      40.119  28.754  29.765  1.00  0.00    -0.354 N 
ATOM     43  C   UNL A   1      39.167  31.055  33.295  1.00  0.00     0.074 A 
ATOM     44  C   UNL A   1      37.989  31.867  33.084  1.00  0.00     0.031 C 
ATOM     45  C   UNL A   1      39.883  28.072  27.649  1.00  0.00     0.029 A 
ATOM     46  C   UNL A   1      40.750  27.980  28.819  1.00  0.00     0.049 A 
ATOM     47  H   UNL A   1      40.471  28.884  30.676  1.00  0.00     0.167 HD
ATOM     48  C   UNL A   1      39.883  31.046  34.444  1.00  0.00     0.034 A 
ATOM     49  C   UNL A   1      41.895  27.274  28.889  1.00  0.00     0.034 A 
ATOM     50  C   UNL A   1      41.032  30.211  34.662  1.00  0.00     0.049 A 
ATOM     51  C   UNL A   1      42.662  27.258  30.183  1.00  0.00     0.074 A 
ATOM     52  C   UNL A   1      41.782  30.060  35.814  1.00  0.00     0.029 A 
ATOM     53  N   UNL A   1      41.604  29.391  33.701  1.00  0.00    -0.354 N 
ATOM     54  N   UNL A   1      42.382  27.853  31.317  1.00  0.00    -0.248 NA
ATOM     55  C   UNL A   1      43.885  26.444  30.218  1.00  0.00     0.031 C 
ATOM     56  C   UNL A   1      42.828  29.172  35.540  1.00  0.00     0.029 A 
ATOM     57  C   UNL A   1      42.706  28.741  34.228  1.00  0.00     0.049 A 
ATOM     58  H   UNL A   1      41.275  29.287  32.779  1.00  0.00     0.167 HD
ATOM     59  C   UNL A   1      43.369  27.455  32.212  1.00  0.00     0.074 A 
ATOM     60  C   UNL A   1      44.245  26.554  31.489  1.00  0.00     0.031 C 
ATOM     61  C   UNL A   1      43.541  27.810  33.509  1.00  0.00     0.034 A 
BRANCH  48  62
ATOM     62  C   UNL A   1      39.406  31.935  35.566  1.00  0.00     0.023 A 
ATOM     63  C   UNL A   1      38.465  31.441  36.496  1.00  0.00     0.012 A 
ATOM     64  C   UNL A   1      39.895  33.247  35.715  1.00  0.00     0.148 A 
ATOM     65  C   UNL A   1      37.979  32.254  37.519  1.00  0.00     0.002 A 
ATOM     66  C   UNL A   1      39.446  34.034  36.769  1.00  0.00     0.091 A 
ATOM     67  F   UNL A   1      40.773  33.710  34.814  1.00  0.00    -0.205 F 
ATOM     68  C   UNL A   1      38.476  33.545  37.661  1.00  0.00     0.022 A 
BRANCH  66  69
ATOM     69  S   UNL A   1      40.085  35.681  37.089  1.00  0.00     0.127 S 
ATOM     70  O   UNL A   1      39.672  36.397  35.884  1.00  0.00    -0.237 OA
ATOM     71  O   UNL A   1      39.361  36.062  38.303  1.00  0.00    -0.237 OA
ATOM     72  O   UNL A   1      41.523  35.525  37.265  1.00  0.00    -0.744 OA
ENDBRANCH  66  69
ENDBRANCH  48  62
BRANCH  49  73
ATOM     73  C   UNL A   1      42.334  26.451  27.725  1.00  0.00     0.023 A 
ATOM     74  C   UNL A   1      43.229  27.009  26.790  1.00  0.00     0.012 A 
ATOM     75  C   UNL A   1      41.908  25.120  27.559  1.00  0.00     0.148 A 
ATOM     76  C   UNL A   1      43.668  26.267  25.694  1.00  0.00     0.002 A 
ATOM     77  C   UNL A   1      42.392  24.368  26.494  1.00  0.00     0.091 A 
ATOM     78  F   UNL A   1      41.054  24.610  28.457  1.00  0.00    -0.205 F 
ATOM     79  C   UNL A   1      43.257  24.944  25.551  1.00  0.00     0.022 A 
BRANCH  77  80
ATOM     80  S   UNL A   1      42.023  22.620  26.295  1.00  0.00     0.127 S 
ATOM     81  O   UNL A   1      42.632  22.333  24.999  1.00  0.00    -0.237 OA
ATOM     82  O   UNL A   1      42.714  22.038  27.445  1.00  0.00    -0.237 OA
ATOM     83  O   UNL A   1      40.572  22.515  26.347  1.00  0.00    -0.744 OA
ENDBRANCH  77  80
ENDBRANCH  49  73
BRANCH  61  84
ATOM     84  C   UNL A   1      44.696  27.194  34.255  1.00  0.00     0.023 A 
ATOM     85  C   UNL A   1      45.928  27.872  34.334  1.00  0.00     0.012 A 
ATOM     86  C   UNL A   1      44.533  25.973  34.941  1.00  0.00     0.148 A 
ATOM     87  C   UNL A   1      46.991  27.329  35.055  1.00  0.00     0.002 A 
ATOM     88  C   UNL A   1      45.579  25.465  35.701  1.00  0.00     0.091 A 
ATOM     89  F   UNL A   1      43.359  25.334  34.839  1.00  0.00    -0.205 F 
ATOM     90  C   UNL A   1      46.813  26.134  35.748  1.00  0.00     0.022 A 
BRANCH  88  91
ATOM     91  S   UNL A   1      45.409  23.987  36.707  1.00  0.00     0.127 S 
ATOM     92  O   UNL A   1      46.805  23.659  36.993  1.00  0.00    -0.237 OA
ATOM     93  O   UNL A   1      44.651  24.481  37.857  1.00  0.00    -0.237 OA
ATOM     94  O   UNL A   1      44.697  23.018  35.884  1.00  0.00    -0.744 OA
ENDBRANCH  88  91
ENDBRANCH  61  84
ENDBRANCH  35  36
ENDBRANCH  27  30
ENDBRANCH  25  26
ENDBRANCH   1  25
TORSDOF 17
ENDMDL
MODEL 2
REMARK VINA RESULT:     -11.6      5.074     10.181
REMARK SMILES COc1ncccc1C(=O)N[C@@](C)(C(=O)NCCCNC(=O)c1ccc(-c2c3nc(c(-c4cccc(S(=O)(=O)[O-])c4F)c4ccc([nH]4)c(-c4cccc(S(=O)(=O)[O-])c4F)c4nc(c(-c5cccc(S(=O)(=O)[O-])c5F)c5ccc2[nH]5)C=C4)C=C3)cc1)C(F)(F)F
REMARK SMILES IDX 18 1 17 2 16 3 14 4 15 5 12 7 13 8 11 9 9 10 10 11 8 13 3 14
REMARK SMILES IDX 4 15 5 16 7 17 6 18 2 19 1 20 86 21 87 22 88 23 89 24 19 25
REMARK SMILES IDX 20 26 21 27 22 29 23 30 24 31 85 32 25 33 84 34 26 35 27 36
REMARK SMILES IDX 28 37 78 38 29 39 83 40 77 41 79 42 30 43 82 44 76 45 75 46
REMARK SMILES IDX 31 48 63 49 43 50 62 51 44 52 47 53 61 54 80 55 45 56 46 57
REMARK SMILES IDX 60 59 81 60 48 61 32 62 33 63 41 64 34 65 36 66 42 67 35 68
REMARK SMILES IDX 37 69 38 70 39 71 40 72 64 73 65 74 73 75 66 76 68 77 74 78
REMARK SMILES IDX 67 79 69 80 70 81 71 82 72 83 49 84 50 85 58 86 51 87 53 88
REMARK SMILES IDX 59 89 52 90 54 91 55 92 56 93 57 94
REMARK H PARENT 16 6 11 12 20 28 79 47 47 58
REMARK Flexibility Score: inf
ROOT
ATOM      1  C   UNL A   1      36.734  22.229  23.855  1.00  0.00     0.042 C 
ENDROOT
BRANCH   1   2
ATOM      2  C   UNL A   1      35.452  22.971  23.509  1.00  0.00     0.117 C 
BRANCH   2   3
ATOM      3  N   UNL A   1      34.259  22.193  23.801  1.00  0.00    -0.354 N 
ATOM      4  C   UNL A   1      33.000  22.495  24.218  1.00  0.00     0.254 C 
ATOM      5  O   UNL A   1      32.265  21.511  24.355  1.00  0.00    -0.272 OA
ATOM      6  H   UNL A   1      34.393  21.227  23.666  1.00  0.00     0.163 HD
BRANCH   4   7
ATOM      7  C   UNL A   1      32.543  23.927  24.596  1.00  0.00     0.212 C 
ATOM      8  C   UNL A   1      31.021  24.022  24.815  1.00  0.00     0.056 C 
BRANCH   7   9
ATOM      9  N   UNL A   1      32.956  24.735  23.392  1.00  0.00    -0.330 N 
ATOM     10  C   UNL A   1      32.923  25.938  22.750  1.00  0.00     0.257 C 
ATOM     11  O   UNL A   1      33.738  25.956  21.821  1.00  0.00    -0.269 OA
ATOM     12  H   UNL A   1      33.477  24.129  22.817  1.00  0.00     0.165 HD
BRANCH  10  13
ATOM     13  C   UNL A   1      32.069  27.139  22.970  1.00  0.00     0.101 A 
ATOM     14  C   UNL A   1      32.343  28.014  24.037  1.00  0.00     0.226 A 
ATOM     15  N   UNL A   1      31.617  29.126  24.340  1.00  0.00    -0.221 NA
ATOM     16  C   UNL A   1      30.553  29.401  23.571  1.00  0.00     0.115 A 
ATOM     17  C   UNL A   1      30.950  27.479  22.218  1.00  0.00     0.021 A 
ATOM     18  C   UNL A   1      30.184  28.613  22.504  1.00  0.00     0.021 A 
BRANCH  14  19
ATOM     19  O   UNL A   1      33.333  27.775  24.950  1.00  0.00    -0.480 OA
ATOM     20  C   UNL A   1      32.856  28.026  26.267  1.00  0.00     0.280 C 
ENDBRANCH  14  19
ENDBRANCH  10  13
ENDBRANCH   7   9
BRANCH   7  21
ATOM     21  C   UNL A   1      33.179  24.157  25.977  1.00  0.00     0.420 C 
ATOM     22  F   UNL A   1      33.575  23.028  26.600  1.00  0.00    -0.168 F 
ATOM     23  F   UNL A   1      34.269  24.965  25.863  1.00  0.00    -0.168 F 
ATOM     24  F   UNL A   1      32.341  24.815  26.819  1.00  0.00    -0.168 F 
ENDBRANCH   7  21
ENDBRANCH   4   7
ENDBRANCH   2   3
ENDBRANCH   1   2
BRANCH   1  25
ATOM     25  C   UNL A   1      36.964  21.998  25.340  1.00  0.00     0.118 C 
BRANCH  25  26
ATOM     26  N   UNL A   1      37.966  20.977  25.616  1.00  0.00    -0.352 N 
ATOM     27  C   UNL A   1      39.241  21.117  26.118  1.00  0.00     0.251 C 
ATOM     28  H   UNL A   1      37.693  20.053  25.414  1.00  0.00     0.163 HD
ATOM     29  O   UNL A   1      40.000  20.158  26.132  1.00  0.00    -0.269 OA
BRANCH  27  30
ATOM     30  C   UNL A   1      39.688  22.438  26.613  1.00  0.00     0.039 A 
ATOM     31  C   UNL A   1      40.643  22.496  27.629  1.00  0.00     0.014 A 
ATOM     32  C   UNL A   1      39.187  23.612  26.050  1.00  0.00     0.014 A 
ATOM     33  C   UNL A   1      41.149  23.736  28.027  1.00  0.00     0.010 A 
ATOM     34  C   UNL A   1      39.772  24.832  26.366  1.00  0.00     0.010 A 
ATOM     35  C   UNL A   1      40.746  24.911  27.370  1.00  0.00    -0.014 A 
BRANCH  35  36
ATOM     36  C   UNL A   1      41.322  26.234  27.722  1.00  0.00     0.031 A 
ATOM     37  C   UNL A   1      42.734  26.573  27.320  1.00  0.00     0.074 A 
ATOM     38  C   UNL A   1      40.608  27.097  28.471  1.00  0.00     0.049 A 
ATOM     39  N   UNL A   1      43.423  27.658  27.561  1.00  0.00    -0.248 NA
ATOM     40  C   UNL A   1      43.482  25.544  26.578  1.00  0.00     0.031 C 
ATOM     41  C   UNL A   1      39.263  26.851  28.995  1.00  0.00     0.029 A 
ATOM     42  N   UNL A   1      40.919  28.349  28.936  1.00  0.00    -0.354 N 
ATOM     43  C   UNL A   1      44.688  27.429  27.036  1.00  0.00     0.074 A 
ATOM     44  C   UNL A   1      44.691  26.081  26.513  1.00  0.00     0.031 C 
ATOM     45  C   UNL A   1      38.855  27.929  29.684  1.00  0.00     0.029 A 
ATOM     46  C   UNL A   1      39.919  28.927  29.682  1.00  0.00     0.049 A 
ATOM     47  H   UNL A   1      41.779  28.794  28.752  1.00  0.00     0.167 HD
ATOM     48  C   UNL A   1      45.744  28.273  26.956  1.00  0.00     0.034 A 
ATOM     49  C   UNL A   1      39.864  30.127  30.291  1.00  0.00     0.034 A 
ATOM     50  C   UNL A   1      45.724  29.624  27.445  1.00  0.00     0.049 A 
ATOM     51  C   UNL A   1      41.039  31.059  30.169  1.00  0.00     0.074 A 
ATOM     52  C   UNL A   1      46.706  30.592  27.343  1.00  0.00     0.029 A 
ATOM     53  N   UNL A   1      44.668  30.196  28.139  1.00  0.00    -0.354 N 
ATOM     54  N   UNL A   1      42.170  30.883  29.531  1.00  0.00    -0.248 NA
ATOM     55  C   UNL A   1      40.915  32.371  30.822  1.00  0.00     0.031 C 
ATOM     56  C   UNL A   1      46.257  31.740  28.003  1.00  0.00     0.029 A 
ATOM     57  C   UNL A   1      44.979  31.500  28.484  1.00  0.00     0.049 A 
ATOM     58  H   UNL A   1      43.822  29.741  28.355  1.00  0.00     0.167 HD
ATOM     59  C   UNL A   1      42.876  32.073  29.670  1.00  0.00     0.074 A 
ATOM     60  C   UNL A   1      42.035  32.967  30.440  1.00  0.00     0.031 C 
ATOM     61  C   UNL A   1      44.112  32.393  29.211  1.00  0.00     0.034 A 
BRANCH  48  62
ATOM     62  C   UNL A   1      46.988  27.764  26.270  1.00  0.00     0.023 A 
ATOM     63  C   UNL A   1      47.972  27.087  27.021  1.00  0.00     0.012 A 
ATOM     64  C   UNL A   1      47.179  27.937  24.885  1.00  0.00     0.148 A 
ATOM     65  C   UNL A   1      49.148  26.640  26.419  1.00  0.00     0.002 A 
ATOM     66  C   UNL A   1      48.329  27.442  24.282  1.00  0.00     0.091 A 
ATOM     67  F   UNL A   1      46.245  28.599  24.187  1.00  0.00    -0.205 F 
ATOM     68  C   UNL A   1      49.321  26.809  25.049  1.00  0.00     0.022 A 
BRANCH  66  69
ATOM     69  S   UNL A   1      48.610  27.534  22.511  1.00  0.00     0.127 S 
ATOM     70  O   UNL A   1      49.906  28.207  22.451  1.00  0.00    -0.237 OA
ATOM     71  O   UNL A   1      48.639  26.122  22.130  1.00  0.00    -0.237 OA
ATOM     72  O   UNL A   1      47.486  28.285  21.966  1.00  0.00    -0.744 OA
ENDBRANCH  66  69
ENDBRANCH  48  62
BRANCH  49  73
ATOM     73  C   UNL A   1      38.618  30.550  30.992  1.00  0.00     0.023 A 
ATOM     74  C   UNL A   1      38.483  30.287  32.371  1.00  0.00     0.012 A 
ATOM     75  C   UNL A   1      37.589  31.238  30.321  1.00  0.00     0.148 A 
ATOM     76  C   UNL A   1      37.336  30.675  33.062  1.00  0.00     0.002 A 
ATOM     77  C   UNL A   1      36.471  31.670  31.028  1.00  0.00     0.091 A 
ATOM     78  F   UNL A   1      37.734  31.474  29.010  1.00  0.00    -0.205 F 
ATOM     79  C   UNL A   1      36.335  31.374  32.393  1.00  0.00     0.022 A 
BRANCH  77  80
ATOM     80  S   UNL A   1      35.189  32.687  30.286  1.00  0.00     0.127 S 
ATOM     81  O   UNL A   1      34.666  31.798  29.252  1.00  0.00    -0.237 OA
ATOM     82  O   UNL A   1      34.292  32.910  31.420  1.00  0.00    -0.237 OA
ATOM     83  O   UNL A   1      35.864  33.884  29.805  1.00  0.00    -0.744 OA
ENDBRANCH  77  80
ENDBRANCH  49  73
BRANCH  61  84
ATOM     84  C   UNL A   1      44.621  33.783  29.488  1.00  0.00     0.023 A 
ATOM     85  C   UNL A   1      45.272  34.067  30.705  1.00  0.00     0.012 A 
ATOM     86  C   UNL A   1      44.520  34.790  28.507  1.00  0.00     0.148 A 
ATOM     87  C   UNL A   1      45.782  35.340  30.955  1.00  0.00     0.002 A 
ATOM     88  C   UNL A   1      45.078  36.041  28.742  1.00  0.00     0.091 A 
ATOM     89  F   UNL A   1      43.881  34.506  27.363  1.00  0.00    -0.205 F 
ATOM     90  C   UNL A   1      45.698  36.321  29.970  1.00  0.00     0.022 A 
BRANCH  88  91
ATOM     91  S   UNL A   1      45.105  37.333  27.495  1.00  0.00     0.127 S 
ATOM     92  O   UNL A   1      45.943  36.730  26.459  1.00  0.00    -0.237 OA
ATOM     93  O   UNL A   1      43.690  37.452  27.142  1.00  0.00    -0.237 OA
ATOM     94  O   UNL A   1      45.668  38.509  28.145  1.00  0.00    -0.744 OA
ENDBRANCH  88  91
ENDBRANCH  61  84
ENDBRANCH  35  36
ENDBRANCH  27  30
ENDBRANCH  25  26
ENDBRANCH   1  25
TORSDOF 17
ENDMDL
MODEL 3
REMARK VINA RESULT:     -11.5      1.813      2.296
REMARK SMILES COc1ncccc1C(=O)N[C@@](C)(C(=O)NCCCNC(=O)c1ccc(-c2c3nc(c(-c4cccc(S(=O)(=O)[O-])c4F)c4ccc([nH]4)c(-c4cccc(S(=O)(=O)[O-])c4F)c4nc(c(-c5cccc(S(=O)(=O)[O-])c5F)c5ccc2[nH]5)C=C4)C=C3)cc1)C(F)(F)F
REMARK SMILES IDX 18 1 17 2 16 3 14 4 15 5 12 7 13 8 11 9 9 10 10 11 8 13 3 14
REMARK SMILES IDX 4 15 5 16 7 17 6 18 2 19 1 20 86 21 87 22 88 23 89 24 19 25
REMARK SMILES IDX 20 26 21 27 22 29 23 30 24 31 85 32 25 33 84 34 26 35 27 36
REMARK SMILES IDX 28 37 78 38 29 39 83 40 77 41 79 42 30 43 82 44 76 45 75 46
REMARK SMILES IDX 31 48 63 49 43 50 62 51 44 52 47 53 61 54 80 55 45 56 46 57
REMARK SMILES IDX 60 59 81 60 48 61 32 62 33 63 41 64 34 65 36 66 42 67 35 68
REMARK SMILES IDX 37 69 38 70 39 71 40 72 64 73 65 74 73 75 66 76 68 77 74 78
REMARK SMILES IDX 67 79 69 80 70 81 71 82 72 83 49 84 50 85 58 86 51 87 53 88
REMARK SMILES IDX 59 89 52 90 54 91 55 92 56 93 57 94
REMARK H PARENT 16 6 11 12 20 28 79 47 47 58
REMARK Flexibility Score: inf
ROOT
ATOM      1  C   UNL A   1      31.908  28.620  27.240  1.00  0.00     0.042 C 
ENDROOT
BRANCH   1   2
ATOM      2  C   UNL A   1      31.214  27.495  26.490  1.00  0.00     0.117 C 
BRANCH   2   3
ATOM      3  N   UNL A   1      31.517  27.499  25.068  1.00  0.00    -0.354 N 
ATOM      4  C   UNL A   1      31.868  26.546  24.163  1.00  0.00     0.254 C 
ATOM      5  O   UNL A   1      32.047  26.978  23.019  1.00  0.00    -0.272 OA
ATOM      6  H   UNL A   1      31.453  28.397  24.669  1.00  0.00     0.163 HD
BRANCH   4   7
ATOM      7  C   UNL A   1      32.132  25.065  24.536  1.00  0.00     0.212 C 
ATOM      8  C   UNL A   1      32.973  24.922  25.819  1.00  0.00     0.056 C 
BRANCH   7   9
ATOM      9  N   UNL A   1      32.897  24.553  23.342  1.00  0.00    -0.330 N 
ATOM     10  C   UNL A   1      33.813  23.665  22.860  1.00  0.00     0.257 C 
ATOM     11  O   UNL A   1      33.800  23.657  21.624  1.00  0.00    -0.269 OA
ATOM     12  H   UNL A   1      32.611  25.099  22.575  1.00  0.00     0.165 HD
BRANCH  10  13
ATOM     13  C   UNL A   1      34.794  22.793  23.566  1.00  0.00     0.101 A 
ATOM     14  C   UNL A   1      34.341  21.738  24.379  1.00  0.00     0.226 A 
ATOM     15  N   UNL A   1      35.147  20.894  25.083  1.00  0.00    -0.221 NA
ATOM     16  C   UNL A   1      36.470  21.094  25.007  1.00  0.00     0.115 A 
ATOM     17  C   UNL A   1      36.174  22.946  23.536  1.00  0.00     0.021 A 
ATOM     18  C   UNL A   1      37.028  22.099  24.249  1.00  0.00     0.021 A 
BRANCH  14  19
ATOM     19  O   UNL A   1      33.014  21.510  24.620  1.00  0.00    -0.480 OA
ATOM     20  C   UNL A   1      32.669  20.182  24.244  1.00  0.00     0.280 C 
ENDBRANCH  14  19
ENDBRANCH  10  13
ENDBRANCH   7   9
BRANCH   7  21
ATOM     21  C   UNL A   1      30.736  24.527  24.889  1.00  0.00     0.420 C 
ATOM     22  F   UNL A   1      30.438  24.578  26.203  1.00  0.00    -0.168 F 
ATOM     23  F   UNL A   1      29.779  25.232  24.226  1.00  0.00    -0.168 F 
ATOM     24  F   UNL A   1      30.569  23.242  24.483  1.00  0.00    -0.168 F 
ENDBRANCH   7  21
ENDBRANCH   4   7
ENDBRANCH   2   3
ENDBRANCH   1   2
BRANCH   1  25
ATOM     25  C   UNL A   1      32.873  29.451  26.408  1.00  0.00     0.118 C 
BRANCH  25  26
ATOM     26  N   UNL A   1      32.765  30.882  26.658  1.00  0.00    -0.352 N 
ATOM     27  C   UNL A   1      33.593  31.706  27.389  1.00  0.00     0.251 C 
ATOM     28  H   UNL A   1      31.989  31.324  26.245  1.00  0.00     0.163 HD
ATOM     29  O   UNL A   1      33.254  32.858  27.623  1.00  0.00    -0.269 OA
BRANCH  27  30
ATOM     30  C   UNL A   1      34.874  31.178  27.907  1.00  0.00     0.039 A 
ATOM     31  C   UNL A   1      35.959  32.044  28.052  1.00  0.00     0.014 A 
ATOM     32  C   UNL A   1      34.989  29.837  28.279  1.00  0.00     0.014 A 
ATOM     33  C   UNL A   1      37.137  31.578  28.640  1.00  0.00     0.010 A 
ATOM     34  C   UNL A   1      36.118  29.408  28.965  1.00  0.00     0.010 A 
ATOM     35  C   UNL A   1      37.212  30.267  29.138  1.00  0.00    -0.014 A 
BRANCH  35  36
ATOM     36  C   UNL A   1      38.425  29.768  29.834  1.00  0.00     0.031 A 
ATOM     37  C   UNL A   1      38.762  30.268  31.214  1.00  0.00     0.074 A 
ATOM     38  C   UNL A   1      39.267  28.930  29.196  1.00  0.00     0.049 A 
ATOM     39  N   UNL A   1      39.790  29.978  31.969  1.00  0.00    -0.248 NA
ATOM     40  C   UNL A   1      37.840  31.249  31.812  1.00  0.00     0.031 C 
ATOM     41  C   UNL A   1      39.097  28.441  27.826  1.00  0.00     0.029 A 
ATOM     42  N   UNL A   1      40.441  28.355  29.608  1.00  0.00    -0.354 N 
ATOM     43  C   UNL A   1      39.657  30.763  33.107  1.00  0.00     0.074 A 
ATOM     44  C   UNL A   1      38.482  31.584  32.921  1.00  0.00     0.031 C 
ATOM     45  C   UNL A   1      40.113  27.618  27.523  1.00  0.00     0.029 A 
ATOM     46  C   UNL A   1      41.025  27.547  28.660  1.00  0.00     0.049 A 
ATOM     47  H   UNL A   1      40.830  28.505  30.500  1.00  0.00     0.167 HD
ATOM     48  C   UNL A   1      40.419  30.776  34.228  1.00  0.00     0.034 A 
ATOM     49  C   UNL A   1      42.162  26.828  28.704  1.00  0.00     0.034 A 
ATOM     50  C   UNL A   1      41.565  29.932  34.422  1.00  0.00     0.049 A 
ATOM     51  C   UNL A   1      42.981  26.838  29.966  1.00  0.00     0.074 A 
ATOM     52  C   UNL A   1      42.358  29.803  35.548  1.00  0.00     0.029 A 
ATOM     53  N   UNL A   1      42.089  29.079  33.463  1.00  0.00    -0.354 N 
ATOM     54  N   UNL A   1      42.752  27.467  31.094  1.00  0.00    -0.248 NA
ATOM     55  C   UNL A   1      44.194  26.008  29.976  1.00  0.00     0.031 C 
ATOM     56  C   UNL A   1      43.382  28.894  35.258  1.00  0.00     0.029 A 
ATOM     57  C   UNL A   1      43.203  28.428  33.964  1.00  0.00     0.049 A 
ATOM     58  H   UNL A   1      41.722  28.954  32.558  1.00  0.00     0.167 HD
ATOM     59  C   UNL A   1      43.769  27.080  31.959  1.00  0.00     0.074 A 
ATOM     60  C   UNL A   1      44.605  26.148  31.229  1.00  0.00     0.031 C 
ATOM     61  C   UNL A   1      43.997  27.468  33.239  1.00  0.00     0.034 A 
BRANCH  48  62
ATOM     62  C   UNL A   1      39.997  31.701  35.342  1.00  0.00     0.023 A 
ATOM     63  C   UNL A   1      40.569  32.988  35.435  1.00  0.00     0.012 A 
ATOM     64  C   UNL A   1      39.026  31.311  36.285  1.00  0.00     0.148 A 
ATOM     65  C   UNL A   1      40.224  33.849  36.477  1.00  0.00     0.002 A 
ATOM     66  C   UNL A   1      38.648  32.194  37.290  1.00  0.00     0.091 A 
ATOM     67  F   UNL A   1      38.505  30.079  36.196  1.00  0.00    -0.205 F 
ATOM     68  C   UNL A   1      39.258  33.455  37.397  1.00  0.00     0.022 A 
BRANCH  66  69
ATOM     69  S   UNL A   1      37.353  31.816  38.475  1.00  0.00     0.127 S 
ATOM     70  O   UNL A   1      37.028  30.435  38.126  1.00  0.00    -0.237 OA
ATOM     71  O   UNL A   1      38.050  31.973  39.753  1.00  0.00    -0.237 OA
ATOM     72  O   UNL A   1      36.296  32.790  38.237  1.00  0.00    -0.744 OA
ENDBRANCH  66  69
ENDBRANCH  48  62
BRANCH  49  73
ATOM     73  C   UNL A   1      42.545  25.969  27.547  1.00  0.00     0.023 A 
ATOM     74  C   UNL A   1      43.412  26.487  26.564  1.00  0.00     0.012 A 
ATOM     75  C   UNL A   1      42.094  24.640  27.432  1.00  0.00     0.148 A 
ATOM     76  C   UNL A   1      43.798  25.710  25.472  1.00  0.00     0.002 A 
ATOM     77  C   UNL A   1      42.526  23.853  26.370  1.00  0.00     0.091 A 
ATOM     78  F   UNL A   1      41.267  24.168  28.375  1.00  0.00    -0.205 F 
ATOM     79  C   UNL A   1      43.363  24.391  25.381  1.00  0.00     0.022 A 
BRANCH  77  80
ATOM     80  S   UNL A   1      42.124  22.107  26.232  1.00  0.00     0.127 S 
ATOM     81  O   UNL A   1      40.668  22.144  26.123  1.00  0.00    -0.237 OA
ATOM     82  O   UNL A   1      42.826  21.736  25.003  1.00  0.00    -0.237 OA
ATOM     83  O   UNL A   1      42.650  21.484  27.438  1.00  0.00    -0.744 OA
ENDBRANCH  77  80
ENDBRANCH  49  73
BRANCH  61  84
ATOM     84  C   UNL A   1      45.173  26.857  33.955  1.00  0.00     0.023 A 
ATOM     85  C   UNL A   1      46.418  27.516  33.959  1.00  0.00     0.012 A 
ATOM     86  C   UNL A   1      45.021  25.663  34.689  1.00  0.00     0.148 A 
ATOM     87  C   UNL A   1      47.502  26.979  34.652  1.00  0.00     0.002 A 
ATOM     88  C   UNL A   1      46.091  25.162  35.421  1.00  0.00     0.091 A 
ATOM     89  F   UNL A   1      43.834  25.041  34.658  1.00  0.00    -0.205 F 
ATOM     90  C   UNL A   1      47.335  25.812  35.392  1.00  0.00     0.022 A 
BRANCH  88  91
ATOM     91  S   UNL A   1      45.941  23.721  36.482  1.00  0.00     0.127 S 
ATOM     92  O   UNL A   1      47.298  23.602  37.015  1.00  0.00    -0.237 OA
ATOM     93  O   UNL A   1      44.940  24.158  37.456  1.00  0.00    -0.237 OA
ATOM     94  O   UNL A   1      45.511  22.628  35.621  1.00  0.00    -0.744 OA
ENDBRANCH  88  91
ENDBRANCH  61  84
ENDBRANCH  35  36
ENDBRANCH  27  30
ENDBRANCH  25  26
ENDBRANCH   1  25
TORSDOF 17
ENDMDL
