MODEL 1
REMARK VINA RESULT:     -11.9      0.000      0.000
REMARK SMILES Cc1cc(S(=O)(=O)Nc2ccc(F)c(F)c2)sc1C(=O)NCCCNC(=O)c1ccc(-c2c3nc(c(-c4cccc(S(=O)(=O)[O-])c4F)c4ccc([nH]4)c(-c4cccc(S(=O)(=O)[O-])c4F)c4nc(c(-c5cccc(S(=O)(=O)[O-])c5F)c5ccc2[nH]5)C=C4)C=C3)cc1
REMARK SMILES IDX 23 1 22 2 21 3 19 4 20 5 18 7 1 8 2 9 3 10 4 11 17 12 5 13
REMARK SMILES IDX 6 14 7 15 8 16 9 18 10 19 16 20 11 21 14 22 12 23 15 24
REMARK SMILES IDX 13 25 24 26 25 27 26 28 27 30 28 31 29 32 90 33 30 34 89 35
REMARK SMILES IDX 31 36 32 37 33 38 83 39 34 40 88 41 82 42 84 43 35 44 87 45
REMARK SMILES IDX 81 46 80 47 36 49 68 50 48 51 67 52 49 53 52 54 66 55 85 56
REMARK SMILES IDX 50 57 51 58 65 60 86 61 53 62 37 63 38 64 46 65 39 66 41 67
REMARK SMILES IDX 47 68 40 69 42 70 43 71 44 72 45 73 69 74 70 75 78 76 71 77
REMARK SMILES IDX 73 78 79 79 72 80 74 81 75 82 76 83 77 84 54 85 55 86 63 87
REMARK SMILES IDX 56 88 58 89 64 90 57 91 59 92 60 93 61 94 62 95
REMARK H PARENT 21 6 8 17 25 29 84 48 52 59
REMARK Flexibility Score: inf
ROOT
ATOM      1  C   UNL A   1      35.257  22.369  26.064  1.00  0.00     0.042 C 
ENDROOT
BRANCH   1   2
ATOM      2  C   UNL A   1      35.284  21.112  25.193  1.00  0.00     0.118 C 
BRANCH   2   3
ATOM      3  N   UNL A   1      34.170  20.245  25.501  1.00  0.00    -0.351 N 
ATOM      4  C   UNL A   1      32.820  20.340  25.299  1.00  0.00     0.261 C 
ATOM      5  O   UNL A   1      32.201  19.318  25.625  1.00  0.00    -0.268 OA
ATOM      6  H   UNL A   1      34.438  19.411  25.950  1.00  0.00     0.163 HD
BRANCH   4   7
ATOM      7  C   UNL A   1      32.132  21.503  24.737  1.00  0.00     0.096 A 
ATOM      8  C   UNL A   1      32.031  21.353  22.133  1.00  0.00     0.046 C 
ATOM      9  C   UNL A   1      31.855  22.001  23.464  1.00  0.00    -0.026 A 
ATOM     10  C   UNL A   1      31.449  23.388  23.534  1.00  0.00     0.038 A 
ATOM     11  C   UNL A   1      31.383  23.883  24.817  1.00  0.00     0.141 A 
ATOM     12  S   UNL A   1      31.564  22.621  25.936  1.00  0.00    -0.116 S 
BRANCH  11  13
ATOM     13  S   UNL A   1      31.075  25.509  25.463  1.00  0.00     0.271 S 
ATOM     14  O   UNL A   1      29.718  25.817  25.059  1.00  0.00    -0.200 OA
ATOM     15  O   UNL A   1      31.424  25.467  26.871  1.00  0.00    -0.200 OA
BRANCH  13  16
ATOM     16  N   UNL A   1      32.054  26.688  24.717  1.00  0.00    -0.279 N 
ATOM     17  H   UNL A   1      32.278  26.630  23.760  1.00  0.00     0.180 HD
BRANCH  16  18
ATOM     18  C   UNL A   1      32.537  27.763  25.522  1.00  0.00     0.052 A 
ATOM     19  C   UNL A   1      33.856  27.687  25.985  1.00  0.00     0.030 A 
ATOM     20  C   UNL A   1      31.724  28.838  25.882  1.00  0.00     0.069 A 
ATOM     21  C   UNL A   1      34.364  28.682  26.824  1.00  0.00     0.044 A 
ATOM     22  C   UNL A   1      32.244  29.830  26.711  1.00  0.00     0.160 A 
ATOM     23  C   UNL A   1      33.552  29.752  27.181  1.00  0.00     0.158 A 
ATOM     24  F   UNL A   1      31.470  30.868  27.056  1.00  0.00    -0.204 F 
ATOM     25  F   UNL A   1      34.040  30.713  27.978  1.00  0.00    -0.204 F 
ENDBRANCH  16  18
ENDBRANCH  13  16
ENDBRANCH  11  13
ENDBRANCH   4   7
ENDBRANCH   2   3
ENDBRANCH   1   2
BRANCH   1  26
ATOM     26  C   UNL A   1      36.543  23.189  26.026  1.00  0.00     0.118 C 
BRANCH  26  27
ATOM     27  N   UNL A   1      37.729  22.350  26.089  1.00  0.00    -0.352 N 
ATOM     28  C   UNL A   1      39.042  22.679  26.327  1.00  0.00     0.251 C 
ATOM     29  H   UNL A   1      37.564  21.391  25.937  1.00  0.00     0.163 HD
ATOM     30  O   UNL A   1      39.911  21.841  26.090  1.00  0.00    -0.269 OA
BRANCH  28  31
ATOM     31  C   UNL A   1      39.433  24.010  26.855  1.00  0.00     0.039 A 
ATOM     32  C   UNL A   1      40.012  24.936  25.979  1.00  0.00     0.014 A 
ATOM     33  C   UNL A   1      39.315  24.330  28.210  1.00  0.00     0.014 A 
ATOM     34  C   UNL A   1      40.432  26.185  26.449  1.00  0.00     0.010 A 
ATOM     35  C   UNL A   1      39.668  25.602  28.665  1.00  0.00     0.010 A 
ATOM     36  C   UNL A   1      40.248  26.536  27.795  1.00  0.00    -0.014 A 
BRANCH  36  37
ATOM     37  C   UNL A   1      40.671  27.864  28.316  1.00  0.00     0.031 A 
ATOM     38  C   UNL A   1      42.133  28.169  28.521  1.00  0.00     0.074 A 
ATOM     39  C   UNL A   1      39.741  28.767  28.687  1.00  0.00     0.049 A 
ATOM     40  N   UNL A   1      42.690  29.235  29.034  1.00  0.00    -0.248 NA
ATOM     41  C   UNL A   1      43.092  27.126  28.122  1.00  0.00     0.031 C 
ATOM     42  C   UNL A   1      38.292  28.566  28.613  1.00  0.00     0.029 A 
ATOM     43  N   UNL A   1      39.875  30.021  29.228  1.00  0.00    -0.354 N 
ATOM     44  C   UNL A   1      44.056  28.976  29.062  1.00  0.00     0.074 A 
ATOM     45  C   UNL A   1      44.242  27.641  28.537  1.00  0.00     0.031 C 
ATOM     46  C   UNL A   1      37.673  29.656  29.093  1.00  0.00     0.029 A 
ATOM     47  C   UNL A   1      38.675  30.624  29.527  1.00  0.00     0.049 A 
ATOM     48  H   UNL A   1      40.747  30.449  29.388  1.00  0.00     0.167 HD
ATOM     49  C   UNL A   1      45.067  29.786  29.455  1.00  0.00     0.034 A 
ATOM     50  C   UNL A   1      38.411  31.822  30.086  1.00  0.00     0.034 A 
ATOM     51  C   UNL A   1      44.888  31.138  29.912  1.00  0.00     0.049 A 
ATOM     52  C   UNL A   1      39.553  32.734  30.440  1.00  0.00     0.074 A 
ATOM     53  C   UNL A   1      45.857  32.070  30.245  1.00  0.00     0.029 A 
ATOM     54  N   UNL A   1      43.661  31.756  30.089  1.00  0.00    -0.354 N 
ATOM     55  N   UNL A   1      40.842  32.527  30.314  1.00  0.00    -0.248 NA
ATOM     56  C   UNL A   1      39.208  34.058  30.980  1.00  0.00     0.031 C 
ATOM     57  C   UNL A   1      45.212  33.252  30.625  1.00  0.00     0.029 A 
ATOM     58  C   UNL A   1      43.843  33.057  30.524  1.00  0.00     0.049 A 
ATOM     59  H   UNL A   1      42.787  31.331  29.930  1.00  0.00     0.167 HD
ATOM     60  C   UNL A   1      41.459  33.702  30.727  1.00  0.00     0.074 A 
ATOM     61  C   UNL A   1      40.403  34.625  31.087  1.00  0.00     0.031 C 
ATOM     62  C   UNL A   1      42.782  33.984  30.818  1.00  0.00     0.034 A 
BRANCH  49  63
ATOM     63  C   UNL A   1      46.473  29.255  29.337  1.00  0.00     0.023 A 
ATOM     64  C   UNL A   1      47.019  28.514  30.405  1.00  0.00     0.012 A 
ATOM     65  C   UNL A   1      47.230  29.439  28.165  1.00  0.00     0.148 A 
ATOM     66  C   UNL A   1      48.310  27.993  30.322  1.00  0.00     0.002 A 
ATOM     67  C   UNL A   1      48.502  28.882  28.074  1.00  0.00     0.091 A 
ATOM     68  F   UNL A   1      46.705  30.166  27.168  1.00  0.00    -0.205 F 
ATOM     69  C   UNL A   1      49.046  28.168  29.155  1.00  0.00     0.022 A 
BRANCH  67  70
ATOM     70  S   UNL A   1      49.500  28.998  26.584  1.00  0.00     0.127 S 
ATOM     71  O   UNL A   1      49.779  30.431  26.526  1.00  0.00    -0.237 OA
ATOM     72  O   UNL A   1      50.657  28.165  26.918  1.00  0.00    -0.237 OA
ATOM     73  O   UNL A   1      48.670  28.471  25.510  1.00  0.00    -0.744 OA
ENDBRANCH  67  70
ENDBRANCH  49  63
BRANCH  50  74
ATOM     74  C   UNL A   1      36.996  32.259  30.256  1.00  0.00     0.023 A 
ATOM     75  C   UNL A   1      36.352  32.034  31.488  1.00  0.00     0.012 A 
ATOM     76  C   UNL A   1      36.306  32.938  29.234  1.00  0.00     0.148 A 
ATOM     77  C   UNL A   1      35.039  32.459  31.693  1.00  0.00     0.002 A 
ATOM     78  C   UNL A   1      35.015  33.405  29.463  1.00  0.00     0.091 A 
ATOM     79  F   UNL A   1      36.928  33.127  28.062  1.00  0.00    -0.205 F 
ATOM     80  C   UNL A   1      34.375  33.155  30.686  1.00  0.00     0.022 A 
BRANCH  78  81
ATOM     81  S   UNL A   1      34.147  34.430  28.269  1.00  0.00     0.127 S 
ATOM     82  O   UNL A   1      33.011  33.583  27.916  1.00  0.00    -0.237 OA
ATOM     83  O   UNL A   1      33.811  35.612  29.063  1.00  0.00    -0.237 OA
ATOM     84  O   UNL A   1      35.111  34.683  27.206  1.00  0.00    -0.744 OA
ENDBRANCH  78  81
ENDBRANCH  50  74
BRANCH  62  85
ATOM     85  C   UNL A   1      43.172  35.353  31.310  1.00  0.00     0.023 A 
ATOM     86  C   UNL A   1      43.352  35.567  32.690  1.00  0.00     0.012 A 
ATOM     87  C   UNL A   1      43.438  36.398  30.404  1.00  0.00     0.148 A 
ATOM     88  C   UNL A   1      43.769  36.810  33.165  1.00  0.00     0.002 A 
ATOM     89  C   UNL A   1      43.891  37.623  30.882  1.00  0.00     0.091 A 
ATOM     90  F   UNL A   1      43.238  36.182  29.097  1.00  0.00    -0.205 F 
ATOM     91  C   UNL A   1      44.050  37.833  32.262  1.00  0.00     0.022 A 
BRANCH  89  92
ATOM     92  S   UNL A   1      44.357  38.962  29.779  1.00  0.00     0.127 S 
ATOM     93  O   UNL A   1      44.922  39.936  30.710  1.00  0.00    -0.237 OA
ATOM     94  O   UNL A   1      45.337  38.321  28.900  1.00  0.00    -0.237 OA
ATOM     95  O   UNL A   1      43.127  39.366  29.109  1.00  0.00    -0.744 OA
ENDBRANCH  89  92
ENDBRANCH  62  85
ENDBRANCH  36  37
ENDBRANCH  28  31
ENDBRANCH  26  27
ENDBRANCH   1  26
TORSDOF 16
ENDMDL
MODEL 2
REMARK VINA RESULT:     -11.8      2.799      8.035
REMARK SMILES Cc1cc(S(=O)(=O)Nc2ccc(F)c(F)c2)sc1C(=O)NCCCNC(=O)c1ccc(-c2c3nc(c(-c4cccc(S(=O)(=O)[O-])c4F)c4ccc([nH]4)c(-c4cccc(S(=O)(=O)[O-])c4F)c4nc(c(-c5cccc(S(=O)(=O)[O-])c5F)c5ccc2[nH]5)C=C4)C=C3)cc1
REMARK SMILES IDX 23 1 22 2 21 3 19 4 20 5 18 7 1 8 2 9 3 10 4 11 17 12 5 13
REMARK SMILES IDX 6 14 7 15 8 16 9 18 10 19 16 20 11 21 14 22 12 23 15 24
REMARK SMILES IDX 13 25 24 26 25 27 26 28 27 30 28 31 29 32 90 33 30 34 89 35
REMARK SMILES IDX 31 36 32 37 33 38 83 39 34 40 88 41 82 42 84 43 35 44 87 45
REMARK SMILES IDX 81 46 80 47 36 49 68 50 48 51 67 52 49 53 52 54 66 55 85 56
REMARK SMILES IDX 50 57 51 58 65 60 86 61 53 62 37 63 38 64 46 65 39 66 41 67
REMARK SMILES IDX 47 68 40 69 42 70 43 71 44 72 45 73 69 74 70 75 78 76 71 77
REMARK SMILES IDX 73 78 79 79 72 80 74 81 75 82 76 83 77 84 54 85 55 86 63 87
REMARK SMILES IDX 56 88 58 89 64 90 57 91 59 92 60 93 61 94 62 95
REMARK H PARENT 21 6 8 17 25 29 84 48 52 59
REMARK Flexibility Score: inf
ROOT
ATOM      1  C   UNL A   1      35.090  22.541  26.782  1.00  0.00     0.042 C 
ENDROOT
BRANCH   1   2
ATOM      2  C   UNL A   1      33.959  21.552  27.061  1.00  0.00     0.118 C 
BRANCH   2   3
ATOM      3  N   UNL A   1      32.736  22.244  27.398  1.00  0.00    -0.351 N 
ATOM      4  C   UNL A   1      31.793  22.904  26.658  1.00  0.00     0.261 C 
ATOM      5  O   UNL A   1      30.822  23.284  27.325  1.00  0.00    -0.268 OA
ATOM      6  H   UNL A   1      32.541  22.242  28.364  1.00  0.00     0.163 HD
BRANCH   4   7
ATOM      7  C   UNL A   1      31.870  23.142  25.215  1.00  0.00     0.096 A 
ATOM      8  C   UNL A   1      32.548  20.962  23.951  1.00  0.00     0.046 C 
ATOM      9  C   UNL A   1      32.246  22.415  24.086  1.00  0.00    -0.026 A 
ATOM     10  C   UNL A   1      32.455  23.295  22.957  1.00  0.00     0.038 A 
ATOM     11  C   UNL A   1      32.199  24.621  23.231  1.00  0.00     0.141 A 
ATOM     12  S   UNL A   1      31.471  24.767  24.757  1.00  0.00    -0.116 S 
BRANCH  11  13
ATOM     13  S   UNL A   1      32.408  26.107  22.281  1.00  0.00     0.271 S 
ATOM     14  O   UNL A   1      33.832  26.188  22.029  1.00  0.00    -0.200 OA
ATOM     15  O   UNL A   1      31.476  26.022  21.172  1.00  0.00    -0.200 OA
BRANCH  13  16
ATOM     16  N   UNL A   1      32.022  27.500  23.183  1.00  0.00    -0.279 N 
ATOM     17  H   UNL A   1      32.610  27.814  23.908  1.00  0.00     0.180 HD
BRANCH  16  18
ATOM     18  C   UNL A   1      30.822  28.199  22.853  1.00  0.00     0.052 A 
ATOM     19  C   UNL A   1      30.929  29.323  22.026  1.00  0.00     0.030 A 
ATOM     20  C   UNL A   1      29.582  27.815  23.365  1.00  0.00     0.069 A 
ATOM     21  C   UNL A   1      29.795  30.079  21.719  1.00  0.00     0.044 A 
ATOM     22  C   UNL A   1      28.455  28.570  23.043  1.00  0.00     0.160 A 
ATOM     23  C   UNL A   1      28.561  29.695  22.229  1.00  0.00     0.158 A 
ATOM     24  F   UNL A   1      27.261  28.203  23.527  1.00  0.00    -0.204 F 
ATOM     25  F   UNL A   1      27.470  30.412  21.927  1.00  0.00    -0.204 F 
ENDBRANCH  16  18
ENDBRANCH  13  16
ENDBRANCH  11  13
ENDBRANCH   4   7
ENDBRANCH   2   3
ENDBRANCH   1   2
BRANCH   1  26
ATOM     26  C   UNL A   1      35.838  22.292  25.475  1.00  0.00     0.118 C 
BRANCH  26  27
ATOM     27  N   UNL A   1      36.744  21.160  25.571  1.00  0.00    -0.352 N 
ATOM     28  C   UNL A   1      38.110  21.121  25.721  1.00  0.00     0.251 C 
ATOM     29  H   UNL A   1      36.309  20.277  25.520  1.00  0.00     0.163 HD
ATOM     30  O   UNL A   1      38.693  20.055  25.532  1.00  0.00    -0.269 OA
BRANCH  28  31
ATOM     31  C   UNL A   1      38.890  22.325  26.101  1.00  0.00     0.039 A 
ATOM     32  C   UNL A   1      40.042  22.160  26.879  1.00  0.00     0.014 A 
ATOM     33  C   UNL A   1      38.462  23.615  25.776  1.00  0.00     0.014 A 
ATOM     34  C   UNL A   1      40.780  23.275  27.293  1.00  0.00     0.010 A 
ATOM     35  C   UNL A   1      39.237  24.722  26.128  1.00  0.00     0.010 A 
ATOM     36  C   UNL A   1      40.393  24.567  26.906  1.00  0.00    -0.014 A 
BRANCH  36  37
ATOM     37  C   UNL A   1      41.169  25.767  27.319  1.00  0.00     0.031 A 
ATOM     38  C   UNL A   1      40.521  26.837  28.160  1.00  0.00     0.074 A 
ATOM     39  C   UNL A   1      42.428  25.939  26.871  1.00  0.00     0.049 A 
ATOM     40  N   UNL A   1      41.008  27.986  28.554  1.00  0.00    -0.248 NA
ATOM     41  C   UNL A   1      39.133  26.598  28.590  1.00  0.00     0.031 C 
ATOM     42  C   UNL A   1      43.143  25.016  25.987  1.00  0.00     0.029 A 
ATOM     43  N   UNL A   1      43.318  26.964  27.070  1.00  0.00    -0.354 N 
ATOM     44  C   UNL A   1      39.979  28.623  29.238  1.00  0.00     0.074 A 
ATOM     45  C   UNL A   1      38.831  27.744  29.183  1.00  0.00     0.031 C 
ATOM     46  C   UNL A   1      44.359  25.518  25.719  1.00  0.00     0.029 A 
ATOM     47  C   UNL A   1      44.505  26.805  26.393  1.00  0.00     0.049 A 
ATOM     48  H   UNL A   1      43.126  27.742  27.643  1.00  0.00     0.167 HD
ATOM     49  C   UNL A   1      39.994  29.814  29.881  1.00  0.00     0.034 A 
ATOM     50  C   UNL A   1      45.588  27.603  26.322  1.00  0.00     0.034 A 
ATOM     51  C   UNL A   1      41.156  30.655  29.994  1.00  0.00     0.049 A 
ATOM     52  C   UNL A   1      45.609  28.884  27.111  1.00  0.00     0.074 A 
ATOM     53  C   UNL A   1      41.298  31.837  30.703  1.00  0.00     0.029 A 
ATOM     54  N   UNL A   1      42.377  30.401  29.391  1.00  0.00    -0.354 N 
ATOM     55  N   UNL A   1      44.676  29.394  27.878  1.00  0.00    -0.248 NA
ATOM     56  C   UNL A   1      46.844  29.681  27.056  1.00  0.00     0.031 C 
ATOM     57  C   UNL A   1      42.608  32.295  30.528  1.00  0.00     0.029 A 
ATOM     58  C   UNL A   1      43.281  31.399  29.713  1.00  0.00     0.049 A 
ATOM     59  H   UNL A   1      42.573  29.625  28.818  1.00  0.00     0.167 HD
ATOM     60  C   UNL A   1      45.219  30.552  28.421  1.00  0.00     0.074 A 
ATOM     61  C   UNL A   1      46.571  30.658  27.913  1.00  0.00     0.031 C 
ATOM     62  C   UNL A   1      44.643  31.457  29.250  1.00  0.00     0.034 A 
BRANCH  49  63
ATOM     63  C   UNL A   1      38.732  30.246  30.581  1.00  0.00     0.023 A 
ATOM     64  C   UNL A   1      38.556  29.924  31.943  1.00  0.00     0.012 A 
ATOM     65  C   UNL A   1      37.749  31.007  29.919  1.00  0.00     0.148 A 
ATOM     66  C   UNL A   1      37.409  30.323  32.626  1.00  0.00     0.002 A 
ATOM     67  C   UNL A   1      36.625  31.435  30.618  1.00  0.00     0.091 A 
ATOM     68  F   UNL A   1      37.920  31.284  28.618  1.00  0.00    -0.205 F 
ATOM     69  C   UNL A   1      36.450  31.086  31.967  1.00  0.00     0.022 A 
BRANCH  67  70
ATOM     70  S   UNL A   1      35.368  32.480  29.872  1.00  0.00     0.127 S 
ATOM     71  O   UNL A   1      36.159  33.630  29.439  1.00  0.00    -0.237 OA
ATOM     72  O   UNL A   1      34.869  31.639  28.783  1.00  0.00    -0.237 OA
ATOM     73  O   UNL A   1      34.395  32.742  30.924  1.00  0.00    -0.744 OA
ENDBRANCH  67  70
ENDBRANCH  49  63
BRANCH  50  74
ATOM     74  C   UNL A   1      46.779  27.161  25.542  1.00  0.00     0.023 A 
ATOM     75  C   UNL A   1      47.627  26.174  26.084  1.00  0.00     0.012 A 
ATOM     76  C   UNL A   1      47.048  27.665  24.256  1.00  0.00     0.148 A 
ATOM     77  C   UNL A   1      48.732  25.714  25.368  1.00  0.00     0.002 A 
ATOM     78  C   UNL A   1      48.122  27.165  23.526  1.00  0.00     0.091 A 
ATOM     79  F   UNL A   1      46.242  28.616  23.763  1.00  0.00    -0.205 F 
ATOM     80  C   UNL A   1      48.973  26.199  24.086  1.00  0.00     0.022 A 
BRANCH  78  81
ATOM     81  S   UNL A   1      48.415  27.636  21.817  1.00  0.00     0.127 S 
ATOM     82  O   UNL A   1      49.527  28.573  21.950  1.00  0.00    -0.237 OA
ATOM     83  O   UNL A   1      48.760  26.355  21.199  1.00  0.00    -0.237 OA
ATOM     84  O   UNL A   1      47.154  28.199  21.351  1.00  0.00    -0.744 OA
ENDBRANCH  78  81
ENDBRANCH  50  74
BRANCH  62  85
ATOM     85  C   UNL A   1      45.473  32.637  29.681  1.00  0.00     0.023 A 
ATOM     86  C   UNL A   1      46.266  32.538  30.841  1.00  0.00     0.012 A 
ATOM     87  C   UNL A   1      45.529  33.806  28.898  1.00  0.00     0.148 A 
ATOM     88  C   UNL A   1      47.087  33.596  31.228  1.00  0.00     0.002 A 
ATOM     89  C   UNL A   1      46.381  34.842  29.270  1.00  0.00     0.091 A 
ATOM     90  F   UNL A   1      44.749  33.891  27.812  1.00  0.00    -0.205 F 
ATOM     91  C   UNL A   1      47.154  34.742  30.438  1.00  0.00     0.022 A 
BRANCH  89  92
ATOM     92  S   UNL A   1      46.587  36.312  28.259  1.00  0.00     0.127 S 
ATOM     93  O   UNL A   1      45.255  36.912  28.326  1.00  0.00    -0.237 OA
ATOM     94  O   UNL A   1      47.624  37.050  28.982  1.00  0.00    -0.237 OA
ATOM     95  O   UNL A   1      46.999  35.833  26.946  1.00  0.00    -0.744 OA
ENDBRANCH  89  92
ENDBRANCH  62  85
ENDBRANCH  36  37
ENDBRANCH  28  31
ENDBRANCH  26  27
ENDBRANCH   1  26
TORSDOF 16
ENDMDL
MODEL 3
REMARK VINA RESULT:     -11.6      5.758      8.706
REMARK SMILES Cc1cc(S(=O)(=O)Nc2ccc(F)c(F)c2)sc1C(=O)NCCCNC(=O)c1ccc(-c2c3nc(c(-c4cccc(S(=O)(=O)[O-])c4F)c4ccc([nH]4)c(-c4cccc(S(=O)(=O)[O-])c4F)c4nc(c(-c5cccc(S(=O)(=O)[O-])c5F)c5ccc2[nH]5)C=C4)C=C3)cc1
REMARK SMILES IDX 23 1 22 2 21 3 19 4 20 5 18 7 1 8 2 9 3 10 4 11 17 12 5 13
REMARK SMILES IDX 6 14 7 15 8 16 9 18 10 19 16 20 11 21 14 22 12 23 15 24
REMARK SMILES IDX 13 25 24 26 25 27 26 28 27 30 28 31 29 32 90 33 30 34 89 35
REMARK SMILES IDX 31 36 32 37 33 38 83 39 34 40 88 41 82 42 84 43 35 44 87 45
REMARK SMILES IDX 81 46 80 47 36 49 68 50 48 51 67 52 49 53 52 54 66 55 85 56
REMARK SMILES IDX 50 57 51 58 65 60 86 61 53 62 37 63 38 64 46 65 39 66 41 67
REMARK SMILES IDX 47 68 40 69 42 70 43 71 44 72 45 73 69 74 70 75 78 76 71 77
REMARK SMILES IDX 73 78 79 79 72 80 74 81 75 82 76 83 77 84 54 85 55 86 63 87
REMARK SMILES IDX 56 88 58 89 64 90 57 91 59 92 60 93 61 94 62 95
REMARK H PARENT 21 6 8 17 25 29 84 48 52 59
REMARK Flexibility Score: inf
ROOT
ATOM      1  C   UNL A   1      31.442  32.023  26.541  1.00  0.00     0.042 C 
ENDROOT
BRANCH   1   2
ATOM      2  C   UNL A   1      31.610  30.681  25.828  1.00  0.00     0.118 C 
BRANCH   2   3
ATOM      3  N   UNL A   1      31.525  29.583  26.764  1.00  0.00    -0.351 N 
ATOM      4  C   UNL A   1      31.615  28.224  26.630  1.00  0.00     0.261 C 
ATOM      5  O   UNL A   1      31.587  27.621  27.711  1.00  0.00    -0.268 OA
ATOM      6  H   UNL A   1      31.370  29.873  27.692  1.00  0.00     0.163 HD
BRANCH   4   7
ATOM      7  C   UNL A   1      31.753  27.510  25.360  1.00  0.00     0.096 A 
ATOM      8  C   UNL A   1      29.994  28.354  23.626  1.00  0.00     0.046 C 
ATOM      9  C   UNL A   1      31.075  27.467  24.141  1.00  0.00    -0.026 A 
ATOM     10  C   UNL A   1      31.464  26.299  23.380  1.00  0.00     0.038 A 
ATOM     11  C   UNL A   1      32.428  25.532  23.995  1.00  0.00     0.141 A 
ATOM     12  S   UNL A   1      33.039  26.345  25.353  1.00  0.00    -0.116 S 
BRANCH  11  13
ATOM     13  S   UNL A   1      33.160  23.966  23.584  1.00  0.00     0.271 S 
ATOM     14  O   UNL A   1      32.069  23.175  23.053  1.00  0.00    -0.200 OA
ATOM     15  O   UNL A   1      34.319  24.256  22.760  1.00  0.00    -0.200 OA
BRANCH  13  16
ATOM     16  N   UNL A   1      33.699  23.131  24.969  1.00  0.00    -0.279 N 
ATOM     17  H   UNL A   1      33.071  22.872  25.682  1.00  0.00     0.180 HD
BRANCH  16  18
ATOM     18  C   UNL A   1      35.089  22.819  25.063  1.00  0.00     0.052 A 
ATOM     19  C   UNL A   1      35.487  21.518  24.730  1.00  0.00     0.030 A 
ATOM     20  C   UNL A   1      36.025  23.750  25.511  1.00  0.00     0.069 A 
ATOM     21  C   UNL A   1      36.825  21.139  24.859  1.00  0.00     0.044 A 
ATOM     22  C   UNL A   1      37.360  23.365  25.625  1.00  0.00     0.160 A 
ATOM     23  C   UNL A   1      37.757  22.069  25.306  1.00  0.00     0.158 A 
ATOM     24  F   UNL A   1      38.264  24.257  26.050  1.00  0.00    -0.204 F 
ATOM     25  F   UNL A   1      39.043  21.711  25.420  1.00  0.00    -0.204 F 
ENDBRANCH  16  18
ENDBRANCH  13  16
ENDBRANCH  11  13
ENDBRANCH   4   7
ENDBRANCH   2   3
ENDBRANCH   1   2
BRANCH   1  26
ATOM     26  C   UNL A   1      32.696  32.519  27.255  1.00  0.00     0.118 C 
BRANCH  26  27
ATOM     27  N   UNL A   1      32.585  33.913  27.649  1.00  0.00    -0.352 N 
ATOM     28  C   UNL A   1      33.196  34.603  28.670  1.00  0.00     0.251 C 
ATOM     29  H   UNL A   1      31.974  34.451  27.096  1.00  0.00     0.163 HD
ATOM     30  O   UNL A   1      32.767  35.716  28.967  1.00  0.00    -0.269 OA
BRANCH  28  31
ATOM     31  C   UNL A   1      34.350  34.039  29.414  1.00  0.00     0.039 A 
ATOM     32  C   UNL A   1      35.640  34.454  29.066  1.00  0.00     0.014 A 
ATOM     33  C   UNL A   1      34.188  33.051  30.390  1.00  0.00     0.014 A 
ATOM     34  C   UNL A   1      36.756  33.914  29.716  1.00  0.00     0.010 A 
ATOM     35  C   UNL A   1      35.295  32.564  31.088  1.00  0.00     0.010 A 
ATOM     36  C   UNL A   1      36.591  32.975  30.746  1.00  0.00    -0.014 A 
BRANCH  36  37
ATOM     37  C   UNL A   1      37.759  32.397  31.464  1.00  0.00     0.031 A 
ATOM     38  C   UNL A   1      38.539  31.261  30.854  1.00  0.00     0.074 A 
ATOM     39  C   UNL A   1      38.070  32.833  32.701  1.00  0.00     0.049 A 
ATOM     40  N   UNL A   1      39.535  30.578  31.358  1.00  0.00    -0.248 NA
ATOM     41  C   UNL A   1      38.127  30.814  29.513  1.00  0.00     0.031 C 
ATOM     42  C   UNL A   1      37.346  33.873  33.436  1.00  0.00     0.029 A 
ATOM     43  N   UNL A   1      39.054  32.436  33.571  1.00  0.00    -0.354 N 
ATOM     44  C   UNL A   1      39.839  29.598  30.420  1.00  0.00     0.074 A 
ATOM     45  C   UNL A   1      38.905  29.757  29.327  1.00  0.00     0.031 C 
ATOM     46  C   UNL A   1      37.910  34.030  34.644  1.00  0.00     0.029 A 
ATOM     47  C   UNL A   1      39.019  33.091  34.780  1.00  0.00     0.049 A 
ATOM     48  H   UNL A   1      39.723  31.748  33.350  1.00  0.00     0.167 HD
ATOM     49  C   UNL A   1      40.825  28.670  30.448  1.00  0.00     0.034 A 
ATOM     50  C   UNL A   1      39.792  32.951  35.875  1.00  0.00     0.034 A 
ATOM     51  C   UNL A   1      41.797  28.557  31.502  1.00  0.00     0.049 A 
ATOM     52  C   UNL A   1      40.931  31.968  35.850  1.00  0.00     0.074 A 
ATOM     53  C   UNL A   1      42.890  27.710  31.579  1.00  0.00     0.029 A 
ATOM     54  N   UNL A   1      41.799  29.319  32.660  1.00  0.00    -0.354 N 
ATOM     55  N   UNL A   1      41.295  31.155  34.888  1.00  0.00    -0.248 NA
ATOM     56  C   UNL A   1      41.788  31.908  37.043  1.00  0.00     0.031 C 
ATOM     57  C   UNL A   1      43.554  27.963  32.785  1.00  0.00     0.029 A 
ATOM     58  C   UNL A   1      42.875  28.967  33.456  1.00  0.00     0.049 A 
ATOM     59  H   UNL A   1      41.133  30.008  32.883  1.00  0.00     0.167 HD
ATOM     60  C   UNL A   1      42.439  30.511  35.345  1.00  0.00     0.074 A 
ATOM     61  C   UNL A   1      42.720  31.044  36.662  1.00  0.00     0.031 C 
ATOM     62  C   UNL A   1      43.178  29.551  34.737  1.00  0.00     0.034 A 
BRANCH  49  63
ATOM     63  C   UNL A   1      40.951  27.749  29.262  1.00  0.00     0.023 A 
ATOM     64  C   UNL A   1      40.226  26.539  29.252  1.00  0.00     0.012 A 
ATOM     65  C   UNL A   1      41.734  28.094  28.144  1.00  0.00     0.148 A 
ATOM     66  C   UNL A   1      40.305  25.672  28.164  1.00  0.00     0.002 A 
ATOM     67  C   UNL A   1      41.777  27.242  27.045  1.00  0.00     0.091 A 
ATOM     68  F   UNL A   1      42.435  29.237  28.180  1.00  0.00    -0.205 F 
ATOM     69  C   UNL A   1      41.071  26.027  27.058  1.00  0.00     0.022 A 
BRANCH  67  70
ATOM     70  S   UNL A   1      42.683  27.647  25.547  1.00  0.00     0.127 S 
ATOM     71  O   UNL A   1      44.045  27.792  26.056  1.00  0.00    -0.237 OA
ATOM     72  O   UNL A   1      42.465  26.459  24.720  1.00  0.00    -0.237 OA
ATOM     73  O   UNL A   1      42.069  28.862  25.030  1.00  0.00    -0.744 OA
ENDBRANCH  67  70
ENDBRANCH  49  63
BRANCH  50  74
ATOM     74  C   UNL A   1      39.566  33.835  37.054  1.00  0.00     0.023 A 
ATOM     75  C   UNL A   1      39.930  35.194  36.972  1.00  0.00     0.012 A 
ATOM     76  C   UNL A   1      38.950  33.359  38.226  1.00  0.00     0.148 A 
ATOM     77  C   UNL A   1      39.704  36.057  38.044  1.00  0.00     0.002 A 
ATOM     78  C   UNL A   1      38.680  34.237  39.272  1.00  0.00     0.091 A 
ATOM     79  F   UNL A   1      38.627  32.060  38.294  1.00  0.00    -0.205 F 
ATOM     80  C   UNL A   1      39.068  35.583  39.188  1.00  0.00     0.022 A 
BRANCH  78  81
ATOM     81  S   UNL A   1      37.740  33.735  40.719  1.00  0.00     0.127 S 
ATOM     82  O   UNL A   1      37.550  35.007  41.410  1.00  0.00    -0.237 OA
ATOM     83  O   UNL A   1      36.529  33.171  40.120  1.00  0.00    -0.237 OA
ATOM     84  O   UNL A   1      38.576  32.754  41.400  1.00  0.00    -0.744 OA
ENDBRANCH  78  81
ENDBRANCH  50  74
BRANCH  62  85
ATOM     85  C   UNL A   1      44.377  29.020  35.476  1.00  0.00     0.023 A 
ATOM     86  C   UNL A   1      45.631  29.637  35.295  1.00  0.00     0.012 A 
ATOM     87  C   UNL A   1      44.248  27.969  36.405  1.00  0.00     0.148 A 
ATOM     88  C   UNL A   1      46.744  29.201  36.012  1.00  0.00     0.002 A 
ATOM     89  C   UNL A   1      45.355  27.566  37.145  1.00  0.00     0.091 A 
ATOM     90  F   UNL A   1      43.053  27.379  36.545  1.00  0.00    -0.205 F 
ATOM     91  C   UNL A   1      46.604  28.175  36.944  1.00  0.00     0.022 A 
BRANCH  89  92
ATOM     92  S   UNL A   1      45.237  26.312  38.425  1.00  0.00     0.127 S 
ATOM     93  O   UNL A   1      46.616  26.241  38.904  1.00  0.00    -0.237 OA
ATOM     94  O   UNL A   1      44.295  26.912  39.371  1.00  0.00    -0.237 OA
ATOM     95  O   UNL A   1      44.737  25.116  37.760  1.00  0.00    -0.744 OA
ENDBRANCH  89  92
ENDBRANCH  62  85
ENDBRANCH  36  37
ENDBRANCH  28  31
ENDBRANCH  26  27
ENDBRANCH   1  26
TORSDOF 16
ENDMDL
