MODEL 1
REMARK VINA RESULT:     -11.7      0.000      0.000
REMARK SMILES CN(CC(C)(C)O)S(=O)(=O)c1cc(Cl)cc(C(=O)NCCCNC(=O)c2ccc(-c3c4nc(c(-c5cccc(S(=O)(=O)[O-])c5F)c5ccc([nH]5)c(-c5cccc(S(=O)(=O)[O-])c5F)c5nc(c(-c6cccc(S(=O)(=O)[O-])c6F)c6ccc3[nH]6)C=C5)C=C4)cc2)c1Cl
REMARK SMILES IDX 20 1 19 2 17 3 18 4 16 6 11 7 12 8 89 9 13 10 90 11 14 12
REMARK SMILES IDX 15 13 8 14 9 15 10 16 2 17 1 18 3 19 4 20 5 21 6 22 7 23
REMARK SMILES IDX 21 25 22 26 23 27 24 28 25 30 26 31 27 32 88 33 28 34 87 35
REMARK SMILES IDX 29 36 30 37 31 38 81 39 32 40 86 41 80 42 82 43 33 44 85 45
REMARK SMILES IDX 79 46 78 47 34 49 66 50 46 51 65 52 47 53 50 54 64 55 83 56
REMARK SMILES IDX 48 57 49 58 63 60 84 61 51 62 35 63 36 64 44 65 37 66 39 67
REMARK SMILES IDX 45 68 38 69 40 70 41 71 42 72 43 73 67 74 68 75 76 76 69 77
REMARK SMILES IDX 71 78 77 79 70 80 72 81 73 82 74 83 75 84 52 85 53 86 61 87
REMARK SMILES IDX 54 88 56 89 62 90 55 91 57 92 58 93 59 94 60 95
REMARK H PARENT 19 5 7 24 23 29 82 48 50 59
REMARK Flexibility Score: inf
ROOT
ATOM      1  C   UNL A   1      34.250  20.689  25.524  1.00  0.00     0.118 C 
ENDROOT
BRANCH   1   2
ATOM      2  N   UNL A   1      33.840  21.173  24.212  1.00  0.00    -0.352 N 
ATOM      3  C   UNL A   1      33.023  22.208  23.822  1.00  0.00     0.252 C 
ATOM      4  O   UNL A   1      32.884  22.418  22.617  1.00  0.00    -0.269 OA
ATOM      5  H   UNL A   1      34.222  20.663  23.463  1.00  0.00     0.163 HD
BRANCH   3   6
ATOM      6  C   UNL A   1      32.425  23.172  24.782  1.00  0.00     0.061 A 
ATOM      7  C   UNL A   1      32.130  25.337  25.810  1.00  0.00     0.103 A 
ATOM      8  C   UNL A   1      30.999  24.863  26.494  1.00  0.00     0.044 A 
ATOM      9  C   UNL A   1      32.927  24.451  25.073  1.00  0.00     0.073 A 
ATOM     10  C   UNL A   1      30.630  23.530  26.373  1.00  0.00     0.043 A 
ATOM     11  Cl  UNL A   1      34.597  24.765  24.786  1.00  0.00    -0.082 Cl
ATOM     12  Cl  UNL A   1      29.331  22.909  27.311  1.00  0.00    -0.084 Cl
ATOM     13  C   UNL A   1      31.299  22.701  25.481  1.00  0.00     0.036 A 
BRANCH   7  14
ATOM     14  S   UNL A   1      32.451  27.083  25.938  1.00  0.00     0.244 S 
ATOM     15  O   UNL A   1      33.824  27.326  26.327  1.00  0.00    -0.207 OA
ATOM     16  O   UNL A   1      31.369  27.641  26.712  1.00  0.00    -0.207 OA
BRANCH  14  17
ATOM     17  N   UNL A   1      32.273  27.658  24.337  1.00  0.00    -0.198 NA
ATOM     18  C   UNL A   1      33.558  27.760  23.606  1.00  0.00     0.124 C 
BRANCH  17  19
ATOM     19  C   UNL A   1      31.124  27.246  23.470  1.00  0.00     0.136 C 
BRANCH  19  20
ATOM     20  C   UNL A   1      30.077  28.309  23.027  1.00  0.00     0.073 C 
ATOM     21  C   UNL A   1      28.631  27.858  23.202  1.00  0.00     0.043 C 
ATOM     22  C   UNL A   1      30.313  29.584  23.857  1.00  0.00     0.043 C 
BRANCH  20  23
ATOM     23  O   UNL A   1      30.283  28.688  21.662  1.00  0.00    -0.389 OA
ATOM     24  H   UNL A   1      29.426  28.747  21.210  1.00  0.00     0.211 HD
ENDBRANCH  20  23
ENDBRANCH  19  20
ENDBRANCH  17  19
ENDBRANCH  14  17
ENDBRANCH   7  14
ENDBRANCH   3   6
ENDBRANCH   1   2
BRANCH   1  25
ATOM     25  C   UNL A   1      35.329  21.581  26.138  1.00  0.00     0.042 C 
BRANCH  25  26
ATOM     26  C   UNL A   1      36.584  21.741  25.295  1.00  0.00     0.118 C 
BRANCH  26  27
ATOM     27  N   UNL A   1      37.572  20.712  25.577  1.00  0.00    -0.352 N 
ATOM     28  C   UNL A   1      38.892  20.819  25.949  1.00  0.00     0.251 C 
ATOM     29  H   UNL A   1      37.243  19.788  25.486  1.00  0.00     0.163 HD
ATOM     30  O   UNL A   1      39.585  19.803  25.926  1.00  0.00    -0.269 OA
BRANCH  28  31
ATOM     31  C   UNL A   1      39.494  22.115  26.357  1.00  0.00     0.039 A 
ATOM     32  C   UNL A   1      40.528  22.100  27.301  1.00  0.00     0.014 A 
ATOM     33  C   UNL A   1      39.027  23.344  25.883  1.00  0.00     0.014 A 
ATOM     34  C   UNL A   1      41.108  23.299  27.731  1.00  0.00     0.010 A 
ATOM     35  C   UNL A   1      39.673  24.530  26.235  1.00  0.00     0.010 A 
ATOM     36  C   UNL A   1      40.703  24.527  27.184  1.00  0.00    -0.014 A 
BRANCH  36  37
ATOM     37  C   UNL A   1      41.338  25.803  27.613  1.00  0.00     0.031 A 
ATOM     38  C   UNL A   1      42.771  26.111  27.255  1.00  0.00     0.074 A 
ATOM     39  C   UNL A   1      40.637  26.675  28.368  1.00  0.00     0.049 A 
ATOM     40  N   UNL A   1      43.474  27.184  27.516  1.00  0.00    -0.248 NA
ATOM     41  C   UNL A   1      43.521  25.071  26.534  1.00  0.00     0.031 C 
ATOM     42  C   UNL A   1      39.276  26.459  28.863  1.00  0.00     0.029 A 
ATOM     43  N   UNL A   1      40.976  27.911  28.861  1.00  0.00    -0.354 N 
ATOM     44  C   UNL A   1      44.749  26.937  27.020  1.00  0.00     0.074 A 
ATOM     45  C   UNL A   1      44.737  25.594  26.484  1.00  0.00     0.031 C 
ATOM     46  C   UNL A   1      38.887  27.537  29.564  1.00  0.00     0.029 A 
ATOM     47  C   UNL A   1      39.975  28.508  29.589  1.00  0.00     0.049 A 
ATOM     48  H   UNL A   1      41.854  28.329  28.707  1.00  0.00     0.167 HD
ATOM     49  C   UNL A   1      45.825  27.760  26.979  1.00  0.00     0.034 A 
ATOM     50  C   UNL A   1      39.931  29.710  30.198  1.00  0.00     0.034 A 
ATOM     51  C   UNL A   1      45.824  29.111  27.475  1.00  0.00     0.049 A 
ATOM     52  C   UNL A   1      41.116  30.631  30.084  1.00  0.00     0.074 A 
ATOM     53  C   UNL A   1      46.835  30.055  27.411  1.00  0.00     0.029 A 
ATOM     54  N   UNL A   1      44.759  29.712  28.130  1.00  0.00    -0.354 N 
ATOM     55  N   UNL A   1      42.257  30.438  29.468  1.00  0.00    -0.248 NA
ATOM     56  C   UNL A   1      40.988  31.955  30.711  1.00  0.00     0.031 C 
ATOM     57  C   UNL A   1      46.387  31.220  28.042  1.00  0.00     0.029 A 
ATOM     58  C   UNL A   1      45.087  31.012  28.475  1.00  0.00     0.049 A 
ATOM     59  H   UNL A   1      43.897  29.278  28.321  1.00  0.00     0.167 HD
ATOM     60  C   UNL A   1      42.965  31.626  29.597  1.00  0.00     0.074 A 
ATOM     61  C   UNL A   1      42.115  32.541  30.331  1.00  0.00     0.031 C 
ATOM     62  C   UNL A   1      44.212  31.930  29.159  1.00  0.00     0.034 A 
BRANCH  49  63
ATOM     63  C   UNL A   1      47.078  27.240  26.318  1.00  0.00     0.023 A 
ATOM     64  C   UNL A   1      47.291  27.488  24.945  1.00  0.00     0.012 A 
ATOM     65  C   UNL A   1      48.062  26.552  27.054  1.00  0.00     0.148 A 
ATOM     66  C   UNL A   1      48.440  27.023  24.307  1.00  0.00     0.002 A 
ATOM     67  C   UNL A   1      49.227  26.132  26.419  1.00  0.00     0.091 A 
ATOM     68  F   UNL A   1      47.837  26.307  28.352  1.00  0.00    -0.205 F 
ATOM     69  C   UNL A   1      49.411  26.355  25.045  1.00  0.00     0.022 A 
BRANCH  67  70
ATOM     70  S   UNL A   1      50.576  25.335  27.299  1.00  0.00     0.127 S 
ATOM     71  O   UNL A   1      50.961  26.376  28.251  1.00  0.00    -0.237 OA
ATOM     72  O   UNL A   1      49.913  24.177  27.899  1.00  0.00    -0.237 OA
ATOM     73  O   UNL A   1      51.574  25.007  26.290  1.00  0.00    -0.744 OA
ENDBRANCH  67  70
ENDBRANCH  49  63
BRANCH  50  74
ATOM     74  C   UNL A   1      38.684  30.149  30.886  1.00  0.00     0.023 A 
ATOM     75  C   UNL A   1      38.504  29.845  32.250  1.00  0.00     0.012 A 
ATOM     76  C   UNL A   1      37.694  30.891  30.212  1.00  0.00     0.148 A 
ATOM     77  C   UNL A   1      37.349  30.242  32.923  1.00  0.00     0.002 A 
ATOM     78  C   UNL A   1      36.571  31.332  30.903  1.00  0.00     0.091 A 
ATOM     79  F   UNL A   1      37.878  31.161  28.913  1.00  0.00    -0.205 F 
ATOM     80  C   UNL A   1      36.388  30.994  32.253  1.00  0.00     0.022 A 
BRANCH  78  81
ATOM     81  S   UNL A   1      35.346  32.414  30.159  1.00  0.00     0.127 S 
ATOM     82  O   UNL A   1      34.870  31.604  29.041  1.00  0.00    -0.237 OA
ATOM     83  O   UNL A   1      34.387  32.579  31.253  1.00  0.00    -0.237 OA
ATOM     84  O   UNL A   1      36.063  33.631  29.802  1.00  0.00    -0.744 OA
ENDBRANCH  78  81
ENDBRANCH  50  74
BRANCH  62  85
ATOM     85  C   UNL A   1      44.721  33.324  29.422  1.00  0.00     0.023 A 
ATOM     86  C   UNL A   1      45.405  33.608  30.621  1.00  0.00     0.012 A 
ATOM     87  C   UNL A   1      44.567  34.339  28.457  1.00  0.00     0.148 A 
ATOM     88  C   UNL A   1      45.889  34.893  30.874  1.00  0.00     0.002 A 
ATOM     89  C   UNL A   1      45.096  35.602  28.694  1.00  0.00     0.091 A 
ATOM     90  F   UNL A   1      43.895  34.057  27.331  1.00  0.00    -0.205 F 
ATOM     91  C   UNL A   1      45.744  35.885  29.907  1.00  0.00     0.022 A 
BRANCH  89  92
ATOM     92  S   UNL A   1      45.038  36.908  27.462  1.00  0.00     0.127 S 
ATOM     93  O   UNL A   1      45.720  36.282  26.331  1.00  0.00    -0.237 OA
ATOM     94  O   UNL A   1      43.599  37.098  27.275  1.00  0.00    -0.237 OA
ATOM     95  O   UNL A   1      45.721  38.047  28.059  1.00  0.00    -0.744 OA
ENDBRANCH  89  92
ENDBRANCH  62  85
ENDBRANCH  36  37
ENDBRANCH  28  31
ENDBRANCH  26  27
ENDBRANCH  25  26
ENDBRANCH   1  25
TORSDOF 18
ENDMDL
MODEL 2
REMARK VINA RESULT:     -11.7      4.575      9.593
REMARK SMILES CN(CC(C)(C)O)S(=O)(=O)c1cc(Cl)cc(C(=O)NCCCNC(=O)c2ccc(-c3c4nc(c(-c5cccc(S(=O)(=O)[O-])c5F)c5ccc([nH]5)c(-c5cccc(S(=O)(=O)[O-])c5F)c5nc(c(-c6cccc(S(=O)(=O)[O-])c6F)c6ccc3[nH]6)C=C5)C=C4)cc2)c1Cl
REMARK SMILES IDX 20 1 19 2 17 3 18 4 16 6 11 7 12 8 89 9 13 10 90 11 14 12
REMARK SMILES IDX 15 13 8 14 9 15 10 16 2 17 1 18 3 19 4 20 5 21 6 22 7 23
REMARK SMILES IDX 21 25 22 26 23 27 24 28 25 30 26 31 27 32 88 33 28 34 87 35
REMARK SMILES IDX 29 36 30 37 31 38 81 39 32 40 86 41 80 42 82 43 33 44 85 45
REMARK SMILES IDX 79 46 78 47 34 49 66 50 46 51 65 52 47 53 50 54 64 55 83 56
REMARK SMILES IDX 48 57 49 58 63 60 84 61 51 62 35 63 36 64 44 65 37 66 39 67
REMARK SMILES IDX 45 68 38 69 40 70 41 71 42 72 43 73 67 74 68 75 76 76 69 77
REMARK SMILES IDX 71 78 77 79 70 80 72 81 73 82 74 83 75 84 52 85 53 86 61 87
REMARK SMILES IDX 54 88 56 89 62 90 55 91 57 92 58 93 59 94 60 95
REMARK H PARENT 19 5 7 24 23 29 82 48 50 59
REMARK Flexibility Score: inf
ROOT
ATOM      1  C   UNL A   1      31.701  28.027  26.559  1.00  0.00     0.118 C 
ENDROOT
BRANCH   1   2
ATOM      2  N   UNL A   1      31.143  27.654  25.265  1.00  0.00    -0.352 N 
ATOM      3  C   UNL A   1      30.983  26.439  24.641  1.00  0.00     0.252 C 
ATOM      4  O   UNL A   1      30.430  26.417  23.542  1.00  0.00    -0.269 OA
ATOM      5  H   UNL A   1      30.820  28.419  24.737  1.00  0.00     0.163 HD
BRANCH   3   6
ATOM      6  C   UNL A   1      31.304  25.145  25.299  1.00  0.00     0.061 A 
ATOM      7  C   UNL A   1      32.771  23.393  26.077  1.00  0.00     0.103 A 
ATOM      8  C   UNL A   1      31.708  22.814  26.791  1.00  0.00     0.044 A 
ATOM      9  C   UNL A   1      32.533  24.470  25.215  1.00  0.00     0.073 A 
ATOM     10  C   UNL A   1      30.437  23.365  26.698  1.00  0.00     0.043 A 
ATOM     11  Cl  UNL A   1      33.556  24.788  23.864  1.00  0.00    -0.082 Cl
ATOM     12  Cl  UNL A   1      29.106  22.586  27.456  1.00  0.00    -0.084 Cl
ATOM     13  C   UNL A   1      30.242  24.553  26.006  1.00  0.00     0.036 A 
BRANCH   7  14
ATOM     14  S   UNL A   1      34.381  22.685  26.355  1.00  0.00     0.244 S 
ATOM     15  O   UNL A   1      34.356  21.779  27.482  1.00  0.00    -0.207 OA
ATOM     16  O   UNL A   1      35.318  23.782  26.326  1.00  0.00    -0.207 OA
BRANCH  14  17
ATOM     17  N   UNL A   1      34.668  21.742  24.958  1.00  0.00    -0.198 NA
ATOM     18  C   UNL A   1      35.910  22.118  24.243  1.00  0.00     0.124 C 
BRANCH  17  19
ATOM     19  C   UNL A   1      34.378  20.273  24.920  1.00  0.00     0.136 C 
BRANCH  19  20
ATOM     20  C   UNL A   1      32.967  19.780  24.484  1.00  0.00     0.073 C 
ATOM     21  C   UNL A   1      32.236  20.747  23.560  1.00  0.00     0.043 C 
ATOM     22  C   UNL A   1      33.136  18.426  23.771  1.00  0.00     0.043 C 
BRANCH  20  23
ATOM     23  O   UNL A   1      32.144  19.519  25.627  1.00  0.00    -0.389 OA
ATOM     24  H   UNL A   1      32.242  20.241  26.267  1.00  0.00     0.211 HD
ENDBRANCH  20  23
ENDBRANCH  19  20
ENDBRANCH  17  19
ENDBRANCH  14  17
ENDBRANCH   7  14
ENDBRANCH   3   6
ENDBRANCH   1   2
BRANCH   1  25
ATOM     25  C   UNL A   1      33.211  27.798  26.604  1.00  0.00     0.042 C 
BRANCH  25  26
ATOM     26  C   UNL A   1      34.042  28.866  25.910  1.00  0.00     0.118 C 
BRANCH  26  27
ATOM     27  N   UNL A   1      33.857  30.180  26.504  1.00  0.00    -0.352 N 
ATOM     28  C   UNL A   1      34.558  30.814  27.503  1.00  0.00     0.251 C 
ATOM     29  H   UNL A   1      33.109  30.700  26.131  1.00  0.00     0.163 HD
ATOM     30  O   UNL A   1      34.083  31.843  27.981  1.00  0.00    -0.269 OA
BRANCH  28  31
ATOM     31  C   UNL A   1      35.848  30.287  28.019  1.00  0.00     0.039 A 
ATOM     32  C   UNL A   1      35.848  29.615  29.248  1.00  0.00     0.014 A 
ATOM     33  C   UNL A   1      37.062  30.490  27.358  1.00  0.00     0.014 A 
ATOM     34  C   UNL A   1      37.044  29.122  29.782  1.00  0.00     0.010 A 
ATOM     35  C   UNL A   1      38.237  29.910  27.841  1.00  0.00     0.010 A 
ATOM     36  C   UNL A   1      38.250  29.243  29.072  1.00  0.00    -0.014 A 
BRANCH  36  37
ATOM     37  C   UNL A   1      39.520  28.692  29.619  1.00  0.00     0.031 A 
ATOM     38  C   UNL A   1      40.144  29.279  30.861  1.00  0.00     0.074 A 
ATOM     39  C   UNL A   1      40.143  27.686  28.972  1.00  0.00     0.049 A 
ATOM     40  N   UNL A   1      41.226  28.906  31.495  1.00  0.00    -0.248 NA
ATOM     41  C   UNL A   1      39.482  30.452  31.455  1.00  0.00     0.031 C 
ATOM     42  C   UNL A   1      39.698  27.090  27.711  1.00  0.00     0.029 A 
ATOM     43  N   UNL A   1      41.290  26.995  29.278  1.00  0.00    -0.354 N 
ATOM     44  C   UNL A   1      41.391  29.811  32.538  1.00  0.00     0.074 A 
ATOM     45  C   UNL A   1      40.324  30.780  32.425  1.00  0.00     0.031 C 
ATOM     46  C   UNL A   1      40.545  26.106  27.366  1.00  0.00     0.029 A 
ATOM     47  C   UNL A   1      41.604  26.015  28.366  1.00  0.00     0.049 A 
ATOM     48  H   UNL A   1      41.835  27.184  30.076  1.00  0.00     0.167 HD
ATOM     49  C   UNL A   1      42.322  29.821  33.523  1.00  0.00     0.034 A 
ATOM     50  C   UNL A   1      42.622  25.133  28.342  1.00  0.00     0.034 A 
ATOM     51  C   UNL A   1      43.359  28.833  33.660  1.00  0.00     0.049 A 
ATOM     52  C   UNL A   1      43.607  25.123  29.481  1.00  0.00     0.074 A 
ATOM     53  C   UNL A   1      44.303  28.705  34.665  1.00  0.00     0.029 A 
ATOM     54  N   UNL A   1      43.592  27.801  32.762  1.00  0.00    -0.354 N 
ATOM     55  N   UNL A   1      43.647  25.887  30.545  1.00  0.00    -0.248 NA
ATOM     56  C   UNL A   1      44.658  24.096  29.437  1.00  0.00     0.031 C 
ATOM     57  C   UNL A   1      45.117  27.607  34.365  1.00  0.00     0.029 A 
ATOM     58  C   UNL A   1      44.662  27.034  33.188  1.00  0.00     0.049 A 
ATOM     59  H   UNL A   1      43.073  27.640  31.942  1.00  0.00     0.167 HD
ATOM     60  C   UNL A   1      44.700  25.410  31.317  1.00  0.00     0.074 A 
ATOM     61  C   UNL A   1      45.256  24.276  30.607  1.00  0.00     0.031 C 
ATOM     62  C   UNL A   1      45.173  25.876  32.500  1.00  0.00     0.034 A 
BRANCH  49  63
ATOM     63  C   UNL A   1      42.220  30.902  34.570  1.00  0.00     0.023 A 
ATOM     64  C   UNL A   1      41.437  30.679  35.723  1.00  0.00     0.012 A 
ATOM     65  C   UNL A   1      42.929  32.113  34.443  1.00  0.00     0.148 A 
ATOM     66  C   UNL A   1      41.325  31.658  36.709  1.00  0.00     0.002 A 
ATOM     67  C   UNL A   1      42.849  33.066  35.454  1.00  0.00     0.091 A 
ATOM     68  F   UNL A   1      43.653  32.319  33.334  1.00  0.00    -0.205 F 
ATOM     69  C   UNL A   1      42.039  32.846  36.580  1.00  0.00     0.022 A 
BRANCH  67  70
ATOM     70  S   UNL A   1      43.794  34.594  35.421  1.00  0.00     0.127 S 
ATOM     71  O   UNL A   1      43.862  34.928  36.844  1.00  0.00    -0.237 OA
ATOM     72  O   UNL A   1      45.062  34.161  34.836  1.00  0.00    -0.237 OA
ATOM     73  O   UNL A   1      43.029  35.519  34.596  1.00  0.00    -0.744 OA
ENDBRANCH  67  70
ENDBRANCH  49  63
BRANCH  50  74
ATOM     74  C   UNL A   1      42.704  24.121  27.251  1.00  0.00     0.023 A 
ATOM     75  C   UNL A   1      43.461  24.410  26.098  1.00  0.00     0.012 A 
ATOM     76  C   UNL A   1      42.070  22.869  27.360  1.00  0.00     0.148 A 
ATOM     77  C   UNL A   1      43.558  23.484  25.059  1.00  0.00     0.002 A 
ATOM     78  C   UNL A   1      42.217  21.929  26.346  1.00  0.00     0.091 A 
ATOM     79  F   UNL A   1      41.347  22.617  28.459  1.00  0.00    -0.205 F 
ATOM     80  C   UNL A   1      42.946  22.240  25.187  1.00  0.00     0.022 A 
BRANCH  78  81
ATOM     81  S   UNL A   1      41.575  20.257  26.480  1.00  0.00     0.127 S 
ATOM     82  O   UNL A   1      40.144  20.469  26.275  1.00  0.00    -0.237 OA
ATOM     83  O   UNL A   1      42.261  19.581  25.379  1.00  0.00    -0.237 OA
ATOM     84  O   UNL A   1      41.963  19.793  27.805  1.00  0.00    -0.744 OA
ENDBRANCH  78  81
ENDBRANCH  50  74
BRANCH  62  85
ATOM     85  C   UNL A   1      46.325  25.134  33.128  1.00  0.00     0.023 A 
ATOM     86  C   UNL A   1      47.647  25.565  32.899  1.00  0.00     0.012 A 
ATOM     87  C   UNL A   1      46.092  24.043  33.988  1.00  0.00     0.148 A 
ATOM     88  C   UNL A   1      48.722  24.892  33.481  1.00  0.00     0.002 A 
ATOM     89  C   UNL A   1      47.166  23.410  34.605  1.00  0.00     0.091 A 
ATOM     90  F   UNL A   1      44.829  23.633  34.179  1.00  0.00    -0.205 F 
ATOM     91  C   UNL A   1      48.481  23.823  34.341  1.00  0.00     0.022 A 
BRANCH  89  92
ATOM     92  S   UNL A   1      46.936  22.090  35.801  1.00  0.00     0.127 S 
ATOM     93  O   UNL A   1      47.301  20.911  35.018  1.00  0.00    -0.237 OA
ATOM     94  O   UNL A   1      47.895  22.446  36.848  1.00  0.00    -0.237 OA
ATOM     95  O   UNL A   1      45.542  22.167  36.214  1.00  0.00    -0.744 OA
ENDBRANCH  89  92
ENDBRANCH  62  85
ENDBRANCH  36  37
ENDBRANCH  28  31
ENDBRANCH  26  27
ENDBRANCH  25  26
ENDBRANCH   1  25
TORSDOF 18
ENDMDL
MODEL 3
REMARK VINA RESULT:     -11.7      5.072      9.964
REMARK SMILES CN(CC(C)(C)O)S(=O)(=O)c1cc(Cl)cc(C(=O)NCCCNC(=O)c2ccc(-c3c4nc(c(-c5cccc(S(=O)(=O)[O-])c5F)c5ccc([nH]5)c(-c5cccc(S(=O)(=O)[O-])c5F)c5nc(c(-c6cccc(S(=O)(=O)[O-])c6F)c6ccc3[nH]6)C=C5)C=C4)cc2)c1Cl
REMARK SMILES IDX 20 1 19 2 17 3 18 4 16 6 11 7 12 8 89 9 13 10 90 11 14 12
REMARK SMILES IDX 15 13 8 14 9 15 10 16 2 17 1 18 3 19 4 20 5 21 6 22 7 23
REMARK SMILES IDX 21 25 22 26 23 27 24 28 25 30 26 31 27 32 88 33 28 34 87 35
REMARK SMILES IDX 29 36 30 37 31 38 81 39 32 40 86 41 80 42 82 43 33 44 85 45
REMARK SMILES IDX 79 46 78 47 34 49 66 50 46 51 65 52 47 53 50 54 64 55 83 56
REMARK SMILES IDX 48 57 49 58 63 60 84 61 51 62 35 63 36 64 44 65 37 66 39 67
REMARK SMILES IDX 45 68 38 69 40 70 41 71 42 72 43 73 67 74 68 75 76 76 69 77
REMARK SMILES IDX 71 78 77 79 70 80 72 81 73 82 74 83 75 84 52 85 53 86 61 87
REMARK SMILES IDX 54 88 56 89 62 90 55 91 57 92 58 93 59 94 60 95
REMARK H PARENT 19 5 7 24 23 29 82 48 50 59
REMARK Flexibility Score: inf
ROOT
ATOM      1  C   UNL A   1      31.193  27.915  25.454  1.00  0.00     0.118 C 
ENDROOT
BRANCH   1   2
ATOM      2  N   UNL A   1      31.110  27.301  24.136  1.00  0.00    -0.352 N 
ATOM      3  C   UNL A   1      31.333  26.017  23.697  1.00  0.00     0.252 C 
ATOM      4  O   UNL A   1      31.142  25.766  22.508  1.00  0.00    -0.269 OA
ATOM      5  H   UNL A   1      30.844  27.925  23.423  1.00  0.00     0.163 HD
BRANCH   3   6
ATOM      6  C   UNL A   1      31.641  24.891  24.618  1.00  0.00     0.061 A 
ATOM      7  C   UNL A   1      33.090  23.337  25.765  1.00  0.00     0.103 A 
ATOM      8  C   UNL A   1      32.019  22.929  26.575  1.00  0.00     0.044 A 
ATOM      9  C   UNL A   1      32.865  24.207  24.690  1.00  0.00     0.073 A 
ATOM     10  C   UNL A   1      30.752  23.453  26.356  1.00  0.00     0.043 A 
ATOM     11  Cl  UNL A   1      33.901  24.226  23.312  1.00  0.00    -0.082 Cl
ATOM     12  Cl  UNL A   1      29.410  22.860  27.252  1.00  0.00    -0.084 Cl
ATOM     13  C   UNL A   1      30.570  24.468  25.425  1.00  0.00     0.036 A 
BRANCH   7  14
ATOM     14  S   UNL A   1      34.693  22.698  26.200  1.00  0.00     0.244 S 
ATOM     15  O   UNL A   1      34.622  21.920  27.418  1.00  0.00    -0.207 OA
ATOM     16  O   UNL A   1      35.615  23.804  26.099  1.00  0.00    -0.207 OA
BRANCH  14  17
ATOM     17  N   UNL A   1      35.068  21.614  24.932  1.00  0.00    -0.198 NA
ATOM     18  C   UNL A   1      36.309  21.970  24.205  1.00  0.00     0.124 C 
BRANCH  17  19
ATOM     19  C   UNL A   1      34.856  20.137  25.063  1.00  0.00     0.136 C 
BRANCH  19  20
ATOM     20  C   UNL A   1      33.442  19.538  24.809  1.00  0.00     0.073 C 
ATOM     21  C   UNL A   1      32.574  20.383  23.884  1.00  0.00     0.043 C 
ATOM     22  C   UNL A   1      33.622  18.138  24.195  1.00  0.00     0.043 C 
BRANCH  20  23
ATOM     23  O   UNL A   1      32.746  19.336  26.043  1.00  0.00    -0.389 OA
ATOM     24  H   UNL A   1      32.034  19.991  26.124  1.00  0.00     0.211 HD
ENDBRANCH  20  23
ENDBRANCH  19  20
ENDBRANCH  17  19
ENDBRANCH  14  17
ENDBRANCH   7  14
ENDBRANCH   3   6
ENDBRANCH   1   2
BRANCH   1  25
ATOM     25  C   UNL A   1      32.645  28.083  25.903  1.00  0.00     0.042 C 
BRANCH  25  26
ATOM     26  C   UNL A   1      33.375  29.263  25.282  1.00  0.00     0.118 C 
BRANCH  26  27
ATOM     27  N   UNL A   1      32.968  30.531  25.864  1.00  0.00    -0.352 N 
ATOM     28  C   UNL A   1      33.434  31.194  26.975  1.00  0.00     0.251 C 
ATOM     29  H   UNL A   1      32.240  30.990  25.386  1.00  0.00     0.163 HD
ATOM     30  O   UNL A   1      32.789  32.155  27.390  1.00  0.00    -0.269 OA
BRANCH  28  31
ATOM     31  C   UNL A   1      34.673  30.776  27.682  1.00  0.00     0.039 A 
ATOM     32  C   UNL A   1      35.770  31.645  27.674  1.00  0.00     0.014 A 
ATOM     33  C   UNL A   1      34.802  29.528  28.298  1.00  0.00     0.014 A 
ATOM     34  C   UNL A   1      36.963  31.281  28.308  1.00  0.00     0.010 A 
ATOM     35  C   UNL A   1      35.956  29.209  29.017  1.00  0.00     0.010 A 
ATOM     36  C   UNL A   1      37.062  30.068  29.008  1.00  0.00    -0.014 A 
BRANCH  36  37
ATOM     37  C   UNL A   1      38.317  29.689  29.712  1.00  0.00     0.031 A 
ATOM     38  C   UNL A   1      38.645  30.262  31.069  1.00  0.00     0.074 A 
ATOM     39  C   UNL A   1      39.193  28.857  29.111  1.00  0.00     0.049 A 
ATOM     40  N   UNL A   1      39.674  30.019  31.840  1.00  0.00    -0.248 NA
ATOM     41  C   UNL A   1      37.710  31.255  31.621  1.00  0.00     0.031 C 
ATOM     42  C   UNL A   1      39.044  28.306  27.762  1.00  0.00     0.029 A 
ATOM     43  N   UNL A   1      40.387  28.340  29.550  1.00  0.00    -0.354 N 
ATOM     44  C   UNL A   1      39.527  30.847  32.948  1.00  0.00     0.074 A 
ATOM     45  C   UNL A   1      38.334  31.633  32.728  1.00  0.00     0.031 C 
ATOM     46  C   UNL A   1      40.091  27.507  27.496  1.00  0.00     0.029 A 
ATOM     47  C   UNL A   1      40.995  27.507  28.641  1.00  0.00     0.049 A 
ATOM     48  H   UNL A   1      40.771  28.547  30.432  1.00  0.00     0.167 HD
ATOM     49  C   UNL A   1      40.291  30.925  34.065  1.00  0.00     0.034 A 
ATOM     50  C   UNL A   1      42.145  26.809  28.723  1.00  0.00     0.034 A 
ATOM     51  C   UNL A   1      41.455  30.112  34.301  1.00  0.00     0.049 A 
ATOM     52  C   UNL A   1      42.943  26.863  29.999  1.00  0.00     0.074 A 
ATOM     53  C   UNL A   1      42.253  30.056  35.431  1.00  0.00     0.029 A 
ATOM     54  N   UNL A   1      41.991  29.214  33.391  1.00  0.00    -0.354 N 
ATOM     55  N   UNL A   1      42.696  27.530  31.100  1.00  0.00    -0.248 NA
ATOM     56  C   UNL A   1      44.153  26.031  30.058  1.00  0.00     0.031 C 
ATOM     57  C   UNL A   1      43.281  29.136  35.197  1.00  0.00     0.029 A 
ATOM     58  C   UNL A   1      43.107  28.598  33.932  1.00  0.00     0.049 A 
ATOM     59  H   UNL A   1      41.630  29.039  32.492  1.00  0.00     0.167 HD
ATOM     60  C   UNL A   1      43.695  27.168  31.996  1.00  0.00     0.074 A 
ATOM     61  C   UNL A   1      44.537  26.205  31.315  1.00  0.00     0.031 C 
ATOM     62  C   UNL A   1      43.905  27.603  33.263  1.00  0.00     0.034 A 
BRANCH  49  63
ATOM     63  C   UNL A   1      39.852  31.881  35.146  1.00  0.00     0.023 A 
ATOM     64  C   UNL A   1      40.277  33.226  35.095  1.00  0.00     0.012 A 
ATOM     65  C   UNL A   1      38.988  31.470  36.180  1.00  0.00     0.148 A 
ATOM     66  C   UNL A   1      39.885  34.134  36.078  1.00  0.00     0.002 A 
ATOM     67  C   UNL A   1      38.565  32.394  37.130  1.00  0.00     0.091 A 
ATOM     68  F   UNL A   1      38.609  30.186  36.226  1.00  0.00    -0.205 F 
ATOM     69  C   UNL A   1      39.022  33.721  37.089  1.00  0.00     0.022 A 
BRANCH  67  70
ATOM     70  S   UNL A   1      37.390  31.982  38.425  1.00  0.00     0.127 S 
ATOM     71  O   UNL A   1      38.174  32.249  39.630  1.00  0.00    -0.237 OA
ATOM     72  O   UNL A   1      36.309  32.937  38.179  1.00  0.00    -0.237 OA
ATOM     73  O   UNL A   1      37.028  30.588  38.208  1.00  0.00    -0.744 OA
ENDBRANCH  67  70
ENDBRANCH  49  63
BRANCH  50  74
ATOM     74  C   UNL A   1      42.557  25.921  27.600  1.00  0.00     0.023 A 
ATOM     75  C   UNL A   1      43.479  26.398  26.646  1.00  0.00     0.012 A 
ATOM     76  C   UNL A   1      42.074  24.603  27.487  1.00  0.00     0.148 A 
ATOM     77  C   UNL A   1      43.887  25.592  25.583  1.00  0.00     0.002 A 
ATOM     78  C   UNL A   1      42.527  23.786  26.457  1.00  0.00     0.091 A 
ATOM     79  F   UNL A   1      41.191  24.171  28.398  1.00  0.00    -0.205 F 
ATOM     80  C   UNL A   1      43.419  24.283  25.495  1.00  0.00     0.022 A 
BRANCH  78  81
ATOM     81  S   UNL A   1      42.082  22.051  26.338  1.00  0.00     0.127 S 
ATOM     82  O   UNL A   1      40.641  22.125  26.111  1.00  0.00    -0.237 OA
ATOM     83  O   UNL A   1      42.867  21.618  25.181  1.00  0.00    -0.237 OA
ATOM     84  O   UNL A   1      42.495  21.452  27.600  1.00  0.00    -0.744 OA
ENDBRANCH  78  81
ENDBRANCH  50  74
BRANCH  62  85
ATOM     85  C   UNL A   1      45.067  27.010  34.018  1.00  0.00     0.023 A 
ATOM     86  C   UNL A   1      46.337  27.616  33.944  1.00  0.00     0.012 A 
ATOM     87  C   UNL A   1      44.887  25.881  34.841  1.00  0.00     0.148 A 
ATOM     88  C   UNL A   1      47.420  27.082  34.644  1.00  0.00     0.002 A 
ATOM     89  C   UNL A   1      45.958  25.385  35.576  1.00  0.00     0.091 A 
ATOM     90  F   UNL A   1      43.677  25.303  34.884  1.00  0.00    -0.205 F 
ATOM     91  C   UNL A   1      47.227  25.974  35.467  1.00  0.00     0.022 A 
BRANCH  89  92
ATOM     92  S   UNL A   1      45.774  24.024  36.733  1.00  0.00     0.127 S 
ATOM     93  O   UNL A   1      44.779  24.555  37.664  1.00  0.00    -0.237 OA
ATOM     94  O   UNL A   1      45.286  22.945  35.873  1.00  0.00    -0.237 OA
ATOM     95  O   UNL A   1      47.100  23.794  37.290  1.00  0.00    -0.744 OA
ENDBRANCH  89  92
ENDBRANCH  62  85
ENDBRANCH  36  37
ENDBRANCH  28  31
ENDBRANCH  26  27
ENDBRANCH  25  26
ENDBRANCH   1  25
TORSDOF 18
ENDMDL
