MODEL 1
REMARK VINA RESULT:     -12.8      0.000      0.000
REMARK SMILES Cc1ccccc1NC(=O)NC[C@@H]1CC[C@@H](C(=O)NCCCNC(=O)c2ccc(-c3c4nc(c(-c5cccc(S(=O)(=O)[O-])c5F)c5ccc([nH]5)c(-c5cccc(S(=O)(=O)[O-])c5F)c5nc(c(-c6cccc(S(=O)(=O)[O-])c6F)c6ccc3[nH]6)C=C5)C=C4)cc2)O1
REMARK SMILES IDX 21 1 20 2 19 3 17 4 18 5 16 7 13 8 14 9 89 10 15 11 12 12
REMARK SMILES IDX 11 13 8 14 9 15 10 17 7 19 1 20 2 21 3 22 4 23 6 24 5 25
REMARK SMILES IDX 22 26 23 27 24 28 25 30 26 31 27 32 88 33 28 34 87 35 29 36
REMARK SMILES IDX 30 37 31 38 81 39 32 40 86 41 80 42 82 43 33 44 85 45 79 46
REMARK SMILES IDX 78 47 34 49 66 50 46 51 65 52 47 53 50 54 64 55 83 56 48 57
REMARK SMILES IDX 49 58 63 60 84 61 51 62 35 63 36 64 44 65 37 66 39 67 45 68
REMARK SMILES IDX 38 69 40 70 41 71 42 72 43 73 67 74 68 75 76 76 69 77 71 78
REMARK SMILES IDX 77 79 70 80 72 81 73 82 74 83 75 84 52 85 53 86 61 87 54 88
REMARK SMILES IDX 56 89 62 90 55 91 57 92 58 93 59 94 60 95
REMARK H PARENT 19 6 8 16 11 18 23 29 82 48 50 59
REMARK Flexibility Score: inf
ROOT
ATOM      1  C   UNL A   1      38.422  21.311  25.769  1.00  0.00     0.042 C 
ENDROOT
BRANCH   1   2
ATOM      2  C   UNL A   1      37.459  21.278  24.580  1.00  0.00     0.117 C 
BRANCH   2   3
ATOM      3  N   UNL A   1      36.134  20.780  24.928  1.00  0.00    -0.354 N 
ATOM      4  C   UNL A   1      34.918  21.417  24.968  1.00  0.00     0.249 C 
ATOM      5  O   UNL A   1      33.922  20.737  25.224  1.00  0.00    -0.272 OA
ATOM      6  H   UNL A   1      36.106  19.827  25.176  1.00  0.00     0.163 HD
BRANCH   4   7
ATOM      7  C   UNL A   1      34.803  22.931  24.649  1.00  0.00     0.207 C 
ATOM      8  C   UNL A   1      32.989  24.351  25.130  1.00  0.00     0.138 C 
ATOM      9  C   UNL A   1      34.258  25.018  25.611  1.00  0.00     0.037 C 
ATOM     10  O   UNL A   1      33.485  23.361  24.196  1.00  0.00    -0.363 OA
ATOM     11  C   UNL A   1      35.111  23.811  25.846  1.00  0.00     0.045 C 
BRANCH   8  12
ATOM     12  C   UNL A   1      31.979  25.340  24.513  1.00  0.00     0.149 C 
BRANCH  12  13
ATOM     13  N   UNL A   1      32.484  25.920  23.268  1.00  0.00    -0.335 N 
ATOM     14  N   UNL A   1      33.628  28.017  23.610  1.00  0.00    -0.308 N 
ATOM     15  C   UNL A   1      33.238  26.954  22.892  1.00  0.00     0.319 C 
ATOM     16  H   UNL A   1      34.365  28.485  23.155  1.00  0.00     0.171 HD
ATOM     17  O   UNL A   1      33.684  26.901  21.736  1.00  0.00    -0.249 OA
ATOM     18  H   UNL A   1      32.182  25.401  22.488  1.00  0.00     0.165 HD
BRANCH  14  19
ATOM     19  C   UNL A   1      33.310  28.670  24.814  1.00  0.00     0.045 A 
ATOM     20  C   UNL A   1      30.934  29.264  23.989  1.00  0.00     0.046 C 
ATOM     21  C   UNL A   1      32.080  29.350  24.964  1.00  0.00    -0.027 A 
ATOM     22  C   UNL A   1      31.823  30.075  26.150  1.00  0.00     0.005 A 
ATOM     23  C   UNL A   1      32.746  30.112  27.187  1.00  0.00     0.000 A 
ATOM     24  C   UNL A   1      34.139  28.610  25.923  1.00  0.00     0.026 A 
ATOM     25  C   UNL A   1      33.895  29.351  27.084  1.00  0.00     0.002 A 
ENDBRANCH  14  19
ENDBRANCH  12  13
ENDBRANCH   8  12
ENDBRANCH   4   7
ENDBRANCH   2   3
ENDBRANCH   1   2
BRANCH   1  26
ATOM     26  C   UNL A   1      38.894  22.705  26.156  1.00  0.00     0.118 C 
BRANCH  26  27
ATOM     27  N   UNL A   1      40.153  22.699  26.895  1.00  0.00    -0.352 N 
ATOM     28  C   UNL A   1      40.809  23.771  27.493  1.00  0.00     0.251 C 
ATOM     29  H   UNL A   1      40.595  21.824  26.983  1.00  0.00     0.163 HD
ATOM     30  O   UNL A   1      41.899  23.622  28.003  1.00  0.00    -0.269 OA
BRANCH  28  31
ATOM     31  C   UNL A   1      40.073  25.056  27.573  1.00  0.00     0.039 A 
ATOM     32  C   UNL A   1      40.469  26.070  26.698  1.00  0.00     0.014 A 
ATOM     33  C   UNL A   1      39.303  25.333  28.699  1.00  0.00     0.014 A 
ATOM     34  C   UNL A   1      40.338  27.396  27.098  1.00  0.00     0.010 A 
ATOM     35  C   UNL A   1      39.245  26.640  29.134  1.00  0.00     0.010 A 
ATOM     36  C   UNL A   1      39.840  27.655  28.371  1.00  0.00    -0.014 A 
BRANCH  36  37
ATOM     37  C   UNL A   1      39.950  28.939  29.043  1.00  0.00     0.031 A 
ATOM     38  C   UNL A   1      38.985  30.008  28.744  1.00  0.00     0.074 A 
ATOM     39  C   UNL A   1      40.840  29.082  30.052  1.00  0.00     0.049 A 
ATOM     40  N   UNL A   1      39.106  31.220  29.165  1.00  0.00    -0.248 NA
ATOM     41  C   UNL A   1      37.830  29.802  27.878  1.00  0.00     0.031 C 
ATOM     42  C   UNL A   1      40.833  30.097  31.099  1.00  0.00     0.029 A 
ATOM     43  N   UNL A   1      42.091  28.465  30.185  1.00  0.00    -0.354 N 
ATOM     44  C   UNL A   1      37.918  31.859  28.898  1.00  0.00     0.074 A 
ATOM     45  C   UNL A   1      37.234  30.994  27.973  1.00  0.00     0.031 C 
ATOM     46  C   UNL A   1      42.080  30.244  31.567  1.00  0.00     0.029 A 
ATOM     47  C   UNL A   1      42.949  29.449  30.718  1.00  0.00     0.049 A 
ATOM     48  H   UNL A   1      42.321  27.537  29.953  1.00  0.00     0.167 HD
ATOM     49  C   UNL A   1      37.607  32.970  29.622  1.00  0.00     0.034 A 
ATOM     50  C   UNL A   1      44.059  29.909  30.069  1.00  0.00     0.034 A 
ATOM     51  C   UNL A   1      38.801  33.501  30.304  1.00  0.00     0.049 A 
ATOM     52  C   UNL A   1      44.018  31.404  29.773  1.00  0.00     0.074 A 
ATOM     53  C   UNL A   1      39.278  33.509  31.603  1.00  0.00     0.029 A 
ATOM     54  N   UNL A   1      39.851  33.939  29.513  1.00  0.00    -0.354 N 
ATOM     55  N   UNL A   1      43.081  32.220  30.173  1.00  0.00    -0.248 NA
ATOM     56  C   UNL A   1      44.993  32.069  28.904  1.00  0.00     0.031 C 
ATOM     57  C   UNL A   1      40.665  33.860  31.558  1.00  0.00     0.029 A 
ATOM     58  C   UNL A   1      41.015  34.102  30.240  1.00  0.00     0.049 A 
ATOM     59  H   UNL A   1      39.775  34.114  28.547  1.00  0.00     0.167 HD
ATOM     60  C   UNL A   1      43.201  33.410  29.499  1.00  0.00     0.074 A 
ATOM     61  C   UNL A   1      44.443  33.286  28.755  1.00  0.00     0.031 C 
ATOM     62  C   UNL A   1      42.250  34.392  29.521  1.00  0.00     0.034 A 
BRANCH  49  63
ATOM     63  C   UNL A   1      36.205  33.508  29.861  1.00  0.00     0.023 A 
ATOM     64  C   UNL A   1      35.481  33.933  28.723  1.00  0.00     0.012 A 
ATOM     65  C   UNL A   1      35.578  33.749  31.111  1.00  0.00     0.148 A 
ATOM     66  C   UNL A   1      34.239  34.574  28.816  1.00  0.00     0.002 A 
ATOM     67  C   UNL A   1      34.320  34.348  31.203  1.00  0.00     0.091 A 
ATOM     68  F   UNL A   1      36.213  33.475  32.249  1.00  0.00    -0.205 F 
ATOM     69  C   UNL A   1      33.652  34.777  30.057  1.00  0.00     0.022 A 
BRANCH  67  70
ATOM     70  S   UNL A   1      33.497  34.631  32.785  1.00  0.00     0.127 S 
ATOM     71  O   UNL A   1      32.240  35.251  32.367  1.00  0.00    -0.237 OA
ATOM     72  O   UNL A   1      33.361  33.273  33.313  1.00  0.00    -0.237 OA
ATOM     73  O   UNL A   1      34.379  35.494  33.563  1.00  0.00    -0.744 OA
ENDBRANCH  67  70
ENDBRANCH  49  63
BRANCH  50  74
ATOM     74  C   UNL A   1      44.697  28.877  29.201  1.00  0.00     0.023 A 
ATOM     75  C   UNL A   1      45.281  27.763  29.853  1.00  0.00     0.012 A 
ATOM     76  C   UNL A   1      44.403  28.783  27.831  1.00  0.00     0.148 A 
ATOM     77  C   UNL A   1      45.436  26.546  29.191  1.00  0.00     0.002 A 
ATOM     78  C   UNL A   1      44.572  27.568  27.174  1.00  0.00     0.091 A 
ATOM     79  F   UNL A   1      43.881  29.848  27.209  1.00  0.00    -0.205 F 
ATOM     80  C   UNL A   1      45.049  26.440  27.859  1.00  0.00     0.022 A 
BRANCH  78  81
ATOM     81  S   UNL A   1      44.061  27.354  25.464  1.00  0.00     0.127 S 
ATOM     82  O   UNL A   1      45.272  27.742  24.750  1.00  0.00    -0.237 OA
ATOM     83  O   UNL A   1      43.742  25.928  25.412  1.00  0.00    -0.237 OA
ATOM     84  O   UNL A   1      42.906  28.227  25.312  1.00  0.00    -0.744 OA
ENDBRANCH  78  81
ENDBRANCH  50  74
BRANCH  62  85
ATOM     85  C   UNL A   1      42.445  35.727  28.836  1.00  0.00     0.023 A 
ATOM     86  C   UNL A   1      42.041  35.894  27.494  1.00  0.00     0.012 A 
ATOM     87  C   UNL A   1      43.169  36.788  29.429  1.00  0.00     0.148 A 
ATOM     88  C   UNL A   1      42.311  37.070  26.787  1.00  0.00     0.002 A 
ATOM     89  C   UNL A   1      43.526  37.912  28.689  1.00  0.00     0.091 A 
ATOM     90  F   UNL A   1      43.467  36.738  30.734  1.00  0.00    -0.205 F 
ATOM     91  C   UNL A   1      43.076  38.068  27.375  1.00  0.00     0.022 A 
BRANCH  89  92
ATOM     92  S   UNL A   1      44.695  39.129  29.311  1.00  0.00     0.127 S 
ATOM     93  O   UNL A   1      44.813  40.044  28.173  1.00  0.00    -0.237 OA
ATOM     94  O   UNL A   1      43.979  39.677  30.460  1.00  0.00    -0.237 OA
ATOM     95  O   UNL A   1      45.913  38.388  29.608  1.00  0.00    -0.744 OA
ENDBRANCH  89  92
ENDBRANCH  62  85
ENDBRANCH  36  37
ENDBRANCH  28  31
ENDBRANCH  26  27
ENDBRANCH   1  26
TORSDOF 16
ENDMDL
MODEL 2
REMARK VINA RESULT:     -12.7      4.262     10.029
REMARK SMILES Cc1ccccc1NC(=O)NC[C@@H]1CC[C@@H](C(=O)NCCCNC(=O)c2ccc(-c3c4nc(c(-c5cccc(S(=O)(=O)[O-])c5F)c5ccc([nH]5)c(-c5cccc(S(=O)(=O)[O-])c5F)c5nc(c(-c6cccc(S(=O)(=O)[O-])c6F)c6ccc3[nH]6)C=C5)C=C4)cc2)O1
REMARK SMILES IDX 21 1 20 2 19 3 17 4 18 5 16 7 13 8 14 9 89 10 15 11 12 12
REMARK SMILES IDX 11 13 8 14 9 15 10 17 7 19 1 20 2 21 3 22 4 23 6 24 5 25
REMARK SMILES IDX 22 26 23 27 24 28 25 30 26 31 27 32 88 33 28 34 87 35 29 36
REMARK SMILES IDX 30 37 31 38 81 39 32 40 86 41 80 42 82 43 33 44 85 45 79 46
REMARK SMILES IDX 78 47 34 49 66 50 46 51 65 52 47 53 50 54 64 55 83 56 48 57
REMARK SMILES IDX 49 58 63 60 84 61 51 62 35 63 36 64 44 65 37 66 39 67 45 68
REMARK SMILES IDX 38 69 40 70 41 71 42 72 43 73 67 74 68 75 76 76 69 77 71 78
REMARK SMILES IDX 77 79 70 80 72 81 73 82 74 83 75 84 52 85 53 86 61 87 54 88
REMARK SMILES IDX 56 89 62 90 55 91 57 92 58 93 59 94 60 95
REMARK H PARENT 19 6 8 16 11 18 23 29 82 48 50 59
REMARK Flexibility Score: inf
ROOT
ATOM      1  C   UNL A   1      33.066  30.363  26.103  1.00  0.00     0.042 C 
ENDROOT
BRANCH   1   2
ATOM      2  C   UNL A   1      31.578  30.169  25.799  1.00  0.00     0.117 C 
BRANCH   2   3
ATOM      3  N   UNL A   1      31.315  29.853  24.401  1.00  0.00    -0.354 N 
ATOM      4  C   UNL A   1      31.301  28.648  23.740  1.00  0.00     0.249 C 
ATOM      5  O   UNL A   1      30.967  28.648  22.553  1.00  0.00    -0.272 OA
ATOM      6  H   UNL A   1      31.112  30.633  23.835  1.00  0.00     0.163 HD
BRANCH   4   7
ATOM      7  C   UNL A   1      31.645  27.330  24.483  1.00  0.00     0.207 C 
ATOM      8  C   UNL A   1      31.608  25.150  23.600  1.00  0.00     0.138 C 
ATOM      9  C   UNL A   1      32.928  25.356  24.310  1.00  0.00     0.037 C 
ATOM     10  O   UNL A   1      30.782  26.201  24.155  1.00  0.00    -0.363 OA
ATOM     11  C   UNL A   1      33.052  26.842  24.198  1.00  0.00     0.045 C 
BRANCH   8  12
ATOM     12  C   UNL A   1      31.029  23.734  23.792  1.00  0.00     0.149 C 
BRANCH  12  13
ATOM     13  N   UNL A   1      30.419  23.575  25.112  1.00  0.00    -0.335 N 
ATOM     14  N   UNL A   1      31.838  22.389  26.663  1.00  0.00    -0.308 N 
ATOM     15  C   UNL A   1      30.768  23.119  26.316  1.00  0.00     0.319 C 
ATOM     16  H   UNL A   1      31.962  22.407  27.639  1.00  0.00     0.171 HD
ATOM     17  O   UNL A   1      30.032  23.461  27.254  1.00  0.00    -0.249 OA
ATOM     18  H   UNL A   1      29.488  23.896  25.113  1.00  0.00     0.165 HD
BRANCH  14  19
ATOM     19  C   UNL A   1      32.837  21.604  26.061  1.00  0.00     0.045 A 
ATOM     20  C   UNL A   1      34.721  23.147  26.925  1.00  0.00     0.046 C 
ATOM     21  C   UNL A   1      34.191  22.010  26.092  1.00  0.00    -0.027 A 
ATOM     22  C   UNL A   1      35.163  21.251  25.400  1.00  0.00     0.005 A 
ATOM     23  C   UNL A   1      34.820  20.096  24.711  1.00  0.00     0.000 A 
ATOM     24  C   UNL A   1      32.558  20.374  25.487  1.00  0.00     0.026 A 
ATOM     25  C   UNL A   1      33.516  19.639  24.781  1.00  0.00     0.002 A 
ENDBRANCH  14  19
ENDBRANCH  12  13
ENDBRANCH   8  12
ENDBRANCH   4   7
ENDBRANCH   2   3
ENDBRANCH   1   2
BRANCH   1  26
ATOM     26  C   UNL A   1      33.433  30.199  27.570  1.00  0.00     0.118 C 
BRANCH  26  27
ATOM     27  N   UNL A   1      34.119  31.363  28.123  1.00  0.00    -0.352 N 
ATOM     28  C   UNL A   1      35.355  31.416  28.761  1.00  0.00     0.251 C 
ATOM     29  H   UNL A   1      33.648  32.222  28.033  1.00  0.00     0.163 HD
ATOM     30  O   UNL A   1      35.758  32.452  29.244  1.00  0.00    -0.269 OA
BRANCH  28  31
ATOM     31  C   UNL A   1      36.190  30.191  28.720  1.00  0.00     0.039 A 
ATOM     32  C   UNL A   1      36.575  29.643  29.946  1.00  0.00     0.014 A 
ATOM     33  C   UNL A   1      36.843  29.847  27.539  1.00  0.00     0.014 A 
ATOM     34  C   UNL A   1      37.791  28.974  30.035  1.00  0.00     0.010 A 
ATOM     35  C   UNL A   1      38.085  29.256  27.638  1.00  0.00     0.010 A 
ATOM     36  C   UNL A   1      38.589  28.901  28.897  1.00  0.00    -0.014 A 
BRANCH  36  37
ATOM     37  C   UNL A   1      39.995  28.535  28.911  1.00  0.00     0.031 A 
ATOM     38  C   UNL A   1      40.387  27.123  28.773  1.00  0.00     0.074 A 
ATOM     39  C   UNL A   1      40.932  29.511  28.889  1.00  0.00     0.049 A 
ATOM     40  N   UNL A   1      41.590  26.694  28.939  1.00  0.00    -0.248 NA
ATOM     41  C   UNL A   1      39.421  26.065  28.500  1.00  0.00     0.031 C 
ATOM     42  C   UNL A   1      42.329  29.385  28.491  1.00  0.00     0.029 A 
ATOM     43  N   UNL A   1      40.856  30.783  29.468  1.00  0.00    -0.354 N 
ATOM     44  C   UNL A   1      41.618  25.393  28.499  1.00  0.00     0.074 A 
ATOM     45  C   UNL A   1      40.234  25.011  28.388  1.00  0.00     0.031 C 
ATOM     46  C   UNL A   1      43.034  30.364  29.075  1.00  0.00     0.029 A 
ATOM     47  C   UNL A   1      42.139  31.042  29.994  1.00  0.00     0.049 A 
ATOM     48  H   UNL A   1      40.070  31.374  29.501  1.00  0.00     0.167 HD
ATOM     49  C   UNL A   1      42.818  24.860  28.138  1.00  0.00     0.034 A 
ATOM     50  C   UNL A   1      42.378  31.252  31.322  1.00  0.00     0.034 A 
ATOM     51  C   UNL A   1      43.930  25.675  28.658  1.00  0.00     0.049 A 
ATOM     52  C   UNL A   1      43.326  30.231  31.942  1.00  0.00     0.074 A 
ATOM     53  C   UNL A   1      44.834  26.575  28.120  1.00  0.00     0.029 A 
ATOM     54  N   UNL A   1      44.052  25.794  30.033  1.00  0.00    -0.354 N 
ATOM     55  N   UNL A   1      43.951  29.295  31.281  1.00  0.00    -0.248 NA
ATOM     56  C   UNL A   1      43.554  30.132  33.386  1.00  0.00     0.031 C 
ATOM     57  C   UNL A   1      45.423  27.304  29.202  1.00  0.00     0.029 A 
ATOM     58  C   UNL A   1      44.904  26.822  30.392  1.00  0.00     0.049 A 
ATOM     59  H   UNL A   1      43.587  25.213  30.678  1.00  0.00     0.167 HD
ATOM     60  C   UNL A   1      44.481  28.393  32.169  1.00  0.00     0.074 A 
ATOM     61  C   UNL A   1      44.252  28.987  33.475  1.00  0.00     0.031 C 
ATOM     62  C   UNL A   1      45.003  27.183  31.801  1.00  0.00     0.034 A 
BRANCH  49  63
ATOM     63  C   UNL A   1      43.019  23.692  27.184  1.00  0.00     0.023 A 
ATOM     64  C   UNL A   1      43.822  23.928  26.045  1.00  0.00     0.012 A 
ATOM     65  C   UNL A   1      42.394  22.420  27.240  1.00  0.00     0.148 A 
ATOM     66  C   UNL A   1      43.975  22.985  25.021  1.00  0.00     0.002 A 
ATOM     67  C   UNL A   1      42.580  21.461  26.241  1.00  0.00     0.091 A 
ATOM     68  F   UNL A   1      41.542  22.128  28.220  1.00  0.00    -0.205 F 
ATOM     69  C   UNL A   1      43.359  21.745  25.120  1.00  0.00     0.022 A 
BRANCH  67  70
ATOM     70  S   UNL A   1      41.815  19.827  26.316  1.00  0.00     0.127 S 
ATOM     71  O   UNL A   1      42.433  19.151  25.175  1.00  0.00    -0.237 OA
ATOM     72  O   UNL A   1      42.253  19.337  27.623  1.00  0.00    -0.237 OA
ATOM     73  O   UNL A   1      40.377  20.036  26.200  1.00  0.00    -0.744 OA
ENDBRANCH  67  70
ENDBRANCH  49  63
BRANCH  50  74
ATOM     74  C   UNL A   1      41.232  31.900  32.026  1.00  0.00     0.023 A 
ATOM     75  C   UNL A   1      40.906  33.221  31.635  1.00  0.00     0.012 A 
ATOM     76  C   UNL A   1      40.281  31.147  32.732  1.00  0.00     0.148 A 
ATOM     77  C   UNL A   1      39.618  33.726  31.820  1.00  0.00     0.002 A 
ATOM     78  C   UNL A   1      39.002  31.661  32.924  1.00  0.00     0.091 A 
ATOM     79  F   UNL A   1      40.603  29.910  33.130  1.00  0.00    -0.205 F 
ATOM     80  C   UNL A   1      38.657  32.931  32.435  1.00  0.00     0.022 A 
BRANCH  78  81
ATOM     81  S   UNL A   1      37.704  30.674  33.680  1.00  0.00     0.127 S 
ATOM     82  O   UNL A   1      37.845  31.039  35.085  1.00  0.00    -0.237 OA
ATOM     83  O   UNL A   1      36.502  31.189  33.025  1.00  0.00    -0.237 OA
ATOM     84  O   UNL A   1      38.032  29.301  33.328  1.00  0.00    -0.744 OA
ENDBRANCH  78  81
ENDBRANCH  50  74
BRANCH  62  85
ATOM     85  C   UNL A   1      45.656  26.245  32.793  1.00  0.00     0.023 A 
ATOM     86  C   UNL A   1      47.054  26.054  32.763  1.00  0.00     0.012 A 
ATOM     87  C   UNL A   1      44.908  25.414  33.659  1.00  0.00     0.148 A 
ATOM     88  C   UNL A   1      47.683  25.108  33.578  1.00  0.00     0.002 A 
ATOM     89  C   UNL A   1      45.527  24.403  34.390  1.00  0.00     0.091 A 
ATOM     90  F   UNL A   1      43.598  25.635  33.823  1.00  0.00    -0.205 F 
ATOM     91  C   UNL A   1      46.918  24.265  34.372  1.00  0.00     0.022 A 
BRANCH  89  92
ATOM     92  S   UNL A   1      44.583  23.141  35.258  1.00  0.00     0.127 S 
ATOM     93  O   UNL A   1      43.861  23.936  36.255  1.00  0.00    -0.237 OA
ATOM     94  O   UNL A   1      43.748  22.600  34.190  1.00  0.00    -0.237 OA
ATOM     95  O   UNL A   1      45.571  22.232  35.824  1.00  0.00    -0.744 OA
ENDBRANCH  89  92
ENDBRANCH  62  85
ENDBRANCH  36  37
ENDBRANCH  28  31
ENDBRANCH  26  27
ENDBRANCH   1  26
TORSDOF 16
ENDMDL
MODEL 3
REMARK VINA RESULT:     -12.0      4.168     10.251
REMARK SMILES Cc1ccccc1NC(=O)NC[C@@H]1CC[C@@H](C(=O)NCCCNC(=O)c2ccc(-c3c4nc(c(-c5cccc(S(=O)(=O)[O-])c5F)c5ccc([nH]5)c(-c5cccc(S(=O)(=O)[O-])c5F)c5nc(c(-c6cccc(S(=O)(=O)[O-])c6F)c6ccc3[nH]6)C=C5)C=C4)cc2)O1
REMARK SMILES IDX 21 1 20 2 19 3 17 4 18 5 16 7 13 8 14 9 89 10 15 11 12 12
REMARK SMILES IDX 11 13 8 14 9 15 10 17 7 19 1 20 2 21 3 22 4 23 6 24 5 25
REMARK SMILES IDX 22 26 23 27 24 28 25 30 26 31 27 32 88 33 28 34 87 35 29 36
REMARK SMILES IDX 30 37 31 38 81 39 32 40 86 41 80 42 82 43 33 44 85 45 79 46
REMARK SMILES IDX 78 47 34 49 66 50 46 51 65 52 47 53 50 54 64 55 83 56 48 57
REMARK SMILES IDX 49 58 63 60 84 61 51 62 35 63 36 64 44 65 37 66 39 67 45 68
REMARK SMILES IDX 38 69 40 70 41 71 42 72 43 73 67 74 68 75 76 76 69 77 71 78
REMARK SMILES IDX 77 79 70 80 72 81 73 82 74 83 75 84 52 85 53 86 61 87 54 88
REMARK SMILES IDX 56 89 62 90 55 91 57 92 58 93 59 94 60 95
REMARK H PARENT 19 6 8 16 11 18 23 29 82 48 50 59
REMARK Flexibility Score: inf
ROOT
ATOM      1  C   UNL A   1      32.511  30.759  26.211  1.00  0.00     0.042 C 
ENDROOT
BRANCH   1   2
ATOM      2  C   UNL A   1      31.696  29.563  25.716  1.00  0.00     0.117 C 
BRANCH   2   3
ATOM      3  N   UNL A   1      31.228  29.714  24.344  1.00  0.00    -0.354 N 
ATOM      4  C   UNL A   1      31.298  28.858  23.272  1.00  0.00     0.249 C 
ATOM      5  O   UNL A   1      30.747  29.203  22.224  1.00  0.00    -0.272 OA
ATOM      6  H   UNL A   1      30.787  30.574  24.154  1.00  0.00     0.163 HD
BRANCH   4   7
ATOM      7  C   UNL A   1      32.003  27.482  23.399  1.00  0.00     0.207 C 
ATOM      8  C   UNL A   1      31.080  25.365  22.947  1.00  0.00     0.138 C 
ATOM      9  C   UNL A   1      32.412  25.467  22.238  1.00  0.00     0.037 C 
ATOM     10  O   UNL A   1      31.169  26.416  23.940  1.00  0.00    -0.363 OA
ATOM     11  C   UNL A   1      32.502  26.950  22.069  1.00  0.00     0.045 C 
BRANCH   8  12
ATOM     12  C   UNL A   1      30.812  23.967  23.540  1.00  0.00     0.149 C 
BRANCH  12  13
ATOM     13  N   UNL A   1      31.316  22.905  22.669  1.00  0.00    -0.335 N 
ATOM     14  N   UNL A   1      32.795  21.380  23.813  1.00  0.00    -0.308 N 
ATOM     15  C   UNL A   1      32.042  21.793  22.783  1.00  0.00     0.319 C 
ATOM     16  H   UNL A   1      33.014  20.425  23.715  1.00  0.00     0.171 HD
ATOM     17  O   UNL A   1      31.972  21.005  21.827  1.00  0.00    -0.249 OA
ATOM     18  H   UNL A   1      31.040  23.053  21.736  1.00  0.00     0.165 HD
BRANCH  14  19
ATOM     19  C   UNL A   1      33.367  21.890  24.992  1.00  0.00     0.045 A 
ATOM     20  C   UNL A   1      35.193  23.164  23.681  1.00  0.00     0.046 C 
ATOM     21  C   UNL A   1      34.559  22.648  24.946  1.00  0.00    -0.027 A 
ATOM     22  C   UNL A   1      35.164  23.072  26.152  1.00  0.00     0.005 A 
ATOM     23  C   UNL A   1      34.595  22.781  27.385  1.00  0.00     0.000 A 
ATOM     24  C   UNL A   1      32.756  21.745  26.227  1.00  0.00     0.026 A 
ATOM     25  C   UNL A   1      33.370  22.141  27.420  1.00  0.00     0.002 A 
ENDBRANCH  14  19
ENDBRANCH  12  13
ENDBRANCH   8  12
ENDBRANCH   4   7
ENDBRANCH   2   3
ENDBRANCH   1   2
BRANCH   1  26
ATOM     26  C   UNL A   1      33.405  30.460  27.405  1.00  0.00     0.118 C 
BRANCH  26  27
ATOM     27  N   UNL A   1      34.198  31.609  27.830  1.00  0.00    -0.352 N 
ATOM     28  C   UNL A   1      35.471  31.621  28.392  1.00  0.00     0.251 C 
ATOM     29  H   UNL A   1      33.779  32.491  27.702  1.00  0.00     0.163 HD
ATOM     30  O   UNL A   1      35.968  32.659  28.774  1.00  0.00    -0.269 OA
BRANCH  28  31
ATOM     31  C   UNL A   1      36.220  30.342  28.398  1.00  0.00     0.039 A 
ATOM     32  C   UNL A   1      36.338  29.679  29.622  1.00  0.00     0.014 A 
ATOM     33  C   UNL A   1      37.056  30.034  27.328  1.00  0.00     0.014 A 
ATOM     34  C   UNL A   1      37.472  28.913  29.869  1.00  0.00     0.010 A 
ATOM     35  C   UNL A   1      38.219  29.343  27.595  1.00  0.00     0.010 A 
ATOM     36  C   UNL A   1      38.459  28.861  28.890  1.00  0.00    -0.014 A 
BRANCH  36  37
ATOM     37  C   UNL A   1      39.813  28.387  29.123  1.00  0.00     0.031 A 
ATOM     38  C   UNL A   1      40.157  26.984  28.844  1.00  0.00     0.074 A 
ATOM     39  C   UNL A   1      40.779  29.279  29.442  1.00  0.00     0.049 A 
ATOM     40  N   UNL A   1      41.278  26.442  29.175  1.00  0.00    -0.248 NA
ATOM     41  C   UNL A   1      39.220  26.056  28.221  1.00  0.00     0.031 C 
ATOM     42  C   UNL A   1      42.221  29.102  29.312  1.00  0.00     0.029 A 
ATOM     43  N   UNL A   1      40.646  30.456  30.188  1.00  0.00    -0.354 N 
ATOM     44  C   UNL A   1      41.335  25.220  28.548  1.00  0.00     0.074 A 
ATOM     45  C   UNL A   1      39.987  24.968  28.107  1.00  0.00     0.031 C 
ATOM     46  C   UNL A   1      42.836  29.928  30.171  1.00  0.00     0.029 A 
ATOM     47  C   UNL A   1      41.803  30.534  30.991  1.00  0.00     0.049 A 
ATOM     48  H   UNL A   1      39.899  31.096  30.158  1.00  0.00     0.167 HD
ATOM     49  C   UNL A   1      42.557  24.652  28.352  1.00  0.00     0.034 A 
ATOM     50  C   UNL A   1      41.771  30.529  32.357  1.00  0.00     0.034 A 
ATOM     51  C   UNL A   1      43.574  25.293  29.204  1.00  0.00     0.049 A 
ATOM     52  C   UNL A   1      42.520  29.358  32.982  1.00  0.00     0.074 A 
ATOM     53  C   UNL A   1      44.612  26.187  29.004  1.00  0.00     0.029 A 
ATOM     54  N   UNL A   1      43.414  25.201  30.577  1.00  0.00    -0.354 N 
ATOM     55  N   UNL A   1      43.223  28.481  32.318  1.00  0.00    -0.248 NA
ATOM     56  C   UNL A   1      42.439  29.032  34.408  1.00  0.00     0.031 C 
ATOM     57  C   UNL A   1      44.998  26.703  30.283  1.00  0.00     0.029 A 
ATOM     58  C   UNL A   1      44.221  26.096  31.255  1.00  0.00     0.049 A 
ATOM     59  H   UNL A   1      42.799  24.571  31.017  1.00  0.00     0.167 HD
ATOM     60  C   UNL A   1      43.514  27.421  33.139  1.00  0.00     0.074 A 
ATOM     61  C   UNL A   1      43.048  27.836  34.451  1.00  0.00     0.031 C 
ATOM     62  C   UNL A   1      44.042  26.240  32.695  1.00  0.00     0.034 A 
BRANCH  49  63
ATOM     63  C   UNL A   1      42.896  23.623  27.285  1.00  0.00     0.023 A 
ATOM     64  C   UNL A   1      43.612  24.084  26.156  1.00  0.00     0.012 A 
ATOM     65  C   UNL A   1      42.471  22.270  27.230  1.00  0.00     0.148 A 
ATOM     66  C   UNL A   1      43.866  23.275  25.041  1.00  0.00     0.002 A 
ATOM     67  C   UNL A   1      42.762  21.448  26.138  1.00  0.00     0.091 A 
ATOM     68  F   UNL A   1      41.710  21.761  28.195  1.00  0.00    -0.205 F 
ATOM     69  C   UNL A   1      43.447  21.952  25.033  1.00  0.00     0.022 A 
BRANCH  67  70
ATOM     70  S   UNL A   1      42.255  19.717  26.070  1.00  0.00     0.127 S 
ATOM     71  O   UNL A   1      40.808  19.832  25.893  1.00  0.00    -0.237 OA
ATOM     72  O   UNL A   1      42.975  19.227  24.894  1.00  0.00    -0.237 OA
ATOM     73  O   UNL A   1      42.674  19.112  27.328  1.00  0.00    -0.744 OA
ENDBRANCH  67  70
ENDBRANCH  49  63
BRANCH  50  74
ATOM     74  C   UNL A   1      40.536  31.156  32.913  1.00  0.00     0.023 A 
ATOM     75  C   UNL A   1      39.452  30.291  33.200  1.00  0.00     0.012 A 
ATOM     76  C   UNL A   1      40.558  32.433  33.496  1.00  0.00     0.148 A 
ATOM     77  C   UNL A   1      38.492  30.637  34.151  1.00  0.00     0.002 A 
ATOM     78  C   UNL A   1      39.589  32.776  34.435  1.00  0.00     0.091 A 
ATOM     79  F   UNL A   1      41.566  33.261  33.197  1.00  0.00    -0.205 F 
ATOM     80  C   UNL A   1      38.581  31.867  34.793  1.00  0.00     0.022 A 
BRANCH  78  81
ATOM     81  S   UNL A   1      39.665  34.335  35.325  1.00  0.00     0.127 S 
ATOM     82  O   UNL A   1      41.092  34.435  35.612  1.00  0.00    -0.237 OA
ATOM     83  O   UNL A   1      39.166  35.285  34.331  1.00  0.00    -0.237 OA
ATOM     84  O   UNL A   1      38.783  34.152  36.468  1.00  0.00    -0.744 OA
ENDBRANCH  78  81
ENDBRANCH  50  74
BRANCH  62  85
ATOM     85  C   UNL A   1      44.430  25.119  33.635  1.00  0.00     0.023 A 
ATOM     86  C   UNL A   1      43.427  24.365  34.281  1.00  0.00     0.012 A 
ATOM     87  C   UNL A   1      45.769  24.885  34.028  1.00  0.00     0.148 A 
ATOM     88  C   UNL A   1      43.739  23.403  35.246  1.00  0.00     0.002 A 
ATOM     89  C   UNL A   1      46.065  24.002  35.063  1.00  0.00     0.091 A 
ATOM     90  F   UNL A   1      46.768  25.478  33.363  1.00  0.00    -0.205 F 
ATOM     91  C   UNL A   1      45.055  23.240  35.656  1.00  0.00     0.022 A 
BRANCH  89  92
ATOM     92  S   UNL A   1      47.707  23.908  35.793  1.00  0.00     0.127 S 
ATOM     93  O   UNL A   1      48.499  23.364  34.686  1.00  0.00    -0.237 OA
ATOM     94  O   UNL A   1      47.980  25.307  36.106  1.00  0.00    -0.237 OA
ATOM     95  O   UNL A   1      47.580  23.008  36.931  1.00  0.00    -0.744 OA
ENDBRANCH  89  92
ENDBRANCH  62  85
ENDBRANCH  36  37
ENDBRANCH  28  31
ENDBRANCH  26  27
ENDBRANCH   1  26
TORSDOF 16
ENDMDL
