MODEL 1
REMARK VINA RESULT:     -11.1      0.000      0.000
REMARK SMILES CCOC(=O)c1cccc(NC(=O)CCC(=O)NCCCNC(=O)c2ccc(-c3c4nc(c(-c5cccc(S(=O)(=O)[O-])c5F)c5ccc([nH]5)c(-c5cccc(S(=O)(=O)[O-])c5F)c5nc(c(-c6cccc(S(=O)(=O)[O-])c6F)c6ccc3[nH]6)C=C5)C=C4)cc2)c1
REMARK SMILES IDX 16 1 17 2 18 3 15 5 14 6 12 7 11 8 13 10 10 11 6 12 7 13
REMARK SMILES IDX 88 14 8 15 9 16 4 17 5 18 3 19 2 20 1 21 19 22 20 23 21 24
REMARK SMILES IDX 22 25 23 26 24 28 25 29 26 30 87 31 27 32 86 33 28 34 29 35
REMARK SMILES IDX 30 36 80 37 31 38 85 39 79 40 81 41 32 42 84 43 78 44 77 45
REMARK SMILES IDX 33 47 65 48 45 49 64 50 46 51 49 52 63 53 82 54 47 55 48 56
REMARK SMILES IDX 62 58 83 59 50 60 34 61 35 62 43 63 36 64 38 65 44 66 37 67
REMARK SMILES IDX 39 68 40 69 41 70 42 71 66 72 67 73 75 74 68 75 70 76 76 77
REMARK SMILES IDX 69 78 71 79 72 80 73 81 74 82 51 83 52 84 60 85 53 86 55 87
REMARK SMILES IDX 61 88 54 89 56 90 57 91 58 92 59 93
REMARK H PARENT 18 4 11 9 22 27 81 46 49 57
REMARK Flexibility Score: inf
ROOT
ATOM      1  C   UNL A   1      32.379  26.627  22.257  1.00  0.00     0.220 C 
ATOM      2  O   UNL A   1      31.741  26.086  21.351  1.00  0.00    -0.275 OA
ATOM      3  N   UNL A   1      32.515  27.982  22.235  1.00  0.00    -0.356 N 
ATOM      4  H   UNL A   1      32.228  28.409  21.396  1.00  0.00     0.163 HD
ENDROOT
BRANCH   1   5
ATOM      5  C   UNL A   1      32.997  25.801  23.359  1.00  0.00     0.110 C 
BRANCH   5   6
ATOM      6  C   UNL A   1      31.979  25.233  24.338  1.00  0.00     0.110 C 
BRANCH   6   7
ATOM      7  C   UNL A   1      32.436  25.268  25.780  1.00  0.00     0.224 C 
ATOM      8  N   UNL A   1      33.322  24.377  26.318  1.00  0.00    -0.326 N 
ATOM      9  H   UNL A   1      33.496  24.515  27.276  1.00  0.00     0.169 HD
ATOM     10  O   UNL A   1      32.079  26.214  26.491  1.00  0.00    -0.275 OA
BRANCH   8  11
ATOM     11  C   UNL A   1      34.030  23.303  25.757  1.00  0.00     0.042 A 
ATOM     12  C   UNL A   1      33.918  20.993  25.035  1.00  0.00     0.062 A 
ATOM     13  C   UNL A   1      35.312  20.920  25.025  1.00  0.00     0.016 A 
ATOM     14  C   UNL A   1      33.276  22.199  25.341  1.00  0.00     0.041 A 
ATOM     15  C   UNL A   1      36.060  22.063  25.287  1.00  0.00     0.003 A 
ATOM     16  C   UNL A   1      35.418  23.250  25.649  1.00  0.00     0.026 A 
BRANCH  12  17
ATOM     17  C   UNL A   1      33.158  19.736  24.863  1.00  0.00     0.338 C 
ATOM     18  O   UNL A   1      31.986  19.625  25.180  1.00  0.00    -0.246 OA
BRANCH  17  19
ATOM     19  O   UNL A   1      33.956  18.772  24.346  1.00  0.00    -0.462 OA
BRANCH  19  20
ATOM     20  C   UNL A   1      33.275  17.776  23.564  1.00  0.00     0.230 C 
ATOM     21  C   UNL A   1      34.131  16.533  23.383  1.00  0.00     0.049 C 
ENDBRANCH  19  20
ENDBRANCH  17  19
ENDBRANCH  12  17
ENDBRANCH   8  11
ENDBRANCH   6   7
ENDBRANCH   5   6
ENDBRANCH   1   5
BRANCH   3  22
ATOM     22  C   UNL A   1      33.014  28.904  23.246  1.00  0.00     0.117 C 
BRANCH  22  23
ATOM     23  C   UNL A   1      32.031  29.184  24.378  1.00  0.00     0.042 C 
BRANCH  23  24
ATOM     24  C   UNL A   1      32.668  29.610  25.697  1.00  0.00     0.118 C 
BRANCH  24  25
ATOM     25  N   UNL A   1      32.354  30.975  26.073  1.00  0.00    -0.352 N 
ATOM     26  C   UNL A   1      32.953  31.807  26.988  1.00  0.00     0.251 C 
ATOM     27  H   UNL A   1      31.588  31.369  25.597  1.00  0.00     0.163 HD
ATOM     28  O   UNL A   1      32.416  32.882  27.250  1.00  0.00    -0.269 OA
BRANCH  26  29
ATOM     29  C   UNL A   1      34.212  31.434  27.684  1.00  0.00     0.039 A 
ATOM     30  C   UNL A   1      34.401  30.093  28.033  1.00  0.00     0.014 A 
ATOM     31  C   UNL A   1      35.169  32.381  28.065  1.00  0.00     0.014 A 
ATOM     32  C   UNL A   1      35.554  29.697  28.718  1.00  0.00     0.010 A 
ATOM     33  C   UNL A   1      36.353  31.975  28.689  1.00  0.00     0.010 A 
ATOM     34  C   UNL A   1      36.554  30.629  29.038  1.00  0.00    -0.014 A 
BRANCH  34  35
ATOM     35  C   UNL A   1      37.795  30.202  29.744  1.00  0.00     0.031 A 
ATOM     36  C   UNL A   1      38.084  30.668  31.148  1.00  0.00     0.074 A 
ATOM     37  C   UNL A   1      38.693  29.421  29.109  1.00  0.00     0.049 A 
ATOM     38  N   UNL A   1      39.101  30.377  31.920  1.00  0.00    -0.248 NA
ATOM     39  C   UNL A   1      37.118  31.593  31.760  1.00  0.00     0.031 C 
ATOM     40  C   UNL A   1      38.576  28.951  27.728  1.00  0.00     0.029 A 
ATOM     41  N   UNL A   1      39.887  28.895  29.538  1.00  0.00    -0.354 N 
ATOM     42  C   UNL A   1      38.918  31.108  33.089  1.00  0.00     0.074 A 
ATOM     43  C   UNL A   1      37.704  31.877  32.915  1.00  0.00     0.031 C 
ATOM     44  C   UNL A   1      39.646  28.195  27.429  1.00  0.00     0.029 A 
ATOM     45  C   UNL A   1      40.536  28.143  28.585  1.00  0.00     0.049 A 
ATOM     46  H   UNL A   1      40.247  29.042  30.444  1.00  0.00     0.167 HD
ATOM     47  C   UNL A   1      39.670  31.118  34.216  1.00  0.00     0.034 A 
ATOM     48  C   UNL A   1      41.709  27.481  28.635  1.00  0.00     0.034 A 
ATOM     49  C   UNL A   1      40.844  30.311  34.417  1.00  0.00     0.049 A 
ATOM     50  C   UNL A   1      42.504  27.477  29.914  1.00  0.00     0.074 A 
ATOM     51  C   UNL A   1      41.606  30.175  35.564  1.00  0.00     0.029 A 
ATOM     52  N   UNL A   1      41.432  29.511  33.450  1.00  0.00    -0.354 N 
ATOM     53  N   UNL A   1      42.217  28.032  31.065  1.00  0.00    -0.248 NA
ATOM     54  C   UNL A   1      43.767  26.723  29.910  1.00  0.00     0.031 C 
ATOM     55  C   UNL A   1      42.668  29.308  35.285  1.00  0.00     0.029 A 
ATOM     56  C   UNL A   1      42.556  28.890  33.969  1.00  0.00     0.049 A 
ATOM     57  H   UNL A   1      41.099  29.400  32.530  1.00  0.00     0.167 HD
ATOM     58  C   UNL A   1      43.242  27.665  31.932  1.00  0.00     0.074 A 
ATOM     59  C   UNL A   1      44.147  26.824  31.177  1.00  0.00     0.031 C 
ATOM     60  C   UNL A   1      43.422  28.007  33.231  1.00  0.00     0.034 A 
BRANCH  47  61
ATOM     61  C   UNL A   1      39.216  31.994  35.355  1.00  0.00     0.023 A 
ATOM     62  C   UNL A   1      38.320  31.478  36.313  1.00  0.00     0.012 A 
ATOM     63  C   UNL A   1      39.724  33.298  35.516  1.00  0.00     0.148 A 
ATOM     64  C   UNL A   1      37.913  32.255  37.396  1.00  0.00     0.002 A 
ATOM     65  C   UNL A   1      39.345  34.052  36.621  1.00  0.00     0.091 A 
ATOM     66  F   UNL A   1      40.558  33.780  34.584  1.00  0.00    -0.205 F 
ATOM     67  C   UNL A   1      38.433  33.537  37.556  1.00  0.00     0.022 A 
BRANCH  65  68
ATOM     68  S   UNL A   1      40.020  35.684  36.951  1.00  0.00     0.127 S 
ATOM     69  O   UNL A   1      39.316  36.051  38.180  1.00  0.00    -0.237 OA
ATOM     70  O   UNL A   1      41.445  35.402  37.126  1.00  0.00    -0.237 OA
ATOM     71  O   UNL A   1      39.703  36.490  35.780  1.00  0.00    -0.744 OA
ENDBRANCH  65  68
ENDBRANCH  47  61
BRANCH  48  72
ATOM     72  C   UNL A   1      42.167  26.691  27.457  1.00  0.00     0.023 A 
ATOM     73  C   UNL A   1      42.882  27.341  26.431  1.00  0.00     0.012 A 
ATOM     74  C   UNL A   1      41.926  25.308  27.357  1.00  0.00     0.148 A 
ATOM     75  C   UNL A   1      43.325  26.633  25.313  1.00  0.00     0.002 A 
ATOM     76  C   UNL A   1      42.415  24.598  26.265  1.00  0.00     0.091 A 
ATOM     77  F   UNL A   1      41.230  24.712  28.335  1.00  0.00    -0.205 F 
ATOM     78  C   UNL A   1      43.101  25.261  25.235  1.00  0.00     0.022 A 
BRANCH  76  79
ATOM     79  S   UNL A   1      42.283  22.811  26.143  1.00  0.00     0.127 S 
ATOM     80  O   UNL A   1      43.009  22.375  27.334  1.00  0.00    -0.237 OA
ATOM     81  O   UNL A   1      40.834  22.610  26.195  1.00  0.00    -0.237 OA
ATOM     82  O   UNL A   1      42.890  22.461  24.867  1.00  0.00    -0.744 OA
ENDBRANCH  76  79
ENDBRANCH  48  72
BRANCH  60  83
ATOM     83  C   UNL A   1      44.629  27.453  33.944  1.00  0.00     0.023 A 
ATOM     84  C   UNL A   1      45.846  28.162  33.911  1.00  0.00     0.012 A 
ATOM     85  C   UNL A   1      44.537  26.274  34.710  1.00  0.00     0.148 A 
ATOM     86  C   UNL A   1      46.960  27.694  34.607  1.00  0.00     0.002 A 
ATOM     87  C   UNL A   1      45.639  25.837  35.438  1.00  0.00     0.091 A 
ATOM     88  F   UNL A   1      43.378  25.601  34.713  1.00  0.00    -0.205 F 
ATOM     89  C   UNL A   1      46.852  26.539  35.380  1.00  0.00     0.022 A 
BRANCH  87  90
ATOM     90  S   UNL A   1      45.563  24.414  36.533  1.00  0.00     0.127 S 
ATOM     91  O   UNL A   1      45.522  23.307  35.580  1.00  0.00    -0.237 OA
ATOM     92  O   UNL A   1      46.815  24.528  37.282  1.00  0.00    -0.237 OA
ATOM     93  O   UNL A   1      44.362  24.594  37.338  1.00  0.00    -0.744 OA
ENDBRANCH  87  90
ENDBRANCH  60  83
ENDBRANCH  34  35
ENDBRANCH  26  29
ENDBRANCH  24  25
ENDBRANCH  23  24
ENDBRANCH  22  23
ENDBRANCH   3  22
TORSDOF 19
ENDMDL
MODEL 2
REMARK VINA RESULT:     -11.0      2.738      3.536
REMARK SMILES CCOC(=O)c1cccc(NC(=O)CCC(=O)NCCCNC(=O)c2ccc(-c3c4nc(c(-c5cccc(S(=O)(=O)[O-])c5F)c5ccc([nH]5)c(-c5cccc(S(=O)(=O)[O-])c5F)c5nc(c(-c6cccc(S(=O)(=O)[O-])c6F)c6ccc3[nH]6)C=C5)C=C4)cc2)c1
REMARK SMILES IDX 16 1 17 2 18 3 15 5 14 6 12 7 11 8 13 10 10 11 6 12 7 13
REMARK SMILES IDX 88 14 8 15 9 16 4 17 5 18 3 19 2 20 1 21 19 22 20 23 21 24
REMARK SMILES IDX 22 25 23 26 24 28 25 29 26 30 87 31 27 32 86 33 28 34 29 35
REMARK SMILES IDX 30 36 80 37 31 38 85 39 79 40 81 41 32 42 84 43 78 44 77 45
REMARK SMILES IDX 33 47 65 48 45 49 64 50 46 51 49 52 63 53 82 54 47 55 48 56
REMARK SMILES IDX 62 58 83 59 50 60 34 61 35 62 43 63 36 64 38 65 44 66 37 67
REMARK SMILES IDX 39 68 40 69 41 70 42 71 66 72 67 73 75 74 68 75 70 76 76 77
REMARK SMILES IDX 69 78 71 79 72 80 73 81 74 82 51 83 52 84 60 85 53 86 55 87
REMARK SMILES IDX 61 88 54 89 56 90 57 91 58 92 59 93
REMARK H PARENT 18 4 11 9 22 27 81 46 49 57
REMARK Flexibility Score: inf
ROOT
ATOM      1  C   UNL A   1      33.724  28.296  22.549  1.00  0.00     0.220 C 
ATOM      2  O   UNL A   1      34.432  28.414  21.547  1.00  0.00    -0.275 OA
ATOM      3  N   UNL A   1      34.085  28.962  23.681  1.00  0.00    -0.356 N 
ATOM      4  H   UNL A   1      34.986  29.359  23.654  1.00  0.00     0.163 HD
ENDROOT
BRANCH   1   5
ATOM      5  C   UNL A   1      32.490  27.427  22.519  1.00  0.00     0.110 C 
BRANCH   5   6
ATOM      6  C   UNL A   1      32.719  26.025  23.066  1.00  0.00     0.110 C 
BRANCH   6   7
ATOM      7  C   UNL A   1      32.972  24.987  21.995  1.00  0.00     0.224 C 
ATOM      8  N   UNL A   1      32.962  23.640  22.224  1.00  0.00    -0.326 N 
ATOM      9  H   UNL A   1      33.173  23.097  21.431  1.00  0.00     0.169 HD
ATOM     10  O   UNL A   1      33.089  25.363  20.823  1.00  0.00    -0.275 OA
BRANCH   8  11
ATOM     11  C   UNL A   1      32.704  22.886  23.381  1.00  0.00     0.042 A 
ATOM     12  C   UNL A   1      33.249  20.879  24.622  1.00  0.00     0.062 A 
ATOM     13  C   UNL A   1      32.093  21.029  25.388  1.00  0.00     0.016 A 
ATOM     14  C   UNL A   1      33.589  21.837  23.660  1.00  0.00     0.041 A 
ATOM     15  C   UNL A   1      31.297  22.157  25.214  1.00  0.00     0.003 A 
ATOM     16  C   UNL A   1      31.605  23.082  24.214  1.00  0.00     0.026 A 
BRANCH  12  17
ATOM     17  C   UNL A   1      34.008  19.616  24.754  1.00  0.00     0.338 C 
ATOM     18  O   UNL A   1      35.226  19.580  24.788  1.00  0.00    -0.246 OA
BRANCH  17  19
ATOM     19  O   UNL A   1      33.161  18.562  24.800  1.00  0.00    -0.462 OA
BRANCH  19  20
ATOM     20  C   UNL A   1      32.833  17.990  23.522  1.00  0.00     0.230 C 
ATOM     21  C   UNL A   1      33.907  17.020  23.058  1.00  0.00     0.049 C 
ENDBRANCH  19  20
ENDBRANCH  17  19
ENDBRANCH  12  17
ENDBRANCH   8  11
ENDBRANCH   6   7
ENDBRANCH   5   6
ENDBRANCH   1   5
BRANCH   3  22
ATOM     22  C   UNL A   1      33.361  29.186  24.925  1.00  0.00     0.117 C 
BRANCH  22  23
ATOM     23  C   UNL A   1      33.786  28.273  26.071  1.00  0.00     0.042 C 
BRANCH  23  24
ATOM     24  C   UNL A   1      33.370  28.743  27.461  1.00  0.00     0.118 C 
BRANCH  24  25
ATOM     25  N   UNL A   1      33.376  30.186  27.605  1.00  0.00    -0.352 N 
ATOM     26  C   UNL A   1      34.338  31.027  28.110  1.00  0.00     0.251 C 
ATOM     27  H   UNL A   1      32.558  30.636  27.291  1.00  0.00     0.163 HD
ATOM     28  O   UNL A   1      34.060  32.214  28.273  1.00  0.00    -0.269 OA
BRANCH  26  29
ATOM     29  C   UNL A   1      35.691  30.539  28.484  1.00  0.00     0.039 A 
ATOM     30  C   UNL A   1      35.808  29.723  29.614  1.00  0.00     0.014 A 
ATOM     31  C   UNL A   1      36.847  30.925  27.797  1.00  0.00     0.014 A 
ATOM     32  C   UNL A   1      37.063  29.265  30.028  1.00  0.00     0.010 A 
ATOM     33  C   UNL A   1      38.093  30.412  28.171  1.00  0.00     0.010 A 
ATOM     34  C   UNL A   1      38.220  29.588  29.301  1.00  0.00    -0.014 A 
BRANCH  34  35
ATOM     35  C   UNL A   1      39.554  29.078  29.726  1.00  0.00     0.031 A 
ATOM     36  C   UNL A   1      40.312  29.738  30.849  1.00  0.00     0.074 A 
ATOM     37  C   UNL A   1      40.112  28.035  29.076  1.00  0.00     0.049 A 
ATOM     38  N   UNL A   1      41.471  29.414  31.364  1.00  0.00    -0.248 NA
ATOM     39  C   UNL A   1      39.700  30.928  31.462  1.00  0.00     0.031 C 
ATOM     40  C   UNL A   1      39.523  27.342  27.929  1.00  0.00     0.029 A 
ATOM     41  N   UNL A   1      41.305  27.386  29.278  1.00  0.00    -0.354 N 
ATOM     42  C   UNL A   1      41.745  30.374  32.331  1.00  0.00     0.074 A 
ATOM     43  C   UNL A   1      40.641  31.310  32.314  1.00  0.00     0.031 C 
ATOM     44  C   UNL A   1      40.349  26.356  27.540  1.00  0.00     0.029 A 
ATOM     45  C   UNL A   1      41.534  26.359  28.392  1.00  0.00     0.049 A 
ATOM     46  H   UNL A   1      41.938  27.632  29.992  1.00  0.00     0.167 HD
ATOM     47  C   UNL A   1      42.799  30.457  33.178  1.00  0.00     0.034 A 
ATOM     48  C   UNL A   1      42.576  25.509  28.278  1.00  0.00     0.034 A 
ATOM     49  C   UNL A   1      43.869  29.497  33.240  1.00  0.00     0.049 A 
ATOM     50  C   UNL A   1      43.715  25.599  29.258  1.00  0.00     0.074 A 
ATOM     51  C   UNL A   1      44.921  29.440  34.137  1.00  0.00     0.029 A 
ATOM     52  N   UNL A   1      44.031  28.432  32.368  1.00  0.00    -0.354 N 
ATOM     53  N   UNL A   1      43.863  26.406  30.280  1.00  0.00    -0.248 NA
ATOM     54  C   UNL A   1      44.813  24.635  29.093  1.00  0.00     0.031 C 
ATOM     55  C   UNL A   1      45.731  28.352  33.795  1.00  0.00     0.029 A 
ATOM     56  C   UNL A   1      45.174  27.721  32.696  1.00  0.00     0.049 A 
ATOM     57  H   UNL A   1      43.423  28.213  31.625  1.00  0.00     0.167 HD
ATOM     58  C   UNL A   1      45.050  26.025  30.899  1.00  0.00     0.074 A 
ATOM     59  C   UNL A   1      45.570  24.901  30.149  1.00  0.00     0.031 C 
ATOM     60  C   UNL A   1      45.657  26.567  31.982  1.00  0.00     0.034 A 
BRANCH  47  61
ATOM     61  C   UNL A   1      42.825  31.602  34.157  1.00  0.00     0.023 A 
ATOM     62  C   UNL A   1      43.444  32.815  33.790  1.00  0.00     0.012 A 
ATOM     63  C   UNL A   1      42.183  31.504  35.407  1.00  0.00     0.148 A 
ATOM     64  C   UNL A   1      43.449  33.901  34.663  1.00  0.00     0.002 A 
ATOM     65  C   UNL A   1      42.158  32.606  36.255  1.00  0.00     0.091 A 
ATOM     66  F   UNL A   1      41.619  30.337  35.748  1.00  0.00    -0.205 F 
ATOM     67  C   UNL A   1      42.799  33.801  35.890  1.00  0.00     0.022 A 
BRANCH  65  68
ATOM     68  S   UNL A   1      41.280  32.596  37.823  1.00  0.00     0.127 S 
ATOM     69  O   UNL A   1      41.362  34.002  38.216  1.00  0.00    -0.237 OA
ATOM     70  O   UNL A   1      39.943  32.150  37.428  1.00  0.00    -0.237 OA
ATOM     71  O   UNL A   1      42.000  31.660  38.676  1.00  0.00    -0.744 OA
ENDBRANCH  65  68
ENDBRANCH  47  61
BRANCH  48  72
ATOM     72  C   UNL A   1      42.552  24.439  27.241  1.00  0.00     0.023 A 
ATOM     73  C   UNL A   1      43.402  24.547  26.123  1.00  0.00     0.012 A 
ATOM     74  C   UNL A   1      41.720  23.310  27.366  1.00  0.00     0.148 A 
ATOM     75  C   UNL A   1      43.405  23.564  25.133  1.00  0.00     0.002 A 
ATOM     76  C   UNL A   1      41.765  22.309  26.401  1.00  0.00     0.091 A 
ATOM     77  F   UNL A   1      40.906  23.234  28.428  1.00  0.00    -0.205 F 
ATOM     78  C   UNL A   1      42.595  22.441  25.277  1.00  0.00     0.022 A 
BRANCH  76  79
ATOM     79  S   UNL A   1      40.851  20.772  26.568  1.00  0.00     0.127 S 
ATOM     80  O   UNL A   1      39.533  21.152  26.066  1.00  0.00    -0.237 OA
ATOM     81  O   UNL A   1      41.608  19.873  25.697  1.00  0.00    -0.237 OA
ATOM     82  O   UNL A   1      40.916  20.430  27.982  1.00  0.00    -0.744 OA
ENDBRANCH  76  79
ENDBRANCH  48  72
BRANCH  60  83
ATOM     83  C   UNL A   1      46.945  25.942  32.453  1.00  0.00     0.023 A 
ATOM     84  C   UNL A   1      46.935  25.076  33.565  1.00  0.00     0.012 A 
ATOM     85  C   UNL A   1      48.148  26.147  31.749  1.00  0.00     0.148 A 
ATOM     86  C   UNL A   1      48.106  24.447  33.985  1.00  0.00     0.002 A 
ATOM     87  C   UNL A   1      49.303  25.481  32.147  1.00  0.00     0.091 A 
ATOM     88  F   UNL A   1      48.144  26.990  30.706  1.00  0.00    -0.205 F 
ATOM     89  C   UNL A   1      49.286  24.640  33.269  1.00  0.00     0.022 A 
BRANCH  87  90
ATOM     90  S   UNL A   1      50.843  25.597  31.228  1.00  0.00     0.127 S 
ATOM     91  O   UNL A   1      50.448  25.082  29.918  1.00  0.00    -0.237 OA
ATOM     92  O   UNL A   1      51.119  27.034  31.260  1.00  0.00    -0.237 OA
ATOM     93  O   UNL A   1      51.805  24.783  31.958  1.00  0.00    -0.744 OA
ENDBRANCH  87  90
ENDBRANCH  60  83
ENDBRANCH  34  35
ENDBRANCH  26  29
ENDBRANCH  24  25
ENDBRANCH  23  24
ENDBRANCH  22  23
ENDBRANCH   3  22
TORSDOF 19
ENDMDL
MODEL 3
REMARK VINA RESULT:     -10.9      2.060      4.044
REMARK SMILES CCOC(=O)c1cccc(NC(=O)CCC(=O)NCCCNC(=O)c2ccc(-c3c4nc(c(-c5cccc(S(=O)(=O)[O-])c5F)c5ccc([nH]5)c(-c5cccc(S(=O)(=O)[O-])c5F)c5nc(c(-c6cccc(S(=O)(=O)[O-])c6F)c6ccc3[nH]6)C=C5)C=C4)cc2)c1
REMARK SMILES IDX 16 1 17 2 18 3 15 5 14 6 12 7 11 8 13 10 10 11 6 12 7 13
REMARK SMILES IDX 88 14 8 15 9 16 4 17 5 18 3 19 2 20 1 21 19 22 20 23 21 24
REMARK SMILES IDX 22 25 23 26 24 28 25 29 26 30 87 31 27 32 86 33 28 34 29 35
REMARK SMILES IDX 30 36 80 37 31 38 85 39 79 40 81 41 32 42 84 43 78 44 77 45
REMARK SMILES IDX 33 47 65 48 45 49 64 50 46 51 49 52 63 53 82 54 47 55 48 56
REMARK SMILES IDX 62 58 83 59 50 60 34 61 35 62 43 63 36 64 38 65 44 66 37 67
REMARK SMILES IDX 39 68 40 69 41 70 42 71 66 72 67 73 75 74 68 75 70 76 76 77
REMARK SMILES IDX 69 78 71 79 72 80 73 81 74 82 51 83 52 84 60 85 53 86 55 87
REMARK SMILES IDX 61 88 54 89 56 90 57 91 58 92 59 93
REMARK H PARENT 18 4 11 9 22 27 81 46 49 57
REMARK Flexibility Score: inf
ROOT
ATOM      1  C   UNL A   1      33.002  26.232  21.899  1.00  0.00     0.220 C 
ATOM      2  O   UNL A   1      32.333  25.966  20.898  1.00  0.00    -0.275 OA
ATOM      3  N   UNL A   1      33.398  27.521  22.091  1.00  0.00    -0.356 N 
ATOM      4  H   UNL A   1      33.256  28.113  21.317  1.00  0.00     0.163 HD
ENDROOT
BRANCH   1   5
ATOM      5  C   UNL A   1      33.375  25.150  22.884  1.00  0.00     0.110 C 
BRANCH   5   6
ATOM      6  C   UNL A   1      32.267  24.820  23.874  1.00  0.00     0.110 C 
BRANCH   6   7
ATOM      7  C   UNL A   1      32.165  25.800  25.023  1.00  0.00     0.224 C 
ATOM      8  N   UNL A   1      31.146  26.698  25.168  1.00  0.00    -0.326 N 
ATOM      9  H   UNL A   1      31.239  27.286  25.952  1.00  0.00     0.169 HD
ATOM     10  O   UNL A   1      32.986  25.718  25.944  1.00  0.00    -0.275 OA
BRANCH   8  11
ATOM     11  C   UNL A   1      29.991  26.938  24.407  1.00  0.00     0.042 A 
ATOM     12  C   UNL A   1      28.846  28.496  22.947  1.00  0.00     0.062 A 
ATOM     13  C   UNL A   1      27.645  27.813  23.147  1.00  0.00     0.016 A 
ATOM     14  C   UNL A   1      30.030  28.026  23.526  1.00  0.00     0.041 A 
ATOM     15  C   UNL A   1      27.640  26.641  23.897  1.00  0.00     0.003 A 
ATOM     16  C   UNL A   1      28.811  26.207  24.522  1.00  0.00     0.026 A 
BRANCH  12  17
ATOM     17  C   UNL A   1      28.794  29.794  22.241  1.00  0.00     0.338 C 
ATOM     18  O   UNL A   1      28.198  29.948  21.188  1.00  0.00    -0.246 OA
BRANCH  17  19
ATOM     19  O   UNL A   1      29.507  30.726  22.915  1.00  0.00    -0.462 OA
BRANCH  19  20
ATOM     20  C   UNL A   1      28.809  31.955  23.175  1.00  0.00     0.230 C 
ATOM     21  C   UNL A   1      27.462  31.699  23.831  1.00  0.00     0.049 C 
ENDBRANCH  19  20
ENDBRANCH  17  19
ENDBRANCH  12  17
ENDBRANCH   8  11
ENDBRANCH   6   7
ENDBRANCH   5   6
ENDBRANCH   1   5
BRANCH   3  22
ATOM     22  C   UNL A   1      33.998  28.170  23.248  1.00  0.00     0.117 C 
BRANCH  22  23
ATOM     23  C   UNL A   1      33.152  29.292  23.846  1.00  0.00     0.042 C 
BRANCH  23  24
ATOM     24  C   UNL A   1      33.153  29.360  25.370  1.00  0.00     0.118 C 
BRANCH  24  25
ATOM     25  N   UNL A   1      32.753  30.653  25.888  1.00  0.00    -0.352 N 
ATOM     26  C   UNL A   1      33.248  31.382  26.942  1.00  0.00     0.251 C 
ATOM     27  H   UNL A   1      32.006  31.078  25.407  1.00  0.00     0.163 HD
ATOM     28  O   UNL A   1      32.648  32.396  27.294  1.00  0.00    -0.269 OA
BRANCH  26  29
ATOM     29  C   UNL A   1      34.470  30.968  27.680  1.00  0.00     0.039 A 
ATOM     30  C   UNL A   1      35.491  31.909  27.845  1.00  0.00     0.014 A 
ATOM     31  C   UNL A   1      34.662  29.662  28.142  1.00  0.00     0.014 A 
ATOM     32  C   UNL A   1      36.675  31.559  28.503  1.00  0.00     0.010 A 
ATOM     33  C   UNL A   1      35.817  29.331  28.860  1.00  0.00     0.010 A 
ATOM     34  C   UNL A   1      36.845  30.271  29.036  1.00  0.00    -0.014 A 
BRANCH  34  35
ATOM     35  C   UNL A   1      38.095  29.906  29.761  1.00  0.00     0.031 A 
ATOM     36  C   UNL A   1      38.355  30.414  31.156  1.00  0.00     0.074 A 
ATOM     37  C   UNL A   1      39.027  29.145  29.151  1.00  0.00     0.049 A 
ATOM     38  N   UNL A   1      39.375  30.178  31.942  1.00  0.00    -0.248 NA
ATOM     39  C   UNL A   1      37.350  31.316  31.739  1.00  0.00     0.031 C 
ATOM     40  C   UNL A   1      38.939  28.640  27.780  1.00  0.00     0.029 A 
ATOM     41  N   UNL A   1      40.236  28.673  29.600  1.00  0.00    -0.354 N 
ATOM     42  C   UNL A   1      39.156  30.928  33.092  1.00  0.00     0.074 A 
ATOM     43  C   UNL A   1      37.916  31.647  32.891  1.00  0.00     0.031 C 
ATOM     44  C   UNL A   1      40.039  27.918  27.505  1.00  0.00     0.029 A 
ATOM     45  C   UNL A   1      40.920  27.925  28.669  1.00  0.00     0.049 A 
ATOM     46  H   UNL A   1      40.582  28.854  30.505  1.00  0.00     0.167 HD
ATOM     47  C   UNL A   1      39.897  30.991  34.224  1.00  0.00     0.034 A 
ATOM     48  C   UNL A   1      42.116  27.308  28.743  1.00  0.00     0.034 A 
ATOM     49  C   UNL A   1      41.099  30.234  34.453  1.00  0.00     0.049 A 
ATOM     50  C   UNL A   1      42.901  27.362  30.028  1.00  0.00     0.074 A 
ATOM     51  C   UNL A   1      41.856  30.152  35.608  1.00  0.00     0.029 A 
ATOM     52  N   UNL A   1      41.724  29.435  33.509  1.00  0.00    -0.354 N 
ATOM     53  N   UNL A   1      42.583  27.932  31.164  1.00  0.00    -0.248 NA
ATOM     54  C   UNL A   1      44.191  26.656  30.051  1.00  0.00     0.031 C 
ATOM     55  C   UNL A   1      42.952  29.318  35.357  1.00  0.00     0.029 A 
ATOM     56  C   UNL A   1      42.866  28.867  34.050  1.00  0.00     0.049 A 
ATOM     57  H   UNL A   1      41.403  29.291  32.589  1.00  0.00     0.167 HD
ATOM     58  C   UNL A   1      43.614  27.623  32.047  1.00  0.00     0.074 A 
ATOM     59  C   UNL A   1      44.555  26.799  31.318  1.00  0.00     0.031 C 
ATOM     60  C   UNL A   1      43.771  28.001  33.339  1.00  0.00     0.034 A 
BRANCH  47  61
ATOM     61  C   UNL A   1      39.402  31.875  35.339  1.00  0.00     0.023 A 
ATOM     62  C   UNL A   1      38.530  31.344  36.311  1.00  0.00     0.012 A 
ATOM     63  C   UNL A   1      39.849  33.205  35.466  1.00  0.00     0.148 A 
ATOM     64  C   UNL A   1      38.086  32.130  37.373  1.00  0.00     0.002 A 
ATOM     65  C   UNL A   1      39.434  33.970  36.550  1.00  0.00     0.091 A 
ATOM     66  F   UNL A   1      40.660  33.701  34.521  1.00  0.00    -0.205 F 
ATOM     67  C   UNL A   1      38.545  33.438  37.498  1.00  0.00     0.022 A 
BRANCH  65  68
ATOM     68  S   UNL A   1      40.031  35.640  36.837  1.00  0.00     0.127 S 
ATOM     69  O   UNL A   1      41.478  35.433  36.875  1.00  0.00    -0.237 OA
ATOM     70  O   UNL A   1      39.547  36.352  35.653  1.00  0.00    -0.237 OA
ATOM     71  O   UNL A   1      39.424  36.071  38.089  1.00  0.00    -0.744 OA
ENDBRANCH  65  68
ENDBRANCH  47  61
BRANCH  48  72
ATOM     72  C   UNL A   1      42.614  26.510  27.587  1.00  0.00     0.023 A 
ATOM     73  C   UNL A   1      43.502  27.108  26.671  1.00  0.00     0.012 A 
ATOM     74  C   UNL A   1      42.238  25.165  27.403  1.00  0.00     0.148 A 
ATOM     75  C   UNL A   1      43.986  26.390  25.576  1.00  0.00     0.002 A 
ATOM     76  C   UNL A   1      42.764  24.440  26.339  1.00  0.00     0.091 A 
ATOM     77  F   UNL A   1      41.379  24.621  28.275  1.00  0.00    -0.205 F 
ATOM     78  C   UNL A   1      43.625  25.054  25.416  1.00  0.00     0.022 A 
BRANCH  76  79
ATOM     79  S   UNL A   1      42.455  22.684  26.127  1.00  0.00     0.127 S 
ATOM     80  O   UNL A   1      43.041  22.128  27.344  1.00  0.00    -0.237 OA
ATOM     81  O   UNL A   1      40.994  22.638  26.068  1.00  0.00    -0.237 OA
ATOM     82  O   UNL A   1      43.116  22.319  24.882  1.00  0.00    -0.744 OA
ENDBRANCH  76  79
ENDBRANCH  48  72
BRANCH  60  83
ATOM     83  C   UNL A   1      44.991  27.508  34.073  1.00  0.00     0.023 A 
ATOM     84  C   UNL A   1      46.164  28.288  34.080  1.00  0.00     0.012 A 
ATOM     85  C   UNL A   1      44.950  26.315  34.822  1.00  0.00     0.148 A 
ATOM     86  C   UNL A   1      47.287  27.876  34.796  1.00  0.00     0.002 A 
ATOM     87  C   UNL A   1      46.059  25.932  35.570  1.00  0.00     0.091 A 
ATOM     88  F   UNL A   1      43.833  25.575  34.788  1.00  0.00    -0.205 F 
ATOM     89  C   UNL A   1      47.230  26.705  35.550  1.00  0.00     0.022 A 
BRANCH  87  90
ATOM     90  S   UNL A   1      46.041  24.491  36.644  1.00  0.00     0.127 S 
ATOM     91  O   UNL A   1      44.847  24.735  37.449  1.00  0.00    -0.237 OA
ATOM     92  O   UNL A   1      45.918  23.390  35.688  1.00  0.00    -0.237 OA
ATOM     93  O   UNL A   1      47.304  24.519  37.369  1.00  0.00    -0.744 OA
ENDBRANCH  87  90
ENDBRANCH  60  83
ENDBRANCH  34  35
ENDBRANCH  26  29
ENDBRANCH  24  25
ENDBRANCH  23  24
ENDBRANCH  22  23
ENDBRANCH   3  22
TORSDOF 19
ENDMDL
