MODEL 1
REMARK VINA RESULT:     -11.5      0.000      0.000
REMARK SMILES C[C@H](CN(C)C(=O)CCc1nc2ccccc2o1)C(=O)NCCCNC(=O)c1ccc(-c2c3nc(c(-c4cccc(S(=O)(=O)[O-])c4F)c4ccc([nH]4)c(-c4cccc(S(=O)(=O)[O-])c4F)c4nc(c(-c5cccc(S(=O)(=O)[O-])c5F)c5ccc2[nH]5)C=C4)C=C3)cc1
REMARK SMILES IDX 19 1 20 2 21 3 2 5 1 6 3 7 4 8 5 9 6 10 7 11 8 12 9 13 10 14
REMARK SMILES IDX 11 15 18 16 12 17 17 18 13 19 16 20 14 21 15 22 22 23 23 24
REMARK SMILES IDX 24 25 25 26 26 27 27 29 28 30 29 31 90 32 30 33 89 34 31 35
REMARK SMILES IDX 32 36 33 37 83 38 34 39 88 40 82 41 84 42 35 43 87 44 81 45
REMARK SMILES IDX 80 46 36 48 68 49 48 50 67 51 49 52 52 53 66 54 85 55 50 56
REMARK SMILES IDX 51 57 65 59 86 60 53 61 37 62 38 63 46 64 39 65 41 66 47 67
REMARK SMILES IDX 40 68 42 69 43 70 44 71 45 72 69 73 70 74 78 75 71 76 73 77
REMARK SMILES IDX 79 78 72 79 74 80 75 81 76 82 77 83 54 84 55 85 63 86 56 87
REMARK SMILES IDX 58 88 64 89 57 90 59 91 60 92 61 93 62 94
REMARK H PARENT 21 4 25 28 84 47 52 58
REMARK Flexibility Score: inf
ROOT
ATOM      1  C   UNL A   1      30.977  26.647  25.389  1.00  0.00     0.224 C 
ATOM      2  O   UNL A   1      30.509  26.080  26.390  1.00  0.00    -0.275 OA
ATOM      3  N   UNL A   1      32.096  27.378  25.620  1.00  0.00    -0.356 N 
ATOM      4  H   UNL A   1      32.395  27.331  26.556  1.00  0.00     0.163 HD
ENDROOT
BRANCH   1   5
ATOM      5  C   UNL A   1      30.283  26.427  24.038  1.00  0.00     0.095 C 
ATOM      6  C   UNL A   1      28.931  27.081  23.802  1.00  0.00     0.020 C 
BRANCH   5   7
ATOM      7  C   UNL A   1      30.559  25.066  23.349  1.00  0.00     0.132 C 
BRANCH   7   8
ATOM      8  N   UNL A   1      31.848  24.776  22.687  1.00  0.00    -0.345 N 
ATOM      9  C   UNL A   1      32.403  25.862  21.887  1.00  0.00     0.146 C 
BRANCH   8  10
ATOM     10  C   UNL A   1      32.629  23.725  23.165  1.00  0.00     0.222 C 
ATOM     11  O   UNL A   1      33.781  23.559  22.745  1.00  0.00    -0.275 OA
BRANCH  10  12
ATOM     12  C   UNL A   1      32.103  22.765  24.242  1.00  0.00     0.110 C 
BRANCH  12  13
ATOM     13  C   UNL A   1      33.094  22.277  25.303  1.00  0.00     0.107 C 
BRANCH  13  14
ATOM     14  C   UNL A   1      33.384  20.823  25.234  1.00  0.00     0.195 A 
ATOM     15  N   UNL A   1      34.556  20.256  25.034  1.00  0.00    -0.214 NA
ATOM     16  O   UNL A   1      32.321  19.953  25.252  1.00  0.00    -0.441 OA
ATOM     17  C   UNL A   1      34.242  18.961  24.732  1.00  0.00     0.109 A 
ATOM     18  C   UNL A   1      32.879  18.762  24.871  1.00  0.00     0.154 A 
ATOM     19  C   UNL A   1      35.041  17.921  24.246  1.00  0.00     0.032 A 
ATOM     20  C   UNL A   1      32.219  17.583  24.543  1.00  0.00     0.049 A 
ATOM     21  C   UNL A   1      34.403  16.742  23.835  1.00  0.00     0.003 A 
ATOM     22  C   UNL A   1      33.018  16.582  23.974  1.00  0.00     0.004 A 
ENDBRANCH  13  14
ENDBRANCH  12  13
ENDBRANCH  10  12
ENDBRANCH   8  10
ENDBRANCH   7   8
ENDBRANCH   5   7
ENDBRANCH   1   5
BRANCH   3  23
ATOM     23  C   UNL A   1      32.951  28.213  24.797  1.00  0.00     0.117 C 
BRANCH  23  24
ATOM     24  C   UNL A   1      32.713  29.694  25.010  1.00  0.00     0.042 C 
BRANCH  24  25
ATOM     25  C   UNL A   1      31.783  30.117  26.156  1.00  0.00     0.118 C 
BRANCH  25  26
ATOM     26  N   UNL A   1      31.920  31.545  26.418  1.00  0.00    -0.352 N 
ATOM     27  C   UNL A   1      32.773  32.296  27.190  1.00  0.00     0.251 C 
ATOM     28  H   UNL A   1      31.255  32.090  25.938  1.00  0.00     0.163 HD
ATOM     29  O   UNL A   1      32.400  33.447  27.440  1.00  0.00    -0.269 OA
BRANCH  27  30
ATOM     30  C   UNL A   1      34.097  31.850  27.728  1.00  0.00     0.039 A 
ATOM     31  C   UNL A   1      34.206  30.499  28.109  1.00  0.00     0.014 A 
ATOM     32  C   UNL A   1      35.170  32.694  28.020  1.00  0.00     0.014 A 
ATOM     33  C   UNL A   1      35.342  30.012  28.777  1.00  0.00     0.010 A 
ATOM     34  C   UNL A   1      36.334  32.190  28.642  1.00  0.00     0.010 A 
ATOM     35  C   UNL A   1      36.429  30.849  29.056  1.00  0.00    -0.014 A 
BRANCH  35  36
ATOM     36  C   UNL A   1      37.629  30.333  29.797  1.00  0.00     0.031 A 
ATOM     37  C   UNL A   1      37.931  30.782  31.211  1.00  0.00     0.074 A 
ATOM     38  C   UNL A   1      38.477  29.460  29.212  1.00  0.00     0.049 A 
ATOM     39  N   UNL A   1      38.935  30.455  31.990  1.00  0.00    -0.248 NA
ATOM     40  C   UNL A   1      36.986  31.725  31.828  1.00  0.00     0.031 C 
ATOM     41  C   UNL A   1      38.347  28.940  27.850  1.00  0.00     0.029 A 
ATOM     42  N   UNL A   1      39.632  28.873  29.681  1.00  0.00    -0.354 N 
ATOM     43  C   UNL A   1      38.766  31.177  33.168  1.00  0.00     0.074 A 
ATOM     44  C   UNL A   1      37.568  31.973  32.995  1.00  0.00     0.031 C 
ATOM     45  C   UNL A   1      39.380  28.122  27.591  1.00  0.00     0.029 A 
ATOM     46  C   UNL A   1      40.270  28.082  28.750  1.00  0.00     0.049 A 
ATOM     47  H   UNL A   1      39.970  29.006  30.595  1.00  0.00     0.167 HD
ATOM     48  C   UNL A   1      39.517  31.171  34.299  1.00  0.00     0.034 A 
ATOM     49  C   UNL A   1      41.443  27.416  28.804  1.00  0.00     0.034 A 
ATOM     50  C   UNL A   1      40.692  30.362  34.505  1.00  0.00     0.049 A 
ATOM     51  C   UNL A   1      42.265  27.433  30.068  1.00  0.00     0.074 A 
ATOM     52  C   UNL A   1      41.464  30.245  35.650  1.00  0.00     0.029 A 
ATOM     53  N   UNL A   1      41.275  29.544  33.552  1.00  0.00    -0.354 N 
ATOM     54  N   UNL A   1      42.010  28.017  31.211  1.00  0.00    -0.248 NA
ATOM     55  C   UNL A   1      43.524  26.670  30.055  1.00  0.00     0.031 C 
ATOM     56  C   UNL A   1      42.536  29.389  35.376  1.00  0.00     0.029 A 
ATOM     57  C   UNL A   1      42.407  28.936  34.076  1.00  0.00     0.049 A 
ATOM     58  H   UNL A   1      40.937  29.414  32.637  1.00  0.00     0.167 HD
ATOM     59  C   UNL A   1      43.052  27.659  32.064  1.00  0.00     0.074 A 
ATOM     60  C   UNL A   1      43.931  26.793  31.311  1.00  0.00     0.031 C 
ATOM     61  C   UNL A   1      43.261  28.029  33.352  1.00  0.00     0.034 A 
BRANCH  48  62
ATOM     62  C   UNL A   1      39.077  32.055  35.442  1.00  0.00     0.023 A 
ATOM     63  C   UNL A   1      38.169  31.559  36.399  1.00  0.00     0.012 A 
ATOM     64  C   UNL A   1      39.626  33.342  35.617  1.00  0.00     0.148 A 
ATOM     65  C   UNL A   1      37.783  32.341  37.488  1.00  0.00     0.002 A 
ATOM     66  C   UNL A   1      39.274  34.098  36.729  1.00  0.00     0.091 A 
ATOM     67  F   UNL A   1      40.482  33.802  34.694  1.00  0.00    -0.205 F 
ATOM     68  C   UNL A   1      38.343  33.605  37.659  1.00  0.00     0.022 A 
BRANCH  66  69
ATOM     69  S   UNL A   1      40.002  35.701  37.088  1.00  0.00     0.127 S 
ATOM     70  O   UNL A   1      39.651  36.460  35.891  1.00  0.00    -0.237 OA
ATOM     71  O   UNL A   1      39.287  36.102  38.298  1.00  0.00    -0.237 OA
ATOM     72  O   UNL A   1      41.430  35.460  37.279  1.00  0.00    -0.744 OA
ENDBRANCH  66  69
ENDBRANCH  48  62
BRANCH  49  73
ATOM     73  C   UNL A   1      41.910  26.634  27.620  1.00  0.00     0.023 A 
ATOM     74  C   UNL A   1      42.601  27.287  26.581  1.00  0.00     0.012 A 
ATOM     75  C   UNL A   1      41.670  25.249  27.520  1.00  0.00     0.148 A 
ATOM     76  C   UNL A   1      43.014  26.584  25.449  1.00  0.00     0.002 A 
ATOM     77  C   UNL A   1      42.137  24.543  26.419  1.00  0.00     0.091 A 
ATOM     78  F   UNL A   1      40.995  24.649  28.511  1.00  0.00    -0.205 F 
ATOM     79  C   UNL A   1      42.792  25.212  25.372  1.00  0.00     0.022 A 
BRANCH  77  80
ATOM     80  S   UNL A   1      42.014  22.756  26.290  1.00  0.00     0.127 S 
ATOM     81  O   UNL A   1      42.752  22.317  27.467  1.00  0.00    -0.237 OA
ATOM     82  O   UNL A   1      40.568  22.547  26.350  1.00  0.00    -0.237 OA
ATOM     83  O   UNL A   1      42.615  22.412  25.002  1.00  0.00    -0.744 OA
ENDBRANCH  77  80
ENDBRANCH  49  73
BRANCH  61  84
ATOM     84  C   UNL A   1      44.465  27.465  34.067  1.00  0.00     0.023 A 
ATOM     85  C   UNL A   1      45.697  28.149  34.027  1.00  0.00     0.012 A 
ATOM     86  C   UNL A   1      44.358  26.289  34.838  1.00  0.00     0.148 A 
ATOM     87  C   UNL A   1      46.809  27.655  34.712  1.00  0.00     0.002 A 
ATOM     88  C   UNL A   1      45.455  25.829  35.558  1.00  0.00     0.091 A 
ATOM     89  F   UNL A   1      43.185  25.640  34.854  1.00  0.00    -0.205 F 
ATOM     90  C   UNL A   1      46.686  26.503  35.485  1.00  0.00     0.022 A 
BRANCH  88  91
ATOM     91  S   UNL A   1      45.370  24.409  36.656  1.00  0.00     0.127 S 
ATOM     92  O   UNL A   1      46.750  24.311  37.127  1.00  0.00    -0.237 OA
ATOM     93  O   UNL A   1      44.411  24.854  37.666  1.00  0.00    -0.237 OA
ATOM     94  O   UNL A   1      44.911  23.294  35.835  1.00  0.00    -0.744 OA
ENDBRANCH  88  91
ENDBRANCH  61  84
ENDBRANCH  35  36
ENDBRANCH  27  30
ENDBRANCH  25  26
ENDBRANCH  24  25
ENDBRANCH  23  24
ENDBRANCH   3  23
TORSDOF 19
ENDMDL
MODEL 2
REMARK VINA RESULT:     -11.4      4.397      9.273
REMARK SMILES C[C@H](CN(C)C(=O)CCc1nc2ccccc2o1)C(=O)NCCCNC(=O)c1ccc(-c2c3nc(c(-c4cccc(S(=O)(=O)[O-])c4F)c4ccc([nH]4)c(-c4cccc(S(=O)(=O)[O-])c4F)c4nc(c(-c5cccc(S(=O)(=O)[O-])c5F)c5ccc2[nH]5)C=C4)C=C3)cc1
REMARK SMILES IDX 19 1 20 2 21 3 2 5 1 6 3 7 4 8 5 9 6 10 7 11 8 12 9 13 10 14
REMARK SMILES IDX 11 15 18 16 12 17 17 18 13 19 16 20 14 21 15 22 22 23 23 24
REMARK SMILES IDX 24 25 25 26 26 27 27 29 28 30 29 31 90 32 30 33 89 34 31 35
REMARK SMILES IDX 32 36 33 37 83 38 34 39 88 40 82 41 84 42 35 43 87 44 81 45
REMARK SMILES IDX 80 46 36 48 68 49 48 50 67 51 49 52 52 53 66 54 85 55 50 56
REMARK SMILES IDX 51 57 65 59 86 60 53 61 37 62 38 63 46 64 39 65 41 66 47 67
REMARK SMILES IDX 40 68 42 69 43 70 44 71 45 72 69 73 70 74 78 75 71 76 73 77
REMARK SMILES IDX 79 78 72 79 74 80 75 81 76 82 77 83 54 84 55 85 63 86 56 87
REMARK SMILES IDX 58 88 64 89 57 90 59 91 60 92 61 93 62 94
REMARK H PARENT 21 4 25 28 84 47 52 58
REMARK Flexibility Score: inf
ROOT
ATOM      1  C   UNL A   1      33.315  25.640  22.328  1.00  0.00     0.224 C 
ATOM      2  O   UNL A   1      33.394  25.577  21.090  1.00  0.00    -0.275 OA
ATOM      3  N   UNL A   1      34.162  24.818  22.996  1.00  0.00    -0.356 N 
ATOM      4  H   UNL A   1      34.744  24.301  22.394  1.00  0.00     0.163 HD
ENDROOT
BRANCH   1   5
ATOM      5  C   UNL A   1      32.329  26.644  22.942  1.00  0.00     0.095 C 
ATOM      6  C   UNL A   1      30.961  26.804  22.298  1.00  0.00     0.020 C 
BRANCH   5   7
ATOM      7  C   UNL A   1      32.962  27.888  23.617  1.00  0.00     0.132 C 
BRANCH   7   8
ATOM      8  N   UNL A   1      32.519  28.363  24.944  1.00  0.00    -0.345 N 
ATOM      9  C   UNL A   1      31.818  29.641  24.952  1.00  0.00     0.146 C 
BRANCH   8  10
ATOM     10  C   UNL A   1      32.411  27.444  25.986  1.00  0.00     0.222 C 
ATOM     11  O   UNL A   1      33.427  26.964  26.506  1.00  0.00    -0.275 OA
BRANCH  10  12
ATOM     12  C   UNL A   1      31.043  27.022  26.541  1.00  0.00     0.110 C 
BRANCH  12  13
ATOM     13  C   UNL A   1      30.336  25.844  25.865  1.00  0.00     0.107 C 
BRANCH  13  14
ATOM     14  C   UNL A   1      30.906  24.518  26.212  1.00  0.00     0.195 A 
ATOM     15  N   UNL A   1      31.536  24.190  27.321  1.00  0.00    -0.214 NA
ATOM     16  O   UNL A   1      30.902  23.543  25.244  1.00  0.00    -0.441 OA
ATOM     17  C   UNL A   1      32.132  23.000  27.016  1.00  0.00     0.109 A 
ATOM     18  C   UNL A   1      31.744  22.590  25.751  1.00  0.00     0.154 A 
ATOM     19  C   UNL A   1      33.081  22.252  27.718  1.00  0.00     0.032 A 
ATOM     20  C   UNL A   1      32.249  21.470  25.098  1.00  0.00     0.049 A 
ATOM     21  C   UNL A   1      33.668  21.158  27.065  1.00  0.00     0.003 A 
ATOM     22  C   UNL A   1      33.263  20.782  25.777  1.00  0.00     0.004 A 
ENDBRANCH  13  14
ENDBRANCH  12  13
ENDBRANCH  10  12
ENDBRANCH   8  10
ENDBRANCH   7   8
ENDBRANCH   5   7
ENDBRANCH   1   5
BRANCH   3  23
ATOM     23  C   UNL A   1      34.402  24.530  24.397  1.00  0.00     0.117 C 
BRANCH  23  24
ATOM     24  C   UNL A   1      35.639  23.684  24.623  1.00  0.00     0.042 C 
BRANCH  24  25
ATOM     25  C   UNL A   1      36.113  23.472  26.067  1.00  0.00     0.118 C 
BRANCH  25  26
ATOM     26  N   UNL A   1      37.271  22.585  26.095  1.00  0.00    -0.352 N 
ATOM     27  C   UNL A   1      38.627  22.787  26.180  1.00  0.00     0.251 C 
ATOM     28  H   UNL A   1      37.026  21.632  26.041  1.00  0.00     0.163 HD
ATOM     29  O   UNL A   1      39.335  21.832  25.846  1.00  0.00    -0.269 OA
BRANCH  27  30
ATOM     30  C   UNL A   1      39.303  24.038  26.648  1.00  0.00     0.039 A 
ATOM     31  C   UNL A   1      39.075  24.423  27.982  1.00  0.00     0.014 A 
ATOM     32  C   UNL A   1      40.009  24.922  25.830  1.00  0.00     0.014 A 
ATOM     33  C   UNL A   1      39.522  25.659  28.479  1.00  0.00     0.010 A 
ATOM     34  C   UNL A   1      40.505  26.140  26.347  1.00  0.00     0.010 A 
ATOM     35  C   UNL A   1      40.246  26.542  27.669  1.00  0.00    -0.014 A 
BRANCH  35  36
ATOM     36  C   UNL A   1      40.695  27.876  28.194  1.00  0.00     0.031 A 
ATOM     37  C   UNL A   1      42.165  28.226  28.292  1.00  0.00     0.074 A 
ATOM     38  C   UNL A   1      39.794  28.794  28.605  1.00  0.00     0.049 A 
ATOM     39  N   UNL A   1      42.730  29.322  28.742  1.00  0.00    -0.248 NA
ATOM     40  C   UNL A   1      43.124  27.213  27.829  1.00  0.00     0.031 C 
ATOM     41  C   UNL A   1      38.342  28.613  28.599  1.00  0.00     0.029 A 
ATOM     42  N   UNL A   1      39.967  30.056  29.129  1.00  0.00    -0.354 N 
ATOM     43  C   UNL A   1      44.104  29.117  28.653  1.00  0.00     0.074 A 
ATOM     44  C   UNL A   1      44.287  27.783  28.120  1.00  0.00     0.031 C 
ATOM     45  C   UNL A   1      37.759  29.714  29.101  1.00  0.00     0.029 A 
ATOM     46  C   UNL A   1      38.791  30.669  29.501  1.00  0.00     0.049 A 
ATOM     47  H   UNL A   1      40.849  30.481  29.230  1.00  0.00     0.167 HD
ATOM     48  C   UNL A   1      45.123  29.958  28.964  1.00  0.00     0.034 A 
ATOM     49  C   UNL A   1      38.558  31.851  30.112  1.00  0.00     0.034 A 
ATOM     50  C   UNL A   1      44.962  31.300  29.463  1.00  0.00     0.049 A 
ATOM     51  C   UNL A   1      39.707  32.762  30.458  1.00  0.00     0.074 A 
ATOM     52  C   UNL A   1      45.945  32.240  29.731  1.00  0.00     0.029 A 
ATOM     53  N   UNL A   1      43.753  31.894  29.782  1.00  0.00    -0.354 N 
ATOM     54  N   UNL A   1      40.988  32.598  30.238  1.00  0.00    -0.248 NA
ATOM     55  C   UNL A   1      39.373  34.041  31.107  1.00  0.00     0.031 C 
ATOM     56  C   UNL A   1      45.333  33.386  30.250  1.00  0.00     0.029 A 
ATOM     57  C   UNL A   1      43.966  33.178  30.263  1.00  0.00     0.049 A 
ATOM     58  H   UNL A   1      42.872  31.467  29.683  1.00  0.00     0.167 HD
ATOM     59  C   UNL A   1      41.605  33.764  30.683  1.00  0.00     0.074 A 
ATOM     60  C   UNL A   1      40.557  34.635  31.168  1.00  0.00     0.031 C 
ATOM     61  C   UNL A   1      42.925  34.075  30.698  1.00  0.00     0.034 A 
BRANCH  48  62
ATOM     62  C   UNL A   1      46.535  29.466  28.745  1.00  0.00     0.023 A 
ATOM     63  C   UNL A   1      47.183  29.726  27.521  1.00  0.00     0.012 A 
ATOM     64  C   UNL A   1      47.247  28.824  29.778  1.00  0.00     0.148 A 
ATOM     65  C   UNL A   1      48.502  29.321  27.312  1.00  0.00     0.002 A 
ATOM     66  C   UNL A   1      48.576  28.465  29.581  1.00  0.00     0.091 A 
ATOM     67  F   UNL A   1      46.614  28.576  30.933  1.00  0.00    -0.205 F 
ATOM     68  C   UNL A   1      49.201  28.701  28.345  1.00  0.00     0.022 A 
BRANCH  66  69
ATOM     69  S   UNL A   1      49.591  27.739  30.873  1.00  0.00     0.127 S 
ATOM     70  O   UNL A   1      49.342  28.647  31.990  1.00  0.00    -0.237 OA
ATOM     71  O   UNL A   1      49.002  26.410  31.021  1.00  0.00    -0.237 OA
ATOM     72  O   UNL A   1      50.958  27.742  30.359  1.00  0.00    -0.744 OA
ENDBRANCH  66  69
ENDBRANCH  48  62
BRANCH  49  73
ATOM     73  C   UNL A   1      37.156  32.268  30.415  1.00  0.00     0.023 A 
ATOM     74  C   UNL A   1      36.609  32.002  31.686  1.00  0.00     0.012 A 
ATOM     75  C   UNL A   1      36.365  32.923  29.451  1.00  0.00     0.148 A 
ATOM     76  C   UNL A   1      35.290  32.351  31.979  1.00  0.00     0.002 A 
ATOM     77  C   UNL A   1      35.074  33.322  29.770  1.00  0.00     0.091 A 
ATOM     78  F   UNL A   1      36.898  33.151  28.242  1.00  0.00    -0.205 F 
ATOM     79  C   UNL A   1      34.526  33.019  31.027  1.00  0.00     0.022 A 
BRANCH  77  80
ATOM     80  S   UNL A   1      34.059  34.299  28.656  1.00  0.00     0.127 S 
ATOM     81  O   UNL A   1      32.884  34.566  29.474  1.00  0.00    -0.237 OA
ATOM     82  O   UNL A   1      34.916  35.457  28.403  1.00  0.00    -0.237 OA
ATOM     83  O   UNL A   1      33.835  33.454  27.484  1.00  0.00    -0.744 OA
ENDBRANCH  77  80
ENDBRANCH  49  73
BRANCH  61  84
ATOM     84  C   UNL A   1      43.330  35.437  31.209  1.00  0.00     0.023 A 
ATOM     85  C   UNL A   1      43.646  35.616  32.571  1.00  0.00     0.012 A 
ATOM     86  C   UNL A   1      43.464  36.526  30.325  1.00  0.00     0.148 A 
ATOM     87  C   UNL A   1      44.053  36.863  33.049  1.00  0.00     0.002 A 
ATOM     88  C   UNL A   1      43.918  37.752  30.798  1.00  0.00     0.091 A 
ATOM     89  F   UNL A   1      43.144  36.345  29.035  1.00  0.00    -0.205 F 
ATOM     90  C   UNL A   1      44.200  37.926  32.163  1.00  0.00     0.022 A 
BRANCH  88  91
ATOM     91  S   UNL A   1      44.228  39.155  29.717  1.00  0.00     0.127 S 
ATOM     92  O   UNL A   1      42.899  39.400  29.158  1.00  0.00    -0.237 OA
ATOM     93  O   UNL A   1      44.692  40.175  30.657  1.00  0.00    -0.237 OA
ATOM     94  O   UNL A   1      45.234  38.710  28.760  1.00  0.00    -0.744 OA
ENDBRANCH  88  91
ENDBRANCH  61  84
ENDBRANCH  35  36
ENDBRANCH  27  30
ENDBRANCH  25  26
ENDBRANCH  24  25
ENDBRANCH  23  24
ENDBRANCH   3  23
TORSDOF 19
ENDMDL
MODEL 3
REMARK VINA RESULT:     -11.3      2.878      3.641
REMARK SMILES C[C@H](CN(C)C(=O)CCc1nc2ccccc2o1)C(=O)NCCCNC(=O)c1ccc(-c2c3nc(c(-c4cccc(S(=O)(=O)[O-])c4F)c4ccc([nH]4)c(-c4cccc(S(=O)(=O)[O-])c4F)c4nc(c(-c5cccc(S(=O)(=O)[O-])c5F)c5ccc2[nH]5)C=C4)C=C3)cc1
REMARK SMILES IDX 19 1 20 2 21 3 2 5 1 6 3 7 4 8 5 9 6 10 7 11 8 12 9 13 10 14
REMARK SMILES IDX 11 15 18 16 12 17 17 18 13 19 16 20 14 21 15 22 22 23 23 24
REMARK SMILES IDX 24 25 25 26 26 27 27 29 28 30 29 31 90 32 30 33 89 34 31 35
REMARK SMILES IDX 32 36 33 37 83 38 34 39 88 40 82 41 84 42 35 43 87 44 81 45
REMARK SMILES IDX 80 46 36 48 68 49 48 50 67 51 49 52 52 53 66 54 85 55 50 56
REMARK SMILES IDX 51 57 65 59 86 60 53 61 37 62 38 63 46 64 39 65 41 66 47 67
REMARK SMILES IDX 40 68 42 69 43 70 44 71 45 72 69 73 70 74 78 75 71 76 73 77
REMARK SMILES IDX 79 78 72 79 74 80 75 81 76 82 77 83 54 84 55 85 63 86 56 87
REMARK SMILES IDX 58 88 64 89 57 90 59 91 60 92 61 93 62 94
REMARK H PARENT 21 4 25 28 84 47 52 58
REMARK Flexibility Score: inf
ROOT
ATOM      1  C   UNL A   1      30.642  26.484  26.044  1.00  0.00     0.224 C 
ATOM      2  O   UNL A   1      29.918  25.482  26.162  1.00  0.00    -0.275 OA
ATOM      3  N   UNL A   1      31.031  27.047  27.215  1.00  0.00    -0.356 N 
ATOM      4  H   UNL A   1      30.701  26.557  28.002  1.00  0.00     0.163 HD
ENDROOT
BRANCH   1   5
ATOM      5  C   UNL A   1      31.038  26.931  24.630  1.00  0.00     0.095 C 
ATOM      6  C   UNL A   1      30.449  28.223  24.086  1.00  0.00     0.020 C 
BRANCH   5   7
ATOM      7  C   UNL A   1      31.347  25.794  23.622  1.00  0.00     0.132 C 
BRANCH   7   8
ATOM      8  N   UNL A   1      32.453  24.840  23.839  1.00  0.00    -0.345 N 
ATOM      9  C   UNL A   1      33.687  25.416  24.364  1.00  0.00     0.146 C 
BRANCH   8  10
ATOM     10  C   UNL A   1      32.160  23.481  23.942  1.00  0.00     0.222 C 
ATOM     11  O   UNL A   1      31.228  23.094  24.658  1.00  0.00    -0.275 OA
BRANCH  10  12
ATOM     12  C   UNL A   1      32.954  22.430  23.154  1.00  0.00     0.110 C 
BRANCH  12  13
ATOM     13  C   UNL A   1      32.165  21.319  22.456  1.00  0.00     0.107 C 
BRANCH  13  14
ATOM     14  C   UNL A   1      32.226  20.009  23.150  1.00  0.00     0.195 A 
ATOM     15  N   UNL A   1      32.048  19.781  24.435  1.00  0.00    -0.214 NA
ATOM     16  O   UNL A   1      32.632  18.915  22.424  1.00  0.00    -0.441 OA
ATOM     17  C   UNL A   1      32.525  18.513  24.609  1.00  0.00     0.109 A 
ATOM     18  C   UNL A   1      32.876  17.970  23.385  1.00  0.00     0.154 A 
ATOM     19  C   UNL A   1      32.774  17.788  25.778  1.00  0.00     0.032 A 
ATOM     20  C   UNL A   1      33.489  16.732  23.220  1.00  0.00     0.049 A 
ATOM     21  C   UNL A   1      33.457  16.569  25.660  1.00  0.00     0.003 A 
ATOM     22  C   UNL A   1      33.814  16.057  24.405  1.00  0.00     0.004 A 
ENDBRANCH  13  14
ENDBRANCH  12  13
ENDBRANCH  10  12
ENDBRANCH   8  10
ENDBRANCH   7   8
ENDBRANCH   5   7
ENDBRANCH   1   5
BRANCH   3  23
ATOM     23  C   UNL A   1      31.826  28.209  27.568  1.00  0.00     0.117 C 
BRANCH  23  24
ATOM     24  C   UNL A   1      33.178  28.229  26.885  1.00  0.00     0.042 C 
BRANCH  24  25
ATOM     25  C   UNL A   1      33.528  29.444  26.015  1.00  0.00     0.118 C 
BRANCH  25  26
ATOM     26  N   UNL A   1      33.703  30.629  26.846  1.00  0.00    -0.352 N 
ATOM     27  C   UNL A   1      34.575  30.969  27.852  1.00  0.00     0.251 C 
ATOM     28  H   UNL A   1      33.053  31.341  26.643  1.00  0.00     0.163 HD
ATOM     29  O   UNL A   1      34.233  31.921  28.561  1.00  0.00    -0.269 OA
BRANCH  27  30
ATOM     30  C   UNL A   1      35.886  30.306  28.142  1.00  0.00     0.039 A 
ATOM     31  C   UNL A   1      36.026  29.703  29.406  1.00  0.00     0.014 A 
ATOM     32  C   UNL A   1      37.016  30.370  27.325  1.00  0.00     0.014 A 
ATOM     33  C   UNL A   1      37.261  29.197  29.848  1.00  0.00     0.010 A 
ATOM     34  C   UNL A   1      38.243  29.812  27.749  1.00  0.00     0.010 A 
ATOM     35  C   UNL A   1      38.394  29.243  29.026  1.00  0.00    -0.014 A 
BRANCH  35  36
ATOM     36  C   UNL A   1      39.719  28.730  29.513  1.00  0.00     0.031 A 
ATOM     37  C   UNL A   1      40.462  29.420  30.638  1.00  0.00     0.074 A 
ATOM     38  C   UNL A   1      40.288  27.644  28.947  1.00  0.00     0.049 A 
ATOM     39  N   UNL A   1      41.626  29.125  31.167  1.00  0.00    -0.248 NA
ATOM     40  C   UNL A   1      39.816  30.594  31.242  1.00  0.00     0.031 C 
ATOM     41  C   UNL A   1      39.719  26.873  27.840  1.00  0.00     0.029 A 
ATOM     42  N   UNL A   1      41.483  27.012  29.209  1.00  0.00    -0.354 N 
ATOM     43  C   UNL A   1      41.870  30.095  32.136  1.00  0.00     0.074 A 
ATOM     44  C   UNL A   1      40.737  30.997  32.109  1.00  0.00     0.031 C 
ATOM     45  C   UNL A   1      40.565  25.882  27.514  1.00  0.00     0.029 A 
ATOM     46  C   UNL A   1      41.755  25.962  28.359  1.00  0.00     0.049 A 
ATOM     47  H   UNL A   1      42.088  27.285  29.936  1.00  0.00     0.167 HD
ATOM     48  C   UNL A   1      42.922  30.222  32.984  1.00  0.00     0.034 A 
ATOM     49  C   UNL A   1      42.839  25.164  28.249  1.00  0.00     0.034 A 
ATOM     50  C   UNL A   1      44.042  29.317  33.050  1.00  0.00     0.049 A 
ATOM     51  C   UNL A   1      44.000  25.331  29.196  1.00  0.00     0.074 A 
ATOM     52  C   UNL A   1      45.110  29.336  33.933  1.00  0.00     0.029 A 
ATOM     53  N   UNL A   1      44.253  28.244  32.201  1.00  0.00    -0.354 N 
ATOM     54  N   UNL A   1      44.141  26.172  30.190  1.00  0.00    -0.248 NA
ATOM     55  C   UNL A   1      45.138  24.413  29.025  1.00  0.00     0.031 C 
ATOM     56  C   UNL A   1      45.986  28.300  33.592  1.00  0.00     0.029 A 
ATOM     57  C   UNL A   1      45.441  27.607  32.526  1.00  0.00     0.049 A 
ATOM     58  H   UNL A   1      43.648  27.973  31.473  1.00  0.00     0.167 HD
ATOM     59  C   UNL A   1      45.361  25.858  30.786  1.00  0.00     0.074 A 
ATOM     60  C   UNL A   1      45.910  24.738  30.053  1.00  0.00     0.031 C 
ATOM     61  C   UNL A   1      45.972  26.457  31.838  1.00  0.00     0.034 A 
BRANCH  48  62
ATOM     62  C   UNL A   1      42.909  31.379  33.955  1.00  0.00     0.023 A 
ATOM     63  C   UNL A   1      43.536  32.592  33.605  1.00  0.00     0.012 A 
ATOM     64  C   UNL A   1      42.205  31.295  35.174  1.00  0.00     0.148 A 
ATOM     65  C   UNL A   1      43.497  33.689  34.466  1.00  0.00     0.002 A 
ATOM     66  C   UNL A   1      42.130  32.406  36.006  1.00  0.00     0.091 A 
ATOM     67  F   UNL A   1      41.621  30.132  35.496  1.00  0.00    -0.205 F 
ATOM     68  C   UNL A   1      42.786  33.599  35.661  1.00  0.00     0.022 A 
BRANCH  66  69
ATOM     69  S   UNL A   1      41.169  32.423  37.524  1.00  0.00     0.127 S 
ATOM     70  O   UNL A   1      42.027  31.659  38.426  1.00  0.00    -0.237 OA
ATOM     71  O   UNL A   1      41.087  33.852  37.823  1.00  0.00    -0.237 OA
ATOM     72  O   UNL A   1      39.891  31.798  37.198  1.00  0.00    -0.744 OA
ENDBRANCH  66  69
ENDBRANCH  48  62
BRANCH  49  73
ATOM     73  C   UNL A   1      42.872  24.093  27.209  1.00  0.00     0.023 A 
ATOM     74  C   UNL A   1      43.568  24.313  26.004  1.00  0.00     0.012 A 
ATOM     75  C   UNL A   1      42.216  22.862  27.407  1.00  0.00     0.148 A 
ATOM     76  C   UNL A   1      43.582  23.341  25.003  1.00  0.00     0.002 A 
ATOM     77  C   UNL A   1      42.285  21.876  26.433  1.00  0.00     0.091 A 
ATOM     78  F   UNL A   1      41.544  22.679  28.553  1.00  0.00    -0.205 F 
ATOM     79  C   UNL A   1      42.950  22.120  25.220  1.00  0.00     0.022 A 
BRANCH  77  80
ATOM     80  S   UNL A   1      41.614  20.227  26.674  1.00  0.00     0.127 S 
ATOM     81  O   UNL A   1      42.325  19.783  27.864  1.00  0.00    -0.237 OA
ATOM     82  O   UNL A   1      40.191  20.504  26.867  1.00  0.00    -0.237 OA
ATOM     83  O   UNL A   1      41.919  19.495  25.445  1.00  0.00    -0.744 OA
ENDBRANCH  77  80
ENDBRANCH  49  73
BRANCH  61  84
ATOM     84  C   UNL A   1      47.290  25.892  32.310  1.00  0.00     0.023 A 
ATOM     85  C   UNL A   1      47.325  24.984  33.388  1.00  0.00     0.012 A 
ATOM     86  C   UNL A   1      48.490  26.209  31.641  1.00  0.00     0.148 A 
ATOM     87  C   UNL A   1      48.534  24.430  33.813  1.00  0.00     0.002 A 
ATOM     88  C   UNL A   1      49.683  25.614  32.036  1.00  0.00     0.091 A 
ATOM     89  F   UNL A   1      48.444  27.087  30.628  1.00  0.00    -0.205 F 
ATOM     90  C   UNL A   1      49.709  24.735  33.131  1.00  0.00     0.022 A 
BRANCH  88  91
ATOM     91  S   UNL A   1      51.232  25.873  31.163  1.00  0.00     0.127 S 
ATOM     92  O   UNL A   1      51.486  27.290  31.418  1.00  0.00    -0.237 OA
ATOM     93  O   UNL A   1      52.137  24.957  31.856  1.00  0.00    -0.237 OA
ATOM     94  O   UNL A   1      50.971  25.528  29.771  1.00  0.00    -0.744 OA
ENDBRANCH  88  91
ENDBRANCH  61  84
ENDBRANCH  35  36
ENDBRANCH  27  30
ENDBRANCH  25  26
ENDBRANCH  24  25
ENDBRANCH  23  24
ENDBRANCH   3  23
TORSDOF 19
ENDMDL
