MODEL 1
REMARK VINA RESULT:     -11.6      0.000      0.000
REMARK SMILES C[C@H](CNS(=O)(=O)c1ccc(C(=O)NCCCNC(=O)c2ccc(-c3c4nc(c(-c5cccc(S(=O)(=O)[O-])c5F)c5ccc([nH]5)c(-c5cccc(S(=O)(=O)[O-])c5F)c5nc(c(-c6cccc(S(=O)(=O)[O-])c6F)c6ccc3[nH]6)C=C5)C=C4)cc2)o1)c1ccccc1
REMARK SMILES IDX 15 1 14 2 12 3 13 4 11 6 8 7 9 8 84 9 10 10 5 11 6 12 7 13
REMARK SMILES IDX 4 14 3 16 2 17 1 18 85 19 86 20 90 21 87 22 89 23 88 24
REMARK SMILES IDX 16 25 17 26 18 27 19 28 20 30 21 31 22 32 83 33 23 34 82 35
REMARK SMILES IDX 24 36 25 37 26 38 76 39 27 40 81 41 75 42 77 43 28 44 80 45
REMARK SMILES IDX 74 46 73 47 29 49 61 50 41 51 60 52 42 53 45 54 59 55 78 56
REMARK SMILES IDX 43 57 44 58 58 60 79 61 46 62 30 63 31 64 39 65 32 66 34 67
REMARK SMILES IDX 40 68 33 69 35 70 36 71 37 72 38 73 62 74 63 75 71 76 64 77
REMARK SMILES IDX 66 78 72 79 65 80 67 81 68 82 69 83 70 84 47 85 48 86 56 87
REMARK SMILES IDX 49 88 51 89 57 90 50 91 52 92 53 93 54 94 55 95
REMARK H PARENT 14 5 4 15 18 29 77 48 45 59
REMARK Flexibility Score: inf
ROOT
ATOM      1  C   UNL A   1      31.750  29.405  24.880  1.00  0.00     0.118 C 
ENDROOT
BRANCH   1   2
ATOM      2  N   UNL A   1      31.115  29.576  23.588  1.00  0.00    -0.349 N 
ATOM      3  C   UNL A   1      30.533  28.658  22.748  1.00  0.00     0.287 C 
ATOM      4  O   UNL A   1      29.930  29.120  21.776  1.00  0.00    -0.266 OA
ATOM      5  H   UNL A   1      31.097  30.504  23.259  1.00  0.00     0.163 HD
BRANCH   3   6
ATOM      6  C   UNL A   1      30.609  27.235  23.016  1.00  0.00     0.193 A 
ATOM      7  C   UNL A   1      31.646  25.257  22.861  1.00  0.00     0.234 A 
ATOM      8  C   UNL A   1      30.486  25.064  23.595  1.00  0.00     0.065 A 
ATOM      9  O   UNL A   1      31.702  26.584  22.510  1.00  0.00    -0.438 OA
ATOM     10  C   UNL A   1      29.843  26.320  23.714  1.00  0.00     0.058 A 
BRANCH   7  11
ATOM     11  S   UNL A   1      32.948  24.128  22.398  1.00  0.00     0.274 S 
ATOM     12  O   UNL A   1      33.262  24.427  21.018  1.00  0.00    -0.204 OA
ATOM     13  O   UNL A   1      32.487  22.819  22.805  1.00  0.00    -0.204 OA
BRANCH  11  14
ATOM     14  N   UNL A   1      34.298  24.482  23.346  1.00  0.00    -0.208 NA
ATOM     15  H   UNL A   1      34.732  23.598  23.607  1.00  0.00     0.141 HD
BRANCH  14  16
ATOM     16  C   UNL A   1      34.054  25.250  24.593  1.00  0.00     0.107 C 
BRANCH  16  17
ATOM     17  C   UNL A   1      34.176  24.347  25.845  1.00  0.00     0.031 C 
ATOM     18  C   UNL A   1      32.846  23.661  26.178  1.00  0.00     0.014 C 
BRANCH  17  19
ATOM     19  C   UNL A   1      35.367  23.402  25.721  1.00  0.00    -0.044 A 
ATOM     20  C   UNL A   1      36.666  23.922  25.827  1.00  0.00     0.004 A 
ATOM     21  C   UNL A   1      35.215  22.044  25.399  1.00  0.00     0.004 A 
ATOM     22  C   UNL A   1      37.780  23.113  25.598  1.00  0.00     0.000 A 
ATOM     23  C   UNL A   1      36.330  21.239  25.160  1.00  0.00     0.000 A 
ATOM     24  C   UNL A   1      37.611  21.773  25.256  1.00  0.00     0.000 A 
ENDBRANCH  17  19
ENDBRANCH  16  17
ENDBRANCH  14  16
ENDBRANCH  11  14
ENDBRANCH   7  11
ENDBRANCH   3   6
ENDBRANCH   1   2
BRANCH   1  25
ATOM     25  C   UNL A   1      33.148  28.809  24.754  1.00  0.00     0.042 C 
BRANCH  25  26
ATOM     26  C   UNL A   1      33.986  28.951  26.024  1.00  0.00     0.118 C 
BRANCH  26  27
ATOM     27  N   UNL A   1      33.819  30.259  26.645  1.00  0.00    -0.352 N 
ATOM     28  C   UNL A   1      34.507  30.848  27.676  1.00  0.00     0.251 C 
ATOM     29  H   UNL A   1      33.096  30.809  26.263  1.00  0.00     0.163 HD
ATOM     30  O   UNL A   1      34.050  31.864  28.195  1.00  0.00    -0.269 OA
BRANCH  28  31
ATOM     31  C   UNL A   1      35.781  30.279  28.166  1.00  0.00     0.039 A 
ATOM     32  C   UNL A   1      36.919  30.378  27.359  1.00  0.00     0.014 A 
ATOM     33  C   UNL A   1      35.849  29.598  29.385  1.00  0.00     0.014 A 
ATOM     34  C   UNL A   1      38.133  29.841  27.795  1.00  0.00     0.010 A 
ATOM     35  C   UNL A   1      37.074  29.122  29.849  1.00  0.00     0.010 A 
ATOM     36  C   UNL A   1      38.226  29.231  29.056  1.00  0.00    -0.014 A 
BRANCH  36  37
ATOM     37  C   UNL A   1      39.518  28.707  29.568  1.00  0.00     0.031 A 
ATOM     38  C   UNL A   1      40.254  29.435  30.661  1.00  0.00     0.074 A 
ATOM     39  C   UNL A   1      40.075  27.628  28.983  1.00  0.00     0.049 A 
ATOM     40  N   UNL A   1      41.430  29.180  31.176  1.00  0.00    -0.248 NA
ATOM     41  C   UNL A   1      39.596  30.621  31.233  1.00  0.00     0.031 C 
ATOM     42  C   UNL A   1      39.499  26.886  27.860  1.00  0.00     0.029 A 
ATOM     43  N   UNL A   1      41.266  26.992  29.226  1.00  0.00    -0.354 N 
ATOM     44  C   UNL A   1      41.667  30.186  32.103  1.00  0.00     0.074 A 
ATOM     45  C   UNL A   1      40.527  31.077  32.059  1.00  0.00     0.031 C 
ATOM     46  C   UNL A   1      40.341  25.902  27.505  1.00  0.00     0.029 A 
ATOM     47  C   UNL A   1      41.525  25.957  28.355  1.00  0.00     0.049 A 
ATOM     48  H   UNL A   1      41.877  27.249  29.953  1.00  0.00     0.167 HD
ATOM     49  C   UNL A   1      42.721  30.339  32.941  1.00  0.00     0.034 A 
ATOM     50  C   UNL A   1      42.600  25.152  28.247  1.00  0.00     0.034 A 
ATOM     51  C   UNL A   1      43.829  29.427  33.015  1.00  0.00     0.049 A 
ATOM     52  C   UNL A   1      43.732  25.309  29.226  1.00  0.00     0.074 A 
ATOM     53  C   UNL A   1      44.909  29.452  33.882  1.00  0.00     0.029 A 
ATOM     54  N   UNL A   1      44.002  28.324  32.194  1.00  0.00    -0.354 N 
ATOM     55  N   UNL A   1      43.866  26.177  30.199  1.00  0.00    -0.248 NA
ATOM     56  C   UNL A   1      44.842  24.351  29.120  1.00  0.00     0.031 C 
ATOM     57  C   UNL A   1      45.739  28.368  33.578  1.00  0.00     0.029 A 
ATOM     58  C   UNL A   1      45.168  27.658  32.533  1.00  0.00     0.049 A 
ATOM     59  H   UNL A   1      43.387  28.053  31.475  1.00  0.00     0.167 HD
ATOM     60  C   UNL A   1      45.055  25.852  30.840  1.00  0.00     0.074 A 
ATOM     61  C   UNL A   1      45.592  24.691  30.159  1.00  0.00     0.031 C 
ATOM     62  C   UNL A   1      45.659  26.470  31.885  1.00  0.00     0.034 A 
BRANCH  49  63
ATOM     63  C   UNL A   1      42.689  31.503  33.898  1.00  0.00     0.023 A 
ATOM     64  C   UNL A   1      43.210  32.747  33.486  1.00  0.00     0.012 A 
ATOM     65  C   UNL A   1      42.097  31.391  35.171  1.00  0.00     0.148 A 
ATOM     66  C   UNL A   1      43.175  33.852  34.336  1.00  0.00     0.002 A 
ATOM     67  C   UNL A   1      42.028  32.508  35.998  1.00  0.00     0.091 A 
ATOM     68  F   UNL A   1      41.624  30.196  35.555  1.00  0.00    -0.205 F 
ATOM     69  C   UNL A   1      42.574  33.734  35.586  1.00  0.00     0.022 A 
BRANCH  67  70
ATOM     70  S   UNL A   1      41.209  32.481  37.597  1.00  0.00     0.127 S 
ATOM     71  O   UNL A   1      39.902  31.924  37.249  1.00  0.00    -0.237 OA
ATOM     72  O   UNL A   1      42.069  31.582  38.369  1.00  0.00    -0.237 OA
ATOM     73  O   UNL A   1      41.199  33.859  38.066  1.00  0.00    -0.744 OA
ENDBRANCH  67  70
ENDBRANCH  49  63
BRANCH  50  74
ATOM     74  C   UNL A   1      42.621  24.082  27.210  1.00  0.00     0.023 A 
ATOM     75  C   UNL A   1      43.274  24.321  25.984  1.00  0.00     0.012 A 
ATOM     76  C   UNL A   1      42.039  22.822  27.443  1.00  0.00     0.148 A 
ATOM     77  C   UNL A   1      43.319  23.334  24.999  1.00  0.00     0.002 A 
ATOM     78  C   UNL A   1      42.136  21.824  26.480  1.00  0.00     0.091 A 
ATOM     79  F   UNL A   1      41.411  22.618  28.611  1.00  0.00    -0.205 F 
ATOM     80  C   UNL A   1      42.762  22.083  25.250  1.00  0.00     0.022 A 
BRANCH  78  81
ATOM     81  S   UNL A   1      41.571  20.146  26.782  1.00  0.00     0.127 S 
ATOM     82  O   UNL A   1      40.173  20.362  27.143  1.00  0.00    -0.237 OA
ATOM     83  O   UNL A   1      41.780  19.513  25.479  1.00  0.00    -0.237 OA
ATOM     84  O   UNL A   1      42.431  19.631  27.839  1.00  0.00    -0.744 OA
ENDBRANCH  78  81
ENDBRANCH  50  74
BRANCH  62  85
ATOM     85  C   UNL A   1      46.957  25.890  32.383  1.00  0.00     0.023 A 
ATOM     86  C   UNL A   1      46.958  25.059  33.520  1.00  0.00     0.012 A 
ATOM     87  C   UNL A   1      48.159  26.106  31.680  1.00  0.00     0.148 A 
ATOM     88  C   UNL A   1      48.141  24.474  33.969  1.00  0.00     0.002 A 
ATOM     89  C   UNL A   1      49.326  25.483  32.107  1.00  0.00     0.091 A 
ATOM     90  F   UNL A   1      48.140  26.916  30.613  1.00  0.00    -0.205 F 
ATOM     91  C   UNL A   1      49.320  24.676  33.257  1.00  0.00     0.022 A 
BRANCH  89  92
ATOM     92  S   UNL A   1      50.870  25.613  31.199  1.00  0.00     0.127 S 
ATOM     93  O   UNL A   1      51.209  27.023  31.387  1.00  0.00    -0.237 OA
ATOM     94  O   UNL A   1      51.735  24.677  31.918  1.00  0.00    -0.237 OA
ATOM     95  O   UNL A   1      50.563  25.219  29.831  1.00  0.00    -0.744 OA
ENDBRANCH  89  92
ENDBRANCH  62  85
ENDBRANCH  36  37
ENDBRANCH  28  31
ENDBRANCH  26  27
ENDBRANCH  25  26
ENDBRANCH   1  25
TORSDOF 18
ENDMDL
MODEL 2
REMARK VINA RESULT:     -11.3      5.164      8.301
REMARK SMILES C[C@H](CNS(=O)(=O)c1ccc(C(=O)NCCCNC(=O)c2ccc(-c3c4nc(c(-c5cccc(S(=O)(=O)[O-])c5F)c5ccc([nH]5)c(-c5cccc(S(=O)(=O)[O-])c5F)c5nc(c(-c6cccc(S(=O)(=O)[O-])c6F)c6ccc3[nH]6)C=C5)C=C4)cc2)o1)c1ccccc1
REMARK SMILES IDX 15 1 14 2 12 3 13 4 11 6 8 7 9 8 84 9 10 10 5 11 6 12 7 13
REMARK SMILES IDX 4 14 3 16 2 17 1 18 85 19 86 20 90 21 87 22 89 23 88 24
REMARK SMILES IDX 16 25 17 26 18 27 19 28 20 30 21 31 22 32 83 33 23 34 82 35
REMARK SMILES IDX 24 36 25 37 26 38 76 39 27 40 81 41 75 42 77 43 28 44 80 45
REMARK SMILES IDX 74 46 73 47 29 49 61 50 41 51 60 52 42 53 45 54 59 55 78 56
REMARK SMILES IDX 43 57 44 58 58 60 79 61 46 62 30 63 31 64 39 65 32 66 34 67
REMARK SMILES IDX 40 68 33 69 35 70 36 71 37 72 38 73 62 74 63 75 71 76 64 77
REMARK SMILES IDX 66 78 72 79 65 80 67 81 68 82 69 83 70 84 47 85 48 86 56 87
REMARK SMILES IDX 49 88 51 89 57 90 50 91 52 92 53 93 54 94 55 95
REMARK H PARENT 14 5 4 15 18 29 77 48 45 59
REMARK Flexibility Score: inf
ROOT
ATOM      1  C   UNL A   1      37.574  21.110  24.729  1.00  0.00     0.118 C 
ENDROOT
BRANCH   1   2
ATOM      2  N   UNL A   1      38.102  22.286  25.391  1.00  0.00    -0.349 N 
ATOM      3  C   UNL A   1      37.472  23.422  25.836  1.00  0.00     0.287 C 
ATOM      4  O   UNL A   1      38.159  24.195  26.508  1.00  0.00    -0.266 OA
ATOM      5  H   UNL A   1      39.074  22.267  25.548  1.00  0.00     0.163 HD
BRANCH   3   6
ATOM      6  C   UNL A   1      36.072  23.671  25.549  1.00  0.00     0.193 A 
ATOM      7  C   UNL A   1      33.899  23.506  26.064  1.00  0.00     0.234 A 
ATOM      8  C   UNL A   1      33.995  24.217  24.877  1.00  0.00     0.065 A 
ATOM      9  O   UNL A   1      35.173  23.175  26.456  1.00  0.00    -0.438 OA
ATOM     10  C   UNL A   1      35.371  24.343  24.565  1.00  0.00     0.058 A 
BRANCH   7  11
ATOM     11  S   UNL A   1      32.486  23.050  27.051  1.00  0.00     0.274 S 
ATOM     12  O   UNL A   1      31.572  24.170  26.983  1.00  0.00    -0.204 OA
ATOM     13  O   UNL A   1      33.027  22.589  28.311  1.00  0.00    -0.204 OA
BRANCH  11  14
ATOM     14  N   UNL A   1      31.756  21.715  26.322  1.00  0.00    -0.208 NA
ATOM     15  H   UNL A   1      31.008  21.396  26.937  1.00  0.00     0.141 HD
BRANCH  14  16
ATOM     16  C   UNL A   1      32.631  20.551  26.036  1.00  0.00     0.107 C 
BRANCH  16  17
ATOM     17  C   UNL A   1      32.217  19.842  24.723  1.00  0.00     0.031 C 
ATOM     18  C   UNL A   1      32.459  20.735  23.500  1.00  0.00     0.014 C 
BRANCH  17  19
ATOM     19  C   UNL A   1      32.845  18.455  24.632  1.00  0.00    -0.044 A 
ATOM     20  C   UNL A   1      33.501  18.077  23.450  1.00  0.00     0.004 A 
ATOM     21  C   UNL A   1      32.700  17.499  25.650  1.00  0.00     0.004 A 
ATOM     22  C   UNL A   1      33.980  16.777  23.283  1.00  0.00     0.000 A 
ATOM     23  C   UNL A   1      33.170  16.196  25.477  1.00  0.00     0.000 A 
ATOM     24  C   UNL A   1      33.806  15.834  24.294  1.00  0.00     0.000 A 
ENDBRANCH  17  19
ENDBRANCH  16  17
ENDBRANCH  14  16
ENDBRANCH  11  14
ENDBRANCH   7  11
ENDBRANCH   3   6
ENDBRANCH   1   2
BRANCH   1  25
ATOM     25  C   UNL A   1      38.417  19.870  25.010  1.00  0.00     0.042 C 
BRANCH  25  26
ATOM     26  C   UNL A   1      39.403  20.054  26.164  1.00  0.00     0.118 C 
BRANCH  26  27
ATOM     27  N   UNL A   1      40.584  19.214  26.012  1.00  0.00    -0.352 N 
ATOM     28  C   UNL A   1      41.911  19.554  25.921  1.00  0.00     0.251 C 
ATOM     29  H   UNL A   1      40.402  18.247  25.969  1.00  0.00     0.163 HD
ATOM     30  O   UNL A   1      42.722  18.702  25.564  1.00  0.00    -0.269 OA
BRANCH  28  31
ATOM     31  C   UNL A   1      42.371  20.922  26.243  1.00  0.00     0.039 A 
ATOM     32  C   UNL A   1      42.582  21.266  27.583  1.00  0.00     0.014 A 
ATOM     33  C   UNL A   1      42.539  21.885  25.244  1.00  0.00     0.014 A 
ATOM     34  C   UNL A   1      43.009  22.554  27.914  1.00  0.00     0.010 A 
ATOM     35  C   UNL A   1      43.029  23.148  25.568  1.00  0.00     0.010 A 
ATOM     36  C   UNL A   1      43.261  23.498  26.907  1.00  0.00    -0.014 A 
BRANCH  36  37
ATOM     37  C   UNL A   1      43.774  24.855  27.230  1.00  0.00     0.031 A 
ATOM     38  C   UNL A   1      42.853  25.902  27.795  1.00  0.00     0.074 A 
ATOM     39  C   UNL A   1      45.048  25.170  26.924  1.00  0.00     0.049 A 
ATOM     40  N   UNL A   1      43.098  27.161  28.058  1.00  0.00    -0.248 NA
ATOM     41  C   UNL A   1      41.469  25.491  28.077  1.00  0.00     0.031 C 
ATOM     42  C   UNL A   1      46.015  24.267  26.297  1.00  0.00     0.029 A 
ATOM     43  N   UNL A   1      45.738  26.348  27.065  1.00  0.00    -0.354 N 
ATOM     44  C   UNL A   1      41.896  27.698  28.502  1.00  0.00     0.074 A 
ATOM     45  C   UNL A   1      40.913  26.637  28.444  1.00  0.00     0.031 C 
ATOM     46  C   UNL A   1      47.168  24.925  26.099  1.00  0.00     0.029 A 
ATOM     47  C   UNL A   1      47.017  26.302  26.559  1.00  0.00     0.049 A 
ATOM     48  H   UNL A   1      45.355  27.150  27.488  1.00  0.00     0.167 HD
ATOM     49  C   UNL A   1      41.639  28.950  28.951  1.00  0.00     0.034 A 
ATOM     50  C   UNL A   1      47.958  27.261  26.467  1.00  0.00     0.034 A 
ATOM     51  C   UNL A   1      42.629  29.988  29.052  1.00  0.00     0.049 A 
ATOM     52  C   UNL A   1      47.665  28.628  27.024  1.00  0.00     0.074 A 
ATOM     53  C   UNL A   1      42.487  31.267  29.563  1.00  0.00     0.029 A 
ATOM     54  N   UNL A   1      43.946  29.869  28.636  1.00  0.00    -0.354 N 
ATOM     55  N   UNL A   1      46.565  29.072  27.581  1.00  0.00    -0.248 NA
ATOM     56  C   UNL A   1      48.754  29.614  26.976  1.00  0.00     0.031 C 
ATOM     57  C   UNL A   1      43.717  31.923  29.448  1.00  0.00     0.029 A 
ATOM     58  C   UNL A   1      44.629  31.047  28.880  1.00  0.00     0.049 A 
ATOM     59  H   UNL A   1      44.338  29.064  28.227  1.00  0.00     0.167 HD
ATOM     60  C   UNL A   1      46.838  30.375  27.979  1.00  0.00     0.074 A 
ATOM     61  C   UNL A   1      48.215  30.641  27.620  1.00  0.00     0.031 C 
ATOM     62  C   UNL A   1      46.016  31.278  28.570  1.00  0.00     0.034 A 
BRANCH  49  63
ATOM     63  C   UNL A   1      40.243  29.246  29.435  1.00  0.00     0.023 A 
ATOM     64  C   UNL A   1      39.278  29.704  28.515  1.00  0.00     0.012 A 
ATOM     65  C   UNL A   1      39.866  29.017  30.773  1.00  0.00     0.148 A 
ATOM     66  C   UNL A   1      37.970  29.963  28.923  1.00  0.00     0.002 A 
ATOM     67  C   UNL A   1      38.549  29.238  31.164  1.00  0.00     0.091 A 
ATOM     68  F   UNL A   1      40.801  28.600  31.640  1.00  0.00    -0.205 F 
ATOM     69  C   UNL A   1      37.604  29.720  30.243  1.00  0.00     0.022 A 
BRANCH  67  70
ATOM     70  S   UNL A   1      37.959  28.886  32.823  1.00  0.00     0.127 S 
ATOM     71  O   UNL A   1      36.584  29.379  32.758  1.00  0.00    -0.237 OA
ATOM     72  O   UNL A   1      38.082  27.429  32.893  1.00  0.00    -0.237 OA
ATOM     73  O   UNL A   1      38.842  29.611  33.726  1.00  0.00    -0.744 OA
ENDBRANCH  67  70
ENDBRANCH  49  63
BRANCH  50  74
ATOM     74  C   UNL A   1      49.289  26.938  25.881  1.00  0.00     0.023 A 
ATOM     75  C   UNL A   1      50.190  26.136  26.610  1.00  0.00     0.012 A 
ATOM     76  C   UNL A   1      49.653  27.383  24.595  1.00  0.00     0.148 A 
ATOM     77  C   UNL A   1      51.439  25.810  26.082  1.00  0.00     0.002 A 
ATOM     78  C   UNL A   1      50.876  27.007  24.052  1.00  0.00     0.091 A 
ATOM     79  F   UNL A   1      48.788  28.156  23.922  1.00  0.00    -0.205 F 
ATOM     80  C   UNL A   1      51.778  26.234  24.800  1.00  0.00     0.022 A 
BRANCH  78  81
ATOM     81  S   UNL A   1      51.326  27.393  22.356  1.00  0.00     0.127 S 
ATOM     82  O   UNL A   1      50.493  26.457  21.605  1.00  0.00    -0.237 OA
ATOM     83  O   UNL A   1      50.929  28.797  22.245  1.00  0.00    -0.237 OA
ATOM     84  O   UNL A   1      52.764  27.173  22.277  1.00  0.00    -0.744 OA
ENDBRANCH  78  81
ENDBRANCH  50  74
BRANCH  62  85
ATOM     85  C   UNL A   1      46.588  32.632  28.897  1.00  0.00     0.023 A 
ATOM     86  C   UNL A   1      47.190  32.850  30.153  1.00  0.00     0.012 A 
ATOM     87  C   UNL A   1      46.597  33.662  27.936  1.00  0.00     0.148 A 
ATOM     88  C   UNL A   1      47.767  34.081  30.457  1.00  0.00     0.002 A 
ATOM     89  C   UNL A   1      47.215  34.871  28.230  1.00  0.00     0.091 A 
ATOM     90  F   UNL A   1      46.001  33.440  26.756  1.00  0.00    -0.205 F 
ATOM     91  C   UNL A   1      47.790  35.086  29.493  1.00  0.00     0.022 A 
BRANCH  89  92
ATOM     92  S   UNL A   1      47.372  36.188  27.018  1.00  0.00     0.127 S 
ATOM     93  O   UNL A   1      47.908  35.467  25.863  1.00  0.00    -0.237 OA
ATOM     94  O   UNL A   1      45.989  36.640  26.866  1.00  0.00    -0.237 OA
ATOM     95  O   UNL A   1      48.266  37.172  27.612  1.00  0.00    -0.744 OA
ENDBRANCH  89  92
ENDBRANCH  62  85
ENDBRANCH  36  37
ENDBRANCH  28  31
ENDBRANCH  26  27
ENDBRANCH  25  26
ENDBRANCH   1  25
TORSDOF 18
ENDMDL
MODEL 3
REMARK VINA RESULT:     -11.2      3.797      8.859
REMARK SMILES C[C@H](CNS(=O)(=O)c1ccc(C(=O)NCCCNC(=O)c2ccc(-c3c4nc(c(-c5cccc(S(=O)(=O)[O-])c5F)c5ccc([nH]5)c(-c5cccc(S(=O)(=O)[O-])c5F)c5nc(c(-c6cccc(S(=O)(=O)[O-])c6F)c6ccc3[nH]6)C=C5)C=C4)cc2)o1)c1ccccc1
REMARK SMILES IDX 15 1 14 2 12 3 13 4 11 6 8 7 9 8 84 9 10 10 5 11 6 12 7 13
REMARK SMILES IDX 4 14 3 16 2 17 1 18 85 19 86 20 90 21 87 22 89 23 88 24
REMARK SMILES IDX 16 25 17 26 18 27 19 28 20 30 21 31 22 32 83 33 23 34 82 35
REMARK SMILES IDX 24 36 25 37 26 38 76 39 27 40 81 41 75 42 77 43 28 44 80 45
REMARK SMILES IDX 74 46 73 47 29 49 61 50 41 51 60 52 42 53 45 54 59 55 78 56
REMARK SMILES IDX 43 57 44 58 58 60 79 61 46 62 30 63 31 64 39 65 32 66 34 67
REMARK SMILES IDX 40 68 33 69 35 70 36 71 37 72 38 73 62 74 63 75 71 76 64 77
REMARK SMILES IDX 66 78 72 79 65 80 67 81 68 82 69 83 70 84 47 85 48 86 56 87
REMARK SMILES IDX 49 88 51 89 57 90 50 91 52 92 53 93 54 94 55 95
REMARK H PARENT 14 5 4 15 18 29 77 48 45 59
REMARK Flexibility Score: inf
ROOT
ATOM      1  C   UNL A   1      31.645  30.743  26.076  1.00  0.00     0.118 C 
ENDROOT
BRANCH   1   2
ATOM      2  N   UNL A   1      32.789  30.014  26.587  1.00  0.00    -0.349 N 
ATOM      3  C   UNL A   1      33.216  28.732  26.341  1.00  0.00     0.287 C 
ATOM      4  O   UNL A   1      34.320  28.431  26.802  1.00  0.00    -0.266 OA
ATOM      5  H   UNL A   1      33.353  30.522  27.214  1.00  0.00     0.163 HD
BRANCH   3   6
ATOM      6  C   UNL A   1      32.417  27.806  25.560  1.00  0.00     0.193 A 
ATOM      7  C   UNL A   1      31.988  26.691  23.667  1.00  0.00     0.234 A 
ATOM      8  C   UNL A   1      31.029  26.320  24.597  1.00  0.00     0.065 A 
ATOM      9  O   UNL A   1      32.822  27.602  24.268  1.00  0.00    -0.438 OA
ATOM     10  C   UNL A   1      31.316  27.006  25.803  1.00  0.00     0.058 A 
BRANCH   7  11
ATOM     11  S   UNL A   1      32.263  26.164  21.985  1.00  0.00     0.274 S 
ATOM     12  O   UNL A   1      33.678  26.339  21.738  1.00  0.00    -0.204 OA
ATOM     13  O   UNL A   1      31.265  26.852  21.196  1.00  0.00    -0.204 OA
BRANCH  11  14
ATOM     14  N   UNL A   1      31.900  24.519  21.895  1.00  0.00    -0.208 NA
ATOM     15  H   UNL A   1      31.094  24.346  22.494  1.00  0.00     0.141 HD
BRANCH  14  16
ATOM     16  C   UNL A   1      32.973  23.577  22.300  1.00  0.00     0.107 C 
BRANCH  16  17
ATOM     17  C   UNL A   1      32.444  22.510  23.290  1.00  0.00     0.031 C 
ATOM     18  C   UNL A   1      32.149  21.182  22.582  1.00  0.00     0.014 C 
BRANCH  17  19
ATOM     19  C   UNL A   1      33.358  22.394  24.506  1.00  0.00    -0.044 A 
ATOM     20  C   UNL A   1      34.290  21.346  24.562  1.00  0.00     0.004 A 
ATOM     21  C   UNL A   1      33.230  23.236  25.621  1.00  0.00     0.004 A 
ATOM     22  C   UNL A   1      35.057  21.134  25.709  1.00  0.00     0.000 A 
ATOM     23  C   UNL A   1      33.991  23.017  26.771  1.00  0.00     0.000 A 
ATOM     24  C   UNL A   1      34.901  21.965  26.816  1.00  0.00     0.000 A 
ENDBRANCH  17  19
ENDBRANCH  16  17
ENDBRANCH  14  16
ENDBRANCH  11  14
ENDBRANCH   7  11
ENDBRANCH   3   6
ENDBRANCH   1   2
BRANCH   1  25
ATOM     25  C   UNL A   1      31.464  32.085  26.778  1.00  0.00     0.042 C 
BRANCH  25  26
ATOM     26  C   UNL A   1      32.785  32.778  27.114  1.00  0.00     0.118 C 
BRANCH  26  27
ATOM     27  N   UNL A   1      32.580  34.129  27.620  1.00  0.00    -0.352 N 
ATOM     28  C   UNL A   1      33.132  34.767  28.703  1.00  0.00     0.251 C 
ATOM     29  H   UNL A   1      31.944  34.673  27.100  1.00  0.00     0.163 HD
ATOM     30  O   UNL A   1      32.644  35.829  29.082  1.00  0.00    -0.269 OA
BRANCH  28  31
ATOM     31  C   UNL A   1      34.296  34.193  29.412  1.00  0.00     0.039 A 
ATOM     32  C   UNL A   1      34.071  33.339  30.497  1.00  0.00     0.014 A 
ATOM     33  C   UNL A   1      35.603  34.537  29.056  1.00  0.00     0.014 A 
ATOM     34  C   UNL A   1      35.154  32.791  31.190  1.00  0.00     0.010 A 
ATOM     35  C   UNL A   1      36.681  33.938  29.704  1.00  0.00     0.010 A 
ATOM     36  C   UNL A   1      36.468  33.066  30.782  1.00  0.00    -0.014 A 
BRANCH  36  37
ATOM     37  C   UNL A   1      37.634  32.446  31.463  1.00  0.00     0.031 A 
ATOM     38  C   UNL A   1      38.359  31.290  30.830  1.00  0.00     0.074 A 
ATOM     39  C   UNL A   1      37.981  32.865  32.697  1.00  0.00     0.049 A 
ATOM     40  N   UNL A   1      39.340  30.568  31.309  1.00  0.00    -0.248 NA
ATOM     41  C   UNL A   1      37.907  30.871  29.493  1.00  0.00     0.031 C 
ATOM     42  C   UNL A   1      37.303  33.922  33.450  1.00  0.00     0.029 A 
ATOM     43  N   UNL A   1      38.964  32.428  33.548  1.00  0.00    -0.354 N 
ATOM     44  C   UNL A   1      39.599  29.593  30.354  1.00  0.00     0.074 A 
ATOM     45  C   UNL A   1      38.650  29.795  29.278  1.00  0.00     0.031 C 
ATOM     46  C   UNL A   1      37.883  34.044  34.655  1.00  0.00     0.029 A 
ATOM     47  C   UNL A   1      38.956  33.062  34.770  1.00  0.00     0.049 A 
ATOM     48  H   UNL A   1      39.614  31.729  33.308  1.00  0.00     0.167 HD
ATOM     49  C   UNL A   1      40.559  28.637  30.352  1.00  0.00     0.034 A 
ATOM     50  C   UNL A   1      39.719  32.866  35.863  1.00  0.00     0.034 A 
ATOM     51  C   UNL A   1      41.529  28.470  31.401  1.00  0.00     0.049 A 
ATOM     52  C   UNL A   1      40.814  31.835  35.815  1.00  0.00     0.074 A 
ATOM     53  C   UNL A   1      42.589  27.581  31.459  1.00  0.00     0.029 A 
ATOM     54  N   UNL A   1      41.561  29.207  32.574  1.00  0.00    -0.354 N 
ATOM     55  N   UNL A   1      41.140  31.025  34.838  1.00  0.00    -0.248 NA
ATOM     56  C   UNL A   1      41.673  31.720  37.002  1.00  0.00     0.031 C 
ATOM     57  C   UNL A   1      43.256  27.776  32.672  1.00  0.00     0.029 A 
ATOM     58  C   UNL A   1      42.622  28.797  33.363  1.00  0.00     0.049 A 
ATOM     59  H   UNL A   1      40.923  29.918  32.812  1.00  0.00     0.167 HD
ATOM     60  C   UNL A   1      42.258  30.327  35.278  1.00  0.00     0.074 A 
ATOM     61  C   UNL A   1      42.568  30.827  36.602  1.00  0.00     0.031 C 
ATOM     62  C   UNL A   1      42.954  29.345  34.652  1.00  0.00     0.034 A 
BRANCH  49  63
ATOM     63  C   UNL A   1      40.652  27.742  29.144  1.00  0.00     0.023 A 
ATOM     64  C   UNL A   1      39.789  26.632  29.042  1.00  0.00     0.012 A 
ATOM     65  C   UNL A   1      41.540  28.024  28.088  1.00  0.00     0.148 A 
ATOM     66  C   UNL A   1      39.830  25.797  27.927  1.00  0.00     0.002 A 
ATOM     67  C   UNL A   1      41.547  27.210  26.959  1.00  0.00     0.091 A 
ATOM     68  F   UNL A   1      42.368  29.072  28.209  1.00  0.00    -0.205 F 
ATOM     69  C   UNL A   1      40.701  26.092  26.882  1.00  0.00     0.022 A 
BRANCH  67  70
ATOM     70  S   UNL A   1      42.578  27.548  25.528  1.00  0.00     0.127 S 
ATOM     71  O   UNL A   1      41.897  28.700  24.938  1.00  0.00    -0.237 OA
ATOM     72  O   UNL A   1      43.871  27.854  26.143  1.00  0.00    -0.237 OA
ATOM     73  O   UNL A   1      42.562  26.333  24.726  1.00  0.00    -0.744 OA
ENDBRANCH  67  70
ENDBRANCH  49  63
BRANCH  50  74
ATOM     74  C   UNL A   1      39.511  33.713  37.071  1.00  0.00     0.023 A 
ATOM     75  C   UNL A   1      39.980  35.042  37.073  1.00  0.00     0.012 A 
ATOM     76  C   UNL A   1      38.821  33.228  38.198  1.00  0.00     0.148 A 
ATOM     77  C   UNL A   1      39.791  35.861  38.186  1.00  0.00     0.002 A 
ATOM     78  C   UNL A   1      38.587  34.066  39.282  1.00  0.00     0.091 A 
ATOM     79  F   UNL A   1      38.395  31.956  38.184  1.00  0.00    -0.205 F 
ATOM     80  C   UNL A   1      39.085  35.379  39.285  1.00  0.00     0.022 A 
BRANCH  78  81
ATOM     81  S   UNL A   1      37.566  33.567  40.673  1.00  0.00     0.127 S 
ATOM     82  O   UNL A   1      37.424  34.822  41.406  1.00  0.00    -0.237 OA
ATOM     83  O   UNL A   1      36.349  33.100  40.008  1.00  0.00    -0.237 OA
ATOM     84  O   UNL A   1      38.316  32.516  41.347  1.00  0.00    -0.744 OA
ENDBRANCH  78  81
ENDBRANCH  50  74
BRANCH  62  85
ATOM     85  C   UNL A   1      44.141  28.763  35.373  1.00  0.00     0.023 A 
ATOM     86  C   UNL A   1      45.419  29.320  35.175  1.00  0.00     0.012 A 
ATOM     87  C   UNL A   1      43.977  27.717  36.303  1.00  0.00     0.148 A 
ATOM     88  C   UNL A   1      46.522  28.827  35.868  1.00  0.00     0.002 A 
ATOM     89  C   UNL A   1      45.074  27.261  37.025  1.00  0.00     0.091 A 
ATOM     90  F   UNL A   1      42.756  27.187  36.461  1.00  0.00    -0.205 F 
ATOM     91  C   UNL A   1      46.348  27.807  36.801  1.00  0.00     0.022 A 
BRANCH  89  92
ATOM     92  S   UNL A   1      44.925  26.014  38.310  1.00  0.00     0.127 S 
ATOM     93  O   UNL A   1      46.300  25.930  38.803  1.00  0.00    -0.237 OA
ATOM     94  O   UNL A   1      43.982  26.636  39.240  1.00  0.00    -0.237 OA
ATOM     95  O   UNL A   1      44.421  24.819  37.650  1.00  0.00    -0.744 OA
ENDBRANCH  89  92
ENDBRANCH  62  85
ENDBRANCH  36  37
ENDBRANCH  28  31
ENDBRANCH  26  27
ENDBRANCH  25  26
ENDBRANCH   1  25
TORSDOF 18
ENDMDL
