MODEL 1
REMARK VINA RESULT:     -13.1      0.000      0.000
REMARK SMILES Cc1cccc(O[C@H](C)C(=O)N2CCC[C@@H](C(=O)NCCCNC(=O)c3ccc(-c4c5nc(c(-c6cccc(S(=O)(=O)[O-])c6F)c6ccc([nH]6)c(-c6cccc(S(=O)(=O)[O-])c6F)c6nc(c(-c7cccc(S(=O)(=O)[O-])c7F)c7ccc4[nH]7)C=C6)C=C5)cc3)C2)c1
REMARK SMILES IDX 20 1 19 2 17 3 18 4 16 6 12 7 13 8 89 9 14 10 15 11 10 12
REMARK SMILES IDX 11 13 8 14 9 15 7 16 6 17 1 18 2 19 3 20 90 21 4 22 5 23
REMARK SMILES IDX 21 24 22 25 23 26 24 27 25 29 26 30 27 31 88 32 28 33 87 34
REMARK SMILES IDX 29 35 30 36 31 37 81 38 32 39 86 40 80 41 82 42 33 43 85 44
REMARK SMILES IDX 79 45 78 46 34 48 66 49 46 50 65 51 47 52 50 53 64 54 83 55
REMARK SMILES IDX 48 56 49 57 63 59 84 60 51 61 35 62 36 63 44 64 37 65 39 66
REMARK SMILES IDX 45 67 38 68 40 69 41 70 42 71 43 72 67 73 68 74 76 75 69 76
REMARK SMILES IDX 71 77 77 78 70 79 72 80 73 81 74 82 75 83 52 84 53 85 61 86
REMARK SMILES IDX 54 87 56 88 62 89 55 90 57 91 58 92 59 93 60 94
REMARK H PARENT 19 5 23 28 82 47 50 58
REMARK Flexibility Score: inf
ROOT
ATOM      1  C   UNL A   1      32.051  30.331  26.072  1.00  0.00     0.117 C 
ENDROOT
BRANCH   1   2
ATOM      2  N   UNL A   1      32.840  29.979  24.908  1.00  0.00    -0.356 N 
ATOM      3  C   UNL A   1      32.843  28.872  24.120  1.00  0.00     0.224 C 
ATOM      4  O   UNL A   1      33.601  28.880  23.145  1.00  0.00    -0.275 OA
ATOM      5  H   UNL A   1      33.492  30.666  24.639  1.00  0.00     0.163 HD
BRANCH   3   6
ATOM      6  C   UNL A   1      31.935  27.669  24.348  1.00  0.00     0.098 C 
ATOM      7  N   UNL A   1      31.253  25.777  25.773  1.00  0.00    -0.339 N 
ATOM      8  C   UNL A   1      29.840  26.015  25.489  1.00  0.00     0.119 C 
ATOM      9  C   UNL A   1      32.101  26.972  25.707  1.00  0.00     0.133 C 
ATOM     10  C   UNL A   1      29.632  26.682  24.136  1.00  0.00     0.022 C 
ATOM     11  C   UNL A   1      30.466  27.958  24.016  1.00  0.00     0.017 C 
BRANCH   7  12
ATOM     12  C   UNL A   1      31.635  24.481  26.082  1.00  0.00     0.263 C 
ATOM     13  O   UNL A   1      31.549  24.072  27.250  1.00  0.00    -0.271 OA
BRANCH  12  14
ATOM     14  C   UNL A   1      32.299  23.562  25.035  1.00  0.00     0.259 C 
ATOM     15  C   UNL A   1      31.703  23.558  23.634  1.00  0.00     0.064 C 
BRANCH  14  16
ATOM     16  O   UNL A   1      33.707  23.476  25.274  1.00  0.00    -0.481 OA
BRANCH  16  17
ATOM     17  C   UNL A   1      34.490  22.390  25.090  1.00  0.00     0.120 A 
ATOM     18  C   UNL A   1      38.243  21.739  25.550  1.00  0.00     0.044 C 
ATOM     19  C   UNL A   1      36.781  21.526  25.286  1.00  0.00    -0.047 A 
ATOM     20  C   UNL A   1      36.306  20.249  25.003  1.00  0.00     0.003 A 
ATOM     21  C   UNL A   1      35.863  22.590  25.325  1.00  0.00     0.049 A 
ATOM     22  C   UNL A   1      34.940  20.049  24.832  1.00  0.00     0.004 A 
ATOM     23  C   UNL A   1      34.042  21.108  24.848  1.00  0.00     0.046 A 
ENDBRANCH  16  17
ENDBRANCH  14  16
ENDBRANCH  12  14
ENDBRANCH   7  12
ENDBRANCH   3   6
ENDBRANCH   1   2
BRANCH   1  24
ATOM     24  C   UNL A   1      32.899  30.830  27.237  1.00  0.00     0.042 C 
BRANCH  24  25
ATOM     25  C   UNL A   1      34.378  30.460  27.122  1.00  0.00     0.118 C 
BRANCH  25  26
ATOM     26  N   UNL A   1      35.208  31.436  27.839  1.00  0.00    -0.352 N 
ATOM     27  C   UNL A   1      36.434  31.299  28.461  1.00  0.00     0.251 C 
ATOM     28  H   UNL A   1      34.827  32.342  27.884  1.00  0.00     0.163 HD
ATOM     29  O   UNL A   1      36.963  32.256  29.017  1.00  0.00    -0.269 OA
BRANCH  27  30
ATOM     30  C   UNL A   1      37.058  29.968  28.469  1.00  0.00     0.039 A 
ATOM     31  C   UNL A   1      37.203  29.249  29.648  1.00  0.00     0.014 A 
ATOM     32  C   UNL A   1      37.723  29.586  27.314  1.00  0.00     0.014 A 
ATOM     33  C   UNL A   1      38.229  28.308  29.729  1.00  0.00     0.010 A 
ATOM     34  C   UNL A   1      38.748  28.680  27.383  1.00  0.00     0.010 A 
ATOM     35  C   UNL A   1      39.058  28.122  28.621  1.00  0.00    -0.014 A 
BRANCH  35  36
ATOM     36  C   UNL A   1      40.352  27.469  28.664  1.00  0.00     0.031 A 
ATOM     37  C   UNL A   1      40.449  26.019  28.443  1.00  0.00     0.074 A 
ATOM     38  C   UNL A   1      41.457  28.246  28.752  1.00  0.00     0.049 A 
ATOM     39  N   UNL A   1      41.411  25.286  28.884  1.00  0.00    -0.248 NA
ATOM     40  C   UNL A   1      39.443  25.280  27.692  1.00  0.00     0.031 C 
ATOM     41  C   UNL A   1      42.840  27.840  28.536  1.00  0.00     0.029 A 
ATOM     42  N   UNL A   1      41.569  29.560  29.233  1.00  0.00    -0.354 N 
ATOM     43  C   UNL A   1      41.307  24.058  28.263  1.00  0.00     0.074 A 
ATOM     44  C   UNL A   1      40.026  24.081  27.595  1.00  0.00     0.031 C 
ATOM     45  C   UNL A   1      43.645  28.724  29.149  1.00  0.00     0.029 A 
ATOM     46  C   UNL A   1      42.787  29.603  29.929  1.00  0.00     0.049 A 
ATOM     47  H   UNL A   1      40.927  30.297  29.108  1.00  0.00     0.167 HD
ATOM     48  C   UNL A   1      42.389  23.228  28.250  1.00  0.00     0.034 A 
ATOM     49  C   UNL A   1      42.879  29.795  31.280  1.00  0.00     0.034 A 
ATOM     50  C   UNL A   1      43.524  23.848  28.948  1.00  0.00     0.049 A 
ATOM     51  C   UNL A   1      43.592  28.662  32.005  1.00  0.00     0.074 A 
ATOM     52  C   UNL A   1      44.610  24.580  28.493  1.00  0.00     0.029 A 
ATOM     53  N   UNL A   1      43.480  24.028  30.325  1.00  0.00    -0.354 N 
ATOM     54  N   UNL A   1      43.907  27.524  31.452  1.00  0.00    -0.248 NA
ATOM     55  C   UNL A   1      43.974  28.708  33.416  1.00  0.00     0.031 C 
ATOM     56  C   UNL A   1      45.166  25.274  29.599  1.00  0.00     0.029 A 
ATOM     57  C   UNL A   1      44.445  24.939  30.731  1.00  0.00     0.049 A 
ATOM     58  H   UNL A   1      42.850  23.572  30.930  1.00  0.00     0.167 HD
ATOM     59  C   UNL A   1      44.372  26.653  32.403  1.00  0.00     0.074 A 
ATOM     60  C   UNL A   1      44.481  27.474  33.596  1.00  0.00     0.031 C 
ATOM     61  C   UNL A   1      44.555  25.321  32.136  1.00  0.00     0.034 A 
BRANCH  48  62
ATOM     62  C   UNL A   1      42.549  22.029  27.330  1.00  0.00     0.023 A 
ATOM     63  C   UNL A   1      41.758  20.889  27.605  1.00  0.00     0.012 A 
ATOM     64  C   UNL A   1      43.450  21.907  26.248  1.00  0.00     0.148 A 
ATOM     65  C   UNL A   1      41.930  19.671  26.939  1.00  0.00     0.002 A 
ATOM     66  C   UNL A   1      43.676  20.671  25.630  1.00  0.00     0.091 A 
ATOM     67  F   UNL A   1      44.034  23.001  25.747  1.00  0.00    -0.205 F 
ATOM     68  C   UNL A   1      42.919  19.549  25.979  1.00  0.00     0.022 A 
BRANCH  66  69
ATOM     69  S   UNL A   1      45.002  20.413  24.436  1.00  0.00     0.127 S 
ATOM     70  O   UNL A   1      46.179  20.872  25.178  1.00  0.00    -0.237 OA
ATOM     71  O   UNL A   1      44.952  18.970  24.214  1.00  0.00    -0.237 OA
ATOM     72  O   UNL A   1      44.671  21.242  23.284  1.00  0.00    -0.744 OA
ENDBRANCH  66  69
ENDBRANCH  48  62
BRANCH  49  73
ATOM     73  C   UNL A   1      41.770  30.612  31.859  1.00  0.00     0.023 A 
ATOM     74  C   UNL A   1      41.643  31.943  31.394  1.00  0.00     0.012 A 
ATOM     75  C   UNL A   1      40.692  30.031  32.547  1.00  0.00     0.148 A 
ATOM     76  C   UNL A   1      40.426  32.621  31.481  1.00  0.00     0.002 A 
ATOM     77  C   UNL A   1      39.481  30.719  32.637  1.00  0.00     0.091 A 
ATOM     78  F   UNL A   1      40.837  28.800  33.056  1.00  0.00    -0.205 F 
ATOM     79  C   UNL A   1      39.332  31.991  32.062  1.00  0.00     0.022 A 
BRANCH  77  80
ATOM     80  S   UNL A   1      38.036  29.978  33.409  1.00  0.00     0.127 S 
ATOM     81  O   UNL A   1      36.949  30.674  32.727  1.00  0.00    -0.237 OA
ATOM     82  O   UNL A   1      38.175  28.566  33.052  1.00  0.00    -0.237 OA
ATOM     83  O   UNL A   1      38.197  30.252  34.829  1.00  0.00    -0.744 OA
ENDBRANCH  77  80
ENDBRANCH  49  73
BRANCH  61  84
ATOM     84  C   UNL A   1      44.835  24.239  33.166  1.00  0.00     0.023 A 
ATOM     85  C   UNL A   1      43.909  23.224  33.469  1.00  0.00     0.012 A 
ATOM     86  C   UNL A   1      46.120  24.120  33.760  1.00  0.00     0.148 A 
ATOM     87  C   UNL A   1      44.212  22.181  34.355  1.00  0.00     0.002 A 
ATOM     88  C   UNL A   1      46.456  23.017  34.542  1.00  0.00     0.091 A 
ATOM     89  F   UNL A   1      47.032  25.089  33.589  1.00  0.00    -0.205 F 
ATOM     90  C   UNL A   1      45.495  22.062  34.870  1.00  0.00     0.022 A 
BRANCH  88  91
ATOM     91  S   UNL A   1      48.167  22.703  35.003  1.00  0.00     0.127 S 
ATOM     92  O   UNL A   1      48.197  23.151  36.392  1.00  0.00    -0.237 OA
ATOM     93  O   UNL A   1      48.282  21.253  34.829  1.00  0.00    -0.237 OA
ATOM     94  O   UNL A   1      48.956  23.479  34.054  1.00  0.00    -0.744 OA
ENDBRANCH  88  91
ENDBRANCH  61  84
ENDBRANCH  35  36
ENDBRANCH  27  30
ENDBRANCH  25  26
ENDBRANCH  24  25
ENDBRANCH   1  24
TORSDOF 17
ENDMDL
MODEL 2
REMARK VINA RESULT:     -12.8      4.213     10.624
REMARK SMILES Cc1cccc(O[C@H](C)C(=O)N2CCC[C@@H](C(=O)NCCCNC(=O)c3ccc(-c4c5nc(c(-c6cccc(S(=O)(=O)[O-])c6F)c6ccc([nH]6)c(-c6cccc(S(=O)(=O)[O-])c6F)c6nc(c(-c7cccc(S(=O)(=O)[O-])c7F)c7ccc4[nH]7)C=C6)C=C5)cc3)C2)c1
REMARK SMILES IDX 20 1 19 2 17 3 18 4 16 6 12 7 13 8 89 9 14 10 15 11 10 12
REMARK SMILES IDX 11 13 8 14 9 15 7 16 6 17 1 18 2 19 3 20 90 21 4 22 5 23
REMARK SMILES IDX 21 24 22 25 23 26 24 27 25 29 26 30 27 31 88 32 28 33 87 34
REMARK SMILES IDX 29 35 30 36 31 37 81 38 32 39 86 40 80 41 82 42 33 43 85 44
REMARK SMILES IDX 79 45 78 46 34 48 66 49 46 50 65 51 47 52 50 53 64 54 83 55
REMARK SMILES IDX 48 56 49 57 63 59 84 60 51 61 35 62 36 63 44 64 37 65 39 66
REMARK SMILES IDX 45 67 38 68 40 69 41 70 42 71 43 72 67 73 68 74 76 75 69 76
REMARK SMILES IDX 71 77 77 78 70 79 72 80 73 81 74 82 75 83 52 84 53 85 61 86
REMARK SMILES IDX 54 87 56 88 62 89 55 90 57 91 58 92 59 93 60 94
REMARK H PARENT 19 5 23 28 82 47 50 58
REMARK Flexibility Score: inf
ROOT
ATOM      1  C   UNL A   1      36.846  21.361  25.275  1.00  0.00     0.117 C 
ENDROOT
BRANCH   1   2
ATOM      2  N   UNL A   1      35.946  21.644  26.375  1.00  0.00    -0.356 N 
ATOM      3  C   UNL A   1      34.687  22.153  26.404  1.00  0.00     0.224 C 
ATOM      4  O   UNL A   1      34.138  22.228  27.509  1.00  0.00    -0.275 OA
ATOM      5  H   UNL A   1      36.314  21.428  27.263  1.00  0.00     0.163 HD
BRANCH   3   6
ATOM      6  C   UNL A   1      33.917  22.576  25.159  1.00  0.00     0.098 C 
ATOM      7  N   UNL A   1      33.730  24.045  23.189  1.00  0.00    -0.339 N 
ATOM      8  C   UNL A   1      33.260  22.942  22.356  1.00  0.00     0.119 C 
ATOM      9  C   UNL A   1      34.604  23.647  24.298  1.00  0.00     0.133 C 
ATOM     10  C   UNL A   1      32.550  21.871  23.171  1.00  0.00     0.022 C 
ATOM     11  C   UNL A   1      33.424  21.387  24.327  1.00  0.00     0.017 C 
BRANCH   7  12
ATOM     12  C   UNL A   1      33.325  25.326  22.846  1.00  0.00     0.263 C 
ATOM     13  O   UNL A   1      33.941  25.958  21.975  1.00  0.00    -0.271 OA
BRANCH  12  14
ATOM     14  C   UNL A   1      32.201  26.051  23.615  1.00  0.00     0.259 C 
ATOM     15  C   UNL A   1      30.765  25.716  23.233  1.00  0.00     0.064 C 
BRANCH  14  16
ATOM     16  O   UNL A   1      32.603  26.292  24.967  1.00  0.00    -0.481 OA
BRANCH  16  17
ATOM     17  C   UNL A   1      32.838  27.496  25.535  1.00  0.00     0.120 A 
ATOM     18  C   UNL A   1      31.013  30.868  25.418  1.00  0.00     0.044 C 
ATOM     19  C   UNL A   1      31.985  29.785  25.784  1.00  0.00    -0.047 A 
ATOM     20  C   UNL A   1      32.960  30.026  26.748  1.00  0.00     0.003 A 
ATOM     21  C   UNL A   1      31.935  28.516  25.183  1.00  0.00     0.049 A 
ATOM     22  C   UNL A   1      33.811  28.995  27.133  1.00  0.00     0.004 A 
ATOM     23  C   UNL A   1      33.771  27.751  26.519  1.00  0.00     0.046 A 
ENDBRANCH  16  17
ENDBRANCH  14  16
ENDBRANCH  12  14
ENDBRANCH   7  12
ENDBRANCH   3   6
ENDBRANCH   1   2
BRANCH   1  24
ATOM     24  C   UNL A   1      38.316  21.514  25.652  1.00  0.00     0.042 C 
BRANCH  24  25
ATOM     25  C   UNL A   1      38.700  22.939  26.052  1.00  0.00     0.118 C 
BRANCH  25  26
ATOM     26  N   UNL A   1      39.955  22.936  26.814  1.00  0.00    -0.352 N 
ATOM     27  C   UNL A   1      40.574  23.933  27.543  1.00  0.00     0.251 C 
ATOM     28  H   UNL A   1      40.436  22.078  26.806  1.00  0.00     0.163 HD
ATOM     29  O   UNL A   1      41.641  23.720  28.111  1.00  0.00    -0.269 OA
BRANCH  27  30
ATOM     30  C   UNL A   1      39.937  25.256  27.580  1.00  0.00     0.039 A 
ATOM     31  C   UNL A   1      40.376  26.289  26.761  1.00  0.00     0.014 A 
ATOM     32  C   UNL A   1      39.073  25.503  28.636  1.00  0.00     0.014 A 
ATOM     33  C   UNL A   1      40.159  27.602  27.175  1.00  0.00     0.010 A 
ATOM     34  C   UNL A   1      38.869  26.786  29.067  1.00  0.00     0.010 A 
ATOM     35  C   UNL A   1      39.502  27.824  28.387  1.00  0.00    -0.014 A 
BRANCH  35  36
ATOM     36  C   UNL A   1      39.520  29.079  29.113  1.00  0.00     0.031 A 
ATOM     37  C   UNL A   1      38.544  30.128  28.787  1.00  0.00     0.074 A 
ATOM     38  C   UNL A   1      40.342  29.186  30.184  1.00  0.00     0.049 A 
ATOM     39  N   UNL A   1      38.730  31.381  29.017  1.00  0.00    -0.248 NA
ATOM     40  C   UNL A   1      37.261  29.829  28.165  1.00  0.00     0.031 C 
ATOM     41  C   UNL A   1      40.328  30.224  31.206  1.00  0.00     0.029 A 
ATOM     42  N   UNL A   1      41.498  28.447  30.479  1.00  0.00    -0.354 N 
ATOM     43  C   UNL A   1      37.517  32.015  28.835  1.00  0.00     0.074 A 
ATOM     44  C   UNL A   1      36.660  31.020  28.232  1.00  0.00     0.031 C 
ATOM     45  C   UNL A   1      41.531  30.252  31.803  1.00  0.00     0.029 A 
ATOM     46  C   UNL A   1      42.398  29.365  31.042  1.00  0.00     0.049 A 
ATOM     47  H   UNL A   1      41.647  27.485  30.323  1.00  0.00     0.167 HD
ATOM     48  C   UNL A   1      37.332  33.256  29.368  1.00  0.00     0.034 A 
ATOM     49  C   UNL A   1      43.574  29.733  30.449  1.00  0.00     0.034 A 
ATOM     50  C   UNL A   1      38.541  33.703  30.074  1.00  0.00     0.049 A 
ATOM     51  C   UNL A   1      43.679  31.230  30.192  1.00  0.00     0.074 A 
ATOM     52  C   UNL A   1      38.914  33.647  31.408  1.00  0.00     0.029 A 
ATOM     53  N   UNL A   1      39.692  34.008  29.358  1.00  0.00    -0.354 N 
ATOM     54  N   UNL A   1      42.687  32.066  30.324  1.00  0.00    -0.248 NA
ATOM     55  C   UNL A   1      44.897  31.896  29.734  1.00  0.00     0.031 C 
ATOM     56  C   UNL A   1      40.318  33.836  31.480  1.00  0.00     0.029 A 
ATOM     57  C   UNL A   1      40.796  34.041  30.197  1.00  0.00     0.049 A 
ATOM     58  H   UNL A   1      39.720  34.178  28.388  1.00  0.00     0.167 HD
ATOM     59  C   UNL A   1      43.048  33.300  29.849  1.00  0.00     0.074 A 
ATOM     60  C   UNL A   1      44.469  33.162  29.579  1.00  0.00     0.031 C 
ATOM     61  C   UNL A   1      42.128  34.298  29.656  1.00  0.00     0.034 A 
BRANCH  48  62
ATOM     62  C   UNL A   1      35.979  33.923  29.558  1.00  0.00     0.023 A 
ATOM     63  C   UNL A   1      35.324  34.406  28.402  1.00  0.00     0.012 A 
ATOM     64  C   UNL A   1      35.320  34.162  30.785  1.00  0.00     0.148 A 
ATOM     65  C   UNL A   1      34.160  35.180  28.460  1.00  0.00     0.002 A 
ATOM     66  C   UNL A   1      34.198  34.997  30.853  1.00  0.00     0.091 A 
ATOM     67  F   UNL A   1      35.718  33.517  31.887  1.00  0.00    -0.205 F 
ATOM     68  C   UNL A   1      33.619  35.513  29.690  1.00  0.00     0.022 A 
BRANCH  66  69
ATOM     69  S   UNL A   1      33.491  35.546  32.418  1.00  0.00     0.127 S 
ATOM     70  O   UNL A   1      34.680  35.971  33.162  1.00  0.00    -0.237 OA
ATOM     71  O   UNL A   1      32.613  36.637  32.005  1.00  0.00    -0.237 OA
ATOM     72  O   UNL A   1      32.826  34.380  32.988  1.00  0.00    -0.744 OA
ENDBRANCH  66  69
ENDBRANCH  48  62
BRANCH  49  73
ATOM     73  C   UNL A   1      44.181  28.676  29.584  1.00  0.00     0.023 A 
ATOM     74  C   UNL A   1      44.477  27.435  30.199  1.00  0.00     0.012 A 
ATOM     75  C   UNL A   1      44.142  28.742  28.181  1.00  0.00     0.148 A 
ATOM     76  C   UNL A   1      44.585  26.267  29.444  1.00  0.00     0.002 A 
ATOM     77  C   UNL A   1      44.259  27.569  27.433  1.00  0.00     0.091 A 
ATOM     78  F   UNL A   1      43.938  29.929  27.595  1.00  0.00    -0.205 F 
ATOM     79  C   UNL A   1      44.430  26.327  28.064  1.00  0.00     0.022 A 
BRANCH  77  80
ATOM     80  S   UNL A   1      44.106  27.581  25.642  1.00  0.00     0.127 S 
ATOM     81  O   UNL A   1      45.355  28.222  25.244  1.00  0.00    -0.237 OA
ATOM     82  O   UNL A   1      44.022  26.156  25.321  1.00  0.00    -0.237 OA
ATOM     83  O   UNL A   1      42.881  28.323  25.383  1.00  0.00    -0.744 OA
ENDBRANCH  77  80
ENDBRANCH  49  73
BRANCH  61  84
ATOM     84  C   UNL A   1      42.378  35.606  28.923  1.00  0.00     0.023 A 
ATOM     85  C   UNL A   1      41.769  35.911  27.691  1.00  0.00     0.012 A 
ATOM     86  C   UNL A   1      43.123  36.649  29.536  1.00  0.00     0.148 A 
ATOM     87  C   UNL A   1      41.937  37.155  27.068  1.00  0.00     0.002 A 
ATOM     88  C   UNL A   1      43.184  37.921  28.971  1.00  0.00     0.091 A 
ATOM     89  F   UNL A   1      43.801  36.413  30.669  1.00  0.00    -0.205 F 
ATOM     90  C   UNL A   1      42.622  38.170  27.721  1.00  0.00     0.022 A 
BRANCH  88  91
ATOM     91  S   UNL A   1      43.834  39.312  29.910  1.00  0.00     0.127 S 
ATOM     92  O   UNL A   1      45.220  39.367  29.456  1.00  0.00    -0.237 OA
ATOM     93  O   UNL A   1      42.999  40.424  29.450  1.00  0.00    -0.237 OA
ATOM     94  O   UNL A   1      43.623  38.950  31.306  1.00  0.00    -0.744 OA
ENDBRANCH  88  91
ENDBRANCH  61  84
ENDBRANCH  35  36
ENDBRANCH  27  30
ENDBRANCH  25  26
ENDBRANCH  24  25
ENDBRANCH   1  24
TORSDOF 17
ENDMDL
MODEL 3
REMARK VINA RESULT:     -12.6      4.115      9.917
REMARK SMILES Cc1cccc(O[C@H](C)C(=O)N2CCC[C@@H](C(=O)NCCCNC(=O)c3ccc(-c4c5nc(c(-c6cccc(S(=O)(=O)[O-])c6F)c6ccc([nH]6)c(-c6cccc(S(=O)(=O)[O-])c6F)c6nc(c(-c7cccc(S(=O)(=O)[O-])c7F)c7ccc4[nH]7)C=C6)C=C5)cc3)C2)c1
REMARK SMILES IDX 20 1 19 2 17 3 18 4 16 6 12 7 13 8 89 9 14 10 15 11 10 12
REMARK SMILES IDX 11 13 8 14 9 15 7 16 6 17 1 18 2 19 3 20 90 21 4 22 5 23
REMARK SMILES IDX 21 24 22 25 23 26 24 27 25 29 26 30 27 31 88 32 28 33 87 34
REMARK SMILES IDX 29 35 30 36 31 37 81 38 32 39 86 40 80 41 82 42 33 43 85 44
REMARK SMILES IDX 79 45 78 46 34 48 66 49 46 50 65 51 47 52 50 53 64 54 83 55
REMARK SMILES IDX 48 56 49 57 63 59 84 60 51 61 35 62 36 63 44 64 37 65 39 66
REMARK SMILES IDX 45 67 38 68 40 69 41 70 42 71 43 72 67 73 68 74 76 75 69 76
REMARK SMILES IDX 71 77 77 78 70 79 72 80 73 81 74 82 75 83 52 84 53 85 61 86
REMARK SMILES IDX 54 87 56 88 62 89 55 90 57 91 58 92 59 93 60 94
REMARK H PARENT 19 5 23 28 82 47 50 58
REMARK Flexibility Score: inf
ROOT
ATOM      1  C   UNL A   1      36.696  20.971  25.065  1.00  0.00     0.117 C 
ENDROOT
BRANCH   1   2
ATOM      2  N   UNL A   1      35.915  21.278  26.247  1.00  0.00    -0.356 N 
ATOM      3  C   UNL A   1      34.668  21.793  26.396  1.00  0.00     0.224 C 
ATOM      4  O   UNL A   1      34.235  21.891  27.549  1.00  0.00    -0.275 OA
ATOM      5  H   UNL A   1      36.372  21.077  27.096  1.00  0.00     0.163 HD
BRANCH   3   6
ATOM      6  C   UNL A   1      33.774  22.197  25.229  1.00  0.00     0.098 C 
ATOM      7  N   UNL A   1      33.343  23.691  23.317  1.00  0.00    -0.339 N 
ATOM      8  C   UNL A   1      32.866  22.580  22.499  1.00  0.00     0.119 C 
ATOM      9  C   UNL A   1      34.327  23.321  24.340  1.00  0.00     0.133 C 
ATOM     10  C   UNL A   1      32.285  21.454  23.344  1.00  0.00     0.022 C 
ATOM     11  C   UNL A   1      33.279  20.997  24.412  1.00  0.00     0.017 C 
BRANCH   7  12
ATOM     12  C   UNL A   1      32.841  24.953  23.040  1.00  0.00     0.263 C 
ATOM     13  O   UNL A   1      31.766  25.072  22.434  1.00  0.00    -0.271 OA
BRANCH  12  14
ATOM     14  C   UNL A   1      33.652  26.231  23.344  1.00  0.00     0.259 C 
ATOM     15  C   UNL A   1      33.338  27.469  22.516  1.00  0.00     0.064 C 
BRANCH  14  16
ATOM     16  O   UNL A   1      33.969  26.295  24.737  1.00  0.00    -0.481 OA
BRANCH  16  17
ATOM     17  C   UNL A   1      33.304  26.993  25.684  1.00  0.00     0.120 A 
ATOM     18  C   UNL A   1      33.979  30.324  27.464  1.00  0.00     0.044 C 
ATOM     19  C   UNL A   1      33.310  29.059  27.012  1.00  0.00    -0.047 A 
ATOM     20  C   UNL A   1      32.034  28.747  27.472  1.00  0.00     0.003 A 
ATOM     21  C   UNL A   1      33.936  28.173  26.119  1.00  0.00     0.049 A 
ATOM     22  C   UNL A   1      31.392  27.610  26.992  1.00  0.00     0.004 A 
ATOM     23  C   UNL A   1      32.026  26.727  26.129  1.00  0.00     0.046 A 
ENDBRANCH  16  17
ENDBRANCH  14  16
ENDBRANCH  12  14
ENDBRANCH   7  12
ENDBRANCH   3   6
ENDBRANCH   1   2
BRANCH   1  24
ATOM     24  C   UNL A   1      38.200  21.025  25.313  1.00  0.00     0.042 C 
BRANCH  24  25
ATOM     25  C   UNL A   1      38.668  22.331  25.958  1.00  0.00     0.118 C 
BRANCH  25  26
ATOM     26  N   UNL A   1      40.132  22.355  26.062  1.00  0.00    -0.352 N 
ATOM     27  C   UNL A   1      40.997  23.366  26.434  1.00  0.00     0.251 C 
ATOM     28  H   UNL A   1      40.572  21.506  25.829  1.00  0.00     0.163 HD
ATOM     29  O   UNL A   1      42.209  23.176  26.449  1.00  0.00    -0.269 OA
BRANCH  27  30
ATOM     30  C   UNL A   1      40.423  24.677  26.766  1.00  0.00     0.039 A 
ATOM     31  C   UNL A   1      40.919  25.844  26.201  1.00  0.00     0.014 A 
ATOM     32  C   UNL A   1      39.559  24.721  27.850  1.00  0.00     0.014 A 
ATOM     33  C   UNL A   1      40.759  27.040  26.899  1.00  0.00     0.010 A 
ATOM     34  C   UNL A   1      39.410  25.884  28.559  1.00  0.00     0.010 A 
ATOM     35  C   UNL A   1      40.099  27.016  28.130  1.00  0.00    -0.014 A 
BRANCH  35  36
ATOM     36  C   UNL A   1      40.167  28.073  29.119  1.00  0.00     0.031 A 
ATOM     37  C   UNL A   1      39.246  29.215  29.036  1.00  0.00     0.074 A 
ATOM     38  C   UNL A   1      40.980  27.897  30.188  1.00  0.00     0.049 A 
ATOM     39  N   UNL A   1      39.488  30.374  29.542  1.00  0.00    -0.248 NA
ATOM     40  C   UNL A   1      37.958  29.126  28.361  1.00  0.00     0.031 C 
ATOM     41  C   UNL A   1      41.002  28.678  31.417  1.00  0.00     0.029 A 
ATOM     42  N   UNL A   1      42.097  27.055  30.310  1.00  0.00    -0.354 N 
ATOM     43  C   UNL A   1      38.309  31.091  29.505  1.00  0.00     0.074 A 
ATOM     44  C   UNL A   1      37.413  30.300  28.693  1.00  0.00     0.031 C 
ATOM     45  C   UNL A   1      42.198  28.513  32.006  1.00  0.00     0.029 A 
ATOM     46  C   UNL A   1      43.032  27.778  31.067  1.00  0.00     0.049 A 
ATOM     47  H   UNL A   1      42.201  26.147  29.943  1.00  0.00     0.167 HD
ATOM     48  C   UNL A   1      38.176  32.189  30.303  1.00  0.00     0.034 A 
ATOM     49  C   UNL A   1      44.231  28.212  30.573  1.00  0.00     0.034 A 
ATOM     50  C   UNL A   1      39.396  32.406  31.093  1.00  0.00     0.049 A 
ATOM     51  C   UNL A   1      44.410  29.721  30.660  1.00  0.00     0.074 A 
ATOM     52  C   UNL A   1      39.749  32.034  32.381  1.00  0.00     0.029 A 
ATOM     53  N   UNL A   1      40.569  32.807  30.465  1.00  0.00    -0.354 N 
ATOM     54  N   UNL A   1      43.456  30.554  30.974  1.00  0.00    -0.248 NA
ATOM     55  C   UNL A   1      45.664  30.413  30.364  1.00  0.00     0.031 C 
ATOM     56  C   UNL A   1      41.160  32.133  32.495  1.00  0.00     0.029 A 
ATOM     57  C   UNL A   1      41.663  32.597  31.292  1.00  0.00     0.049 A 
ATOM     58  H   UNL A   1      40.617  33.189  29.558  1.00  0.00     0.167 HD
ATOM     59  C   UNL A   1      43.881  31.844  30.790  1.00  0.00     0.074 A 
ATOM     60  C   UNL A   1      45.297  31.701  30.497  1.00  0.00     0.031 C 
ATOM     61  C   UNL A   1      43.012  32.904  30.825  1.00  0.00     0.034 A 
BRANCH  48  62
ATOM     62  C   UNL A   1      36.854  32.860  30.636  1.00  0.00     0.023 A 
ATOM     63  C   UNL A   1      36.318  32.636  31.925  1.00  0.00     0.012 A 
ATOM     64  C   UNL A   1      36.066  33.653  29.771  1.00  0.00     0.148 A 
ATOM     65  C   UNL A   1      35.037  33.059  32.296  1.00  0.00     0.002 A 
ATOM     66  C   UNL A   1      34.757  34.014  30.111  1.00  0.00     0.091 A 
ATOM     67  F   UNL A   1      36.603  34.139  28.646  1.00  0.00    -0.205 F 
ATOM     68  C   UNL A   1      34.238  33.712  31.374  1.00  0.00     0.022 A 
BRANCH  66  69
ATOM     69  S   UNL A   1      33.628  34.786  28.937  1.00  0.00     0.127 S 
ATOM     70  O   UNL A   1      33.403  33.708  27.970  1.00  0.00    -0.237 OA
ATOM     71  O   UNL A   1      32.471  35.103  29.771  1.00  0.00    -0.237 OA
ATOM     72  O   UNL A   1      34.344  35.931  28.387  1.00  0.00    -0.744 OA
ENDBRANCH  66  69
ENDBRANCH  48  62
BRANCH  49  73
ATOM     73  C   UNL A   1      44.798  27.347  29.494  1.00  0.00     0.023 A 
ATOM     74  C   UNL A   1      45.010  25.984  29.809  1.00  0.00     0.012 A 
ATOM     75  C   UNL A   1      44.795  27.736  28.144  1.00  0.00     0.148 A 
ATOM     76  C   UNL A   1      45.070  25.015  28.806  1.00  0.00     0.002 A 
ATOM     77  C   UNL A   1      44.864  26.762  27.146  1.00  0.00     0.091 A 
ATOM     78  F   UNL A   1      44.671  29.036  27.845  1.00  0.00    -0.205 F 
ATOM     79  C   UNL A   1      44.951  25.400  27.476  1.00  0.00     0.022 A 
BRANCH  77  80
ATOM     80  S   UNL A   1      44.753  27.194  25.404  1.00  0.00     0.127 S 
ATOM     81  O   UNL A   1      45.987  27.949  25.210  1.00  0.00    -0.237 OA
ATOM     82  O   UNL A   1      44.730  25.884  24.754  1.00  0.00    -0.237 OA
ATOM     83  O   UNL A   1      43.508  27.939  25.290  1.00  0.00    -0.744 OA
ENDBRANCH  77  80
ENDBRANCH  49  73
BRANCH  61  84
ATOM     84  C   UNL A   1      43.332  34.329  30.404  1.00  0.00     0.023 A 
ATOM     85  C   UNL A   1      43.710  35.323  31.327  1.00  0.00     0.012 A 
ATOM     86  C   UNL A   1      43.413  34.678  29.030  1.00  0.00     0.148 A 
ATOM     87  C   UNL A   1      44.089  36.609  30.918  1.00  0.00     0.002 A 
ATOM     88  C   UNL A   1      43.906  35.916  28.626  1.00  0.00     0.091 A 
ATOM     89  F   UNL A   1      42.991  33.816  28.093  1.00  0.00    -0.205 F 
ATOM     90  C   UNL A   1      44.213  36.898  29.567  1.00  0.00     0.022 A 
BRANCH  88  91
ATOM     91  S   UNL A   1      44.323  36.222  26.903  1.00  0.00     0.127 S 
ATOM     92  O   UNL A   1      45.041  35.004  26.540  1.00  0.00    -0.237 OA
ATOM     93  O   UNL A   1      43.006  36.362  26.278  1.00  0.00    -0.237 OA
ATOM     94  O   UNL A   1      45.104  37.453  26.922  1.00  0.00    -0.744 OA
ENDBRANCH  88  91
ENDBRANCH  61  84
ENDBRANCH  35  36
ENDBRANCH  27  30
ENDBRANCH  25  26
ENDBRANCH  24  25
ENDBRANCH   1  24
TORSDOF 17
ENDMDL
