MODEL 1
REMARK VINA RESULT:     -11.5      0.000      0.000
REMARK SMILES COCCNC(=O)NC(=O)C[N@H+]1CC[C@H](C(=O)NCCCNC(=O)c2ccc(-c3c4nc(c(-c5cccc(S(=O)(=O)[O-])c5F)c5ccc([nH]5)c(-c5cccc(S(=O)(=O)[O-])c5F)c5nc(c(-c6cccc(S(=O)(=O)[O-])c6F)c6ccc3[nH]6)C=C5)C=C4)cc2)[C@@H]1C
REMARK SMILES IDX 19 1 18 2 16 3 17 4 15 6 12 7 13 8 88 9 14 11 89 12 11 13
REMARK SMILES IDX 9 14 5 15 6 16 7 18 8 19 10 21 4 22 3 23 2 24 1 25 20 26
REMARK SMILES IDX 21 27 22 28 23 29 24 31 25 32 26 33 87 34 27 35 86 36 28 37
REMARK SMILES IDX 29 38 30 39 80 40 31 41 85 42 79 43 81 44 32 45 84 46 78 47
REMARK SMILES IDX 77 48 33 50 65 51 45 52 64 53 46 54 49 55 63 56 82 57 47 58
REMARK SMILES IDX 48 59 62 61 83 62 50 63 34 64 35 65 43 66 36 67 38 68 44 69
REMARK SMILES IDX 37 70 39 71 40 72 41 73 42 74 66 75 67 76 75 77 68 78 70 79
REMARK SMILES IDX 76 80 69 81 71 82 72 83 73 84 74 85 51 86 52 87 60 88 53 89
REMARK SMILES IDX 55 90 61 91 54 92 56 93 57 94 58 95 59 96
REMARK H PARENT 18 5 12 10 5 17 8 20 22 30 81 49 49 60
REMARK Flexibility Score: inf
ROOT
ATOM      1  C   UNL A   1      34.460  21.943  26.468  1.00  0.00     0.117 C 
ENDROOT
BRANCH   1   2
ATOM      2  N   UNL A   1      33.305  22.527  27.140  1.00  0.00    -0.356 N 
ATOM      3  C   UNL A   1      32.318  23.333  26.637  1.00  0.00     0.229 C 
ATOM      4  O   UNL A   1      31.465  23.759  27.408  1.00  0.00    -0.275 OA
ATOM      5  H   UNL A   1      33.222  22.309  28.095  1.00  0.00     0.163 HD
BRANCH   3   6
ATOM      6  C   UNL A   1      32.331  23.573  25.139  1.00  0.00     0.142 C 
ATOM      7  N   UNL A   1      31.758  25.630  23.958  1.00  0.00    -0.324 N 
ATOM      8  C   UNL A   1      30.528  24.939  24.304  1.00  0.00     0.263 C 
ATOM      9  C   UNL A   1      32.887  24.873  24.539  1.00  0.00     0.194 C 
ATOM     10  H   UNL A   1      31.703  26.563  24.369  1.00  0.00     0.348 HD
ATOM     11  C   UNL A   1      30.890  23.517  24.657  1.00  0.00     0.081 C 
ATOM     12  C   UNL A   1      33.676  25.795  25.456  1.00  0.00     0.076 C 
BRANCH   7  13
ATOM     13  C   UNL A   1      31.945  25.966  22.543  1.00  0.00     0.364 C 
BRANCH  13  14
ATOM     14  C   UNL A   1      32.869  27.163  22.348  1.00  0.00     0.283 C 
ATOM     15  N   UNL A   1      30.535  28.814  23.944  1.00  0.00    -0.335 N 
ATOM     16  C   UNL A   1      31.870  28.941  23.898  1.00  0.00     0.321 C 
ATOM     17  H   UNL A   1      30.151  29.050  24.818  1.00  0.00     0.165 HD
ATOM     18  O   UNL A   1      32.407  29.614  24.781  1.00  0.00    -0.248 OA
ATOM     19  N   UNL A   1      32.636  28.402  22.913  1.00  0.00    -0.273 N 
ATOM     20  H   UNL A   1      33.182  29.095  22.477  1.00  0.00     0.175 HD
ATOM     21  O   UNL A   1      33.903  27.055  21.674  1.00  0.00    -0.268 OA
BRANCH  15  22
ATOM     22  C   UNL A   1      29.537  28.401  22.972  1.00  0.00     0.146 C 
BRANCH  22  23
ATOM     23  C   UNL A   1      28.528  29.508  22.636  1.00  0.00     0.181 C 
BRANCH  23  24
ATOM     24  O   UNL A   1      29.050  30.558  21.820  1.00  0.00    -0.383 OA
ATOM     25  C   UNL A   1      28.128  31.151  20.916  1.00  0.00     0.194 C 
ENDBRANCH  23  24
ENDBRANCH  22  23
ENDBRANCH  15  22
ENDBRANCH  13  14
ENDBRANCH   7  13
ENDBRANCH   3   6
ENDBRANCH   1   2
BRANCH   1  26
ATOM     26  C   UNL A   1      35.665  22.868  26.514  1.00  0.00     0.042 C 
BRANCH  26  27
ATOM     27  C   UNL A   1      36.642  22.640  25.373  1.00  0.00     0.118 C 
BRANCH  27  28
ATOM     28  N   UNL A   1      37.535  21.515  25.604  1.00  0.00    -0.352 N 
ATOM     29  C   UNL A   1      38.830  21.526  26.061  1.00  0.00     0.251 C 
ATOM     30  H   UNL A   1      37.160  20.626  25.407  1.00  0.00     0.163 HD
ATOM     31  O   UNL A   1      39.485  20.492  26.061  1.00  0.00    -0.269 OA
BRANCH  29  32
ATOM     32  C   UNL A   1      39.427  22.796  26.526  1.00  0.00     0.039 A 
ATOM     33  C   UNL A   1      40.379  22.758  27.546  1.00  0.00     0.014 A 
ATOM     34  C   UNL A   1      39.055  24.017  25.955  1.00  0.00     0.014 A 
ATOM     35  C   UNL A   1      40.974  23.945  27.974  1.00  0.00     0.010 A 
ATOM     36  C   UNL A   1      39.726  25.180  26.306  1.00  0.00     0.010 A 
ATOM     37  C   UNL A   1      40.663  25.163  27.347  1.00  0.00    -0.014 A 
BRANCH  37  38
ATOM     38  C   UNL A   1      41.275  26.433  27.806  1.00  0.00     0.031 A 
ATOM     39  C   UNL A   1      42.702  26.755  27.449  1.00  0.00     0.074 A 
ATOM     40  C   UNL A   1      40.561  27.280  28.573  1.00  0.00     0.049 A 
ATOM     41  N   UNL A   1      43.396  27.831  27.715  1.00  0.00    -0.248 NA
ATOM     42  C   UNL A   1      43.461  25.721  26.725  1.00  0.00     0.031 C 
ATOM     43  C   UNL A   1      39.197  27.043  29.050  1.00  0.00     0.029 A 
ATOM     44  N   UNL A   1      40.886  28.508  29.087  1.00  0.00    -0.354 N 
ATOM     45  C   UNL A   1      44.673  27.591  27.220  1.00  0.00     0.074 A 
ATOM     46  C   UNL A   1      44.676  26.246  26.694  1.00  0.00     0.031 C 
ATOM     47  C   UNL A   1      38.787  28.112  29.751  1.00  0.00     0.029 A 
ATOM     48  C   UNL A   1      39.866  29.094  29.797  1.00  0.00     0.049 A 
ATOM     49  H   UNL A   1      41.765  28.930  28.959  1.00  0.00     0.167 HD
ATOM     50  C   UNL A   1      45.738  28.426  27.169  1.00  0.00     0.034 A 
ATOM     51  C   UNL A   1      39.802  30.297  30.399  1.00  0.00     0.034 A 
ATOM     52  C   UNL A   1      45.721  29.773  27.670  1.00  0.00     0.049 A 
ATOM     53  C   UNL A   1      40.987  31.220  30.306  1.00  0.00     0.074 A 
ATOM     54  C   UNL A   1      46.716  30.731  27.608  1.00  0.00     0.029 A 
ATOM     55  N   UNL A   1      44.651  30.350  28.339  1.00  0.00    -0.354 N 
ATOM     56  N   UNL A   1      42.135  31.036  29.700  1.00  0.00    -0.248 NA
ATOM     57  C   UNL A   1      40.847  32.536  30.942  1.00  0.00     0.031 C 
ATOM     58  C   UNL A   1      46.261  31.876  28.270  1.00  0.00     0.029 A 
ATOM     59  C   UNL A   1      44.963  31.648  28.703  1.00  0.00     0.049 A 
ATOM     60  H   UNL A   1      43.795  29.902  28.525  1.00  0.00     0.167 HD
ATOM     61  C   UNL A   1      42.835  32.229  29.837  1.00  0.00     0.074 A 
ATOM     62  C   UNL A   1      41.973  33.132  30.574  1.00  0.00     0.031 C 
ATOM     63  C   UNL A   1      44.077  32.550  29.396  1.00  0.00     0.034 A 
BRANCH  50  64
ATOM     64  C   UNL A   1      46.994  27.904  26.514  1.00  0.00     0.023 A 
ATOM     65  C   UNL A   1      48.014  27.332  27.306  1.00  0.00     0.012 A 
ATOM     66  C   UNL A   1      47.170  27.977  25.119  1.00  0.00     0.148 A 
ATOM     67  C   UNL A   1      49.208  26.899  26.731  1.00  0.00     0.002 A 
ATOM     68  C   UNL A   1      48.341  27.492  24.546  1.00  0.00     0.091 A 
ATOM     69  F   UNL A   1      46.205  28.542  24.380  1.00  0.00    -0.205 F 
ATOM     70  C   UNL A   1      49.367  26.971  25.350  1.00  0.00     0.022 A 
BRANCH  68  71
ATOM     71  S   UNL A   1      48.603  27.460  22.769  1.00  0.00     0.127 S 
ATOM     72  O   UNL A   1      49.934  28.053  22.657  1.00  0.00    -0.237 OA
ATOM     73  O   UNL A   1      48.548  26.027  22.476  1.00  0.00    -0.237 OA
ATOM     74  O   UNL A   1      47.516  28.238  22.192  1.00  0.00    -0.744 OA
ENDBRANCH  68  71
ENDBRANCH  50  64
BRANCH  51  75
ATOM     75  C   UNL A   1      38.534  30.740  31.044  1.00  0.00     0.023 A 
ATOM     76  C   UNL A   1      38.358  30.530  32.427  1.00  0.00     0.012 A 
ATOM     77  C   UNL A   1      37.521  31.388  30.312  1.00  0.00     0.148 A 
ATOM     78  C   UNL A   1      37.182  30.929  33.063  1.00  0.00     0.002 A 
ATOM     79  C   UNL A   1      36.375  31.830  30.963  1.00  0.00     0.091 A 
ATOM     80  F   UNL A   1      37.710  31.575  28.999  1.00  0.00    -0.205 F 
ATOM     81  C   UNL A   1      36.195  31.585  32.333  1.00  0.00     0.022 A 
BRANCH  79  82
ATOM     82  S   UNL A   1      35.103  32.791  30.136  1.00  0.00     0.127 S 
ATOM     83  O   UNL A   1      34.169  33.055  31.228  1.00  0.00    -0.237 OA
ATOM     84  O   UNL A   1      35.861  33.955  29.677  1.00  0.00    -0.237 OA
ATOM     85  O   UNL A   1      34.595  31.940  29.068  1.00  0.00    -0.744 OA
ENDBRANCH  79  82
ENDBRANCH  51  75
BRANCH  63  86
ATOM     86  C   UNL A   1      44.561  33.956  29.642  1.00  0.00     0.023 A 
ATOM     87  C   UNL A   1      45.205  34.287  30.850  1.00  0.00     0.012 A 
ATOM     88  C   UNL A   1      44.416  34.941  28.645  1.00  0.00     0.148 A 
ATOM     89  C   UNL A   1      45.652  35.588  31.082  1.00  0.00     0.002 A 
ATOM     90  C   UNL A   1      44.914  36.219  28.859  1.00  0.00     0.091 A 
ATOM     91  F   UNL A   1      43.782  34.615  27.508  1.00  0.00    -0.205 F 
ATOM     92  C   UNL A   1      45.517  36.551  30.084  1.00  0.00     0.022 A 
BRANCH  90  93
ATOM     93  S   UNL A   1      44.877  37.488  27.589  1.00  0.00     0.127 S 
ATOM     94  O   UNL A   1      45.407  38.646  28.307  1.00  0.00    -0.237 OA
ATOM     95  O   UNL A   1      45.775  36.938  26.573  1.00  0.00    -0.237 OA
ATOM     96  O   UNL A   1      43.486  37.592  27.170  1.00  0.00    -0.744 OA
ENDBRANCH  90  93
ENDBRANCH  63  86
ENDBRANCH  37  38
ENDBRANCH  29  32
ENDBRANCH  27  28
ENDBRANCH  26  27
ENDBRANCH   1  26
TORSDOF 18
ENDMDL
MODEL 2
REMARK VINA RESULT:     -11.4      5.787      8.961
REMARK SMILES COCCNC(=O)NC(=O)C[N@H+]1CC[C@H](C(=O)NCCCNC(=O)c2ccc(-c3c4nc(c(-c5cccc(S(=O)(=O)[O-])c5F)c5ccc([nH]5)c(-c5cccc(S(=O)(=O)[O-])c5F)c5nc(c(-c6cccc(S(=O)(=O)[O-])c6F)c6ccc3[nH]6)C=C5)C=C4)cc2)[C@@H]1C
REMARK SMILES IDX 19 1 18 2 16 3 17 4 15 6 12 7 13 8 88 9 14 11 89 12 11 13
REMARK SMILES IDX 9 14 5 15 6 16 7 18 8 19 10 21 4 22 3 23 2 24 1 25 20 26
REMARK SMILES IDX 21 27 22 28 23 29 24 31 25 32 26 33 87 34 27 35 86 36 28 37
REMARK SMILES IDX 29 38 30 39 80 40 31 41 85 42 79 43 81 44 32 45 84 46 78 47
REMARK SMILES IDX 77 48 33 50 65 51 45 52 64 53 46 54 49 55 63 56 82 57 47 58
REMARK SMILES IDX 48 59 62 61 83 62 50 63 34 64 35 65 43 66 36 67 38 68 44 69
REMARK SMILES IDX 37 70 39 71 40 72 41 73 42 74 66 75 67 76 75 77 68 78 70 79
REMARK SMILES IDX 76 80 69 81 71 82 72 83 73 84 74 85 51 86 52 87 60 88 53 89
REMARK SMILES IDX 55 90 61 91 54 92 56 93 57 94 58 95 59 96
REMARK H PARENT 18 5 12 10 5 17 8 20 22 30 81 49 49 60
REMARK Flexibility Score: inf
ROOT
ATOM      1  C   UNL A   1      31.613  30.912  26.129  1.00  0.00     0.117 C 
ENDROOT
BRANCH   1   2
ATOM      2  N   UNL A   1      32.963  30.429  26.398  1.00  0.00    -0.356 N 
ATOM      3  C   UNL A   1      33.508  29.192  26.177  1.00  0.00     0.229 C 
ATOM      4  O   UNL A   1      34.662  28.991  26.539  1.00  0.00    -0.275 OA
ATOM      5  H   UNL A   1      33.572  31.090  26.798  1.00  0.00     0.163 HD
BRANCH   3   6
ATOM      6  C   UNL A   1      32.646  28.190  25.432  1.00  0.00     0.142 C 
ATOM      7  N   UNL A   1      32.161  25.884  26.066  1.00  0.00    -0.324 N 
ATOM      8  C   UNL A   1      33.470  25.924  25.438  1.00  0.00     0.263 C 
ATOM      9  C   UNL A   1      31.662  27.272  26.171  1.00  0.00     0.194 C 
ATOM     10  H   UNL A   1      32.287  25.478  26.994  1.00  0.00     0.348 HD
ATOM     11  C   UNL A   1      33.582  27.238  24.704  1.00  0.00     0.081 C 
ATOM     12  C   UNL A   1      31.367  27.578  27.631  1.00  0.00     0.076 C 
BRANCH   7  13
ATOM     13  C   UNL A   1      31.186  24.953  25.490  1.00  0.00     0.364 C 
BRANCH  13  14
ATOM     14  C   UNL A   1      30.565  24.040  26.540  1.00  0.00     0.283 C 
ATOM     15  N   UNL A   1      33.339  22.329  26.226  1.00  0.00    -0.335 N 
ATOM     16  C   UNL A   1      32.523  22.554  27.266  1.00  0.00     0.321 C 
ATOM     17  H   UNL A   1      34.285  22.248  26.483  1.00  0.00     0.165 HD
ATOM     18  O   UNL A   1      32.961  22.317  28.394  1.00  0.00    -0.248 OA
ATOM     19  N   UNL A   1      31.242  22.987  27.127  1.00  0.00    -0.273 N 
ATOM     20  H   UNL A   1      30.615  22.373  27.573  1.00  0.00     0.175 HD
ATOM     21  O   UNL A   1      29.405  24.231  26.932  1.00  0.00    -0.268 OA
BRANCH  15  22
ATOM     22  C   UNL A   1      33.119  22.179  24.797  1.00  0.00     0.146 C 
BRANCH  22  23
ATOM     23  C   UNL A   1      33.172  20.718  24.329  1.00  0.00     0.181 C 
BRANCH  23  24
ATOM     24  O   UNL A   1      32.174  19.873  24.906  1.00  0.00    -0.383 OA
ATOM     25  C   UNL A   1      32.385  18.477  24.750  1.00  0.00     0.194 C 
ENDBRANCH  23  24
ENDBRANCH  22  23
ENDBRANCH  15  22
ENDBRANCH  13  14
ENDBRANCH   7  13
ENDBRANCH   3   6
ENDBRANCH   1   2
BRANCH   1  26
ATOM     26  C   UNL A   1      31.425  32.346  26.593  1.00  0.00     0.042 C 
BRANCH  26  27
ATOM     27  C   UNL A   1      32.662  32.933  27.251  1.00  0.00     0.118 C 
BRANCH  27  28
ATOM     28  N   UNL A   1      32.470  34.304  27.701  1.00  0.00    -0.352 N 
ATOM     29  C   UNL A   1      33.085  34.962  28.738  1.00  0.00     0.251 C 
ATOM     30  H   UNL A   1      31.810  34.830  27.194  1.00  0.00     0.163 HD
ATOM     31  O   UNL A   1      32.697  36.075  29.068  1.00  0.00    -0.269 OA
BRANCH  29  32
ATOM     32  C   UNL A   1      34.195  34.304  29.461  1.00  0.00     0.039 A 
ATOM     33  C   UNL A   1      35.501  34.504  29.011  1.00  0.00     0.014 A 
ATOM     34  C   UNL A   1      33.949  33.501  30.578  1.00  0.00     0.014 A 
ATOM     35  C   UNL A   1      36.561  33.916  29.701  1.00  0.00     0.010 A 
ATOM     36  C   UNL A   1      35.011  33.009  31.324  1.00  0.00     0.010 A 
ATOM     37  C   UNL A   1      36.325  33.177  30.872  1.00  0.00    -0.014 A 
BRANCH  37  38
ATOM     38  C   UNL A   1      37.442  32.531  31.603  1.00  0.00     0.031 A 
ATOM     39  C   UNL A   1      38.200  31.394  30.970  1.00  0.00     0.074 A 
ATOM     40  C   UNL A   1      37.752  32.942  32.848  1.00  0.00     0.049 A 
ATOM     41  N   UNL A   1      39.233  30.735  31.428  1.00  0.00    -0.248 NA
ATOM     42  C   UNL A   1      37.717  30.911  29.665  1.00  0.00     0.031 C 
ATOM     43  C   UNL A   1      37.041  33.980  33.597  1.00  0.00     0.029 A 
ATOM     44  N   UNL A   1      38.743  32.533  33.701  1.00  0.00    -0.354 N 
ATOM     45  C   UNL A   1      39.502  29.749  30.486  1.00  0.00     0.074 A 
ATOM     46  C   UNL A   1      38.487  29.854  29.463  1.00  0.00     0.031 C 
ATOM     47  C   UNL A   1      37.646  34.156  34.783  1.00  0.00     0.029 A 
ATOM     48  C   UNL A   1      38.767  33.226  34.888  1.00  0.00     0.049 A 
ATOM     49  H   UNL A   1      39.377  31.813  33.486  1.00  0.00     0.167 HD
ATOM     50  C   UNL A   1      40.522  28.859  30.451  1.00  0.00     0.034 A 
ATOM     51  C   UNL A   1      39.611  33.135  35.934  1.00  0.00     0.034 A 
ATOM     52  C   UNL A   1      41.544  28.778  31.459  1.00  0.00     0.049 A 
ATOM     53  C   UNL A   1      40.754  32.161  35.861  1.00  0.00     0.074 A 
ATOM     54  C   UNL A   1      42.663  27.966  31.491  1.00  0.00     0.029 A 
ATOM     55  N   UNL A   1      41.564  29.532  32.623  1.00  0.00    -0.354 N 
ATOM     56  N   UNL A   1      41.083  31.339  34.894  1.00  0.00    -0.248 NA
ATOM     57  C   UNL A   1      41.669  32.134  37.010  1.00  0.00     0.031 C 
ATOM     58  C   UNL A   1      43.341  28.204  32.692  1.00  0.00     0.029 A 
ATOM     59  C   UNL A   1      42.670  29.200  33.386  1.00  0.00     0.049 A 
ATOM     60  H   UNL A   1      40.890  30.206  32.869  1.00  0.00     0.167 HD
ATOM     61  C   UNL A   1      42.271  30.736  35.292  1.00  0.00     0.074 A 
ATOM     62  C   UNL A   1      42.607  31.298  36.586  1.00  0.00     0.031 C 
ATOM     63  C   UNL A   1      43.015  29.801  34.650  1.00  0.00     0.034 A 
BRANCH  50  64
ATOM     64  C   UNL A   1      40.591  27.933  29.261  1.00  0.00     0.023 A 
ATOM     65  C   UNL A   1      39.801  26.764  29.233  1.00  0.00     0.012 A 
ATOM     66  C   UNL A   1      41.435  28.216  28.169  1.00  0.00     0.148 A 
ATOM     67  C   UNL A   1      39.893  25.863  28.174  1.00  0.00     0.002 A 
ATOM     68  C   UNL A   1      41.480  27.340  27.090  1.00  0.00     0.091 A 
ATOM     69  F   UNL A   1      42.197  29.317  28.217  1.00  0.00    -0.205 F 
ATOM     70  C   UNL A   1      40.726  26.156  27.098  1.00  0.00     0.022 A 
BRANCH  68  71
ATOM     71  S   UNL A   1      42.455  27.674  25.618  1.00  0.00     0.127 S 
ATOM     72  O   UNL A   1      43.809  27.723  26.167  1.00  0.00    -0.237 OA
ATOM     73  O   UNL A   1      42.175  26.500  24.791  1.00  0.00    -0.237 OA
ATOM     74  O   UNL A   1      41.948  28.929  25.080  1.00  0.00    -0.744 OA
ENDBRANCH  68  71
ENDBRANCH  50  64
BRANCH  51  75
ATOM     75  C   UNL A   1      39.471  34.070  37.086  1.00  0.00     0.023 A 
ATOM     76  C   UNL A   1      39.831  35.422  36.920  1.00  0.00     0.012 A 
ATOM     77  C   UNL A   1      38.960  33.642  38.326  1.00  0.00     0.148 A 
ATOM     78  C   UNL A   1      39.716  36.324  37.977  1.00  0.00     0.002 A 
ATOM     79  C   UNL A   1      38.798  34.557  39.358  1.00  0.00     0.091 A 
ATOM     80  F   UNL A   1      38.624  32.351  38.461  1.00  0.00    -0.205 F 
ATOM     81  C   UNL A   1      39.193  35.894  39.193  1.00  0.00     0.022 A 
BRANCH  79  82
ATOM     82  S   UNL A   1      38.021  34.128  40.920  1.00  0.00     0.127 S 
ATOM     83  O   UNL A   1      37.794  35.443  41.514  1.00  0.00    -0.237 OA
ATOM     84  O   UNL A   1      36.811  33.437  40.470  1.00  0.00    -0.237 OA
ATOM     85  O   UNL A   1      38.976  33.280  41.618  1.00  0.00    -0.744 OA
ENDBRANCH  79  82
ENDBRANCH  51  75
BRANCH  63  86
ATOM     86  C   UNL A   1      44.303  29.368  35.303  1.00  0.00     0.023 A 
ATOM     87  C   UNL A   1      45.511  30.025  35.000  1.00  0.00     0.012 A 
ATOM     88  C   UNL A   1      44.300  28.333  36.259  1.00  0.00     0.148 A 
ATOM     89  C   UNL A   1      46.705  29.625  35.601  1.00  0.00     0.002 A 
ATOM     90  C   UNL A   1      45.483  27.979  36.896  1.00  0.00     0.091 A 
ATOM     91  F   UNL A   1      43.145  27.704  36.521  1.00  0.00    -0.205 F 
ATOM     92  C   UNL A   1      46.689  28.611  36.556  1.00  0.00     0.022 A 
BRANCH  90  93
ATOM     93  S   UNL A   1      45.534  26.759  38.212  1.00  0.00     0.127 S 
ATOM     94  O   UNL A   1      46.939  26.808  38.611  1.00  0.00    -0.237 OA
ATOM     95  O   UNL A   1      44.601  27.317  39.192  1.00  0.00    -0.237 OA
ATOM     96  O   UNL A   1      45.096  25.505  37.611  1.00  0.00    -0.744 OA
ENDBRANCH  90  93
ENDBRANCH  63  86
ENDBRANCH  37  38
ENDBRANCH  29  32
ENDBRANCH  27  28
ENDBRANCH  26  27
ENDBRANCH   1  26
TORSDOF 18
ENDMDL
MODEL 3
REMARK VINA RESULT:     -11.3      2.139      3.165
REMARK SMILES COCCNC(=O)NC(=O)C[N@H+]1CC[C@H](C(=O)NCCCNC(=O)c2ccc(-c3c4nc(c(-c5cccc(S(=O)(=O)[O-])c5F)c5ccc([nH]5)c(-c5cccc(S(=O)(=O)[O-])c5F)c5nc(c(-c6cccc(S(=O)(=O)[O-])c6F)c6ccc3[nH]6)C=C5)C=C4)cc2)[C@@H]1C
REMARK SMILES IDX 19 1 18 2 16 3 17 4 15 6 12 7 13 8 88 9 14 11 89 12 11 13
REMARK SMILES IDX 9 14 5 15 6 16 7 18 8 19 10 21 4 22 3 23 2 24 1 25 20 26
REMARK SMILES IDX 21 27 22 28 23 29 24 31 25 32 26 33 87 34 27 35 86 36 28 37
REMARK SMILES IDX 29 38 30 39 80 40 31 41 85 42 79 43 81 44 32 45 84 46 78 47
REMARK SMILES IDX 77 48 33 50 65 51 45 52 64 53 46 54 49 55 63 56 82 57 47 58
REMARK SMILES IDX 48 59 62 61 83 62 50 63 34 64 35 65 43 66 36 67 38 68 44 69
REMARK SMILES IDX 37 70 39 71 40 72 41 73 42 74 66 75 67 76 75 77 68 78 70 79
REMARK SMILES IDX 76 80 69 81 71 82 72 83 73 84 74 85 51 86 52 87 60 88 53 89
REMARK SMILES IDX 55 90 61 91 54 92 56 93 57 94 58 95 59 96
REMARK H PARENT 18 5 12 10 5 17 8 20 22 30 81 49 49 60
REMARK Flexibility Score: inf
ROOT
ATOM      1  C   UNL A   1      36.940  20.651  25.054  1.00  0.00     0.117 C 
ENDROOT
BRANCH   1   2
ATOM      2  N   UNL A   1      36.721  21.624  23.990  1.00  0.00    -0.356 N 
ATOM      3  C   UNL A   1      35.890  22.712  23.959  1.00  0.00     0.229 C 
ATOM      4  O   UNL A   1      35.824  23.366  22.925  1.00  0.00    -0.275 OA
ATOM      5  H   UNL A   1      37.249  21.477  23.173  1.00  0.00     0.163 HD
BRANCH   3   6
ATOM      6  C   UNL A   1      35.167  23.055  25.249  1.00  0.00     0.142 C 
ATOM      7  N   UNL A   1      32.877  23.859  25.503  1.00  0.00    -0.324 N 
ATOM      8  C   UNL A   1      33.722  24.981  25.134  1.00  0.00     0.263 C 
ATOM      9  C   UNL A   1      33.710  22.636  25.488  1.00  0.00     0.194 C 
ATOM     10  H   UNL A   1      32.139  23.796  24.801  1.00  0.00     0.348 HD
ATOM     11  C   UNL A   1      35.154  24.570  25.374  1.00  0.00     0.081 C 
ATOM     12  C   UNL A   1      33.093  21.634  24.524  1.00  0.00     0.076 C 
BRANCH   7  13
ATOM     13  C   UNL A   1      32.081  24.010  26.724  1.00  0.00     0.364 C 
BRANCH  13  14
ATOM     14  C   UNL A   1      30.586  23.878  26.463  1.00  0.00     0.283 C 
ATOM     15  N   UNL A   1      30.785  27.031  25.603  1.00  0.00    -0.335 N 
ATOM     16  C   UNL A   1      30.018  26.018  25.173  1.00  0.00     0.321 C 
ATOM     17  H   UNL A   1      31.014  27.674  24.894  1.00  0.00     0.165 HD
ATOM     18  O   UNL A   1      29.439  26.161  24.094  1.00  0.00    -0.248 OA
ATOM     19  N   UNL A   1      29.824  24.876  25.885  1.00  0.00    -0.273 N 
ATOM     20  H   UNL A   1      28.865  24.715  26.031  1.00  0.00     0.175 HD
ATOM     21  O   UNL A   1      29.989  22.830  26.747  1.00  0.00    -0.268 OA
BRANCH  15  22
ATOM     22  C   UNL A   1      31.348  27.378  26.896  1.00  0.00     0.146 C 
BRANCH  22  23
ATOM     23  C   UNL A   1      32.681  28.133  26.790  1.00  0.00     0.181 C 
BRANCH  23  24
ATOM     24  O   UNL A   1      32.625  29.329  26.011  1.00  0.00    -0.383 OA
ATOM     25  C   UNL A   1      31.973  30.433  26.624  1.00  0.00     0.194 C 
ENDBRANCH  23  24
ENDBRANCH  22  23
ENDBRANCH  15  22
ENDBRANCH  13  14
ENDBRANCH   7  13
ENDBRANCH   3   6
ENDBRANCH   1   2
BRANCH   1  26
ATOM     26  C   UNL A   1      38.246  19.896  24.868  1.00  0.00     0.042 C 
BRANCH  26  27
ATOM     27  C   UNL A   1      39.256  20.161  25.971  1.00  0.00     0.118 C 
BRANCH  27  28
ATOM     28  N   UNL A   1      40.437  19.317  25.875  1.00  0.00    -0.352 N 
ATOM     29  C   UNL A   1      41.757  19.666  26.017  1.00  0.00     0.251 C 
ATOM     30  H   UNL A   1      40.267  18.366  25.681  1.00  0.00     0.163 HD
ATOM     31  O   UNL A   1      42.634  18.852  25.760  1.00  0.00    -0.269 OA
BRANCH  29  32
ATOM     32  C   UNL A   1      42.104  21.036  26.455  1.00  0.00     0.039 A 
ATOM     33  C   UNL A   1      42.258  22.032  25.490  1.00  0.00     0.014 A 
ATOM     34  C   UNL A   1      42.269  21.336  27.810  1.00  0.00     0.014 A 
ATOM     35  C   UNL A   1      42.555  23.334  25.891  1.00  0.00     0.010 A 
ATOM     36  C   UNL A   1      42.455  22.651  28.211  1.00  0.00     0.010 A 
ATOM     37  C   UNL A   1      42.640  23.658  27.255  1.00  0.00    -0.014 A 
BRANCH  37  38
ATOM     38  C   UNL A   1      42.972  25.035  27.692  1.00  0.00     0.031 A 
ATOM     39  C   UNL A   1      44.389  25.536  27.592  1.00  0.00     0.074 A 
ATOM     40  C   UNL A   1      42.011  25.822  28.212  1.00  0.00     0.049 A 
ATOM     41  N   UNL A   1      44.867  26.719  27.878  1.00  0.00    -0.248 NA
ATOM     42  C   UNL A   1      45.410  24.574  27.143  1.00  0.00     0.031 C 
ATOM     43  C   UNL A   1      40.619  25.423  28.432  1.00  0.00     0.029 A 
ATOM     44  N   UNL A   1      42.059  27.119  28.650  1.00  0.00    -0.354 N 
ATOM     45  C   UNL A   1      46.239  26.634  27.671  1.00  0.00     0.074 A 
ATOM     46  C   UNL A   1      46.526  25.268  27.298  1.00  0.00     0.031 C 
ATOM     47  C   UNL A   1      39.936  26.469  28.925  1.00  0.00     0.029 A 
ATOM     48  C   UNL A   1      40.846  27.600  29.081  1.00  0.00     0.049 A 
ATOM     49  H   UNL A   1      42.884  27.656  28.656  1.00  0.00     0.167 HD
ATOM     50  C   UNL A   1      47.175  27.610  27.746  1.00  0.00     0.034 A 
ATOM     51  C   UNL A   1      40.503  28.822  29.532  1.00  0.00     0.034 A 
ATOM     52  C   UNL A   1      46.879  28.973  28.092  1.00  0.00     0.049 A 
ATOM     53  C   UNL A   1      41.551  29.899  29.579  1.00  0.00     0.074 A 
ATOM     54  C   UNL A   1      47.733  30.060  28.129  1.00  0.00     0.029 A 
ATOM     55  N   UNL A   1      45.628  29.435  28.474  1.00  0.00    -0.354 N 
ATOM     56  N   UNL A   1      42.815  29.842  29.234  1.00  0.00    -0.248 NA
ATOM     57  C   UNL A   1      41.113  31.224  30.037  1.00  0.00     0.031 C 
ATOM     58  C   UNL A   1      47.005  31.172  28.567  1.00  0.00     0.029 A 
ATOM     59  C   UNL A   1      45.687  30.789  28.757  1.00  0.00     0.049 A 
ATOM     60  H   UNL A   1      44.817  28.881  28.533  1.00  0.00     0.167 HD
ATOM     61  C   UNL A   1      43.311  31.132  29.383  1.00  0.00     0.074 A 
ATOM     62  C   UNL A   1      42.204  31.950  29.838  1.00  0.00     0.031 C 
ATOM     63  C   UNL A   1      44.566  31.599  29.165  1.00  0.00     0.034 A 
BRANCH  50  64
ATOM     64  C   UNL A   1      48.597  27.232  27.409  1.00  0.00     0.023 A 
ATOM     65  C   UNL A   1      49.397  26.578  28.371  1.00  0.00     0.012 A 
ATOM     66  C   UNL A   1      49.145  27.520  26.144  1.00  0.00     0.148 A 
ATOM     67  C   UNL A   1      50.731  26.274  28.104  1.00  0.00     0.002 A 
ATOM     68  C   UNL A   1      50.460  27.164  25.866  1.00  0.00     0.091 A 
ATOM     69  F   UNL A   1      48.383  28.161  25.247  1.00  0.00    -0.205 F 
ATOM     70  C   UNL A   1      51.259  26.559  26.849  1.00  0.00     0.022 A 
BRANCH  68  71
ATOM     71  S   UNL A   1      51.204  27.409  24.249  1.00  0.00     0.127 S 
ATOM     72  O   UNL A   1      51.302  28.866  24.188  1.00  0.00    -0.237 OA
ATOM     73  O   UNL A   1      52.485  26.717  24.392  1.00  0.00    -0.237 OA
ATOM     74  O   UNL A   1      50.290  26.798  23.293  1.00  0.00    -0.744 OA
ENDBRANCH  68  71
ENDBRANCH  50  64
BRANCH  51  75
ATOM     75  C   UNL A   1      39.081  29.119  29.865  1.00  0.00     0.023 A 
ATOM     76  C   UNL A   1      38.591  28.781  31.143  1.00  0.00     0.012 A 
ATOM     77  C   UNL A   1      38.226  29.756  28.947  1.00  0.00     0.148 A 
ATOM     78  C   UNL A   1      37.265  29.042  31.488  1.00  0.00     0.002 A 
ATOM     79  C   UNL A   1      36.921  30.061  29.316  1.00  0.00     0.091 A 
ATOM     80  F   UNL A   1      38.714  30.067  27.738  1.00  0.00    -0.205 F 
ATOM     81  C   UNL A   1      36.433  29.689  30.578  1.00  0.00     0.022 A 
BRANCH  79  82
ATOM     82  S   UNL A   1      35.811  30.999  28.260  1.00  0.00     0.127 S 
ATOM     83  O   UNL A   1      35.569  30.058  27.169  1.00  0.00    -0.237 OA
ATOM     84  O   UNL A   1      34.670  31.219  29.150  1.00  0.00    -0.237 OA
ATOM     85  O   UNL A   1      36.537  32.208  27.897  1.00  0.00    -0.744 OA
ENDBRANCH  79  82
ENDBRANCH  51  75
BRANCH  63  86
ATOM     86  C   UNL A   1      44.802  33.075  29.355  1.00  0.00     0.023 A 
ATOM     87  C   UNL A   1      45.235  33.573  30.599  1.00  0.00     0.012 A 
ATOM     88  C   UNL A   1      44.637  33.965  28.275  1.00  0.00     0.148 A 
ATOM     89  C   UNL A   1      45.452  34.939  30.779  1.00  0.00     0.002 A 
ATOM     90  C   UNL A   1      44.911  35.316  28.446  1.00  0.00     0.091 A 
ATOM     91  F   UNL A   1      44.205  33.478  27.103  1.00  0.00    -0.205 F 
ATOM     92  C   UNL A   1      45.301  35.809  29.701  1.00  0.00     0.022 A 
BRANCH  90  93
ATOM     93  S   UNL A   1      44.844  36.486  27.086  1.00  0.00     0.127 S 
ATOM     94  O   UNL A   1      45.812  35.915  26.152  1.00  0.00    -0.237 OA
ATOM     95  O   UNL A   1      43.448  36.385  26.656  1.00  0.00    -0.237 OA
ATOM     96  O   UNL A   1      45.206  37.779  27.653  1.00  0.00    -0.744 OA
ENDBRANCH  90  93
ENDBRANCH  63  86
ENDBRANCH  37  38
ENDBRANCH  29  32
ENDBRANCH  27  28
ENDBRANCH  26  27
ENDBRANCH   1  26
TORSDOF 18
ENDMDL
