MODEL 1
REMARK VINA RESULT:     -11.5      0.000      0.000
REMARK SMILES Cc1cccc(C[C@H](CC(=O)NCCCNC(=O)c2ccc(-c3c4nc(c(-c5cccc(S(=O)(=O)[O-])c5F)c5ccc([nH]5)c(-c5cccc(S(=O)(=O)[O-])c5F)c5nc(c(-c6cccc(S(=O)(=O)[O-])c6F)c6ccc3[nH]6)C=C5)C=C4)cc2)NC(=O)OC(C)(C)C)c1
REMARK SMILES IDX 13 1 12 2 10 3 11 4 9 6 8 7 7 8 6 9 1 10 2 11 3 12 90 13
REMARK SMILES IDX 4 14 5 15 82 16 83 17 84 19 85 20 86 21 87 22 88 23 89 24
REMARK SMILES IDX 14 25 15 26 16 27 17 28 18 30 19 31 20 32 81 33 21 34 80 35
REMARK SMILES IDX 22 36 23 37 24 38 74 39 25 40 79 41 73 42 75 43 26 44 78 45
REMARK SMILES IDX 72 46 71 47 27 49 59 50 39 51 58 52 40 53 43 54 57 55 76 56
REMARK SMILES IDX 41 57 42 58 56 60 77 61 44 62 28 63 29 64 37 65 30 66 32 67
REMARK SMILES IDX 38 68 31 69 33 70 34 71 35 72 36 73 60 74 61 75 69 76 62 77
REMARK SMILES IDX 64 78 70 79 63 80 65 81 66 82 67 83 68 84 45 85 46 86 54 87
REMARK SMILES IDX 47 88 49 89 55 90 48 91 50 92 51 93 52 94 53 95
REMARK H PARENT 12 5 82 18 16 29 75 48 43 59
REMARK Flexibility Score: inf
ROOT
ATOM      1  C   UNL A   1      31.870  30.057  25.666  1.00  0.00     0.117 C 
ENDROOT
BRANCH   1   2
ATOM      2  N   UNL A   1      32.831  29.800  24.607  1.00  0.00    -0.356 N 
ATOM      3  C   UNL A   1      33.664  28.747  24.380  1.00  0.00     0.222 C 
ATOM      4  O   UNL A   1      34.363  28.769  23.364  1.00  0.00    -0.275 OA
ATOM      5  H   UNL A   1      32.889  30.514  23.932  1.00  0.00     0.163 HD
BRANCH   3   6
ATOM      6  C   UNL A   1      33.754  27.559  25.327  1.00  0.00     0.125 C 
BRANCH   6   7
ATOM      7  C   UNL A   1      33.759  26.152  24.686  1.00  0.00     0.099 C 
BRANCH   7   8
ATOM      8  C   UNL A   1      34.410  25.086  25.627  1.00  0.00     0.061 C 
BRANCH   8   9
ATOM      9  C   UNL A   1      35.404  24.101  25.043  1.00  0.00    -0.046 A 
ATOM     10  C   UNL A   1      38.628  22.340  26.117  1.00  0.00     0.044 C 
ATOM     11  C   UNL A   1      37.446  22.774  25.302  1.00  0.00    -0.051 A 
ATOM     12  C   UNL A   1      37.241  22.217  24.037  1.00  0.00     0.003 A 
ATOM     13  C   UNL A   1      36.536  23.726  25.788  1.00  0.00     0.007 A 
ATOM     14  C   UNL A   1      36.097  22.535  23.313  1.00  0.00     0.001 A 
ATOM     15  C   UNL A   1      35.171  23.440  23.833  1.00  0.00     0.004 A 
ENDBRANCH   8   9
ENDBRANCH   7   8
BRANCH   7  16
ATOM     16  N   UNL A   1      32.391  25.861  24.262  1.00  0.00    -0.318 N 
ATOM     17  C   UNL A   1      31.346  25.252  24.866  1.00  0.00     0.407 C 
ATOM     18  H   UNL A   1      32.189  26.171  23.349  1.00  0.00     0.167 HD
ATOM     19  O   UNL A   1      30.278  25.207  24.281  1.00  0.00    -0.225 OA
BRANCH  17  20
ATOM     20  O   UNL A   1      31.619  24.755  26.089  1.00  0.00    -0.444 OA
BRANCH  20  21
ATOM     21  C   UNL A   1      31.368  23.347  26.318  1.00  0.00     0.106 C 
ATOM     22  C   UNL A   1      29.957  23.130  26.882  1.00  0.00     0.056 C 
ATOM     23  C   UNL A   1      31.611  22.501  25.058  1.00  0.00     0.056 C 
ATOM     24  C   UNL A   1      32.394  22.937  27.381  1.00  0.00     0.056 C 
ENDBRANCH  20  21
ENDBRANCH  17  20
ENDBRANCH   7  16
ENDBRANCH   6   7
ENDBRANCH   3   6
ENDBRANCH   1   2
BRANCH   1  25
ATOM     25  C   UNL A   1      32.382  31.068  26.684  1.00  0.00     0.042 C 
BRANCH  25  26
ATOM     26  C   UNL A   1      33.415  30.541  27.649  1.00  0.00     0.118 C 
BRANCH  26  27
ATOM     27  N   UNL A   1      34.549  31.435  27.747  1.00  0.00    -0.352 N 
ATOM     28  C   UNL A   1      35.742  31.239  28.419  1.00  0.00     0.251 C 
ATOM     29  H   UNL A   1      34.459  32.294  27.274  1.00  0.00     0.163 HD
ATOM     30  O   UNL A   1      36.383  32.212  28.800  1.00  0.00    -0.269 OA
BRANCH  28  31
ATOM     31  C   UNL A   1      36.326  29.870  28.443  1.00  0.00     0.039 A 
ATOM     32  C   UNL A   1      36.644  29.430  29.732  1.00  0.00     0.014 A 
ATOM     33  C   UNL A   1      37.042  29.402  27.350  1.00  0.00     0.014 A 
ATOM     34  C   UNL A   1      37.892  28.877  29.961  1.00  0.00     0.010 A 
ATOM     35  C   UNL A   1      38.329  28.986  27.577  1.00  0.00     0.010 A 
ATOM     36  C   UNL A   1      38.771  28.814  28.892  1.00  0.00    -0.014 A 
BRANCH  36  37
ATOM     37  C   UNL A   1      40.152  28.406  28.986  1.00  0.00     0.031 A 
ATOM     38  C   UNL A   1      40.404  26.958  28.846  1.00  0.00     0.074 A 
ATOM     39  C   UNL A   1      41.105  29.362  28.895  1.00  0.00     0.049 A 
ATOM     40  N   UNL A   1      41.526  26.381  29.072  1.00  0.00    -0.248 NA
ATOM     41  C   UNL A   1      39.347  26.028  28.448  1.00  0.00     0.031 C 
ATOM     42  C   UNL A   1      42.486  29.184  28.476  1.00  0.00     0.029 A 
ATOM     43  N   UNL A   1      41.055  30.704  29.307  1.00  0.00    -0.354 N 
ATOM     44  C   UNL A   1      41.432  25.095  28.571  1.00  0.00     0.074 A 
ATOM     45  C   UNL A   1      40.033  24.893  28.305  1.00  0.00     0.031 C 
ATOM     46  C   UNL A   1      43.209  30.237  28.897  1.00  0.00     0.029 A 
ATOM     47  C   UNL A   1      42.347  31.003  29.783  1.00  0.00     0.049 A 
ATOM     48  H   UNL A   1      40.280  31.310  29.270  1.00  0.00     0.167 HD
ATOM     49  C   UNL A   1      42.586  24.429  28.289  1.00  0.00     0.034 A 
ATOM     50  C   UNL A   1      42.629  31.261  31.101  1.00  0.00     0.034 A 
ATOM     51  C   UNL A   1      43.733  25.231  28.746  1.00  0.00     0.049 A 
ATOM     52  C   UNL A   1      43.578  30.232  31.701  1.00  0.00     0.074 A 
ATOM     53  C   UNL A   1      44.542  26.145  28.090  1.00  0.00     0.029 A 
ATOM     54  N   UNL A   1      43.922  25.441  30.109  1.00  0.00    -0.354 N 
ATOM     55  N   UNL A   1      43.846  29.083  31.142  1.00  0.00    -0.248 NA
ATOM     56  C   UNL A   1      44.296  30.408  32.963  1.00  0.00     0.031 C 
ATOM     57  C   UNL A   1      45.120  26.993  29.074  1.00  0.00     0.029 A 
ATOM     58  C   UNL A   1      44.702  26.569  30.325  1.00  0.00     0.049 A 
ATOM     59  H   UNL A   1      43.554  24.870  30.821  1.00  0.00     0.167 HD
ATOM     60  C   UNL A   1      44.655  28.341  31.955  1.00  0.00     0.074 A 
ATOM     61  C   UNL A   1      44.955  29.238  33.059  1.00  0.00     0.031 C 
ATOM     62  C   UNL A   1      44.976  27.038  31.681  1.00  0.00     0.034 A 
BRANCH  49  63
ATOM     63  C   UNL A   1      42.740  23.237  27.351  1.00  0.00     0.023 A 
ATOM     64  C   UNL A   1      41.989  22.083  27.678  1.00  0.00     0.012 A 
ATOM     65  C   UNL A   1      43.593  23.109  26.226  1.00  0.00     0.148 A 
ATOM     66  C   UNL A   1      42.121  20.869  26.995  1.00  0.00     0.002 A 
ATOM     67  C   UNL A   1      43.746  21.888  25.554  1.00  0.00     0.091 A 
ATOM     68  F   UNL A   1      44.239  24.171  25.750  1.00  0.00    -0.205 F 
ATOM     69  C   UNL A   1      43.016  20.764  25.944  1.00  0.00     0.022 A 
BRANCH  67  70
ATOM     70  S   UNL A   1      44.897  21.657  24.183  1.00  0.00     0.127 S 
ATOM     71  O   UNL A   1      44.359  22.570  23.173  1.00  0.00    -0.237 OA
ATOM     72  O   UNL A   1      46.168  22.082  24.768  1.00  0.00    -0.237 OA
ATOM     73  O   UNL A   1      44.825  20.248  23.815  1.00  0.00    -0.744 OA
ENDBRANCH  67  70
ENDBRANCH  49  63
BRANCH  50  74
ATOM     74  C   UNL A   1      41.507  31.927  31.830  1.00  0.00     0.023 A 
ATOM     75  C   UNL A   1      41.086  33.179  31.323  1.00  0.00     0.012 A 
ATOM     76  C   UNL A   1      40.622  31.185  32.631  1.00  0.00     0.148 A 
ATOM     77  C   UNL A   1      39.753  33.578  31.429  1.00  0.00     0.002 A 
ATOM     78  C   UNL A   1      39.294  31.592  32.735  1.00  0.00     0.091 A 
ATOM     79  F   UNL A   1      41.067  30.062  33.208  1.00  0.00    -0.205 F 
ATOM     80  C   UNL A   1      38.846  32.755  32.086  1.00  0.00     0.022 A 
BRANCH  78  81
ATOM     81  S   UNL A   1      38.065  30.583  33.573  1.00  0.00     0.127 S 
ATOM     82  O   UNL A   1      38.172  31.067  34.945  1.00  0.00    -0.237 OA
ATOM     83  O   UNL A   1      36.831  30.960  32.886  1.00  0.00    -0.237 OA
ATOM     84  O   UNL A   1      38.484  29.209  33.339  1.00  0.00    -0.744 OA
ENDBRANCH  78  81
ENDBRANCH  50  74
BRANCH  62  85
ATOM     85  C   UNL A   1      45.603  26.093  32.682  1.00  0.00     0.023 A 
ATOM     86  C   UNL A   1      46.999  26.001  32.839  1.00  0.00     0.012 A 
ATOM     87  C   UNL A   1      44.804  25.376  33.609  1.00  0.00     0.148 A 
ATOM     88  C   UNL A   1      47.580  25.167  33.797  1.00  0.00     0.002 A 
ATOM     89  C   UNL A   1      45.388  24.644  34.638  1.00  0.00     0.091 A 
ATOM     90  F   UNL A   1      43.469  25.388  33.488  1.00  0.00    -0.205 F 
ATOM     91  C   UNL A   1      46.775  24.503  34.709  1.00  0.00     0.022 A 
BRANCH  89  92
ATOM     92  S   UNL A   1      44.403  23.985  35.990  1.00  0.00     0.127 S 
ATOM     93  O   UNL A   1      45.427  23.674  36.983  1.00  0.00    -0.237 OA
ATOM     94  O   UNL A   1      43.546  25.121  36.333  1.00  0.00    -0.237 OA
ATOM     95  O   UNL A   1      43.687  22.848  35.428  1.00  0.00    -0.744 OA
ENDBRANCH  89  92
ENDBRANCH  62  85
ENDBRANCH  36  37
ENDBRANCH  28  31
ENDBRANCH  26  27
ENDBRANCH  25  26
ENDBRANCH   1  25
TORSDOF 19
ENDMDL
MODEL 2
REMARK VINA RESULT:     -11.1      1.363      2.063
REMARK SMILES Cc1cccc(C[C@H](CC(=O)NCCCNC(=O)c2ccc(-c3c4nc(c(-c5cccc(S(=O)(=O)[O-])c5F)c5ccc([nH]5)c(-c5cccc(S(=O)(=O)[O-])c5F)c5nc(c(-c6cccc(S(=O)(=O)[O-])c6F)c6ccc3[nH]6)C=C5)C=C4)cc2)NC(=O)OC(C)(C)C)c1
REMARK SMILES IDX 13 1 12 2 10 3 11 4 9 6 8 7 7 8 6 9 1 10 2 11 3 12 90 13
REMARK SMILES IDX 4 14 5 15 82 16 83 17 84 19 85 20 86 21 87 22 88 23 89 24
REMARK SMILES IDX 14 25 15 26 16 27 17 28 18 30 19 31 20 32 81 33 21 34 80 35
REMARK SMILES IDX 22 36 23 37 24 38 74 39 25 40 79 41 73 42 75 43 26 44 78 45
REMARK SMILES IDX 72 46 71 47 27 49 59 50 39 51 58 52 40 53 43 54 57 55 76 56
REMARK SMILES IDX 41 57 42 58 56 60 77 61 44 62 28 63 29 64 37 65 30 66 32 67
REMARK SMILES IDX 38 68 31 69 33 70 34 71 35 72 36 73 60 74 61 75 69 76 62 77
REMARK SMILES IDX 64 78 70 79 63 80 65 81 66 82 67 83 68 84 45 85 46 86 54 87
REMARK SMILES IDX 47 88 49 89 55 90 48 91 50 92 51 93 52 94 53 95
REMARK H PARENT 12 5 82 18 16 29 75 48 43 59
REMARK Flexibility Score: inf
ROOT
ATOM      1  C   UNL A   1      31.935  30.166  25.779  1.00  0.00     0.117 C 
ENDROOT
BRANCH   1   2
ATOM      2  N   UNL A   1      32.655  29.831  24.562  1.00  0.00    -0.356 N 
ATOM      3  C   UNL A   1      33.603  28.889  24.304  1.00  0.00     0.222 C 
ATOM      4  O   UNL A   1      34.028  28.794  23.151  1.00  0.00    -0.275 OA
ATOM      5  H   UNL A   1      32.413  30.384  23.784  1.00  0.00     0.163 HD
BRANCH   3   6
ATOM      6  C   UNL A   1      34.142  27.959  25.382  1.00  0.00     0.125 C 
BRANCH   6   7
ATOM      7  C   UNL A   1      33.629  26.500  25.369  1.00  0.00     0.099 C 
BRANCH   7   8
ATOM      8  C   UNL A   1      34.775  25.476  25.657  1.00  0.00     0.061 C 
BRANCH   8   9
ATOM      9  C   UNL A   1      34.638  24.058  25.138  1.00  0.00    -0.046 A 
ATOM     10  C   UNL A   1      32.323  22.095  22.806  1.00  0.00     0.044 C 
ATOM     11  C   UNL A   1      33.441  22.437  23.747  1.00  0.00    -0.051 A 
ATOM     12  C   UNL A   1      34.380  21.458  24.084  1.00  0.00     0.003 A 
ATOM     13  C   UNL A   1      33.566  23.725  24.291  1.00  0.00     0.007 A 
ATOM     14  C   UNL A   1      35.476  21.788  24.874  1.00  0.00     0.001 A 
ATOM     15  C   UNL A   1      35.619  23.087  25.362  1.00  0.00     0.004 A 
ENDBRANCH   8   9
ENDBRANCH   7   8
BRANCH   7  16
ATOM     16  N   UNL A   1      32.486  26.433  26.278  1.00  0.00    -0.318 N 
ATOM     17  C   UNL A   1      31.168  26.697  26.127  1.00  0.00     0.407 C 
ATOM     18  H   UNL A   1      32.724  26.135  27.186  1.00  0.00     0.167 HD
ATOM     19  O   UNL A   1      30.419  26.486  27.064  1.00  0.00    -0.225 OA
BRANCH  17  20
ATOM     20  O   UNL A   1      30.830  27.175  24.913  1.00  0.00    -0.444 OA
BRANCH  20  21
ATOM     21  C   UNL A   1      30.258  26.249  23.956  1.00  0.00     0.106 C 
ATOM     22  C   UNL A   1      28.809  26.631  23.628  1.00  0.00     0.056 C 
ATOM     23  C   UNL A   1      31.114  26.125  22.686  1.00  0.00     0.056 C 
ATOM     24  C   UNL A   1      30.262  24.896  24.676  1.00  0.00     0.056 C 
ENDBRANCH  20  21
ENDBRANCH  17  20
ENDBRANCH   7  16
ENDBRANCH   6   7
ENDBRANCH   3   6
ENDBRANCH   1   2
BRANCH   1  25
ATOM     25  C   UNL A   1      32.629  31.255  26.586  1.00  0.00     0.042 C 
BRANCH  25  26
ATOM     26  C   UNL A   1      33.532  30.761  27.689  1.00  0.00     0.118 C 
BRANCH  26  27
ATOM     27  N   UNL A   1      34.639  31.667  27.910  1.00  0.00    -0.352 N 
ATOM     28  C   UNL A   1      35.822  31.430  28.586  1.00  0.00     0.251 C 
ATOM     29  H   UNL A   1      34.535  32.570  27.530  1.00  0.00     0.163 HD
ATOM     30  O   UNL A   1      36.428  32.373  29.085  1.00  0.00    -0.269 OA
BRANCH  28  31
ATOM     31  C   UNL A   1      36.443  30.082  28.477  1.00  0.00     0.039 A 
ATOM     32  C   UNL A   1      36.696  29.490  29.718  1.00  0.00     0.014 A 
ATOM     33  C   UNL A   1      37.237  29.771  27.381  1.00  0.00     0.014 A 
ATOM     34  C   UNL A   1      37.944  28.940  29.956  1.00  0.00     0.010 A 
ATOM     35  C   UNL A   1      38.520  29.357  27.636  1.00  0.00     0.010 A 
ATOM     36  C   UNL A   1      38.887  29.031  28.945  1.00  0.00    -0.014 A 
BRANCH  36  37
ATOM     37  C   UNL A   1      40.271  28.643  29.075  1.00  0.00     0.031 A 
ATOM     38  C   UNL A   1      40.558  27.210  28.870  1.00  0.00     0.074 A 
ATOM     39  C   UNL A   1      41.207  29.620  29.073  1.00  0.00     0.049 A 
ATOM     40  N   UNL A   1      41.681  26.643  29.113  1.00  0.00    -0.248 NA
ATOM     41  C   UNL A   1      39.537  26.283  28.381  1.00  0.00     0.031 C 
ATOM     42  C   UNL A   1      42.608  29.490  28.702  1.00  0.00     0.029 A 
ATOM     43  N   UNL A   1      41.113  30.938  29.551  1.00  0.00    -0.354 N 
ATOM     44  C   UNL A   1      41.634  25.383  28.542  1.00  0.00     0.074 A 
ATOM     45  C   UNL A   1      40.251  25.170  28.208  1.00  0.00     0.031 C 
ATOM     46  C   UNL A   1      43.291  30.532  29.207  1.00  0.00     0.029 A 
ATOM     47  C   UNL A   1      42.378  31.235  30.095  1.00  0.00     0.049 A 
ATOM     48  H   UNL A   1      40.328  31.530  29.513  1.00  0.00     0.167 HD
ATOM     49  C   UNL A   1      42.811  24.754  28.274  1.00  0.00     0.034 A 
ATOM     50  C   UNL A   1      42.601  31.428  31.435  1.00  0.00     0.034 A 
ATOM     51  C   UNL A   1      43.922  25.552  28.819  1.00  0.00     0.049 A 
ATOM     52  C   UNL A   1      43.546  30.388  32.020  1.00  0.00     0.074 A 
ATOM     53  C   UNL A   1      44.739  26.514  28.245  1.00  0.00     0.029 A 
ATOM     54  N   UNL A   1      44.052  25.694  30.198  1.00  0.00    -0.354 N 
ATOM     55  N   UNL A   1      43.860  29.274  31.414  1.00  0.00    -0.248 NA
ATOM     56  C   UNL A   1      44.209  30.510  33.317  1.00  0.00     0.031 C 
ATOM     57  C   UNL A   1      45.259  27.319  29.295  1.00  0.00     0.029 A 
ATOM     58  C   UNL A   1      44.799  26.823  30.504  1.00  0.00     0.049 A 
ATOM     59  H   UNL A   1      43.667  25.079  30.863  1.00  0.00     0.167 HD
ATOM     60  C   UNL A   1      44.651  28.505  32.220  1.00  0.00     0.074 A 
ATOM     61  C   UNL A   1      44.888  29.349  33.380  1.00  0.00     0.031 C 
ATOM     62  C   UNL A   1      45.009  27.225  31.892  1.00  0.00     0.034 A 
BRANCH  49  63
ATOM     63  C   UNL A   1      43.028  23.616  27.283  1.00  0.00     0.023 A 
ATOM     64  C   UNL A   1      43.783  23.929  26.128  1.00  0.00     0.012 A 
ATOM     65  C   UNL A   1      42.512  22.297  27.334  1.00  0.00     0.148 A 
ATOM     66  C   UNL A   1      43.956  23.034  25.066  1.00  0.00     0.002 A 
ATOM     67  C   UNL A   1      42.663  21.405  26.262  1.00  0.00     0.091 A 
ATOM     68  F   UNL A   1      41.905  21.856  28.434  1.00  0.00    -0.205 F 
ATOM     69  C   UNL A   1      43.379  21.777  25.123  1.00  0.00     0.022 A 
BRANCH  67  70
ATOM     70  S   UNL A   1      41.936  19.753  26.246  1.00  0.00     0.127 S 
ATOM     71  O   UNL A   1      42.345  19.224  27.547  1.00  0.00    -0.237 OA
ATOM     72  O   UNL A   1      40.507  20.044  26.132  1.00  0.00    -0.237 OA
ATOM     73  O   UNL A   1      42.518  19.056  25.105  1.00  0.00    -0.744 OA
ENDBRANCH  67  70
ENDBRANCH  49  63
BRANCH  50  74
ATOM     74  C   UNL A   1      41.438  32.035  32.150  1.00  0.00     0.023 A 
ATOM     75  C   UNL A   1      41.023  33.312  31.703  1.00  0.00     0.012 A 
ATOM     76  C   UNL A   1      40.528  31.234  32.861  1.00  0.00     0.148 A 
ATOM     77  C   UNL A   1      39.681  33.688  31.770  1.00  0.00     0.002 A 
ATOM     78  C   UNL A   1      39.190  31.618  32.928  1.00  0.00     0.091 A 
ATOM     79  F   UNL A   1      40.961  30.082  33.388  1.00  0.00    -0.205 F 
ATOM     80  C   UNL A   1      38.756  32.815  32.332  1.00  0.00     0.022 A 
BRANCH  78  81
ATOM     81  S   UNL A   1      37.938  30.545  33.642  1.00  0.00     0.127 S 
ATOM     82  O   UNL A   1      38.492  29.223  33.370  1.00  0.00    -0.237 OA
ATOM     83  O   UNL A   1      37.955  30.938  35.050  1.00  0.00    -0.237 OA
ATOM     84  O   UNL A   1      36.708  30.885  32.942  1.00  0.00    -0.744 OA
ENDBRANCH  78  81
ENDBRANCH  50  74
BRANCH  62  85
ATOM     85  C   UNL A   1      45.614  26.240  32.868  1.00  0.00     0.023 A 
ATOM     86  C   UNL A   1      47.007  26.137  33.047  1.00  0.00     0.012 A 
ATOM     87  C   UNL A   1      44.796  25.492  33.753  1.00  0.00     0.148 A 
ATOM     88  C   UNL A   1      47.568  25.265  33.983  1.00  0.00     0.002 A 
ATOM     89  C   UNL A   1      45.358  24.719  34.764  1.00  0.00     0.091 A 
ATOM     90  F   UNL A   1      43.463  25.514  33.608  1.00  0.00    -0.205 F 
ATOM     91  C   UNL A   1      46.743  24.570  34.855  1.00  0.00     0.022 A 
BRANCH  89  92
ATOM     92  S   UNL A   1      44.347  24.014  36.072  1.00  0.00     0.127 S 
ATOM     93  O   UNL A   1      43.538  23.045  35.337  1.00  0.00    -0.237 OA
ATOM     94  O   UNL A   1      45.351  23.423  36.958  1.00  0.00    -0.237 OA
ATOM     95  O   UNL A   1      43.628  25.139  36.654  1.00  0.00    -0.744 OA
ENDBRANCH  89  92
ENDBRANCH  62  85
ENDBRANCH  36  37
ENDBRANCH  28  31
ENDBRANCH  26  27
ENDBRANCH  25  26
ENDBRANCH   1  25
TORSDOF 19
ENDMDL
MODEL 3
REMARK VINA RESULT:     -11.0      2.927      4.187
REMARK SMILES Cc1cccc(C[C@H](CC(=O)NCCCNC(=O)c2ccc(-c3c4nc(c(-c5cccc(S(=O)(=O)[O-])c5F)c5ccc([nH]5)c(-c5cccc(S(=O)(=O)[O-])c5F)c5nc(c(-c6cccc(S(=O)(=O)[O-])c6F)c6ccc3[nH]6)C=C5)C=C4)cc2)NC(=O)OC(C)(C)C)c1
REMARK SMILES IDX 13 1 12 2 10 3 11 4 9 6 8 7 7 8 6 9 1 10 2 11 3 12 90 13
REMARK SMILES IDX 4 14 5 15 82 16 83 17 84 19 85 20 86 21 87 22 88 23 89 24
REMARK SMILES IDX 14 25 15 26 16 27 17 28 18 30 19 31 20 32 81 33 21 34 80 35
REMARK SMILES IDX 22 36 23 37 24 38 74 39 25 40 79 41 73 42 75 43 26 44 78 45
REMARK SMILES IDX 72 46 71 47 27 49 59 50 39 51 58 52 40 53 43 54 57 55 76 56
REMARK SMILES IDX 41 57 42 58 56 60 77 61 44 62 28 63 29 64 37 65 30 66 32 67
REMARK SMILES IDX 38 68 31 69 33 70 34 71 35 72 36 73 60 74 61 75 69 76 62 77
REMARK SMILES IDX 64 78 70 79 63 80 65 81 66 82 67 83 68 84 45 85 46 86 54 87
REMARK SMILES IDX 47 88 49 89 55 90 48 91 50 92 51 93 52 94 53 95
REMARK H PARENT 12 5 82 18 16 29 75 48 43 59
REMARK Flexibility Score: inf
ROOT
ATOM      1  C   UNL A   1      33.914  29.850  27.643  1.00  0.00     0.117 C 
ENDROOT
BRANCH   1   2
ATOM      2  N   UNL A   1      32.978  30.276  26.615  1.00  0.00    -0.356 N 
ATOM      3  C   UNL A   1      31.896  29.657  26.068  1.00  0.00     0.222 C 
ATOM      4  O   UNL A   1      31.242  30.272  25.222  1.00  0.00    -0.275 OA
ATOM      5  H   UNL A   1      33.158  31.172  26.250  1.00  0.00     0.163 HD
BRANCH   3   6
ATOM      6  C   UNL A   1      31.472  28.251  26.467  1.00  0.00     0.125 C 
BRANCH   6   7
ATOM      7  C   UNL A   1      31.651  27.138  25.408  1.00  0.00     0.099 C 
BRANCH   7   8
ATOM      8  C   UNL A   1      31.151  25.751  25.930  1.00  0.00     0.061 C 
BRANCH   8   9
ATOM      9  C   UNL A   1      32.169  24.664  26.213  1.00  0.00    -0.046 A 
ATOM     10  C   UNL A   1      35.903  24.047  25.641  1.00  0.00     0.044 C 
ATOM     11  C   UNL A   1      34.477  23.859  26.069  1.00  0.00    -0.051 A 
ATOM     12  C   UNL A   1      34.118  22.711  26.781  1.00  0.00     0.003 A 
ATOM     13  C   UNL A   1      33.496  24.819  25.774  1.00  0.00     0.007 A 
ATOM     14  C   UNL A   1      32.824  22.572  27.270  1.00  0.00     0.001 A 
ATOM     15  C   UNL A   1      31.872  23.561  27.019  1.00  0.00     0.004 A 
ENDBRANCH   8   9
ENDBRANCH   7   8
BRANCH   7  16
ATOM     16  N   UNL A   1      31.023  27.607  24.174  1.00  0.00    -0.318 N 
ATOM     17  C   UNL A   1      30.931  27.086  22.929  1.00  0.00     0.407 C 
ATOM     18  H   UNL A   1      30.577  28.479  24.267  1.00  0.00     0.167 HD
ATOM     19  O   UNL A   1      30.275  27.683  22.094  1.00  0.00    -0.225 OA
BRANCH  17  20
ATOM     20  O   UNL A   1      31.596  25.927  22.757  1.00  0.00    -0.444 OA
BRANCH  20  21
ATOM     21  C   UNL A   1      32.826  25.959  21.992  1.00  0.00     0.106 C 
ATOM     22  C   UNL A   1      32.549  25.701  20.505  1.00  0.00     0.056 C 
ATOM     23  C   UNL A   1      33.609  27.264  22.206  1.00  0.00     0.056 C 
ATOM     24  C   UNL A   1      33.660  24.799  22.548  1.00  0.00     0.056 C 
ENDBRANCH  20  21
ENDBRANCH  17  20
ENDBRANCH   7  16
ENDBRANCH   6   7
ENDBRANCH   3   6
ENDBRANCH   1   2
BRANCH   1  25
ATOM     25  C   UNL A   1      35.364  30.088  27.243  1.00  0.00     0.042 C 
BRANCH  25  26
ATOM     26  C   UNL A   1      36.066  31.190  27.998  1.00  0.00     0.118 C 
BRANCH  26  27
ATOM     27  N   UNL A   1      35.287  32.410  27.995  1.00  0.00    -0.352 N 
ATOM     28  C   UNL A   1      35.124  33.328  29.016  1.00  0.00     0.251 C 
ATOM     29  H   UNL A   1      34.810  32.612  27.157  1.00  0.00     0.163 HD
ATOM     30  O   UNL A   1      34.114  34.024  29.043  1.00  0.00    -0.269 OA
BRANCH  28  31
ATOM     31  C   UNL A   1      36.284  33.613  29.906  1.00  0.00     0.039 A 
ATOM     32  C   UNL A   1      37.426  34.016  29.208  1.00  0.00     0.014 A 
ATOM     33  C   UNL A   1      36.405  32.951  31.120  1.00  0.00     0.014 A 
ATOM     34  C   UNL A   1      38.637  33.411  29.501  1.00  0.00     0.010 A 
ATOM     35  C   UNL A   1      37.559  32.243  31.334  1.00  0.00     0.010 A 
ATOM     36  C   UNL A   1      38.639  32.414  30.462  1.00  0.00    -0.014 A 
BRANCH  36  37
ATOM     37  C   UNL A   1      39.776  31.585  30.784  1.00  0.00     0.031 A 
ATOM     38  C   UNL A   1      39.837  30.283  30.091  1.00  0.00     0.074 A 
ATOM     39  C   UNL A   1      40.815  32.157  31.434  1.00  0.00     0.049 A 
ATOM     40  N   UNL A   1      40.661  29.341  30.367  1.00  0.00    -0.248 NA
ATOM     41  C   UNL A   1      38.910  29.942  29.011  1.00  0.00     0.031 C 
ATOM     42  C   UNL A   1      42.201  31.714  31.430  1.00  0.00     0.029 A 
ATOM     43  N   UNL A   1      40.806  33.206  32.369  1.00  0.00    -0.354 N 
ATOM     44  C   UNL A   1      40.587  28.419  29.338  1.00  0.00     0.074 A 
ATOM     45  C   UNL A   1      39.411  28.779  28.591  1.00  0.00     0.031 C 
ATOM     46  C   UNL A   1      42.836  32.262  32.481  1.00  0.00     0.029 A 
ATOM     47  C   UNL A   1      41.813  32.890  33.302  1.00  0.00     0.049 A 
ATOM     48  H   UNL A   1      40.219  33.996  32.371  1.00  0.00     0.167 HD
ATOM     49  C   UNL A   1      41.636  27.571  29.159  1.00  0.00     0.034 A 
ATOM     50  C   UNL A   1      41.560  32.557  34.608  1.00  0.00     0.034 A 
ATOM     51  C   UNL A   1      42.599  27.750  30.258  1.00  0.00     0.049 A 
ATOM     52  C   UNL A   1      42.005  31.139  34.940  1.00  0.00     0.074 A 
ATOM     53  C   UNL A   1      43.737  28.532  30.371  1.00  0.00     0.029 A 
ATOM     54  N   UNL A   1      42.236  27.388  31.552  1.00  0.00    -0.354 N 
ATOM     55  N   UNL A   1      42.299  30.244  34.037  1.00  0.00    -0.248 NA
ATOM     56  C   UNL A   1      42.153  30.616  36.298  1.00  0.00     0.031 C 
ATOM     57  C   UNL A   1      43.978  28.743  31.756  1.00  0.00     0.029 A 
ATOM     58  C   UNL A   1      43.019  28.056  32.483  1.00  0.00     0.049 A 
ATOM     59  H   UNL A   1      41.523  26.748  31.776  1.00  0.00     0.167 HD
ATOM     60  C   UNL A   1      42.575  29.046  34.632  1.00  0.00     0.074 A 
ATOM     61  C   UNL A   1      42.525  29.346  36.054  1.00  0.00     0.031 C 
ATOM     62  C   UNL A   1      42.776  27.897  33.914  1.00  0.00     0.034 A 
BRANCH  49  63
ATOM     63  C   UNL A   1      41.980  26.809  27.883  1.00  0.00     0.023 A 
ATOM     64  C   UNL A   1      42.096  27.584  26.705  1.00  0.00     0.012 A 
ATOM     65  C   UNL A   1      42.133  25.411  27.709  1.00  0.00     0.148 A 
ATOM     66  C   UNL A   1      42.276  27.020  25.436  1.00  0.00     0.002 A 
ATOM     67  C   UNL A   1      42.289  24.840  26.437  1.00  0.00     0.091 A 
ATOM     68  F   UNL A   1      42.178  24.604  28.767  1.00  0.00    -0.205 F 
ATOM     69  C   UNL A   1      42.352  25.645  25.298  1.00  0.00     0.022 A 
BRANCH  67  70
ATOM     70  S   UNL A   1      42.385  23.058  26.163  1.00  0.00     0.127 S 
ATOM     71  O   UNL A   1      42.816  22.985  24.766  1.00  0.00    -0.237 OA
ATOM     72  O   UNL A   1      43.400  22.649  27.133  1.00  0.00    -0.237 OA
ATOM     73  O   UNL A   1      41.048  22.530  26.406  1.00  0.00    -0.744 OA
ENDBRANCH  67  70
ENDBRANCH  49  63
BRANCH  50  74
ATOM     74  C   UNL A   1      40.354  33.237  35.172  1.00  0.00     0.023 A 
ATOM     75  C   UNL A   1      39.142  32.507  35.122  1.00  0.00     0.012 A 
ATOM     76  C   UNL A   1      40.482  34.281  36.104  1.00  0.00     0.148 A 
ATOM     77  C   UNL A   1      38.173  32.669  36.113  1.00  0.00     0.002 A 
ATOM     78  C   UNL A   1      39.507  34.439  37.088  1.00  0.00     0.091 A 
ATOM     79  F   UNL A   1      41.579  35.046  36.065  1.00  0.00    -0.205 F 
ATOM     80  C   UNL A   1      38.384  33.596  37.128  1.00  0.00     0.022 A 
BRANCH  78  81
ATOM     81  S   UNL A   1      39.707  35.619  38.429  1.00  0.00     0.127 S 
ATOM     82  O   UNL A   1      41.019  35.252  38.951  1.00  0.00    -0.237 OA
ATOM     83  O   UNL A   1      39.665  36.900  37.727  1.00  0.00    -0.237 OA
ATOM     84  O   UNL A   1      38.573  35.381  39.310  1.00  0.00    -0.744 OA
ENDBRANCH  78  81
ENDBRANCH  50  74
BRANCH  62  85
ATOM     85  C   UNL A   1      42.778  26.511  34.519  1.00  0.00     0.023 A 
ATOM     86  C   UNL A   1      41.667  26.011  35.226  1.00  0.00     0.012 A 
ATOM     87  C   UNL A   1      43.839  25.605  34.266  1.00  0.00     0.148 A 
ATOM     88  C   UNL A   1      41.645  24.713  35.743  1.00  0.00     0.002 A 
ATOM     89  C   UNL A   1      43.758  24.278  34.677  1.00  0.00     0.091 A 
ATOM     90  F   UNL A   1      44.944  26.030  33.636  1.00  0.00    -0.205 F 
ATOM     91  C   UNL A   1      42.683  23.840  35.452  1.00  0.00     0.022 A 
BRANCH  89  92
ATOM     92  S   UNL A   1      44.941  23.051  34.107  1.00  0.00     0.127 S 
ATOM     93  O   UNL A   1      44.439  21.833  34.739  1.00  0.00    -0.237 OA
ATOM     94  O   UNL A   1      44.767  23.101  32.655  1.00  0.00    -0.237 OA
ATOM     95  O   UNL A   1      46.241  23.523  34.567  1.00  0.00    -0.744 OA
ENDBRANCH  89  92
ENDBRANCH  62  85
ENDBRANCH  36  37
ENDBRANCH  28  31
ENDBRANCH  26  27
ENDBRANCH  25  26
ENDBRANCH   1  25
TORSDOF 19
ENDMDL
