MODEL 1
REMARK VINA RESULT:     -11.6      0.000      0.000
REMARK SMILES O=C(CC[NH+]1CC[NH+](Cc2ccccc2C2CC2)CC1)NCCCNC(=O)c1ccc(-c2c3nc(c(-c4cccc(S(=O)(=O)[O-])c4F)c4ccc([nH]4)c(-c4cccc(S(=O)(=O)[O-])c4F)c4nc(c(-c5cccc(S(=O)(=O)[O-])c5F)c5ccc2[nH]5)C=C4)C=C3)cc1
REMARK SMILES IDX 22 1 21 2 1 3 2 4 3 6 4 7 5 8 6 9 20 10 7 12 19 13 8 14 9 16
REMARK SMILES IDX 10 17 11 18 15 19 12 20 14 21 13 22 16 23 17 24 18 25 23 26
REMARK SMILES IDX 24 27 25 28 26 29 27 31 28 32 29 33 90 34 30 35 89 36 31 37
REMARK SMILES IDX 32 38 33 39 83 40 34 41 88 42 82 43 84 44 35 45 87 46 81 47
REMARK SMILES IDX 80 48 36 50 68 51 48 52 67 53 49 54 52 55 66 56 85 57 50 58
REMARK SMILES IDX 51 59 65 61 86 62 53 63 37 64 38 65 46 66 39 67 41 68 47 69
REMARK SMILES IDX 40 70 42 71 43 72 44 73 45 74 69 75 70 76 78 77 71 78 73 79
REMARK SMILES IDX 79 80 72 81 74 82 75 83 76 84 77 85 54 86 55 87 63 88 56 89
REMARK SMILES IDX 58 90 64 91 57 92 59 93 60 94 61 95 62 96
REMARK H PARENT 21 5 5 11 8 15 25 30 84 49 52 60
REMARK Flexibility Score: inf
ROOT
ATOM      1  C   UNL A   1      31.761  30.279  26.446  1.00  0.00     0.117 C 
ENDROOT
BRANCH   1   2
ATOM      2  N   UNL A   1      32.397  29.965  25.187  1.00  0.00    -0.356 N 
ATOM      3  O   UNL A   1      34.094  28.655  26.038  1.00  0.00    -0.275 OA
ATOM      4  C   UNL A   1      33.461  29.098  25.083  1.00  0.00     0.225 C 
ATOM      5  H   UNL A   1      32.056  30.390  24.368  1.00  0.00     0.163 HD
BRANCH   4   6
ATOM      6  C   UNL A   1      33.767  28.690  23.662  1.00  0.00     0.161 C 
BRANCH   6   7
ATOM      7  C   UNL A   1      32.657  27.758  23.143  1.00  0.00     0.272 C 
BRANCH   7   8
ATOM      8  N   UNL A   1      32.674  26.544  23.964  1.00  0.00    -0.325 N 
ATOM      9  C   UNL A   1      31.615  25.625  23.535  1.00  0.00     0.324 C 
ATOM     10  C   UNL A   1      33.966  25.848  24.105  1.00  0.00     0.324 C 
ATOM     11  H   UNL A   1      32.497  26.881  24.912  1.00  0.00     0.348 HD
ATOM     12  C   UNL A   1      32.029  24.694  22.377  1.00  0.00     0.324 C 
ATOM     13  C   UNL A   1      34.284  24.660  23.151  1.00  0.00     0.324 C 
ATOM     14  N   UNL A   1      33.158  23.832  22.705  1.00  0.00    -0.322 N 
ATOM     15  H   UNL A   1      33.502  23.360  21.869  1.00  0.00     0.348 HD
BRANCH  14  16
ATOM     16  C   UNL A   1      32.795  22.634  23.490  1.00  0.00     0.299 C 
BRANCH  16  17
ATOM     17  C   UNL A   1      33.260  22.500  24.932  1.00  0.00     0.010 A 
ATOM     18  C   UNL A   1      32.357  23.071  25.879  1.00  0.00     0.010 A 
ATOM     19  C   UNL A   1      34.462  21.893  25.403  1.00  0.00    -0.036 A 
ATOM     20  C   UNL A   1      32.539  22.967  27.253  1.00  0.00     0.001 A 
ATOM     21  C   UNL A   1      34.555  21.753  26.821  1.00  0.00     0.004 A 
ATOM     22  C   UNL A   1      33.627  22.269  27.728  1.00  0.00     0.000 A 
BRANCH  19  23
ATOM     23  C   UNL A   1      35.734  21.405  24.683  1.00  0.00     0.020 C 
ATOM     24  C   UNL A   1      36.711  22.207  23.875  1.00  0.00     0.009 C 
ATOM     25  C   UNL A   1      37.150  21.557  25.154  1.00  0.00     0.009 C 
ENDBRANCH  19  23
ENDBRANCH  16  17
ENDBRANCH  14  16
ENDBRANCH   7   8
ENDBRANCH   6   7
ENDBRANCH   4   6
ENDBRANCH   1   2
BRANCH   1  26
ATOM     26  C   UNL A   1      31.564  31.771  26.662  1.00  0.00     0.042 C 
BRANCH  26  27
ATOM     27  C   UNL A   1      32.777  32.485  27.253  1.00  0.00     0.118 C 
BRANCH  27  28
ATOM     28  N   UNL A   1      32.511  33.877  27.604  1.00  0.00    -0.352 N 
ATOM     29  C   UNL A   1      33.079  34.681  28.563  1.00  0.00     0.251 C 
ATOM     30  H   UNL A   1      31.812  34.311  27.064  1.00  0.00     0.163 HD
ATOM     31  O   UNL A   1      32.593  35.787  28.789  1.00  0.00    -0.269 OA
BRANCH  29  32
ATOM     32  C   UNL A   1      34.255  34.223  29.338  1.00  0.00     0.039 A 
ATOM     33  C   UNL A   1      34.050  33.551  30.547  1.00  0.00     0.014 A 
ATOM     34  C   UNL A   1      35.555  34.469  28.893  1.00  0.00     0.014 A 
ATOM     35  C   UNL A   1      35.144  33.055  31.264  1.00  0.00     0.010 A 
ATOM     36  C   UNL A   1      36.638  33.903  29.562  1.00  0.00     0.010 A 
ATOM     37  C   UNL A   1      36.447  33.188  30.755  1.00  0.00    -0.014 A 
BRANCH  37  38
ATOM     38  C   UNL A   1      37.615  32.564  31.434  1.00  0.00     0.031 A 
ATOM     39  C   UNL A   1      38.350  31.416  30.794  1.00  0.00     0.074 A 
ATOM     40  C   UNL A   1      37.956  32.966  32.675  1.00  0.00     0.049 A 
ATOM     41  N   UNL A   1      39.336  30.701  31.270  1.00  0.00    -0.248 NA
ATOM     42  C   UNL A   1      37.901  31.001  29.455  1.00  0.00     0.031 C 
ATOM     43  C   UNL A   1      37.281  34.018  33.439  1.00  0.00     0.029 A 
ATOM     44  N   UNL A   1      38.937  32.520  33.527  1.00  0.00    -0.354 N 
ATOM     45  C   UNL A   1      39.602  29.731  30.310  1.00  0.00     0.074 A 
ATOM     46  C   UNL A   1      38.653  29.930  29.237  1.00  0.00     0.031 C 
ATOM     47  C   UNL A   1      37.866  34.136  34.641  1.00  0.00     0.029 A 
ATOM     48  C   UNL A   1      38.932  33.145  34.753  1.00  0.00     0.049 A 
ATOM     49  H   UNL A   1      39.583  31.818  33.283  1.00  0.00     0.167 HD
ATOM     50  C   UNL A   1      40.564  28.776  30.308  1.00  0.00     0.034 A 
ATOM     51  C   UNL A   1      39.686  32.936  35.850  1.00  0.00     0.034 A 
ATOM     52  C   UNL A   1      41.529  28.599  31.361  1.00  0.00     0.049 A 
ATOM     53  C   UNL A   1      40.759  31.882  35.814  1.00  0.00     0.074 A 
ATOM     54  C   UNL A   1      42.596  27.718  31.410  1.00  0.00     0.029 A 
ATOM     55  N   UNL A   1      41.539  29.303  32.555  1.00  0.00    -0.354 N 
ATOM     56  N   UNL A   1      41.095  31.079  34.835  1.00  0.00    -0.248 NA
ATOM     57  C   UNL A   1      41.580  31.727  37.024  1.00  0.00     0.031 C 
ATOM     58  C   UNL A   1      43.227  27.863  32.648  1.00  0.00     0.029 A 
ATOM     59  C   UNL A   1      42.581  28.865  33.355  1.00  0.00     0.049 A 
ATOM     60  H   UNL A   1      40.899  30.010  32.799  1.00  0.00     0.167 HD
ATOM     61  C   UNL A   1      42.188  30.353  35.294  1.00  0.00     0.074 A 
ATOM     62  C   UNL A   1      42.470  30.825  36.634  1.00  0.00     0.031 C 
ATOM     63  C   UNL A   1      42.886  29.374  34.667  1.00  0.00     0.034 A 
BRANCH  50  64
ATOM     64  C   UNL A   1      40.650  27.867  29.108  1.00  0.00     0.023 A 
ATOM     65  C   UNL A   1      39.774  26.766  29.002  1.00  0.00     0.012 A 
ATOM     66  C   UNL A   1      41.549  28.138  28.058  1.00  0.00     0.148 A 
ATOM     67  C   UNL A   1      39.818  25.929  27.888  1.00  0.00     0.002 A 
ATOM     68  C   UNL A   1      41.553  27.326  26.929  1.00  0.00     0.091 A 
ATOM     69  F   UNL A   1      42.385  29.178  28.183  1.00  0.00    -0.205 F 
ATOM     70  C   UNL A   1      40.698  26.214  26.849  1.00  0.00     0.022 A 
BRANCH  68  71
ATOM     71  S   UNL A   1      42.590  27.657  25.500  1.00  0.00     0.127 S 
ATOM     72  O   UNL A   1      43.927  27.620  26.093  1.00  0.00    -0.237 OA
ATOM     73  O   UNL A   1      42.281  26.524  24.628  1.00  0.00    -0.237 OA
ATOM     74  O   UNL A   1      42.170  28.953  24.988  1.00  0.00    -0.744 OA
ENDBRANCH  68  71
ENDBRANCH  50  64
BRANCH  51  75
ATOM     75  C   UNL A   1      39.484  33.777  37.065  1.00  0.00     0.023 A 
ATOM     76  C   UNL A   1      39.919  35.116  37.062  1.00  0.00     0.012 A 
ATOM     77  C   UNL A   1      38.854  33.263  38.215  1.00  0.00     0.148 A 
ATOM     78  C   UNL A   1      39.761  35.919  38.192  1.00  0.00     0.002 A 
ATOM     79  C   UNL A   1      38.648  34.084  39.316  1.00  0.00     0.091 A 
ATOM     80  F   UNL A   1      38.456  31.983  38.202  1.00  0.00    -0.205 F 
ATOM     81  C   UNL A   1      39.118  35.406  39.315  1.00  0.00     0.022 A 
BRANCH  79  82
ATOM     82  S   UNL A   1      37.717  33.551  40.758  1.00  0.00     0.127 S 
ATOM     83  O   UNL A   1      37.738  34.752  41.587  1.00  0.00    -0.237 OA
ATOM     84  O   UNL A   1      36.415  33.229  40.171  1.00  0.00    -0.237 OA
ATOM     85  O   UNL A   1      38.438  32.403  41.289  1.00  0.00    -0.744 OA
ENDBRANCH  79  82
ENDBRANCH  51  75
BRANCH  63  86
ATOM     86  C   UNL A   1      44.060  28.772  35.396  1.00  0.00     0.023 A 
ATOM     87  C   UNL A   1      45.341  29.341  35.265  1.00  0.00     0.012 A 
ATOM     88  C   UNL A   1      43.873  27.686  36.275  1.00  0.00     0.148 A 
ATOM     89  C   UNL A   1      46.425  28.817  35.970  1.00  0.00     0.002 A 
ATOM     90  C   UNL A   1      44.946  27.203  37.014  1.00  0.00     0.091 A 
ATOM     91  F   UNL A   1      42.648  27.147  36.374  1.00  0.00    -0.205 F 
ATOM     92  C   UNL A   1      46.225  27.759  36.852  1.00  0.00     0.022 A 
BRANCH  90  93
ATOM     93  S   UNL A   1      44.765  25.910  38.247  1.00  0.00     0.127 S 
ATOM     94  O   UNL A   1      44.496  24.739  37.414  1.00  0.00    -0.237 OA
ATOM     95  O   UNL A   1      46.079  25.912  38.892  1.00  0.00    -0.237 OA
ATOM     96  O   UNL A   1      43.667  26.325  39.110  1.00  0.00    -0.744 OA
ENDBRANCH  90  93
ENDBRANCH  63  86
ENDBRANCH  37  38
ENDBRANCH  29  32
ENDBRANCH  27  28
ENDBRANCH  26  27
ENDBRANCH   1  26
TORSDOF 18
ENDMDL
MODEL 2
REMARK VINA RESULT:     -11.5      6.161     11.627
REMARK SMILES O=C(CC[NH+]1CC[NH+](Cc2ccccc2C2CC2)CC1)NCCCNC(=O)c1ccc(-c2c3nc(c(-c4cccc(S(=O)(=O)[O-])c4F)c4ccc([nH]4)c(-c4cccc(S(=O)(=O)[O-])c4F)c4nc(c(-c5cccc(S(=O)(=O)[O-])c5F)c5ccc2[nH]5)C=C4)C=C3)cc1
REMARK SMILES IDX 22 1 21 2 1 3 2 4 3 6 4 7 5 8 6 9 20 10 7 12 19 13 8 14 9 16
REMARK SMILES IDX 10 17 11 18 15 19 12 20 14 21 13 22 16 23 17 24 18 25 23 26
REMARK SMILES IDX 24 27 25 28 26 29 27 31 28 32 29 33 90 34 30 35 89 36 31 37
REMARK SMILES IDX 32 38 33 39 83 40 34 41 88 42 82 43 84 44 35 45 87 46 81 47
REMARK SMILES IDX 80 48 36 50 68 51 48 52 67 53 49 54 52 55 66 56 85 57 50 58
REMARK SMILES IDX 51 59 65 61 86 62 53 63 37 64 38 65 46 66 39 67 41 68 47 69
REMARK SMILES IDX 40 70 42 71 43 72 44 73 45 74 69 75 70 76 78 77 71 78 73 79
REMARK SMILES IDX 79 80 72 81 74 82 75 83 76 84 77 85 54 86 55 87 63 88 56 89
REMARK SMILES IDX 58 90 64 91 57 92 59 93 60 94 61 95 62 96
REMARK H PARENT 21 5 5 11 8 15 25 30 84 49 52 60
REMARK Flexibility Score: inf
ROOT
ATOM      1  C   UNL A   1      36.370  18.906  24.967  1.00  0.00     0.117 C 
ENDROOT
BRANCH   1   2
ATOM      2  N   UNL A   1      35.170  19.710  24.970  1.00  0.00    -0.356 N 
ATOM      3  O   UNL A   1      33.737  18.098  24.152  1.00  0.00    -0.275 OA
ATOM      4  C   UNL A   1      33.931  19.206  24.648  1.00  0.00     0.225 C 
ATOM      5  H   UNL A   1      35.241  20.662  25.212  1.00  0.00     0.163 HD
BRANCH   4   6
ATOM      6  C   UNL A   1      32.794  20.132  25.004  1.00  0.00     0.161 C 
BRANCH   6   7
ATOM      7  C   UNL A   1      33.251  21.111  26.102  1.00  0.00     0.272 C 
BRANCH   7   8
ATOM      8  N   UNL A   1      32.132  22.012  26.391  1.00  0.00    -0.325 N 
ATOM      9  C   UNL A   1      32.629  23.288  26.915  1.00  0.00     0.324 C 
ATOM     10  C   UNL A   1      31.143  22.219  25.318  1.00  0.00     0.324 C 
ATOM     11  H   UNL A   1      31.591  21.517  27.102  1.00  0.00     0.348 HD
ATOM     12  C   UNL A   1      33.001  24.308  25.819  1.00  0.00     0.324 C 
ATOM     13  C   UNL A   1      31.301  23.453  24.382  1.00  0.00     0.324 C 
ATOM     14  N   UNL A   1      31.878  24.671  24.963  1.00  0.00    -0.322 N 
ATOM     15  H   UNL A   1      32.201  25.210  24.159  1.00  0.00     0.348 HD
BRANCH  14  16
ATOM     16  C   UNL A   1      30.974  25.683  25.548  1.00  0.00     0.299 C 
BRANCH  16  17
ATOM     17  C   UNL A   1      30.711  26.986  24.810  1.00  0.00     0.010 A 
ATOM     18  C   UNL A   1      29.697  26.882  23.810  1.00  0.00     0.010 A 
ATOM     19  C   UNL A   1      31.359  28.242  25.008  1.00  0.00    -0.036 A 
ATOM     20  C   UNL A   1      29.230  27.976  23.091  1.00  0.00     0.001 A 
ATOM     21  C   UNL A   1      30.786  29.338  24.294  1.00  0.00     0.004 A 
ATOM     22  C   UNL A   1      29.753  29.221  23.363  1.00  0.00     0.000 A 
BRANCH  19  23
ATOM     23  C   UNL A   1      32.614  28.652  25.802  1.00  0.00     0.020 C 
ATOM     24  C   UNL A   1      33.448  27.811  26.723  1.00  0.00     0.009 C 
ATOM     25  C   UNL A   1      34.040  28.346  25.452  1.00  0.00     0.009 C 
ENDBRANCH  19  23
ENDBRANCH  16  17
ENDBRANCH  14  16
ENDBRANCH   7   8
ENDBRANCH   6   7
ENDBRANCH   4   6
ENDBRANCH   1   2
BRANCH   1  26
ATOM     26  C   UNL A   1      37.615  19.687  24.580  1.00  0.00     0.042 C 
BRANCH  26  27
ATOM     27  C   UNL A   1      38.502  20.080  25.759  1.00  0.00     0.118 C 
BRANCH  27  28
ATOM     28  N   UNL A   1      39.707  19.263  25.869  1.00  0.00    -0.352 N 
ATOM     29  C   UNL A   1      41.007  19.621  26.138  1.00  0.00     0.251 C 
ATOM     30  H   UNL A   1      39.566  18.299  25.729  1.00  0.00     0.163 HD
ATOM     31  O   UNL A   1      41.898  18.781  26.032  1.00  0.00    -0.269 OA
BRANCH  29  32
ATOM     32  C   UNL A   1      41.346  21.007  26.536  1.00  0.00     0.039 A 
ATOM     33  C   UNL A   1      42.067  21.215  27.716  1.00  0.00     0.014 A 
ATOM     34  C   UNL A   1      40.941  22.099  25.767  1.00  0.00     0.014 A 
ATOM     35  C   UNL A   1      42.451  22.511  28.078  1.00  0.00     0.010 A 
ATOM     36  C   UNL A   1      41.395  23.379  26.084  1.00  0.00     0.010 A 
ATOM     37  C   UNL A   1      42.157  23.601  27.242  1.00  0.00    -0.014 A 
BRANCH  37  38
ATOM     38  C   UNL A   1      42.659  24.969  27.541  1.00  0.00     0.031 A 
ATOM     39  C   UNL A   1      41.761  25.990  28.189  1.00  0.00     0.074 A 
ATOM     40  C   UNL A   1      43.896  25.327  27.140  1.00  0.00     0.049 A 
ATOM     41  N   UNL A   1      42.000  27.248  28.454  1.00  0.00    -0.248 NA
ATOM     42  C   UNL A   1      40.410  25.545  28.567  1.00  0.00     0.031 C 
ATOM     43  C   UNL A   1      44.841  24.457  26.436  1.00  0.00     0.029 A 
ATOM     44  N   UNL A   1      44.562  26.524  27.240  1.00  0.00    -0.354 N 
ATOM     45  C   UNL A   1      40.824  27.756  28.993  1.00  0.00     0.074 A 
ATOM     46  C   UNL A   1      39.861  26.676  28.989  1.00  0.00     0.031 C 
ATOM     47  C   UNL A   1      45.961  25.146  26.168  1.00  0.00     0.029 A 
ATOM     48  C   UNL A   1      45.803  26.517  26.645  1.00  0.00     0.049 A 
ATOM     49  H   UNL A   1      44.187  27.313  27.693  1.00  0.00     0.167 HD
ATOM     50  C   UNL A   1      40.572  28.999  29.470  1.00  0.00     0.034 A 
ATOM     51  C   UNL A   1      46.707  27.503  26.485  1.00  0.00     0.034 A 
ATOM     52  C   UNL A   1      41.540  30.062  29.503  1.00  0.00     0.049 A 
ATOM     53  C   UNL A   1      46.410  28.870  27.041  1.00  0.00     0.074 A 
ATOM     54  C   UNL A   1      41.407  31.329  30.047  1.00  0.00     0.029 A 
ATOM     55  N   UNL A   1      42.813  29.994  28.960  1.00  0.00    -0.354 N 
ATOM     56  N   UNL A   1      45.348  29.285  27.686  1.00  0.00    -0.248 NA
ATOM     57  C   UNL A   1      47.450  29.896  26.876  1.00  0.00     0.031 C 
ATOM     58  C   UNL A   1      42.586  32.038  29.799  1.00  0.00     0.029 A 
ATOM     59  C   UNL A   1      43.471  31.200  29.139  1.00  0.00     0.049 A 
ATOM     60  H   UNL A   1      43.195  29.205  28.512  1.00  0.00     0.167 HD
ATOM     61  C   UNL A   1      45.607  30.605  28.038  1.00  0.00     0.074 A 
ATOM     62  C   UNL A   1      46.935  30.914  27.550  1.00  0.00     0.031 C 
ATOM     63  C   UNL A   1      44.811  31.485  28.695  1.00  0.00     0.034 A 
BRANCH  50  64
ATOM     64  C   UNL A   1      39.201  29.270  30.036  1.00  0.00     0.023 A 
ATOM     65  C   UNL A   1      38.879  28.818  31.332  1.00  0.00     0.012 A 
ATOM     66  C   UNL A   1      38.257  30.026  29.314  1.00  0.00     0.148 A 
ATOM     67  C   UNL A   1      37.626  29.081  31.886  1.00  0.00     0.002 A 
ATOM     68  C   UNL A   1      37.028  30.325  29.892  1.00  0.00     0.091 A 
ATOM     69  F   UNL A   1      38.573  30.434  28.077  1.00  0.00    -0.205 F 
ATOM     70  C   UNL A   1      36.706  29.842  31.171  1.00  0.00     0.022 A 
BRANCH  68  71
ATOM     71  S   UNL A   1      35.806  31.368  29.088  1.00  0.00     0.127 S 
ATOM     72  O   UNL A   1      34.980  31.781  30.222  1.00  0.00    -0.237 OA
ATOM     73  O   UNL A   1      36.635  32.431  28.521  1.00  0.00    -0.237 OA
ATOM     74  O   UNL A   1      35.139  30.525  28.106  1.00  0.00    -0.744 OA
ENDBRANCH  68  71
ENDBRANCH  50  64
BRANCH  51  75
ATOM     75  C   UNL A   1      48.005  27.224  25.805  1.00  0.00     0.023 A 
ATOM     76  C   UNL A   1      49.087  26.725  26.555  1.00  0.00     0.012 A 
ATOM     77  C   UNL A   1      48.168  27.435  24.422  1.00  0.00     0.148 A 
ATOM     78  C   UNL A   1      50.318  26.473  25.948  1.00  0.00     0.002 A 
ATOM     79  C   UNL A   1      49.378  27.128  23.813  1.00  0.00     0.091 A 
ATOM     80  F   UNL A   1      47.129  27.920  23.728  1.00  0.00    -0.205 F 
ATOM     81  C   UNL A   1      50.461  26.666  24.578  1.00  0.00     0.022 A 
BRANCH  79  82
ATOM     82  S   UNL A   1      49.616  27.222  22.035  1.00  0.00     0.127 S 
ATOM     83  O   UNL A   1      48.650  26.240  21.552  1.00  0.00    -0.237 OA
ATOM     84  O   UNL A   1      49.268  28.617  21.760  1.00  0.00    -0.237 OA
ATOM     85  O   UNL A   1      51.017  26.895  21.808  1.00  0.00    -0.744 OA
ENDBRANCH  79  82
ENDBRANCH  51  75
BRANCH  63  86
ATOM     86  C   UNL A   1      45.364  32.859  28.973  1.00  0.00     0.023 A 
ATOM     87  C   UNL A   1      46.060  33.112  30.170  1.00  0.00     0.012 A 
ATOM     88  C   UNL A   1      45.257  33.880  28.007  1.00  0.00     0.148 A 
ATOM     89  C   UNL A   1      46.613  34.368  30.418  1.00  0.00     0.002 A 
ATOM     90  C   UNL A   1      45.855  35.113  28.237  1.00  0.00     0.091 A 
ATOM     91  F   UNL A   1      44.575  33.626  26.880  1.00  0.00    -0.205 F 
ATOM     92  C   UNL A   1      46.522  35.362  29.447  1.00  0.00     0.022 A 
BRANCH  90  93
ATOM     93  S   UNL A   1      45.876  36.421  27.006  1.00  0.00     0.127 S 
ATOM     94  O   UNL A   1      44.485  36.869  27.024  1.00  0.00    -0.237 OA
ATOM     95  O   UNL A   1      46.832  37.370  27.579  1.00  0.00    -0.237 OA
ATOM     96  O   UNL A   1      46.313  35.798  25.763  1.00  0.00    -0.744 OA
ENDBRANCH  90  93
ENDBRANCH  63  86
ENDBRANCH  37  38
ENDBRANCH  29  32
ENDBRANCH  27  28
ENDBRANCH  26  27
ENDBRANCH   1  26
TORSDOF 18
ENDMDL
MODEL 3
REMARK VINA RESULT:     -11.4      5.602      8.886
REMARK SMILES O=C(CC[NH+]1CC[NH+](Cc2ccccc2C2CC2)CC1)NCCCNC(=O)c1ccc(-c2c3nc(c(-c4cccc(S(=O)(=O)[O-])c4F)c4ccc([nH]4)c(-c4cccc(S(=O)(=O)[O-])c4F)c4nc(c(-c5cccc(S(=O)(=O)[O-])c5F)c5ccc2[nH]5)C=C4)C=C3)cc1
REMARK SMILES IDX 22 1 21 2 1 3 2 4 3 6 4 7 5 8 6 9 20 10 7 12 19 13 8 14 9 16
REMARK SMILES IDX 10 17 11 18 15 19 12 20 14 21 13 22 16 23 17 24 18 25 23 26
REMARK SMILES IDX 24 27 25 28 26 29 27 31 28 32 29 33 90 34 30 35 89 36 31 37
REMARK SMILES IDX 32 38 33 39 83 40 34 41 88 42 82 43 84 44 35 45 87 46 81 47
REMARK SMILES IDX 80 48 36 50 68 51 48 52 67 53 49 54 52 55 66 56 85 57 50 58
REMARK SMILES IDX 51 59 65 61 86 62 53 63 37 64 38 65 46 66 39 67 41 68 47 69
REMARK SMILES IDX 40 70 42 71 43 72 44 73 45 74 69 75 70 76 78 77 71 78 73 79
REMARK SMILES IDX 79 80 72 81 74 82 75 83 76 84 77 85 54 86 55 87 63 88 56 89
REMARK SMILES IDX 58 90 64 91 57 92 59 93 60 94 61 95 62 96
REMARK H PARENT 21 5 5 11 8 15 25 30 84 49 52 60
REMARK Flexibility Score: inf
ROOT
ATOM      1  C   UNL A   1      34.763  20.824  25.492  1.00  0.00     0.117 C 
ENDROOT
BRANCH   1   2
ATOM      2  N   UNL A   1      34.095  21.233  24.278  1.00  0.00    -0.356 N 
ATOM      3  O   UNL A   1      32.176  19.987  24.566  1.00  0.00    -0.275 OA
ATOM      4  C   UNL A   1      32.812  20.849  23.964  1.00  0.00     0.225 C 
ATOM      5  H   UNL A   1      34.580  21.813  23.647  1.00  0.00     0.163 HD
BRANCH   4   6
ATOM      6  C   UNL A   1      32.216  21.626  22.815  1.00  0.00     0.161 C 
BRANCH   6   7
ATOM      7  C   UNL A   1      31.172  22.622  23.353  1.00  0.00     0.272 C 
BRANCH   7   8
ATOM      8  N   UNL A   1      31.484  23.941  22.794  1.00  0.00    -0.325 N 
ATOM      9  C   UNL A   1      30.964  24.998  23.666  1.00  0.00     0.324 C 
ATOM     10  C   UNL A   1      32.886  24.194  22.416  1.00  0.00     0.324 C 
ATOM     11  H   UNL A   1      31.005  23.949  21.892  1.00  0.00     0.348 HD
ATOM     12  C   UNL A   1      31.926  25.395  24.805  1.00  0.00     0.324 C 
ATOM     13  C   UNL A   1      33.818  24.911  23.437  1.00  0.00     0.324 C 
ATOM     14  N   UNL A   1      33.206  25.904  24.328  1.00  0.00    -0.322 N 
ATOM     15  H   UNL A   1      33.866  25.995  25.101  1.00  0.00     0.348 HD
BRANCH  14  16
ATOM     16  C   UNL A   1      33.176  27.320  23.909  1.00  0.00     0.299 C 
BRANCH  16  17
ATOM     17  C   UNL A   1      32.762  28.399  24.898  1.00  0.00     0.010 A 
ATOM     18  C   UNL A   1      33.582  28.448  26.066  1.00  0.00     0.010 A 
ATOM     19  C   UNL A   1      31.677  29.317  24.778  1.00  0.00    -0.036 A 
ATOM     20  C   UNL A   1      33.442  29.423  27.046  1.00  0.00     0.001 A 
ATOM     21  C   UNL A   1      31.631  30.335  25.777  1.00  0.00     0.004 A 
ATOM     22  C   UNL A   1      32.483  30.397  26.881  1.00  0.00     0.000 A 
BRANCH  19  23
ATOM     23  C   UNL A   1      30.483  29.396  23.806  1.00  0.00     0.020 C 
ATOM     24  C   UNL A   1      30.504  29.398  22.306  1.00  0.00     0.009 C 
ATOM     25  C   UNL A   1      29.863  28.261  23.047  1.00  0.00     0.009 C 
ENDBRANCH  19  23
ENDBRANCH  16  17
ENDBRANCH  14  16
ENDBRANCH   7   8
ENDBRANCH   6   7
ENDBRANCH   4   6
ENDBRANCH   1   2
BRANCH   1  26
ATOM     26  C   UNL A   1      35.686  21.891  26.058  1.00  0.00     0.042 C 
BRANCH  26  27
ATOM     27  C   UNL A   1      36.982  22.080  25.274  1.00  0.00     0.118 C 
BRANCH  27  28
ATOM     28  N   UNL A   1      38.015  21.110  25.628  1.00  0.00    -0.352 N 
ATOM     29  C   UNL A   1      39.268  21.294  26.163  1.00  0.00     0.251 C 
ATOM     30  H   UNL A   1      37.775  20.171  25.456  1.00  0.00     0.163 HD
ATOM     31  O   UNL A   1      40.038  20.339  26.240  1.00  0.00    -0.269 OA
BRANCH  29  32
ATOM     32  C   UNL A   1      39.705  22.630  26.630  1.00  0.00     0.039 A 
ATOM     33  C   UNL A   1      40.695  22.714  27.614  1.00  0.00     0.014 A 
ATOM     34  C   UNL A   1      39.132  23.797  26.120  1.00  0.00     0.014 A 
ATOM     35  C   UNL A   1      41.166  23.966  28.024  1.00  0.00     0.010 A 
ATOM     36  C   UNL A   1      39.660  25.040  26.467  1.00  0.00     0.010 A 
ATOM     37  C   UNL A   1      40.684  25.140  27.422  1.00  0.00    -0.014 A 
BRANCH  37  38
ATOM     38  C   UNL A   1      41.255  26.474  27.752  1.00  0.00     0.031 A 
ATOM     39  C   UNL A   1      42.689  26.796  27.423  1.00  0.00     0.074 A 
ATOM     40  C   UNL A   1      40.511  27.366  28.437  1.00  0.00     0.049 A 
ATOM     41  N   UNL A   1      43.377  27.872  27.703  1.00  0.00    -0.248 NA
ATOM     42  C   UNL A   1      43.457  25.764  26.708  1.00  0.00     0.031 C 
ATOM     43  C   UNL A   1      39.132  27.151  28.882  1.00  0.00     0.029 A 
ATOM     44  N   UNL A   1      40.817  28.619  28.907  1.00  0.00    -0.354 N 
ATOM     45  C   UNL A   1      44.665  27.635  27.235  1.00  0.00     0.074 A 
ATOM     46  C   UNL A   1      44.670  26.300  26.679  1.00  0.00     0.031 C 
ATOM     47  C   UNL A   1      38.712  28.233  29.557  1.00  0.00     0.029 A 
ATOM     48  C   UNL A   1      39.801  29.203  29.629  1.00  0.00     0.049 A 
ATOM     49  H   UNL A   1      41.682  29.059  28.743  1.00  0.00     0.167 HD
ATOM     50  C   UNL A   1      45.739  28.461  27.243  1.00  0.00     0.034 A 
ATOM     51  C   UNL A   1      39.752  30.377  30.289  1.00  0.00     0.034 A 
ATOM     52  C   UNL A   1      45.724  29.801  27.766  1.00  0.00     0.049 A 
ATOM     53  C   UNL A   1      40.954  31.283  30.266  1.00  0.00     0.074 A 
ATOM     54  C   UNL A   1      46.737  30.745  27.740  1.00  0.00     0.029 A 
ATOM     55  N   UNL A   1      44.652  30.385  28.422  1.00  0.00    -0.354 N 
ATOM     56  N   UNL A   1      42.113  31.102  29.682  1.00  0.00    -0.248 NA
ATOM     57  C   UNL A   1      40.830  32.570  30.965  1.00  0.00     0.031 C 
ATOM     58  C   UNL A   1      46.290  31.885  28.413  1.00  0.00     0.029 A 
ATOM     59  C   UNL A   1      44.983  31.669  28.821  1.00  0.00     0.049 A 
ATOM     60  H   UNL A   1      43.783  29.951  28.582  1.00  0.00     0.167 HD
ATOM     61  C   UNL A   1      42.840  32.264  29.909  1.00  0.00     0.074 A 
ATOM     62  C   UNL A   1      41.984  33.151  30.669  1.00  0.00     0.031 C 
ATOM     63  C   UNL A   1      44.109  32.565  29.533  1.00  0.00     0.034 A 
BRANCH  50  64
ATOM     64  C   UNL A   1      47.020  27.953  26.630  1.00  0.00     0.023 A 
ATOM     65  C   UNL A   1      48.029  27.423  27.460  1.00  0.00     0.012 A 
ATOM     66  C   UNL A   1      47.198  27.941  25.232  1.00  0.00     0.148 A 
ATOM     67  C   UNL A   1      49.211  26.923  26.912  1.00  0.00     0.002 A 
ATOM     68  C   UNL A   1      48.358  27.397  24.692  1.00  0.00     0.091 A 
ATOM     69  F   UNL A   1      46.236  28.464  24.460  1.00  0.00    -0.205 F 
ATOM     70  C   UNL A   1      49.370  26.901  25.530  1.00  0.00     0.022 A 
BRANCH  68  71
ATOM     71  S   UNL A   1      48.624  27.245  22.922  1.00  0.00     0.127 S 
ATOM     72  O   UNL A   1      50.049  27.555  22.811  1.00  0.00    -0.237 OA
ATOM     73  O   UNL A   1      48.288  25.842  22.680  1.00  0.00    -0.237 OA
ATOM     74  O   UNL A   1      47.727  28.204  22.294  1.00  0.00    -0.744 OA
ENDBRANCH  68  71
ENDBRANCH  50  64
BRANCH  51  75
ATOM     75  C   UNL A   1      38.502  30.788  30.991  1.00  0.00     0.023 A 
ATOM     76  C   UNL A   1      38.346  30.491  32.358  1.00  0.00     0.012 A 
ATOM     77  C   UNL A   1      37.478  31.481  30.317  1.00  0.00     0.148 A 
ATOM     78  C   UNL A   1      37.178  30.847  33.035  1.00  0.00     0.002 A 
ATOM     79  C   UNL A   1      36.343  31.882  31.009  1.00  0.00     0.091 A 
ATOM     80  F   UNL A   1      37.642  31.744  29.013  1.00  0.00    -0.205 F 
ATOM     81  C   UNL A   1      36.182  31.549  32.363  1.00  0.00     0.022 A 
BRANCH  79  82
ATOM     82  S   UNL A   1      35.066  32.901  30.262  1.00  0.00     0.127 S 
ATOM     83  O   UNL A   1      35.841  34.033  29.763  1.00  0.00    -0.237 OA
ATOM     84  O   UNL A   1      34.538  32.009  29.228  1.00  0.00    -0.237 OA
ATOM     85  O   UNL A   1      34.126  33.202  31.334  1.00  0.00    -0.744 OA
ENDBRANCH  79  82
ENDBRANCH  51  75
BRANCH  63  86
ATOM     86  C   UNL A   1      44.643  33.928  29.892  1.00  0.00     0.023 A 
ATOM     87  C   UNL A   1      45.405  34.103  31.062  1.00  0.00     0.012 A 
ATOM     88  C   UNL A   1      44.451  35.021  29.023  1.00  0.00     0.148 A 
ATOM     89  C   UNL A   1      45.940  35.351  31.381  1.00  0.00     0.002 A 
ATOM     90  C   UNL A   1      45.031  36.248  29.318  1.00  0.00     0.091 A 
ATOM     91  F   UNL A   1      43.707  34.839  27.921  1.00  0.00    -0.205 F 
ATOM     92  C   UNL A   1      45.764  36.418  30.503  1.00  0.00     0.022 A 
BRANCH  90  93
ATOM     93  S   UNL A   1      44.942  37.652  28.202  1.00  0.00     0.127 S 
ATOM     94  O   UNL A   1      45.423  38.740  29.052  1.00  0.00    -0.237 OA
ATOM     95  O   UNL A   1      45.865  37.258  27.136  1.00  0.00    -0.237 OA
ATOM     96  O   UNL A   1      43.549  37.753  27.790  1.00  0.00    -0.744 OA
ENDBRANCH  90  93
ENDBRANCH  63  86
ENDBRANCH  37  38
ENDBRANCH  29  32
ENDBRANCH  27  28
ENDBRANCH  26  27
ENDBRANCH   1  26
TORSDOF 18
ENDMDL
