MODEL 1
REMARK VINA RESULT:     -12.9      0.000      0.000
REMARK SMILES O=C(NCCCNC(=O)c1cc(F)ccc1N1CCCc2ccccc21)c1ccc(-c2c3nc(c(-c4cccc(S(=O)(=O)[O-])c4F)c4ccc([nH]4)c(-c4cccc(S(=O)(=O)[O-])c4F)c4nc(c(-c5cccc(S(=O)(=O)[O-])c5F)c5ccc2[nH]5)C=C4)C=C3)cc1
REMARK SMILES IDX 4 1 3 2 1 3 2 4 27 6 28 7 89 8 29 9 88 10 30 11 31 12 32 13
REMARK SMILES IDX 82 14 33 15 87 16 81 17 83 18 34 19 86 20 80 21 79 22 35 24
REMARK SMILES IDX 67 25 47 26 66 27 48 28 51 29 65 30 84 31 49 32 50 33 64 35
REMARK SMILES IDX 85 36 52 37 36 38 37 39 45 40 38 41 40 42 46 43 39 44 41 45
REMARK SMILES IDX 42 46 43 47 44 48 68 49 69 50 77 51 70 52 72 53 78 54 71 55
REMARK SMILES IDX 73 56 74 57 75 58 76 59 53 60 54 61 62 62 55 63 57 64 63 65
REMARK SMILES IDX 56 66 58 67 59 68 60 69 61 70 5 71 6 72 7 73 8 74 9 76 10 77
REMARK SMILES IDX 11 78 16 79 12 80 15 81 13 82 14 83 17 84 18 85 26 86 19 87
REMARK SMILES IDX 21 88 25 89 20 90 22 91 24 92 23 93
REMARK H PARENT 3 5 83 23 51 34 7 75
REMARK Flexibility Score: inf
ROOT
ATOM      1  C   UNL A   1      32.821  32.232  27.352  1.00  0.00     0.118 C 
ENDROOT
BRANCH   1   2
ATOM      2  N   UNL A   1      32.608  33.644  27.637  1.00  0.00    -0.352 N 
ATOM      3  O   UNL A   1      32.708  35.551  28.825  1.00  0.00    -0.269 OA
ATOM      4  C   UNL A   1      33.182  34.442  28.597  1.00  0.00     0.251 C 
ATOM      5  H   UNL A   1      31.955  34.095  27.055  1.00  0.00     0.163 HD
BRANCH   4   6
ATOM      6  C   UNL A   1      34.352  33.954  29.357  1.00  0.00     0.039 A 
ATOM      7  C   UNL A   1      34.176  33.101  30.449  1.00  0.00     0.014 A 
ATOM      8  C   UNL A   1      35.638  34.326  28.959  1.00  0.00     0.014 A 
ATOM      9  C   UNL A   1      35.263  32.746  31.233  1.00  0.00     0.010 A 
ATOM     10  C   UNL A   1      36.744  33.871  29.680  1.00  0.00     0.010 A 
ATOM     11  C   UNL A   1      36.562  33.088  30.829  1.00  0.00    -0.014 A 
BRANCH  11  12
ATOM     12  C   UNL A   1      37.711  32.473  31.532  1.00  0.00     0.031 A 
ATOM     13  C   UNL A   1      38.164  32.950  32.878  1.00  0.00     0.074 A 
ATOM     14  C   UNL A   1      38.351  31.462  30.911  1.00  0.00     0.049 A 
ATOM     15  N   UNL A   1      39.151  32.506  33.611  1.00  0.00    -0.248 NA
ATOM     16  C   UNL A   1      37.422  34.068  33.479  1.00  0.00     0.031 C 
ATOM     17  C   UNL A   1      38.002  30.940  29.587  1.00  0.00     0.029 A 
ATOM     18  N   UNL A   1      39.412  30.691  31.303  1.00  0.00    -0.354 N 
ATOM     19  C   UNL A   1      39.172  33.303  34.748  1.00  0.00     0.074 A 
ATOM     20  C   UNL A   1      38.104  34.270  34.600  1.00  0.00     0.031 C 
ATOM     21  C   UNL A   1      38.803  29.909  29.294  1.00  0.00     0.029 A 
ATOM     22  C   UNL A   1      39.769  29.746  30.371  1.00  0.00     0.049 A 
ATOM     23  H   UNL A   1      39.874  30.803  32.165  1.00  0.00     0.167 HD
ATOM     24  C   UNL A   1      40.001  33.224  35.817  1.00  0.00     0.034 A 
ATOM     25  C   UNL A   1      40.776  28.853  30.368  1.00  0.00     0.034 A 
ATOM     26  C   UNL A   1      41.060  32.253  35.942  1.00  0.00     0.049 A 
ATOM     27  C   UNL A   1      41.689  28.797  31.553  1.00  0.00     0.074 A 
ATOM     28  C   UNL A   1      41.943  32.075  36.992  1.00  0.00     0.029 A 
ATOM     29  N   UNL A   1      41.386  31.303  34.983  1.00  0.00    -0.354 N 
ATOM     30  N   UNL A   1      41.652  29.513  32.651  1.00  0.00    -0.248 NA
ATOM     31  C   UNL A   1      42.763  27.798  31.516  1.00  0.00     0.031 C 
ATOM     32  C   UNL A   1      42.823  31.041  36.655  1.00  0.00     0.029 A 
ATOM     33  C   UNL A   1      42.459  30.540  35.415  1.00  0.00     0.049 A 
ATOM     34  H   UNL A   1      40.924  31.188  34.122  1.00  0.00     0.167 HD
ATOM     35  C   UNL A   1      42.675  29.029  33.454  1.00  0.00     0.074 A 
ATOM     36  C   UNL A   1      43.306  27.951  32.717  1.00  0.00     0.031 C 
ATOM     37  C   UNL A   1      43.055  29.444  34.688  1.00  0.00     0.034 A 
BRANCH  24  38
ATOM     38  C   UNL A   1      39.781  34.195  36.951  1.00  0.00     0.023 A 
ATOM     39  C   UNL A   1      40.077  35.562  36.765  1.00  0.00     0.012 A 
ATOM     40  C   UNL A   1      39.224  33.774  38.175  1.00  0.00     0.148 A 
ATOM     41  C   UNL A   1      39.857  36.485  37.788  1.00  0.00     0.002 A 
ATOM     42  C   UNL A   1      38.962  34.707  39.172  1.00  0.00     0.091 A 
ATOM     43  F   UNL A   1      38.968  32.470  38.346  1.00  0.00    -0.205 F 
ATOM     44  C   UNL A   1      39.290  36.060  38.985  1.00  0.00     0.022 A 
BRANCH  42  45
ATOM     45  S   UNL A   1      38.152  34.273  40.716  1.00  0.00     0.127 S 
ATOM     46  O   UNL A   1      37.009  33.496  40.241  1.00  0.00    -0.237 OA
ATOM     47  O   UNL A   1      39.183  33.485  41.395  1.00  0.00    -0.237 OA
ATOM     48  O   UNL A   1      37.828  35.534  41.367  1.00  0.00    -0.744 OA
ENDBRANCH  42  45
ENDBRANCH  24  38
BRANCH  25  49
ATOM     49  C   UNL A   1      40.896  27.910  29.223  1.00  0.00     0.023 A 
ATOM     50  C   UNL A   1      40.034  26.800  29.155  1.00  0.00     0.012 A 
ATOM     51  C   UNL A   1      41.756  28.186  28.141  1.00  0.00     0.148 A 
ATOM     52  C   UNL A   1      40.027  25.978  28.028  1.00  0.00     0.002 A 
ATOM     53  C   UNL A   1      41.700  27.399  26.997  1.00  0.00     0.091 A 
ATOM     54  F   UNL A   1      42.564  29.252  28.230  1.00  0.00    -0.205 F 
ATOM     55  C   UNL A   1      40.846  26.287  26.945  1.00  0.00     0.022 A 
BRANCH  53  56
ATOM     56  S   UNL A   1      42.597  27.808  25.496  1.00  0.00     0.127 S 
ATOM     57  O   UNL A   1      42.392  26.607  24.689  1.00  0.00    -0.237 OA
ATOM     58  O   UNL A   1      41.873  28.993  25.033  1.00  0.00    -0.237 OA
ATOM     59  O   UNL A   1      43.970  28.058  25.907  1.00  0.00    -0.744 OA
ENDBRANCH  53  56
ENDBRANCH  25  49
BRANCH  37  60
ATOM     60  C   UNL A   1      44.186  28.703  35.352  1.00  0.00     0.023 A 
ATOM     61  C   UNL A   1      45.521  29.069  35.095  1.00  0.00     0.012 A 
ATOM     62  C   UNL A   1      43.914  27.695  36.298  1.00  0.00     0.148 A 
ATOM     63  C   UNL A   1      46.570  28.423  35.749  1.00  0.00     0.002 A 
ATOM     64  C   UNL A   1      44.961  27.095  36.986  1.00  0.00     0.091 A 
ATOM     65  F   UNL A   1      42.637  27.345  36.512  1.00  0.00    -0.205 F 
ATOM     66  C   UNL A   1      46.290  27.447  36.703  1.00  0.00     0.022 A 
BRANCH  64  67
ATOM     67  S   UNL A   1      44.688  25.908  38.306  1.00  0.00     0.127 S 
ATOM     68  O   UNL A   1      44.057  24.802  37.587  1.00  0.00    -0.237 OA
ATOM     69  O   UNL A   1      46.050  25.638  38.767  1.00  0.00    -0.237 OA
ATOM     70  O   UNL A   1      43.843  26.581  39.283  1.00  0.00    -0.744 OA
ENDBRANCH  64  67
ENDBRANCH  37  60
ENDBRANCH  11  12
ENDBRANCH   4   6
ENDBRANCH   1   2
BRANCH   1  71
ATOM     71  C   UNL A   1      31.730  31.649  26.471  1.00  0.00     0.042 C 
BRANCH  71  72
ATOM     72  C   UNL A   1      31.889  30.161  26.223  1.00  0.00     0.118 C 
BRANCH  72  73
ATOM     73  N   UNL A   1      32.778  29.871  25.103  1.00  0.00    -0.352 N 
ATOM     74  C   UNL A   1      32.557  29.116  23.977  1.00  0.00     0.253 C 
ATOM     75  H   UNL A   1      33.673  30.279  25.165  1.00  0.00     0.163 HD
ATOM     76  O   UNL A   1      33.471  28.941  23.174  1.00  0.00    -0.269 OA
BRANCH  74  77
ATOM     77  C   UNL A   1      31.210  28.555  23.746  1.00  0.00     0.066 A 
ATOM     78  C   UNL A   1      30.294  29.370  23.057  1.00  0.00     0.055 A 
ATOM     79  C   UNL A   1      30.848  27.253  24.141  1.00  0.00     0.054 A 
ATOM     80  C   UNL A   1      28.983  28.953  22.890  1.00  0.00     0.124 A 
ATOM     81  C   UNL A   1      29.503  26.867  23.950  1.00  0.00     0.030 A 
ATOM     82  F   UNL A   1      28.105  29.766  22.290  1.00  0.00    -0.207 F 
ATOM     83  C   UNL A   1      28.571  27.717  23.353  1.00  0.00     0.041 A 
BRANCH  79  84
ATOM     84  N   UNL A   1      31.734  26.287  24.649  1.00  0.00    -0.341 N 
ATOM     85  C   UNL A   1      32.063  26.311  26.077  1.00  0.00     0.123 C 
ATOM     86  C   UNL A   1      32.362  25.272  23.887  1.00  0.00     0.044 A 
ATOM     87  C   UNL A   1      31.858  24.917  26.665  1.00  0.00     0.027 C 
ATOM     88  C   UNL A   1      32.851  24.100  24.494  1.00  0.00    -0.024 A 
ATOM     89  C   UNL A   1      32.504  25.406  22.494  1.00  0.00     0.026 A 
ATOM     90  C   UNL A   1      32.786  23.914  25.988  1.00  0.00     0.039 C 
ATOM     91  C   UNL A   1      33.449  23.098  23.708  1.00  0.00     0.006 A 
ATOM     92  C   UNL A   1      33.101  24.411  21.720  1.00  0.00     0.002 A 
ATOM     93  C   UNL A   1      33.568  23.252  22.327  1.00  0.00     0.000 A 
ENDBRANCH  79  84
ENDBRANCH  74  77
ENDBRANCH  72  73
ENDBRANCH  71  72
ENDBRANCH   1  71
TORSDOF 14
ENDMDL
MODEL 2
REMARK VINA RESULT:     -12.7      1.475      1.755
REMARK SMILES O=C(NCCCNC(=O)c1cc(F)ccc1N1CCCc2ccccc21)c1ccc(-c2c3nc(c(-c4cccc(S(=O)(=O)[O-])c4F)c4ccc([nH]4)c(-c4cccc(S(=O)(=O)[O-])c4F)c4nc(c(-c5cccc(S(=O)(=O)[O-])c5F)c5ccc2[nH]5)C=C4)C=C3)cc1
REMARK SMILES IDX 4 1 3 2 1 3 2 4 27 6 28 7 89 8 29 9 88 10 30 11 31 12 32 13
REMARK SMILES IDX 82 14 33 15 87 16 81 17 83 18 34 19 86 20 80 21 79 22 35 24
REMARK SMILES IDX 67 25 47 26 66 27 48 28 51 29 65 30 84 31 49 32 50 33 64 35
REMARK SMILES IDX 85 36 52 37 36 38 37 39 45 40 38 41 40 42 46 43 39 44 41 45
REMARK SMILES IDX 42 46 43 47 44 48 68 49 69 50 77 51 70 52 72 53 78 54 71 55
REMARK SMILES IDX 73 56 74 57 75 58 76 59 53 60 54 61 62 62 55 63 57 64 63 65
REMARK SMILES IDX 56 66 58 67 59 68 60 69 61 70 5 71 6 72 7 73 8 74 9 76 10 77
REMARK SMILES IDX 11 78 16 79 12 80 15 81 13 82 14 83 17 84 18 85 26 86 19 87
REMARK SMILES IDX 21 88 25 89 20 90 22 91 24 92 23 93
REMARK H PARENT 3 5 83 23 51 34 7 75
REMARK Flexibility Score: inf
ROOT
ATOM      1  C   UNL A   1      32.690  32.303  26.894  1.00  0.00     0.118 C 
ENDROOT
BRANCH   1   2
ATOM      2  N   UNL A   1      32.495  33.677  27.337  1.00  0.00    -0.352 N 
ATOM      3  O   UNL A   1      32.616  35.436  28.733  1.00  0.00    -0.269 OA
ATOM      4  C   UNL A   1      33.076  34.354  28.382  1.00  0.00     0.251 C 
ATOM      5  H   UNL A   1      31.850  34.199  26.809  1.00  0.00     0.163 HD
BRANCH   4   6
ATOM      6  C   UNL A   1      34.238  33.767  29.083  1.00  0.00     0.039 A 
ATOM      7  C   UNL A   1      34.055  32.731  30.002  1.00  0.00     0.014 A 
ATOM      8  C   UNL A   1      35.524  34.235  28.801  1.00  0.00     0.014 A 
ATOM      9  C   UNL A   1      35.129  32.269  30.748  1.00  0.00     0.010 A 
ATOM     10  C   UNL A   1      36.621  33.686  29.468  1.00  0.00     0.010 A 
ATOM     11  C   UNL A   1      36.428  32.708  30.455  1.00  0.00    -0.014 A 
BRANCH  11  12
ATOM     12  C   UNL A   1      37.574  32.006  31.077  1.00  0.00     0.031 A 
ATOM     13  C   UNL A   1      37.990  32.268  32.493  1.00  0.00     0.074 A 
ATOM     14  C   UNL A   1      38.246  31.118  30.319  1.00  0.00     0.049 A 
ATOM     15  N   UNL A   1      38.969  31.727  33.169  1.00  0.00    -0.248 NA
ATOM     16  C   UNL A   1      37.214  33.264  33.247  1.00  0.00     0.031 C 
ATOM     17  C   UNL A   1      37.935  30.809  28.919  1.00  0.00     0.029 A 
ATOM     18  N   UNL A   1      39.313  30.310  30.606  1.00  0.00    -0.354 N 
ATOM     19  C   UNL A   1      38.951  32.332  34.419  1.00  0.00     0.074 A 
ATOM     20  C   UNL A   1      37.868  33.294  34.402  1.00  0.00     0.031 C 
ATOM     21  C   UNL A   1      38.761  29.851  28.484  1.00  0.00     0.029 A 
ATOM     22  C   UNL A   1      39.708  29.532  29.545  1.00  0.00     0.049 A 
ATOM     23  H   UNL A   1      39.755  30.290  31.486  1.00  0.00     0.167 HD
ATOM     24  C   UNL A   1      39.759  32.096  35.481  1.00  0.00     0.034 A 
ATOM     25  C   UNL A   1      40.732  28.668  29.422  1.00  0.00     0.034 A 
ATOM     26  C   UNL A   1      40.834  31.134  35.474  1.00  0.00     0.049 A 
ATOM     27  C   UNL A   1      41.620  28.436  30.605  1.00  0.00     0.074 A 
ATOM     28  C   UNL A   1      41.697  30.804  36.502  1.00  0.00     0.029 A 
ATOM     29  N   UNL A   1      41.198  30.355  34.383  1.00  0.00    -0.354 N 
ATOM     30  N   UNL A   1      41.547  28.966  31.802  1.00  0.00    -0.248 NA
ATOM     31  C   UNL A   1      42.713  27.473  30.433  1.00  0.00     0.031 C 
ATOM     32  C   UNL A   1      42.604  29.851  36.025  1.00  0.00     0.029 A 
ATOM     33  C   UNL A   1      42.276  29.550  34.713  1.00  0.00     0.049 A 
ATOM     34  H   UNL A   1      40.756  30.373  33.504  1.00  0.00     0.167 HD
ATOM     35  C   UNL A   1      42.562  28.376  32.542  1.00  0.00     0.074 A 
ATOM     36  C   UNL A   1      43.229  27.440  31.656  1.00  0.00     0.031 C 
ATOM     37  C   UNL A   1      42.908  28.594  33.834  1.00  0.00     0.034 A 
BRANCH  24  38
ATOM     38  C   UNL A   1      39.497  32.869  36.750  1.00  0.00     0.023 A 
ATOM     39  C   UNL A   1      40.135  34.111  36.953  1.00  0.00     0.012 A 
ATOM     40  C   UNL A   1      38.577  32.405  37.710  1.00  0.00     0.148 A 
ATOM     41  C   UNL A   1      39.889  34.860  38.105  1.00  0.00     0.002 A 
ATOM     42  C   UNL A   1      38.299  33.180  38.832  1.00  0.00     0.091 A 
ATOM     43  F   UNL A   1      37.994  31.214  37.515  1.00  0.00    -0.205 F 
ATOM     44  C   UNL A   1      38.964  34.399  39.037  1.00  0.00     0.022 A 
BRANCH  42  45
ATOM     45  S   UNL A   1      37.059  32.715  40.046  1.00  0.00     0.127 S 
ATOM     46  O   UNL A   1      35.858  32.619  39.219  1.00  0.00    -0.237 OA
ATOM     47  O   UNL A   1      37.567  31.431  40.532  1.00  0.00    -0.237 OA
ATOM     48  O   UNL A   1      37.053  33.779  41.040  1.00  0.00    -0.744 OA
ENDBRANCH  42  45
ENDBRANCH  24  38
BRANCH  25  49
ATOM     49  C   UNL A   1      40.893  27.922  28.144  1.00  0.00     0.023 A 
ATOM     50  C   UNL A   1      41.501  28.562  27.049  1.00  0.00     0.012 A 
ATOM     51  C   UNL A   1      40.577  26.552  28.058  1.00  0.00     0.148 A 
ATOM     52  C   UNL A   1      41.792  27.848  25.886  1.00  0.00     0.002 A 
ATOM     53  C   UNL A   1      40.924  25.834  26.920  1.00  0.00     0.091 A 
ATOM     54  F   UNL A   1      40.001  25.966  29.118  1.00  0.00    -0.205 F 
ATOM     55  C   UNL A   1      41.519  26.484  25.829  1.00  0.00     0.022 A 
BRANCH  53  56
ATOM     56  S   UNL A   1      40.759  24.049  26.814  1.00  0.00     0.127 S 
ATOM     57  O   UNL A   1      41.142  23.633  28.162  1.00  0.00    -0.237 OA
ATOM     58  O   UNL A   1      39.336  23.901  26.505  1.00  0.00    -0.237 OA
ATOM     59  O   UNL A   1      41.658  23.628  25.750  1.00  0.00    -0.744 OA
ENDBRANCH  53  56
ENDBRANCH  25  49
BRANCH  37  60
ATOM     60  C   UNL A   1      44.039  27.774  34.398  1.00  0.00     0.023 A 
ATOM     61  C   UNL A   1      45.358  28.265  34.361  1.00  0.00     0.012 A 
ATOM     62  C   UNL A   1      43.774  26.548  35.041  1.00  0.00     0.148 A 
ATOM     63  C   UNL A   1      46.401  27.535  34.930  1.00  0.00     0.002 A 
ATOM     64  C   UNL A   1      44.809  25.853  35.654  1.00  0.00     0.091 A 
ATOM     65  F   UNL A   1      42.515  26.086  35.045  1.00  0.00    -0.205 F 
ATOM     66  C   UNL A   1      46.125  26.338  35.588  1.00  0.00     0.022 A 
BRANCH  64  67
ATOM     67  S   UNL A   1      44.528  24.362  36.614  1.00  0.00     0.127 S 
ATOM     68  O   UNL A   1      45.896  23.930  36.900  1.00  0.00    -0.237 OA
ATOM     69  O   UNL A   1      43.795  24.872  37.772  1.00  0.00    -0.237 OA
ATOM     70  O   UNL A   1      43.759  23.470  35.756  1.00  0.00    -0.744 OA
ENDBRANCH  64  67
ENDBRANCH  37  60
ENDBRANCH  11  12
ENDBRANCH   4   6
ENDBRANCH   1   2
BRANCH   1  71
ATOM     71  C   UNL A   1      31.403  31.667  26.398  1.00  0.00     0.042 C 
BRANCH  71  72
ATOM     72  C   UNL A   1      31.533  30.180  26.130  1.00  0.00     0.118 C 
BRANCH  72  73
ATOM     73  N   UNL A   1      32.418  29.887  25.008  1.00  0.00    -0.352 N 
ATOM     74  C   UNL A   1      32.185  29.150  23.873  1.00  0.00     0.253 C 
ATOM     75  H   UNL A   1      33.320  30.277  25.076  1.00  0.00     0.163 HD
ATOM     76  O   UNL A   1      33.097  28.967  23.069  1.00  0.00    -0.269 OA
BRANCH  74  77
ATOM     77  C   UNL A   1      30.828  28.616  23.633  1.00  0.00     0.066 A 
ATOM     78  C   UNL A   1      29.936  29.446  22.932  1.00  0.00     0.055 A 
ATOM     79  C   UNL A   1      30.435  27.325  24.033  1.00  0.00     0.054 A 
ATOM     80  C   UNL A   1      28.618  29.057  22.756  1.00  0.00     0.124 A 
ATOM     81  C   UNL A   1      29.084  26.966  23.832  1.00  0.00     0.030 A 
ATOM     82  F   UNL A   1      27.764  29.884  22.143  1.00  0.00    -0.207 F 
ATOM     83  C   UNL A   1      28.176  27.832  23.222  1.00  0.00     0.041 A 
BRANCH  79  84
ATOM     84  N   UNL A   1      31.295  26.343  24.554  1.00  0.00    -0.341 N 
ATOM     85  C   UNL A   1      31.518  26.294  26.003  1.00  0.00     0.123 C 
ATOM     86  C   UNL A   1      31.993  25.377  23.790  1.00  0.00     0.044 A 
ATOM     87  C   UNL A   1      31.291  24.870  26.500  1.00  0.00     0.027 C 
ATOM     88  C   UNL A   1      32.454  24.180  24.369  1.00  0.00    -0.024 A 
ATOM     89  C   UNL A   1      32.235  25.586  22.420  1.00  0.00     0.026 A 
ATOM     90  C   UNL A   1      32.281  23.914  25.843  1.00  0.00     0.039 C 
ATOM     91  C   UNL A   1      33.123  23.227  23.579  1.00  0.00     0.006 A 
ATOM     92  C   UNL A   1      32.903  24.640  21.642  1.00  0.00     0.002 A 
ATOM     93  C   UNL A   1      33.341  23.456  22.221  1.00  0.00     0.000 A 
ENDBRANCH  79  84
ENDBRANCH  74  77
ENDBRANCH  72  73
ENDBRANCH  71  72
ENDBRANCH   1  71
TORSDOF 14
ENDMDL
MODEL 3
REMARK VINA RESULT:     -12.7      6.648     11.651
REMARK SMILES O=C(NCCCNC(=O)c1cc(F)ccc1N1CCCc2ccccc21)c1ccc(-c2c3nc(c(-c4cccc(S(=O)(=O)[O-])c4F)c4ccc([nH]4)c(-c4cccc(S(=O)(=O)[O-])c4F)c4nc(c(-c5cccc(S(=O)(=O)[O-])c5F)c5ccc2[nH]5)C=C4)C=C3)cc1
REMARK SMILES IDX 4 1 3 2 1 3 2 4 27 6 28 7 89 8 29 9 88 10 30 11 31 12 32 13
REMARK SMILES IDX 82 14 33 15 87 16 81 17 83 18 34 19 86 20 80 21 79 22 35 24
REMARK SMILES IDX 67 25 47 26 66 27 48 28 51 29 65 30 84 31 49 32 50 33 64 35
REMARK SMILES IDX 85 36 52 37 36 38 37 39 45 40 38 41 40 42 46 43 39 44 41 45
REMARK SMILES IDX 42 46 43 47 44 48 68 49 69 50 77 51 70 52 72 53 78 54 71 55
REMARK SMILES IDX 73 56 74 57 75 58 76 59 53 60 54 61 62 62 55 63 57 64 63 65
REMARK SMILES IDX 56 66 58 67 59 68 60 69 61 70 5 71 6 72 7 73 8 74 9 76 10 77
REMARK SMILES IDX 11 78 16 79 12 80 15 81 13 82 14 83 17 84 18 85 26 86 19 87
REMARK SMILES IDX 21 88 25 89 20 90 22 91 24 92 23 93
REMARK H PARENT 3 5 83 23 51 34 7 75
REMARK Flexibility Score: inf
ROOT
ATOM      1  C   UNL A   1      38.869  20.264  25.806  1.00  0.00     0.118 C 
ENDROOT
BRANCH   1   2
ATOM      2  N   UNL A   1      39.943  19.288  25.922  1.00  0.00    -0.352 N 
ATOM      3  O   UNL A   1      42.064  18.538  25.936  1.00  0.00    -0.269 OA
ATOM      4  C   UNL A   1      41.294  19.482  26.084  1.00  0.00     0.251 C 
ATOM      5  H   UNL A   1      39.660  18.346  25.879  1.00  0.00     0.163 HD
BRANCH   4   6
ATOM      6  C   UNL A   1      41.808  20.827  26.419  1.00  0.00     0.039 A 
ATOM      7  C   UNL A   1      41.986  21.782  25.415  1.00  0.00     0.014 A 
ATOM      8  C   UNL A   1      42.088  21.148  27.749  1.00  0.00     0.014 A 
ATOM      9  C   UNL A   1      42.585  22.996  25.713  1.00  0.00     0.010 A 
ATOM     10  C   UNL A   1      42.581  22.416  28.066  1.00  0.00     0.010 A 
ATOM     11  C   UNL A   1      42.844  23.344  27.047  1.00  0.00    -0.014 A 
BRANCH  11  12
ATOM     12  C   UNL A   1      43.230  24.739  27.357  1.00  0.00     0.031 A 
ATOM     13  C   UNL A   1      44.605  25.262  27.076  1.00  0.00     0.074 A 
ATOM     14  C   UNL A   1      42.295  25.533  27.915  1.00  0.00     0.049 A 
ATOM     15  N   UNL A   1      45.083  26.460  27.293  1.00  0.00    -0.248 NA
ATOM     16  C   UNL A   1      45.571  24.326  26.482  1.00  0.00     0.031 C 
ATOM     17  C   UNL A   1      40.931  25.111  28.251  1.00  0.00     0.029 A 
ATOM     18  N   UNL A   1      42.336  26.850  28.290  1.00  0.00    -0.354 N 
ATOM     19  C   UNL A   1      46.411  26.420  26.889  1.00  0.00     0.074 A 
ATOM     20  C   UNL A   1      46.667  25.073  26.427  1.00  0.00     0.031 C 
ATOM     21  C   UNL A   1      40.254  26.156  28.741  1.00  0.00     0.029 A 
ATOM     22  C   UNL A   1      41.153  27.299  28.826  1.00  0.00     0.049 A 
ATOM     23  H   UNL A   1      43.134  27.417  28.188  1.00  0.00     0.167 HD
ATOM     24  C   UNL A   1      47.323  27.422  26.897  1.00  0.00     0.034 A 
ATOM     25  C   UNL A   1      40.825  28.494  29.350  1.00  0.00     0.034 A 
ATOM     26  C   UNL A   1      47.046  28.758  27.366  1.00  0.00     0.049 A 
ATOM     27  C   UNL A   1      41.856  29.580  29.362  1.00  0.00     0.074 A 
ATOM     28  C   UNL A   1      47.893  29.850  27.398  1.00  0.00     0.029 A 
ATOM     29  N   UNL A   1      45.832  29.181  27.893  1.00  0.00    -0.354 N 
ATOM     30  N   UNL A   1      43.087  29.546  28.914  1.00  0.00    -0.248 NA
ATOM     31  C   UNL A   1      41.450  30.872  29.927  1.00  0.00     0.031 C 
ATOM     32  C   UNL A   1      47.204  30.923  27.973  1.00  0.00     0.029 A 
ATOM     33  C   UNL A   1      45.911  30.516  28.256  1.00  0.00     0.049 A 
ATOM     34  H   UNL A   1      45.033  28.616  27.993  1.00  0.00     0.167 HD
ATOM     35  C   UNL A   1      43.597  30.822  29.107  1.00  0.00     0.074 A 
ATOM     36  C   UNL A   1      42.533  31.606  29.706  1.00  0.00     0.031 C 
ATOM     37  C   UNL A   1      44.833  31.296  28.816  1.00  0.00     0.034 A 
BRANCH  24  38
ATOM     38  C   UNL A   1      48.702  27.123  26.360  1.00  0.00     0.023 A 
ATOM     39  C   UNL A   1      49.639  26.459  27.178  1.00  0.00     0.012 A 
ATOM     40  C   UNL A   1      49.050  27.437  25.032  1.00  0.00     0.148 A 
ATOM     41  C   UNL A   1      50.911  26.146  26.696  1.00  0.00     0.002 A 
ATOM     42  C   UNL A   1      50.302  27.078  24.543  1.00  0.00     0.091 A 
ATOM     43  F   UNL A   1      48.158  28.087  24.272  1.00  0.00    -0.205 F 
ATOM     44  C   UNL A   1      51.237  26.445  25.377  1.00  0.00     0.022 A 
BRANCH  42  45
ATOM     45  S   UNL A   1      50.785  27.341  22.832  1.00  0.00     0.127 S 
ATOM     46  O   UNL A   1      50.808  28.800  22.753  1.00  0.00    -0.237 OA
ATOM     47  O   UNL A   1      52.104  26.708  22.782  1.00  0.00    -0.237 OA
ATOM     48  O   UNL A   1      49.768  26.684  22.023  1.00  0.00    -0.744 OA
ENDBRANCH  42  45
ENDBRANCH  24  38
BRANCH  25  49
ATOM     49  C   UNL A   1      39.431  28.711  29.825  1.00  0.00     0.023 A 
ATOM     50  C   UNL A   1      39.079  28.310  31.126  1.00  0.00     0.012 A 
ATOM     51  C   UNL A   1      38.503  29.434  29.048  1.00  0.00     0.148 A 
ATOM     52  C   UNL A   1      37.824  28.624  31.648  1.00  0.00     0.002 A 
ATOM     53  C   UNL A   1      37.279  29.796  29.596  1.00  0.00     0.091 A 
ATOM     54  F   UNL A   1      38.866  29.807  27.812  1.00  0.00    -0.205 F 
ATOM     55  C   UNL A   1      36.932  29.381  30.890  1.00  0.00     0.022 A 
BRANCH  53  56
ATOM     56  S   UNL A   1      36.133  30.899  28.761  1.00  0.00     0.127 S 
ATOM     57  O   UNL A   1      35.531  30.009  27.769  1.00  0.00    -0.237 OA
ATOM     58  O   UNL A   1      35.246  31.289  29.858  1.00  0.00    -0.237 OA
ATOM     59  O   UNL A   1      36.943  31.981  28.221  1.00  0.00    -0.744 OA
ENDBRANCH  53  56
ENDBRANCH  25  49
BRANCH  37  60
ATOM     60  C   UNL A   1      45.104  32.751  29.099  1.00  0.00     0.023 A 
ATOM     61  C   UNL A   1      45.658  33.143  30.333  1.00  0.00     0.012 A 
ATOM     62  C   UNL A   1      44.882  33.720  28.100  1.00  0.00     0.148 A 
ATOM     63  C   UNL A   1      45.960  34.482  30.579  1.00  0.00     0.002 A 
ATOM     64  C   UNL A   1      45.237  35.043  28.332  1.00  0.00     0.091 A 
ATOM     65  F   UNL A   1      44.332  33.330  26.941  1.00  0.00    -0.205 F 
ATOM     66  C   UNL A   1      45.764  35.428  29.575  1.00  0.00     0.022 A 
BRANCH  64  67
ATOM     67  S   UNL A   1      45.121  36.306  27.061  1.00  0.00     0.127 S 
ATOM     68  O   UNL A   1      45.987  35.759  26.017  1.00  0.00    -0.237 OA
ATOM     69  O   UNL A   1      43.694  36.292  26.739  1.00  0.00    -0.237 OA
ATOM     70  O   UNL A   1      45.589  37.541  27.677  1.00  0.00    -0.744 OA
ENDBRANCH  64  67
ENDBRANCH  37  60
ENDBRANCH  11  12
ENDBRANCH   4   6
ENDBRANCH   1   2
BRANCH   1  71
ATOM     71  C   UNL A   1      37.749  19.787  24.898  1.00  0.00     0.042 C 
BRANCH  71  72
ATOM     72  C   UNL A   1      36.681  20.837  24.660  1.00  0.00     0.118 C 
BRANCH  72  73
ATOM     73  N   UNL A   1      35.918  21.145  25.865  1.00  0.00    -0.352 N 
ATOM     74  C   UNL A   1      34.563  21.098  26.085  1.00  0.00     0.253 C 
ATOM     75  H   UNL A   1      36.458  21.430  26.638  1.00  0.00     0.163 HD
ATOM     76  O   UNL A   1      34.110  21.464  27.168  1.00  0.00    -0.269 OA
BRANCH  74  77
ATOM     77  C   UNL A   1      33.684  20.578  25.018  1.00  0.00     0.066 A 
ATOM     78  C   UNL A   1      33.448  19.192  25.010  1.00  0.00     0.055 A 
ATOM     79  C   UNL A   1      33.059  21.412  24.071  1.00  0.00     0.054 A 
ATOM     80  C   UNL A   1      32.716  18.618  23.984  1.00  0.00     0.124 A 
ATOM     81  C   UNL A   1      32.319  20.787  23.043  1.00  0.00     0.030 A 
ATOM     82  F   UNL A   1      32.553  17.290  23.953  1.00  0.00    -0.207 F 
ATOM     83  C   UNL A   1      32.168  19.401  22.984  1.00  0.00     0.041 A 
BRANCH  79  84
ATOM     84  N   UNL A   1      33.059  22.817  24.106  1.00  0.00    -0.341 N 
ATOM     85  C   UNL A   1      34.126  23.542  23.408  1.00  0.00     0.123 C 
ATOM     86  C   UNL A   1      32.106  23.619  24.779  1.00  0.00     0.044 A 
ATOM     87  C   UNL A   1      33.506  24.606  22.507  1.00  0.00     0.027 C 
ATOM     88  C   UNL A   1      31.893  24.962  24.415  1.00  0.00    -0.024 A 
ATOM     89  C   UNL A   1      31.336  23.086  25.829  1.00  0.00     0.026 A 
ATOM     90  C   UNL A   1      32.722  25.615  23.340  1.00  0.00     0.039 C 
ATOM     91  C   UNL A   1      30.922  25.727  25.086  1.00  0.00     0.006 A 
ATOM     92  C   UNL A   1      30.376  23.851  26.494  1.00  0.00     0.002 A 
ATOM     93  C   UNL A   1      30.164  25.171  26.117  1.00  0.00     0.000 A 
ENDBRANCH  79  84
ENDBRANCH  74  77
ENDBRANCH  72  73
ENDBRANCH  71  72
ENDBRANCH   1  71
TORSDOF 14
ENDMDL
