MODEL 1
REMARK VINA RESULT:     -11.3      0.000      0.000
REMARK SMILES O=C(COCCNC(=O)Nc1cccc(F)c1)NCCCNC(=O)c1ccc(-c2c3nc(c(-c4cccc(S(=O)(=O)[O-])c4F)c4ccc([nH]4)c(-c4cccc(S(=O)(=O)[O-])c4F)c4nc(c(-c5cccc(S(=O)(=O)[O-])c5F)c5ccc2[nH]5)C=C4)C=C3)cc1
REMARK SMILES IDX 19 1 18 2 1 3 2 4 3 6 4 7 5 8 6 9 7 10 8 11 9 13 10 14 11 16
REMARK SMILES IDX 12 17 17 18 13 19 15 20 14 21 16 22 20 23 21 24 22 25 23 26
REMARK SMILES IDX 24 28 25 29 26 30 87 31 27 32 86 33 28 34 29 35 30 36 80 37
REMARK SMILES IDX 31 38 85 39 79 40 81 41 32 42 84 43 78 44 77 45 33 47 65 48
REMARK SMILES IDX 45 49 64 50 46 51 49 52 63 53 82 54 47 55 48 56 62 58 83 59
REMARK SMILES IDX 50 60 34 61 35 62 43 63 36 64 38 65 44 66 37 67 39 68 40 69
REMARK SMILES IDX 41 70 42 71 66 72 67 73 75 74 68 75 70 76 76 77 69 78 71 79
REMARK SMILES IDX 72 80 73 81 74 82 51 83 52 84 60 85 53 86 55 87 61 88 54 89
REMARK SMILES IDX 56 90 57 91 58 92 59 93
REMARK H PARENT 18 5 7 12 10 15 22 27 81 46 49 57
REMARK Flexibility Score: inf
ROOT
ATOM      1  C   UNL A   1      34.720  23.079  23.705  1.00  0.00     0.117 C 
ENDROOT
BRANCH   1   2
ATOM      2  N   UNL A   1      33.352  23.538  23.726  1.00  0.00    -0.354 N 
ATOM      3  O   UNL A   1      33.576  25.109  22.057  1.00  0.00    -0.272 OA
ATOM      4  C   UNL A   1      32.881  24.509  22.867  1.00  0.00     0.245 C 
ATOM      5  H   UNL A   1      32.730  23.143  24.379  1.00  0.00     0.163 HD
BRANCH   4   6
ATOM      6  C   UNL A   1      31.382  24.769  23.026  1.00  0.00     0.260 C 
BRANCH   6   7
ATOM      7  O   UNL A   1      31.032  25.896  23.817  1.00  0.00    -0.370 OA
BRANCH   7   8
ATOM      8  C   UNL A   1      30.331  26.931  23.127  1.00  0.00     0.182 C 
BRANCH   8   9
ATOM      9  C   UNL A   1      31.124  28.222  22.921  1.00  0.00     0.146 C 
BRANCH   9  10
ATOM     10  N   UNL A   1      32.415  28.087  22.247  1.00  0.00    -0.336 N 
ATOM     11  C   UNL A   1      33.686  28.413  22.562  1.00  0.00     0.319 C 
ATOM     12  H   UNL A   1      32.339  27.661  21.363  1.00  0.00     0.165 HD
ATOM     13  O   UNL A   1      34.542  28.333  21.679  1.00  0.00    -0.249 OA
ATOM     14  N   UNL A   1      34.044  28.911  23.765  1.00  0.00    -0.308 N 
ATOM     15  H   UNL A   1      34.856  29.466  23.752  1.00  0.00     0.171 HD
BRANCH  14  16
ATOM     16  C   UNL A   1      33.458  28.772  25.025  1.00  0.00     0.045 A 
ATOM     17  C   UNL A   1      33.416  27.544  25.695  1.00  0.00     0.026 A 
ATOM     18  C   UNL A   1      32.854  29.895  25.585  1.00  0.00     0.065 A 
ATOM     19  C   UNL A   1      32.624  27.398  26.836  1.00  0.00     0.005 A 
ATOM     20  C   UNL A   1      32.062  29.736  26.715  1.00  0.00     0.125 A 
ATOM     21  C   UNL A   1      31.918  28.494  27.327  1.00  0.00     0.039 A 
ATOM     22  F   UNL A   1      31.382  30.787  27.192  1.00  0.00    -0.207 F 
ENDBRANCH  14  16
ENDBRANCH   9  10
ENDBRANCH   8   9
ENDBRANCH   7   8
ENDBRANCH   6   7
ENDBRANCH   4   6
ENDBRANCH   1   2
BRANCH   1  23
ATOM     23  C   UNL A   1      34.921  21.839  24.562  1.00  0.00     0.042 C 
BRANCH  23  24
ATOM     24  C   UNL A   1      36.011  21.984  25.619  1.00  0.00     0.118 C 
BRANCH  24  25
ATOM     25  N   UNL A   1      37.038  20.955  25.533  1.00  0.00    -0.352 N 
ATOM     26  C   UNL A   1      38.392  21.046  25.747  1.00  0.00     0.251 C 
ATOM     27  H   UNL A   1      36.714  20.060  25.285  1.00  0.00     0.163 HD
ATOM     28  O   UNL A   1      39.104  20.076  25.498  1.00  0.00    -0.269 OA
BRANCH  26  29
ATOM     29  C   UNL A   1      38.997  22.302  26.245  1.00  0.00     0.039 A 
ATOM     30  C   UNL A   1      40.077  22.214  27.128  1.00  0.00     0.014 A 
ATOM     31  C   UNL A   1      38.506  23.555  25.868  1.00  0.00     0.014 A 
ATOM     32  C   UNL A   1      40.694  23.380  27.588  1.00  0.00     0.010 A 
ATOM     33  C   UNL A   1      39.176  24.714  26.262  1.00  0.00     0.010 A 
ATOM     34  C   UNL A   1      40.270  24.640  27.133  1.00  0.00    -0.014 A 
BRANCH  34  35
ATOM     35  C   UNL A   1      40.987  25.874  27.553  1.00  0.00     0.031 A 
ATOM     36  C   UNL A   1      42.426  26.100  27.173  1.00  0.00     0.074 A 
ATOM     37  C   UNL A   1      40.345  26.783  28.316  1.00  0.00     0.049 A 
ATOM     38  N   UNL A   1      43.183  27.139  27.412  1.00  0.00    -0.248 NA
ATOM     39  C   UNL A   1      43.115  25.015  26.454  1.00  0.00     0.031 C 
ATOM     40  C   UNL A   1      38.981  26.636  28.828  1.00  0.00     0.029 A 
ATOM     41  N   UNL A   1      40.751  28.002  28.800  1.00  0.00    -0.354 N 
ATOM     42  C   UNL A   1      44.435  26.828  26.896  1.00  0.00     0.074 A 
ATOM     43  C   UNL A   1      44.352  25.486  26.366  1.00  0.00     0.031 C 
ATOM     44  C   UNL A   1      38.652  27.734  29.526  1.00  0.00     0.029 A 
ATOM     45  C   UNL A   1      39.788  28.652  29.538  1.00  0.00     0.049 A 
ATOM     46  H   UNL A   1      41.647  28.375  28.636  1.00  0.00     0.167 HD
ATOM     47  C   UNL A   1      45.542  27.604  26.836  1.00  0.00     0.034 A 
ATOM     48  C   UNL A   1      39.809  29.855  30.148  1.00  0.00     0.034 A 
ATOM     49  C   UNL A   1      45.602  28.956  27.317  1.00  0.00     0.049 A 
ATOM     50  C   UNL A   1      41.035  30.718  30.025  1.00  0.00     0.074 A 
ATOM     51  C   UNL A   1      46.648  29.856  27.209  1.00  0.00     0.029 A 
ATOM     52  N   UNL A   1      44.585  29.602  28.001  1.00  0.00    -0.354 N 
ATOM     53  N   UNL A   1      42.151  30.470  29.385  1.00  0.00    -0.248 NA
ATOM     54  C   UNL A   1      40.998  32.037  30.674  1.00  0.00     0.031 C 
ATOM     55  C   UNL A   1      46.275  31.035  27.857  1.00  0.00     0.029 A 
ATOM     56  C   UNL A   1      44.983  30.884  28.335  1.00  0.00     0.049 A 
ATOM     57  H   UNL A   1      43.709  29.207  28.217  1.00  0.00     0.167 HD
ATOM     58  C   UNL A   1      42.934  31.609  29.524  1.00  0.00     0.074 A 
ATOM     59  C   UNL A   1      42.162  32.555  30.301  1.00  0.00     0.031 C 
ATOM     60  C   UNL A   1      44.184  31.841  29.057  1.00  0.00     0.034 A 
BRANCH  47  61
ATOM     61  C   UNL A   1      46.770  27.048  26.162  1.00  0.00     0.023 A 
ATOM     62  C   UNL A   1      46.953  27.256  24.780  1.00  0.00     0.012 A 
ATOM     63  C   UNL A   1      47.792  26.431  26.911  1.00  0.00     0.148 A 
ATOM     64  C   UNL A   1      48.124  26.840  24.148  1.00  0.00     0.002 A 
ATOM     65  C   UNL A   1      48.976  26.062  26.283  1.00  0.00     0.091 A 
ATOM     66  F   UNL A   1      47.592  26.229  28.221  1.00  0.00    -0.205 F 
ATOM     67  C   UNL A   1      49.140  26.257  24.902  1.00  0.00     0.022 A 
BRANCH  65  68
ATOM     68  S   UNL A   1      50.380  25.385  27.175  1.00  0.00     0.127 S 
ATOM     69  O   UNL A   1      50.727  26.492  28.066  1.00  0.00    -0.237 OA
ATOM     70  O   UNL A   1      49.791  24.225  27.844  1.00  0.00    -0.237 OA
ATOM     71  O   UNL A   1      51.383  25.063  26.166  1.00  0.00    -0.744 OA
ENDBRANCH  65  68
ENDBRANCH  47  61
BRANCH  48  72
ATOM     72  C   UNL A   1      38.587  30.339  30.852  1.00  0.00     0.023 A 
ATOM     73  C   UNL A   1      38.484  30.179  32.247  1.00  0.00     0.012 A 
ATOM     74  C   UNL A   1      37.568  31.026  30.162  1.00  0.00     0.148 A 
ATOM     75  C   UNL A   1      37.381  30.679  32.941  1.00  0.00     0.002 A 
ATOM     76  C   UNL A   1      36.503  31.573  30.867  1.00  0.00     0.091 A 
ATOM     77  F   UNL A   1      37.681  31.158  28.833  1.00  0.00    -0.205 F 
ATOM     78  C   UNL A   1      36.398  31.388  32.254  1.00  0.00     0.022 A 
BRANCH  76  79
ATOM     79  S   UNL A   1      35.270  32.624  30.091  1.00  0.00     0.127 S 
ATOM     80  O   UNL A   1      34.728  31.740  29.063  1.00  0.00    -0.237 OA
ATOM     81  O   UNL A   1      34.366  32.901  31.208  1.00  0.00    -0.237 OA
ATOM     82  O   UNL A   1      35.996  33.790  29.603  1.00  0.00    -0.744 OA
ENDBRANCH  76  79
ENDBRANCH  48  72
BRANCH  60  83
ATOM     83  C   UNL A   1      44.822  33.177  29.330  1.00  0.00     0.023 A 
ATOM     84  C   UNL A   1      45.650  33.336  30.457  1.00  0.00     0.012 A 
ATOM     85  C   UNL A   1      44.745  34.209  28.372  1.00  0.00     0.148 A 
ATOM     86  C   UNL A   1      46.393  34.503  30.627  1.00  0.00     0.002 A 
ATOM     87  C   UNL A   1      45.527  35.346  28.522  1.00  0.00     0.091 A 
ATOM     88  F   UNL A   1      43.942  34.034  27.312  1.00  0.00    -0.205 F 
ATOM     89  C   UNL A   1      46.346  35.499  29.653  1.00  0.00     0.022 A 
BRANCH  87  90
ATOM     90  S   UNL A   1      45.621  36.631  27.269  1.00  0.00     0.127 S 
ATOM     91  O   UNL A   1      46.525  37.594  27.896  1.00  0.00    -0.237 OA
ATOM     92  O   UNL A   1      46.191  35.909  26.132  1.00  0.00    -0.237 OA
ATOM     93  O   UNL A   1      44.257  37.104  27.070  1.00  0.00    -0.744 OA
ENDBRANCH  87  90
ENDBRANCH  60  83
ENDBRANCH  34  35
ENDBRANCH  26  29
ENDBRANCH  24  25
ENDBRANCH  23  24
ENDBRANCH   1  23
TORSDOF 18
ENDMDL
MODEL 2
REMARK VINA RESULT:     -11.0      4.777      9.935
REMARK SMILES O=C(COCCNC(=O)Nc1cccc(F)c1)NCCCNC(=O)c1ccc(-c2c3nc(c(-c4cccc(S(=O)(=O)[O-])c4F)c4ccc([nH]4)c(-c4cccc(S(=O)(=O)[O-])c4F)c4nc(c(-c5cccc(S(=O)(=O)[O-])c5F)c5ccc2[nH]5)C=C4)C=C3)cc1
REMARK SMILES IDX 19 1 18 2 1 3 2 4 3 6 4 7 5 8 6 9 7 10 8 11 9 13 10 14 11 16
REMARK SMILES IDX 12 17 17 18 13 19 15 20 14 21 16 22 20 23 21 24 22 25 23 26
REMARK SMILES IDX 24 28 25 29 26 30 87 31 27 32 86 33 28 34 29 35 30 36 80 37
REMARK SMILES IDX 31 38 85 39 79 40 81 41 32 42 84 43 78 44 77 45 33 47 65 48
REMARK SMILES IDX 45 49 64 50 46 51 49 52 63 53 82 54 47 55 48 56 62 58 83 59
REMARK SMILES IDX 50 60 34 61 35 62 43 63 36 64 38 65 44 66 37 67 39 68 40 69
REMARK SMILES IDX 41 70 42 71 66 72 67 73 75 74 68 75 70 76 76 77 69 78 71 79
REMARK SMILES IDX 72 80 73 81 74 82 51 83 52 84 60 85 53 86 55 87 61 88 54 89
REMARK SMILES IDX 56 90 57 91 58 92 59 93
REMARK H PARENT 18 5 7 12 10 15 22 27 81 46 49 57
REMARK Flexibility Score: inf
ROOT
ATOM      1  C   UNL A   1      31.931  28.797  23.934  1.00  0.00     0.117 C 
ENDROOT
BRANCH   1   2
ATOM      2  N   UNL A   1      32.353  27.544  23.354  1.00  0.00    -0.354 N 
ATOM      3  O   UNL A   1      30.637  27.368  21.828  1.00  0.00    -0.272 OA
ATOM      4  C   UNL A   1      31.676  26.941  22.314  1.00  0.00     0.245 C 
ATOM      5  H   UNL A   1      33.156  27.102  23.714  1.00  0.00     0.163 HD
BRANCH   4   6
ATOM      6  C   UNL A   1      32.361  25.665  21.819  1.00  0.00     0.260 C 
BRANCH   6   7
ATOM      7  O   UNL A   1      32.223  24.526  22.657  1.00  0.00    -0.370 OA
BRANCH   7   8
ATOM      8  C   UNL A   1      32.932  23.364  22.229  1.00  0.00     0.182 C 
BRANCH   8   9
ATOM      9  C   UNL A   1      33.636  22.590  23.343  1.00  0.00     0.146 C 
BRANCH   9  10
ATOM     10  N   UNL A   1      32.958  21.384  23.820  1.00  0.00    -0.336 N 
ATOM     11  C   UNL A   1      32.319  21.046  24.959  1.00  0.00     0.319 C 
ATOM     12  H   UNL A   1      32.970  20.654  23.159  1.00  0.00     0.165 HD
ATOM     13  O   UNL A   1      32.013  19.863  25.124  1.00  0.00    -0.249 OA
ATOM     14  N   UNL A   1      32.088  21.919  25.963  1.00  0.00    -0.308 N 
ATOM     15  H   UNL A   1      31.998  21.505  26.852  1.00  0.00     0.171 HD
BRANCH  14  16
ATOM     16  C   UNL A   1      31.954  23.308  25.956  1.00  0.00     0.045 A 
ATOM     17  C   UNL A   1      33.038  24.162  26.190  1.00  0.00     0.026 A 
ATOM     18  C   UNL A   1      30.678  23.833  25.763  1.00  0.00     0.065 A 
ATOM     19  C   UNL A   1      32.819  25.524  26.403  1.00  0.00     0.005 A 
ATOM     20  C   UNL A   1      30.472  25.189  25.986  1.00  0.00     0.125 A 
ATOM     21  C   UNL A   1      31.524  26.032  26.333  1.00  0.00     0.039 A 
ATOM     22  F   UNL A   1      29.229  25.683  25.918  1.00  0.00    -0.207 F 
ENDBRANCH  14  16
ENDBRANCH   9  10
ENDBRANCH   8   9
ENDBRANCH   7   8
ENDBRANCH   6   7
ENDBRANCH   4   6
ENDBRANCH   1   2
BRANCH   1  23
ATOM     23  C   UNL A   1      32.919  29.312  24.968  1.00  0.00     0.042 C 
BRANCH  23  24
ATOM     24  C   UNL A   1      32.282  29.688  26.302  1.00  0.00     0.118 C 
BRANCH  24  25
ATOM     25  N   UNL A   1      32.165  31.127  26.498  1.00  0.00    -0.352 N 
ATOM     26  C   UNL A   1      32.977  31.987  27.197  1.00  0.00     0.251 C 
ATOM     27  H   UNL A   1      31.387  31.546  26.065  1.00  0.00     0.163 HD
ATOM     28  O   UNL A   1      32.627  33.155  27.342  1.00  0.00    -0.269 OA
BRANCH  26  29
ATOM     29  C   UNL A   1      34.246  31.512  27.794  1.00  0.00     0.039 A 
ATOM     30  C   UNL A   1      35.291  32.427  27.945  1.00  0.00     0.014 A 
ATOM     31  C   UNL A   1      34.422  30.183  28.187  1.00  0.00     0.014 A 
ATOM     32  C   UNL A   1      36.489  32.020  28.539  1.00  0.00     0.010 A 
ATOM     33  C   UNL A   1      35.586  29.800  28.854  1.00  0.00     0.010 A 
ATOM     34  C   UNL A   1      36.636  30.711  29.028  1.00  0.00    -0.014 A 
BRANCH  34  35
ATOM     35  C   UNL A   1      37.878  30.307  29.741  1.00  0.00     0.031 A 
ATOM     36  C   UNL A   1      38.163  30.796  31.136  1.00  0.00     0.074 A 
ATOM     37  C   UNL A   1      38.774  29.522  29.110  1.00  0.00     0.049 A 
ATOM     38  N   UNL A   1      39.169  30.500  31.918  1.00  0.00    -0.248 NA
ATOM     39  C   UNL A   1      37.215  31.756  31.725  1.00  0.00     0.031 C 
ATOM     40  C   UNL A   1      38.658  29.059  27.726  1.00  0.00     0.029 A 
ATOM     41  N   UNL A   1      39.960  28.980  29.541  1.00  0.00    -0.354 N 
ATOM     42  C   UNL A   1      38.988  31.250  33.074  1.00  0.00     0.074 A 
ATOM     43  C   UNL A   1      37.799  32.047  32.879  1.00  0.00     0.031 C 
ATOM     44  C   UNL A   1      39.710  28.279  27.431  1.00  0.00     0.029 A 
ATOM     45  C   UNL A   1      40.592  28.207  28.593  1.00  0.00     0.049 A 
ATOM     46  H   UNL A   1      40.325  29.132  30.442  1.00  0.00     0.167 HD
ATOM     47  C   UNL A   1      39.726  31.245  34.208  1.00  0.00     0.034 A 
ATOM     48  C   UNL A   1      41.745  27.509  28.652  1.00  0.00     0.034 A 
ATOM     49  C   UNL A   1      40.877  30.411  34.415  1.00  0.00     0.049 A 
ATOM     50  C   UNL A   1      42.520  27.482  29.941  1.00  0.00     0.074 A 
ATOM     51  C   UNL A   1      41.629  30.262  35.567  1.00  0.00     0.029 A 
ATOM     52  N   UNL A   1      41.447  29.593  33.454  1.00  0.00    -0.354 N 
ATOM     53  N   UNL A   1      42.239  28.067  31.079  1.00  0.00    -0.248 NA
ATOM     54  C   UNL A   1      43.751  26.677  29.970  1.00  0.00     0.031 C 
ATOM     55  C   UNL A   1      42.675  29.379  35.292  1.00  0.00     0.029 A 
ATOM     56  C   UNL A   1      42.552  28.948  33.981  1.00  0.00     0.049 A 
ATOM     57  H   UNL A   1      41.117  29.486  32.532  1.00  0.00     0.167 HD
ATOM     58  C   UNL A   1      43.233  27.675  31.968  1.00  0.00     0.074 A 
ATOM     59  C   UNL A   1      44.121  26.794  31.239  1.00  0.00     0.031 C 
ATOM     60  C   UNL A   1      43.396  28.026  33.265  1.00  0.00     0.034 A 
BRANCH  47  61
ATOM     61  C   UNL A   1      39.279  32.114  35.356  1.00  0.00     0.023 A 
ATOM     62  C   UNL A   1      38.477  31.557  36.372  1.00  0.00     0.012 A 
ATOM     63  C   UNL A   1      39.748  33.436  35.491  1.00  0.00     0.148 A 
ATOM     64  C   UNL A   1      38.130  32.306  37.494  1.00  0.00     0.002 A 
ATOM     65  C   UNL A   1      39.437  34.162  36.635  1.00  0.00     0.091 A 
ATOM     66  F   UNL A   1      40.496  33.952  34.506  1.00  0.00    -0.205 F 
ATOM     67  C   UNL A   1      38.621  33.602  37.633  1.00  0.00     0.022 A 
BRANCH  65  68
ATOM     68  S   UNL A   1      40.090  35.804  36.953  1.00  0.00     0.127 S 
ATOM     69  O   UNL A   1      41.525  35.540  37.045  1.00  0.00    -0.237 OA
ATOM     70  O   UNL A   1      39.681  36.536  35.754  1.00  0.00    -0.237 OA
ATOM     71  O   UNL A   1      39.461  36.257  38.188  1.00  0.00    -0.744 OA
ENDBRANCH  65  68
ENDBRANCH  47  61
BRANCH  48  72
ATOM     72  C   UNL A   1      42.176  26.709  27.470  1.00  0.00     0.023 A 
ATOM     73  C   UNL A   1      42.969  27.315  26.477  1.00  0.00     0.012 A 
ATOM     74  C   UNL A   1      41.874  25.336  27.366  1.00  0.00     0.148 A 
ATOM     75  C   UNL A   1      43.441  26.574  25.393  1.00  0.00     0.002 A 
ATOM     76  C   UNL A   1      42.396  24.591  26.315  1.00  0.00     0.091 A 
ATOM     77  F   UNL A   1      41.109  24.782  28.316  1.00  0.00    -0.205 F 
ATOM     78  C   UNL A   1      43.166  25.210  25.319  1.00  0.00     0.022 A 
BRANCH  76  79
ATOM     79  S   UNL A   1      42.219  22.807  26.216  1.00  0.00     0.127 S 
ATOM     80  O   UNL A   1      42.918  22.505  24.970  1.00  0.00    -0.237 OA
ATOM     81  O   UNL A   1      42.904  22.369  27.432  1.00  0.00    -0.237 OA
ATOM     82  O   UNL A   1      40.783  22.553  26.211  1.00  0.00    -0.744 OA
ENDBRANCH  76  79
ENDBRANCH  48  72
BRANCH  60  83
ATOM     83  C   UNL A   1      44.560  27.450  34.029  1.00  0.00     0.023 A 
ATOM     84  C   UNL A   1      45.779  28.151  34.073  1.00  0.00     0.012 A 
ATOM     85  C   UNL A   1      44.379  26.315  34.846  1.00  0.00     0.148 A 
ATOM     86  C   UNL A   1      46.804  27.731  34.920  1.00  0.00     0.002 A 
ATOM     87  C   UNL A   1      45.385  25.933  35.724  1.00  0.00     0.091 A 
ATOM     88  F   UNL A   1      43.210  25.661  34.779  1.00  0.00    -0.205 F 
ATOM     89  C   UNL A   1      46.600  26.635  35.758  1.00  0.00     0.022 A 
BRANCH  87  90
ATOM     90  S   UNL A   1      45.177  24.607  36.919  1.00  0.00     0.127 S 
ATOM     91  O   UNL A   1      45.038  23.440  36.049  1.00  0.00    -0.237 OA
ATOM     92  O   UNL A   1      46.434  24.667  37.665  1.00  0.00    -0.237 OA
ATOM     93  O   UNL A   1      43.990  24.943  37.696  1.00  0.00    -0.744 OA
ENDBRANCH  87  90
ENDBRANCH  60  83
ENDBRANCH  34  35
ENDBRANCH  26  29
ENDBRANCH  24  25
ENDBRANCH  23  24
ENDBRANCH   1  23
TORSDOF 18
ENDMDL
MODEL 3
REMARK VINA RESULT:     -11.0      5.193     10.159
REMARK SMILES O=C(COCCNC(=O)Nc1cccc(F)c1)NCCCNC(=O)c1ccc(-c2c3nc(c(-c4cccc(S(=O)(=O)[O-])c4F)c4ccc([nH]4)c(-c4cccc(S(=O)(=O)[O-])c4F)c4nc(c(-c5cccc(S(=O)(=O)[O-])c5F)c5ccc2[nH]5)C=C4)C=C3)cc1
REMARK SMILES IDX 19 1 18 2 1 3 2 4 3 6 4 7 5 8 6 9 7 10 8 11 9 13 10 14 11 16
REMARK SMILES IDX 12 17 17 18 13 19 15 20 14 21 16 22 20 23 21 24 22 25 23 26
REMARK SMILES IDX 24 28 25 29 26 30 87 31 27 32 86 33 28 34 29 35 30 36 80 37
REMARK SMILES IDX 31 38 85 39 79 40 81 41 32 42 84 43 78 44 77 45 33 47 65 48
REMARK SMILES IDX 45 49 64 50 46 51 49 52 63 53 82 54 47 55 48 56 62 58 83 59
REMARK SMILES IDX 50 60 34 61 35 62 43 63 36 64 38 65 44 66 37 67 39 68 40 69
REMARK SMILES IDX 41 70 42 71 66 72 67 73 75 74 68 75 70 76 76 77 69 78 71 79
REMARK SMILES IDX 72 80 73 81 74 82 51 83 52 84 60 85 53 86 55 87 61 88 54 89
REMARK SMILES IDX 56 90 57 91 58 92 59 93
REMARK H PARENT 18 5 7 12 10 15 22 27 81 46 49 57
REMARK Flexibility Score: inf
ROOT
ATOM      1  C   UNL A   1      31.241  29.403  24.794  1.00  0.00     0.117 C 
ENDROOT
BRANCH   1   2
ATOM      2  N   UNL A   1      32.103  28.530  24.033  1.00  0.00    -0.354 N 
ATOM      3  O   UNL A   1      30.427  27.409  22.920  1.00  0.00    -0.272 OA
ATOM      4  C   UNL A   1      31.617  27.613  23.125  1.00  0.00     0.245 C 
ATOM      5  H   UNL A   1      33.076  28.592  24.167  1.00  0.00     0.163 HD
BRANCH   4   6
ATOM      6  C   UNL A   1      32.726  26.862  22.385  1.00  0.00     0.260 C 
BRANCH   6   7
ATOM      7  O   UNL A   1      33.136  25.635  22.972  1.00  0.00    -0.370 OA
BRANCH   7   8
ATOM      8  C   UNL A   1      34.028  25.757  24.080  1.00  0.00     0.182 C 
BRANCH   8   9
ATOM      9  C   UNL A   1      33.579  25.040  25.353  1.00  0.00     0.146 C 
BRANCH   9  10
ATOM     10  N   UNL A   1      32.391  25.581  26.013  1.00  0.00    -0.336 N 
ATOM     11  C   UNL A   1      31.067  25.336  25.928  1.00  0.00     0.319 C 
ATOM     12  H   UNL A   1      32.607  26.282  26.670  1.00  0.00     0.165 HD
ATOM     13  O   UNL A   1      30.295  26.110  26.498  1.00  0.00    -0.249 OA
ATOM     14  N   UNL A   1      30.546  24.346  25.172  1.00  0.00    -0.308 N 
ATOM     15  H   UNL A   1      29.623  24.504  24.870  1.00  0.00     0.171 HD
BRANCH  14  16
ATOM     16  C   UNL A   1      31.095  23.134  24.746  1.00  0.00     0.045 A 
ATOM     17  C   UNL A   1      31.403  22.102  25.640  1.00  0.00     0.026 A 
ATOM     18  C   UNL A   1      31.385  22.997  23.391  1.00  0.00     0.065 A 
ATOM     19  C   UNL A   1      32.157  21.009  25.209  1.00  0.00     0.005 A 
ATOM     20  C   UNL A   1      32.143  21.909  22.977  1.00  0.00     0.125 A 
ATOM     21  C   UNL A   1      32.557  20.931  23.877  1.00  0.00     0.039 A 
ATOM     22  F   UNL A   1      32.528  21.828  21.696  1.00  0.00    -0.207 F 
ENDBRANCH  14  16
ENDBRANCH   9  10
ENDBRANCH   8   9
ENDBRANCH   7   8
ENDBRANCH   6   7
ENDBRANCH   4   6
ENDBRANCH   1   2
BRANCH   1  23
ATOM     23  C   UNL A   1      31.656  29.488  26.254  1.00  0.00     0.042 C 
BRANCH  23  24
ATOM     24  C   UNL A   1      33.034  30.104  26.473  1.00  0.00     0.118 C 
BRANCH  24  25
ATOM     25  N   UNL A   1      32.984  31.515  26.828  1.00  0.00    -0.352 N 
ATOM     26  C   UNL A   1      33.826  32.251  27.627  1.00  0.00     0.251 C 
ATOM     27  H   UNL A   1      32.235  32.019  26.437  1.00  0.00     0.163 HD
ATOM     28  O   UNL A   1      33.532  33.412  27.898  1.00  0.00    -0.269 OA
BRANCH  26  29
ATOM     29  C   UNL A   1      35.061  31.649  28.179  1.00  0.00     0.039 A 
ATOM     30  C   UNL A   1      36.224  32.425  28.203  1.00  0.00     0.014 A 
ATOM     31  C   UNL A   1      35.091  30.335  28.654  1.00  0.00     0.014 A 
ATOM     32  C   UNL A   1      37.397  31.900  28.752  1.00  0.00     0.010 A 
ATOM     33  C   UNL A   1      36.239  29.843  29.276  1.00  0.00     0.010 A 
ATOM     34  C   UNL A   1      37.407  30.616  29.323  1.00  0.00    -0.014 A 
BRANCH  34  35
ATOM     35  C   UNL A   1      38.632  30.095  29.987  1.00  0.00     0.031 A 
ATOM     36  C   UNL A   1      39.016  30.552  31.370  1.00  0.00     0.074 A 
ATOM     37  C   UNL A   1      39.426  29.231  29.323  1.00  0.00     0.049 A 
ATOM     38  N   UNL A   1      40.019  30.161  32.112  1.00  0.00    -0.248 NA
ATOM     39  C   UNL A   1      38.186  31.596  31.993  1.00  0.00     0.031 C 
ATOM     40  C   UNL A   1      39.213  28.784  27.945  1.00  0.00     0.029 A 
ATOM     41  N   UNL A   1      40.571  28.579  29.709  1.00  0.00    -0.354 N 
ATOM     42  C   UNL A   1      39.955  30.922  33.273  1.00  0.00     0.074 A 
ATOM     43  C   UNL A   1      38.839  31.828  33.124  1.00  0.00     0.031 C 
ATOM     44  C   UNL A   1      40.175  27.909  27.612  1.00  0.00     0.029 A 
ATOM     45  C   UNL A   1      41.091  27.752  28.739  1.00  0.00     0.049 A 
ATOM     46  H   UNL A   1      40.983  28.693  30.595  1.00  0.00     0.167 HD
ATOM     47  C   UNL A   1      40.732  30.846  34.378  1.00  0.00     0.034 A 
ATOM     48  C   UNL A   1      42.174  26.948  28.754  1.00  0.00     0.034 A 
ATOM     49  C   UNL A   1      41.807  29.907  34.541  1.00  0.00     0.049 A 
ATOM     50  C   UNL A   1      42.993  26.846  30.011  1.00  0.00     0.074 A 
ATOM     51  C   UNL A   1      42.586  29.686  35.664  1.00  0.00     0.029 A 
ATOM     52  N   UNL A   1      42.260  29.041  33.560  1.00  0.00    -0.354 N 
ATOM     53  N   UNL A   1      42.812  27.452  31.159  1.00  0.00    -0.248 NA
ATOM     54  C   UNL A   1      44.142  25.929  29.994  1.00  0.00     0.031 C 
ATOM     55  C   UNL A   1      43.532  28.708  35.350  1.00  0.00     0.029 A 
ATOM     56  C   UNL A   1      43.319  28.294  34.045  1.00  0.00     0.049 A 
ATOM     57  H   UNL A   1      41.886  28.968  32.652  1.00  0.00     0.167 HD
ATOM     58  C   UNL A   1      43.798  26.966  32.009  1.00  0.00     0.074 A 
ATOM     59  C   UNL A   1      44.571  26.008  31.248  1.00  0.00     0.031 C 
ATOM     60  C   UNL A   1      44.044  27.298  33.299  1.00  0.00     0.034 A 
BRANCH  47  61
ATOM     61  C   UNL A   1      40.414  31.751  35.541  1.00  0.00     0.023 A 
ATOM     62  C   UNL A   1      41.215  32.888  35.771  1.00  0.00     0.012 A 
ATOM     63  C   UNL A   1      39.261  31.546  36.325  1.00  0.00     0.148 A 
ATOM     64  C   UNL A   1      40.889  33.795  36.777  1.00  0.00     0.002 A 
ATOM     65  C   UNL A   1      38.916  32.480  37.295  1.00  0.00     0.091 A 
ATOM     66  F   UNL A   1      38.521  30.452  36.100  1.00  0.00    -0.205 F 
ATOM     67  C   UNL A   1      39.732  33.599  37.528  1.00  0.00     0.022 A 
BRANCH  65  68
ATOM     68  S   UNL A   1      37.403  32.370  38.257  1.00  0.00     0.127 S 
ATOM     69  O   UNL A   1      37.776  33.082  39.478  1.00  0.00    -0.237 OA
ATOM     70  O   UNL A   1      36.445  33.078  37.407  1.00  0.00    -0.237 OA
ATOM     71  O   UNL A   1      37.134  30.947  38.425  1.00  0.00    -0.744 OA
ENDBRANCH  65  68
ENDBRANCH  47  61
BRANCH  48  72
ATOM     72  C   UNL A   1      42.481  26.114  27.558  1.00  0.00     0.023 A 
ATOM     73  C   UNL A   1      43.318  26.632  26.550  1.00  0.00     0.012 A 
ATOM     74  C   UNL A   1      42.018  24.787  27.451  1.00  0.00     0.148 A 
ATOM     75  C   UNL A   1      43.675  25.850  25.450  1.00  0.00     0.002 A 
ATOM     76  C   UNL A   1      42.426  23.995  26.384  1.00  0.00     0.091 A 
ATOM     77  F   UNL A   1      41.215  24.318  28.416  1.00  0.00    -0.205 F 
ATOM     78  C   UNL A   1      43.241  24.528  25.374  1.00  0.00     0.022 A 
BRANCH  76  79
ATOM     79  S   UNL A   1      42.038  22.245  26.278  1.00  0.00     0.127 S 
ATOM     80  O   UNL A   1      42.568  21.743  27.543  1.00  0.00    -0.237 OA
ATOM     81  O   UNL A   1      40.578  22.266  26.184  1.00  0.00    -0.237 OA
ATOM     82  O   UNL A   1      42.710  21.764  25.077  1.00  0.00    -0.744 OA
ENDBRANCH  76  79
ENDBRANCH  48  72
BRANCH  60  83
ATOM     83  C   UNL A   1      45.177  26.613  34.018  1.00  0.00     0.023 A 
ATOM     84  C   UNL A   1      46.471  27.163  33.959  1.00  0.00     0.012 A 
ATOM     85  C   UNL A   1      44.915  25.539  34.893  1.00  0.00     0.148 A 
ATOM     86  C   UNL A   1      47.490  26.653  34.763  1.00  0.00     0.002 A 
ATOM     87  C   UNL A   1      45.922  25.071  35.726  1.00  0.00     0.091 A 
ATOM     88  F   UNL A   1      43.675  25.030  34.922  1.00  0.00    -0.205 F 
ATOM     89  C   UNL A   1      47.212  25.621  35.658  1.00  0.00     0.022 A 
BRANCH  87  90
ATOM     90  S   UNL A   1      45.634  23.824  36.988  1.00  0.00     0.127 S 
ATOM     91  O   UNL A   1      44.586  24.451  37.793  1.00  0.00    -0.237 OA
ATOM     92  O   UNL A   1      45.190  22.680  36.193  1.00  0.00    -0.237 OA
ATOM     93  O   UNL A   1      46.907  23.637  37.672  1.00  0.00    -0.744 OA
ENDBRANCH  87  90
ENDBRANCH  60  83
ENDBRANCH  34  35
ENDBRANCH  26  29
ENDBRANCH  24  25
ENDBRANCH  23  24
ENDBRANCH   1  23
TORSDOF 18
ENDMDL
