MODEL 1
REMARK VINA RESULT:     -10.6      0.000      0.000
REMARK SMILES C[NH2+][C@@]1(C(=O)NCCCNC(=O)c2ccc(-c3c4nc(c(-c5cccc(S(=O)(=O)[O-])c5F)c5ccc([nH]5)c(-c5cccc(S(=O)(=O)[O-])c5F)c5nc(c(-c6cccc(S(=O)(=O)[O-])c6F)c6ccc3[nH]6)C=C5)C=C4)cc2)CC[C@H](SC(C)C)C1
REMARK SMILES IDX 8 1 7 2 6 3 4 4 5 5 3 7 76 8 83 9 77 10 78 11 2 12 1 13
REMARK SMILES IDX 79 16 80 17 81 18 82 19 9 20 10 21 11 22 12 24 13 25 14 26
REMARK SMILES IDX 75 27 15 28 74 29 16 30 17 31 18 32 68 33 19 34 73 35 67 36
REMARK SMILES IDX 69 37 20 38 72 39 66 40 65 41 21 43 53 44 33 45 52 46 34 47
REMARK SMILES IDX 37 48 51 49 70 50 35 51 36 52 50 54 71 55 38 56 22 57 23 58
REMARK SMILES IDX 31 59 24 60 26 61 32 62 25 63 27 64 28 65 29 66 30 67 54 68
REMARK SMILES IDX 55 69 63 70 56 71 58 72 64 73 57 74 59 75 60 76 61 77 62 78
REMARK SMILES IDX 39 79 40 80 48 81 41 82 43 83 49 84 42 85 44 86 45 87 46 88
REMARK SMILES IDX 47 89
REMARK H PARENT 6 6 2 14 2 15 10 23 69 42 37 53
REMARK Flexibility Score: inf
ROOT
ATOM      1  C   UNL A   1      32.689  28.366  26.593  1.00  0.00     0.042 C 
ENDROOT
BRANCH   1   2
ATOM      2  C   UNL A   1      32.880  26.878  26.332  1.00  0.00     0.118 C 
BRANCH   2   3
ATOM      3  N   UNL A   1      31.682  26.117  26.597  1.00  0.00    -0.351 N 
ATOM      4  C   UNL A   1      30.707  25.618  25.804  1.00  0.00     0.281 C 
ATOM      5  O   UNL A   1      29.764  25.101  26.432  1.00  0.00    -0.268 OA
ATOM      6  H   UNL A   1      31.547  25.921  27.553  1.00  0.00     0.163 HD
BRANCH   4   7
ATOM      7  C   UNL A   1      30.647  25.651  24.207  1.00  0.00     0.176 C 
ATOM      8  C   UNL A   1      31.997  25.840  23.512  1.00  0.00     0.080 C 
ATOM      9  C   UNL A   1      29.757  26.799  23.697  1.00  0.00     0.093 C 
ATOM     10  C   UNL A   1      32.058  27.266  22.967  1.00  0.00     0.022 C 
ATOM     11  C   UNL A   1      30.649  27.854  22.990  1.00  0.00     0.054 C 
BRANCH   7  12
ATOM     12  N   UNL A   1      30.201  24.258  23.867  1.00  0.00    -0.336 N 
ATOM     13  C   UNL A   1      31.194  23.204  23.833  1.00  0.00     0.331 C 
ATOM     14  H   UNL A   1      29.499  23.989  24.557  1.00  0.00     0.346 HD
ATOM     15  H   UNL A   1      29.877  24.328  22.902  1.00  0.00     0.346 HD
ENDBRANCH   7  12
BRANCH  11  16
ATOM     16  S   UNL A   1      30.259  29.452  23.811  1.00  0.00    -0.155 SA
BRANCH  16  17
ATOM     17  C   UNL A   1      28.921  30.329  22.914  1.00  0.00     0.040 C 
ATOM     18  C   UNL A   1      29.180  30.736  21.474  1.00  0.00     0.019 C 
ATOM     19  C   UNL A   1      27.582  29.624  23.073  1.00  0.00     0.019 C 
ENDBRANCH  16  17
ENDBRANCH  11  16
ENDBRANCH   4   7
ENDBRANCH   2   3
ENDBRANCH   1   2
BRANCH   1  20
ATOM     20  C   UNL A   1      33.868  29.210  26.147  1.00  0.00     0.118 C 
BRANCH  20  21
ATOM     21  N   UNL A   1      33.827  30.542  26.743  1.00  0.00    -0.352 N 
ATOM     22  C   UNL A   1      34.565  31.121  27.749  1.00  0.00     0.251 C 
ATOM     23  H   UNL A   1      33.146  31.136  26.353  1.00  0.00     0.163 HD
ATOM     24  O   UNL A   1      34.137  32.158  28.257  1.00  0.00    -0.269 OA
BRANCH  22  25
ATOM     25  C   UNL A   1      35.841  30.539  28.239  1.00  0.00     0.039 A 
ATOM     26  C   UNL A   1      35.828  29.749  29.396  1.00  0.00     0.014 A 
ATOM     27  C   UNL A   1      37.062  30.821  27.632  1.00  0.00     0.014 A 
ATOM     28  C   UNL A   1      37.021  29.218  29.904  1.00  0.00     0.010 A 
ATOM     29  C   UNL A   1      38.226  30.187  28.057  1.00  0.00     0.010 A 
ATOM     30  C   UNL A   1      38.231  29.407  29.220  1.00  0.00    -0.014 A 
BRANCH  30  31
ATOM     31  C   UNL A   1      39.521  28.846  29.709  1.00  0.00     0.031 A 
ATOM     32  C   UNL A   1      40.251  29.515  30.851  1.00  0.00     0.074 A 
ATOM     33  C   UNL A   1      40.093  27.809  29.065  1.00  0.00     0.049 A 
ATOM     34  N   UNL A   1      41.438  29.259  31.337  1.00  0.00    -0.248 NA
ATOM     35  C   UNL A   1      39.574  30.650  31.505  1.00  0.00     0.031 C 
ATOM     36  C   UNL A   1      39.535  27.123  27.898  1.00  0.00     0.029 A 
ATOM     37  N   UNL A   1      41.288  27.169  29.283  1.00  0.00    -0.354 N 
ATOM     38  C   UNL A   1      41.672  30.232  32.305  1.00  0.00     0.074 A 
ATOM     39  C   UNL A   1      40.522  31.107  32.310  1.00  0.00     0.031 C 
ATOM     40  C   UNL A   1      40.380  26.155  27.509  1.00  0.00     0.029 A 
ATOM     41  C   UNL A   1      41.556  26.174  28.371  1.00  0.00     0.049 A 
ATOM     42  H   UNL A   1      41.896  27.401  30.022  1.00  0.00     0.167 HD
ATOM     43  C   UNL A   1      42.732  30.370  33.137  1.00  0.00     0.034 A 
ATOM     44  C   UNL A   1      42.632  25.373  28.237  1.00  0.00     0.034 A 
ATOM     45  C   UNL A   1      43.839  29.455  33.181  1.00  0.00     0.049 A 
ATOM     46  C   UNL A   1      43.766  25.503  29.218  1.00  0.00     0.074 A 
ATOM     47  C   UNL A   1      44.907  29.439  34.061  1.00  0.00     0.029 A 
ATOM     48  N   UNL A   1      44.021  28.393  32.310  1.00  0.00    -0.354 N 
ATOM     49  N   UNL A   1      43.897  26.333  30.225  1.00  0.00    -0.248 NA
ATOM     50  C   UNL A   1      44.887  24.563  29.067  1.00  0.00     0.031 C 
ATOM     51  C   UNL A   1      45.748  28.379  33.706  1.00  0.00     0.029 A 
ATOM     52  C   UNL A   1      45.188  27.718  32.625  1.00  0.00     0.049 A 
ATOM     53  H   UNL A   1      43.411  28.154  31.575  1.00  0.00     0.167 HD
ATOM     54  C   UNL A   1      45.090  25.991  30.850  1.00  0.00     0.074 A 
ATOM     55  C   UNL A   1      45.635  24.865  30.119  1.00  0.00     0.031 C 
ATOM     56  C   UNL A   1      45.688  26.563  31.923  1.00  0.00     0.034 A 
BRANCH  43  57
ATOM     57  C   UNL A   1      42.717  31.522  34.112  1.00  0.00     0.023 A 
ATOM     58  C   UNL A   1      43.340  32.740  33.766  1.00  0.00     0.012 A 
ATOM     59  C   UNL A   1      42.045  31.419  35.346  1.00  0.00     0.148 A 
ATOM     60  C   UNL A   1      43.332  33.820  34.647  1.00  0.00     0.002 A 
ATOM     61  C   UNL A   1      41.998  32.517  36.198  1.00  0.00     0.091 A 
ATOM     62  F   UNL A   1      41.474  30.250  35.668  1.00  0.00    -0.205 F 
ATOM     63  C   UNL A   1      42.653  33.711  35.858  1.00  0.00     0.022 A 
BRANCH  61  64
ATOM     64  S   UNL A   1      41.078  32.509  37.741  1.00  0.00     0.127 S 
ATOM     65  O   UNL A   1      41.932  31.679  38.590  1.00  0.00    -0.237 OA
ATOM     66  O   UNL A   1      41.060  33.928  38.097  1.00  0.00    -0.237 OA
ATOM     67  O   UNL A   1      39.772  31.945  37.428  1.00  0.00    -0.744 OA
ENDBRANCH  61  64
ENDBRANCH  43  57
BRANCH  44  68
ATOM     68  C   UNL A   1      42.654  24.325  27.177  1.00  0.00     0.023 A 
ATOM     69  C   UNL A   1      43.388  24.558  25.997  1.00  0.00     0.012 A 
ATOM     70  C   UNL A   1      41.986  23.097  27.338  1.00  0.00     0.148 A 
ATOM     71  C   UNL A   1      43.427  23.602  24.982  1.00  0.00     0.002 A 
ATOM     72  C   UNL A   1      42.074  22.126  26.347  1.00  0.00     0.091 A 
ATOM     73  F   UNL A   1      41.286  22.897  28.464  1.00  0.00    -0.205 F 
ATOM     74  C   UNL A   1      42.778  22.383  25.160  1.00  0.00     0.022 A 
BRANCH  72  75
ATOM     75  S   UNL A   1      41.385  20.479  26.543  1.00  0.00     0.127 S 
ATOM     76  O   UNL A   1      39.985  20.696  26.191  1.00  0.00    -0.237 OA
ATOM     77  O   UNL A   1      42.156  19.712  25.564  1.00  0.00    -0.237 OA
ATOM     78  O   UNL A   1      41.640  20.108  27.930  1.00  0.00    -0.744 OA
ENDBRANCH  72  75
ENDBRANCH  44  68
BRANCH  56  79
ATOM     79  C   UNL A   1      46.978  25.960  32.411  1.00  0.00     0.023 A 
ATOM     80  C   UNL A   1      46.971  25.067  33.500  1.00  0.00     0.012 A 
ATOM     81  C   UNL A   1      48.188  26.219  31.736  1.00  0.00     0.148 A 
ATOM     82  C   UNL A   1      48.152  24.466  33.931  1.00  0.00     0.002 A 
ATOM     83  C   UNL A   1      49.353  25.578  32.139  1.00  0.00     0.091 A 
ATOM     84  F   UNL A   1      48.178  27.087  30.714  1.00  0.00    -0.205 F 
ATOM     85  C   UNL A   1      49.339  24.712  33.244  1.00  0.00     0.022 A 
BRANCH  83  86
ATOM     86  S   UNL A   1      50.905  25.755  31.253  1.00  0.00     0.127 S 
ATOM     87  O   UNL A   1      51.794  24.895  32.033  1.00  0.00    -0.237 OA
ATOM     88  O   UNL A   1      50.566  25.238  29.927  1.00  0.00    -0.237 OA
ATOM     89  O   UNL A   1      51.225  27.176  31.284  1.00  0.00    -0.744 OA
ENDBRANCH  83  86
ENDBRANCH  56  79
ENDBRANCH  30  31
ENDBRANCH  22  25
ENDBRANCH  20  21
ENDBRANCH   1  20
TORSDOF 16
ENDMDL
MODEL 2
REMARK VINA RESULT:     -10.5      4.389      9.206
REMARK SMILES C[NH2+][C@@]1(C(=O)NCCCNC(=O)c2ccc(-c3c4nc(c(-c5cccc(S(=O)(=O)[O-])c5F)c5ccc([nH]5)c(-c5cccc(S(=O)(=O)[O-])c5F)c5nc(c(-c6cccc(S(=O)(=O)[O-])c6F)c6ccc3[nH]6)C=C5)C=C4)cc2)CC[C@H](SC(C)C)C1
REMARK SMILES IDX 8 1 7 2 6 3 4 4 5 5 3 7 76 8 83 9 77 10 78 11 2 12 1 13
REMARK SMILES IDX 79 16 80 17 81 18 82 19 9 20 10 21 11 22 12 24 13 25 14 26
REMARK SMILES IDX 75 27 15 28 74 29 16 30 17 31 18 32 68 33 19 34 73 35 67 36
REMARK SMILES IDX 69 37 20 38 72 39 66 40 65 41 21 43 53 44 33 45 52 46 34 47
REMARK SMILES IDX 37 48 51 49 70 50 35 51 36 52 50 54 71 55 38 56 22 57 23 58
REMARK SMILES IDX 31 59 24 60 26 61 32 62 25 63 27 64 28 65 29 66 30 67 54 68
REMARK SMILES IDX 55 69 63 70 56 71 58 72 64 73 57 74 59 75 60 76 61 77 62 78
REMARK SMILES IDX 39 79 40 80 48 81 41 82 43 83 49 84 42 85 44 86 45 87 46 88
REMARK SMILES IDX 47 89
REMARK H PARENT 6 6 2 14 2 15 10 23 69 42 37 53
REMARK Flexibility Score: inf
ROOT
ATOM      1  C   UNL A   1      34.891  21.749  26.895  1.00  0.00     0.042 C 
ENDROOT
BRANCH   1   2
ATOM      2  C   UNL A   1      33.526  21.417  26.309  1.00  0.00     0.118 C 
BRANCH   2   3
ATOM      3  N   UNL A   1      32.477  22.242  26.861  1.00  0.00    -0.351 N 
ATOM      4  C   UNL A   1      31.977  23.452  26.523  1.00  0.00     0.281 C 
ATOM      5  O   UNL A   1      31.129  23.887  27.326  1.00  0.00    -0.268 OA
ATOM      6  H   UNL A   1      32.036  21.840  27.644  1.00  0.00     0.163 HD
BRANCH   4   7
ATOM      7  C   UNL A   1      32.372  24.345  25.258  1.00  0.00     0.176 C 
ATOM      8  C   UNL A   1      33.831  24.807  25.223  1.00  0.00     0.080 C 
ATOM      9  C   UNL A   1      31.530  25.632  25.188  1.00  0.00     0.093 C 
ATOM     10  C   UNL A   1      33.869  26.296  25.564  1.00  0.00     0.022 C 
ATOM     11  C   UNL A   1      32.451  26.853  25.460  1.00  0.00     0.054 C 
BRANCH   7  12
ATOM     12  N   UNL A   1      32.218  23.383  24.116  1.00  0.00    -0.336 N 
ATOM     13  C   UNL A   1      32.492  23.854  22.774  1.00  0.00     0.331 C 
ATOM     14  H   UNL A   1      32.847  22.600  24.294  1.00  0.00     0.346 HD
ATOM     15  H   UNL A   1      31.222  23.165  24.106  1.00  0.00     0.346 HD
ENDBRANCH   7  12
BRANCH  11  16
ATOM     16  S   UNL A   1      31.647  27.772  26.835  1.00  0.00    -0.155 SA
BRANCH  16  17
ATOM     17  C   UNL A   1      32.595  29.291  27.236  1.00  0.00     0.040 C 
ATOM     18  C   UNL A   1      34.094  29.276  26.994  1.00  0.00     0.019 C 
ATOM     19  C   UNL A   1      31.937  30.533  26.655  1.00  0.00     0.019 C 
ENDBRANCH  16  17
ENDBRANCH  11  16
ENDBRANCH   4   7
ENDBRANCH   2   3
ENDBRANCH   1   2
BRANCH   1  20
ATOM     20  C   UNL A   1      35.952  22.005  25.841  1.00  0.00     0.118 C 
BRANCH  20  21
ATOM     21  N   UNL A   1      37.017  21.008  25.901  1.00  0.00    -0.352 N 
ATOM     22  C   UNL A   1      38.385  21.129  25.968  1.00  0.00     0.251 C 
ATOM     23  H   UNL A   1      36.696  20.077  25.892  1.00  0.00     0.163 HD
ATOM     24  O   UNL A   1      39.066  20.135  25.717  1.00  0.00    -0.269 OA
BRANCH  22  25
ATOM     25  C   UNL A   1      39.056  22.404  26.326  1.00  0.00     0.039 A 
ATOM     26  C   UNL A   1      40.132  22.379  27.224  1.00  0.00     0.014 A 
ATOM     27  C   UNL A   1      38.598  23.636  25.862  1.00  0.00     0.014 A 
ATOM     28  C   UNL A   1      40.761  23.569  27.610  1.00  0.00     0.010 A 
ATOM     29  C   UNL A   1      39.304  24.802  26.140  1.00  0.00     0.010 A 
ATOM     30  C   UNL A   1      40.372  24.794  27.046  1.00  0.00    -0.014 A 
BRANCH  30  31
ATOM     31  C   UNL A   1      41.022  26.083  27.410  1.00  0.00     0.031 A 
ATOM     32  C   UNL A   1      42.463  26.335  27.033  1.00  0.00     0.074 A 
ATOM     33  C   UNL A   1      40.361  26.981  28.169  1.00  0.00     0.049 A 
ATOM     34  N   UNL A   1      43.243  27.332  27.364  1.00  0.00    -0.248 NA
ATOM     35  C   UNL A   1      43.130  25.310  26.210  1.00  0.00     0.031 C 
ATOM     36  C   UNL A   1      38.995  26.825  28.671  1.00  0.00     0.029 A 
ATOM     37  N   UNL A   1      40.764  28.191  28.678  1.00  0.00    -0.354 N 
ATOM     38  C   UNL A   1      44.498  27.025  26.845  1.00  0.00     0.074 A 
ATOM     39  C   UNL A   1      44.386  25.731  26.211  1.00  0.00     0.031 C 
ATOM     40  C   UNL A   1      38.669  27.900  29.406  1.00  0.00     0.029 A 
ATOM     41  C   UNL A   1      39.813  28.803  29.462  1.00  0.00     0.049 A 
ATOM     42  H   UNL A   1      41.649  28.583  28.500  1.00  0.00     0.167 HD
ATOM     43  C   UNL A   1      45.633  27.763  26.864  1.00  0.00     0.034 A 
ATOM     44  C   UNL A   1      39.860  29.957  30.158  1.00  0.00     0.034 A 
ATOM     45  C   UNL A   1      45.721  29.081  27.429  1.00  0.00     0.049 A 
ATOM     46  C   UNL A   1      41.112  30.790  30.107  1.00  0.00     0.074 A 
ATOM     47  C   UNL A   1      46.790  29.959  27.402  1.00  0.00     0.029 A 
ATOM     48  N   UNL A   1      44.701  29.713  28.122  1.00  0.00    -0.354 N 
ATOM     49  N   UNL A   1      42.238  30.552  29.479  1.00  0.00    -0.248 NA
ATOM     50  C   UNL A   1      41.089  32.070  30.830  1.00  0.00     0.031 C 
ATOM     51  C   UNL A   1      46.424  31.115  28.100  1.00  0.00     0.029 A 
ATOM     52  C   UNL A   1      45.116  30.967  28.535  1.00  0.00     0.049 A 
ATOM     53  H   UNL A   1      43.812  29.327  28.295  1.00  0.00     0.167 HD
ATOM     54  C   UNL A   1      43.041  31.665  29.698  1.00  0.00     0.074 A 
ATOM     55  C   UNL A   1      42.264  32.588  30.499  1.00  0.00     0.031 C 
ATOM     56  C   UNL A   1      44.311  31.899  29.284  1.00  0.00     0.034 A 
BRANCH  43  57
ATOM     57  C   UNL A   1      46.860  27.186  26.202  1.00  0.00     0.023 A 
ATOM     58  C   UNL A   1      47.045  27.344  24.811  1.00  0.00     0.012 A 
ATOM     59  C   UNL A   1      47.854  26.534  26.958  1.00  0.00     0.148 A 
ATOM     60  C   UNL A   1      48.174  26.825  24.180  1.00  0.00     0.002 A 
ATOM     61  C   UNL A   1      49.001  26.065  26.329  1.00  0.00     0.091 A 
ATOM     62  F   UNL A   1      47.655  26.376  28.275  1.00  0.00    -0.205 F 
ATOM     63  C   UNL A   1      49.156  26.196  24.939  1.00  0.00     0.022 A 
BRANCH  61  64
ATOM     64  S   UNL A   1      50.364  25.316  27.228  1.00  0.00     0.127 S 
ATOM     65  O   UNL A   1      50.740  26.392  28.144  1.00  0.00    -0.237 OA
ATOM     66  O   UNL A   1      49.717  24.170  27.869  1.00  0.00    -0.237 OA
ATOM     67  O   UNL A   1      51.363  24.968  26.228  1.00  0.00    -0.744 OA
ENDBRANCH  61  64
ENDBRANCH  43  57
BRANCH  44  68
ATOM     68  C   UNL A   1      38.657  30.429  30.901  1.00  0.00     0.023 A 
ATOM     69  C   UNL A   1      38.559  30.174  32.283  1.00  0.00     0.012 A 
ATOM     70  C   UNL A   1      37.630  31.151  30.263  1.00  0.00     0.148 A 
ATOM     71  C   UNL A   1      37.446  30.597  33.009  1.00  0.00     0.002 A 
ATOM     72  C   UNL A   1      36.550  31.618  31.002  1.00  0.00     0.091 A 
ATOM     73  F   UNL A   1      37.737  31.376  28.946  1.00  0.00    -0.205 F 
ATOM     74  C   UNL A   1      36.446  31.327  32.371  1.00  0.00     0.022 A 
BRANCH  72  75
ATOM     75  S   UNL A   1      35.281  32.676  30.298  1.00  0.00     0.127 S 
ATOM     76  O   UNL A   1      34.367  32.840  31.424  1.00  0.00    -0.237 OA
ATOM     77  O   UNL A   1      36.048  33.872  29.946  1.00  0.00    -0.237 OA
ATOM     78  O   UNL A   1      34.751  31.946  29.153  1.00  0.00    -0.744 OA
ENDBRANCH  72  75
ENDBRANCH  44  68
BRANCH  56  79
ATOM     79  C   UNL A   1      44.934  33.221  29.645  1.00  0.00     0.023 A 
ATOM     80  C   UNL A   1      45.787  33.315  30.761  1.00  0.00     0.012 A 
ATOM     81  C   UNL A   1      44.735  34.351  28.828  1.00  0.00     0.148 A 
ATOM     82  C   UNL A   1      46.407  34.522  31.079  1.00  0.00     0.002 A 
ATOM     83  C   UNL A   1      45.396  35.538  29.120  1.00  0.00     0.091 A 
ATOM     84  F   UNL A   1      43.905  34.246  27.781  1.00  0.00    -0.205 F 
ATOM     85  C   UNL A   1      46.222  35.629  30.253  1.00  0.00     0.022 A 
BRANCH  83  86
ATOM     86  S   UNL A   1      45.297  36.982  28.057  1.00  0.00     0.127 S 
ATOM     87  O   UNL A   1      45.691  36.428  26.763  1.00  0.00    -0.237 OA
ATOM     88  O   UNL A   1      43.884  37.347  28.160  1.00  0.00    -0.237 OA
ATOM     89  O   UNL A   1      46.217  37.961  28.623  1.00  0.00    -0.744 OA
ENDBRANCH  83  86
ENDBRANCH  56  79
ENDBRANCH  30  31
ENDBRANCH  22  25
ENDBRANCH  20  21
ENDBRANCH   1  20
TORSDOF 16
ENDMDL
MODEL 3
REMARK VINA RESULT:     -10.5      5.075      9.950
REMARK SMILES C[NH2+][C@@]1(C(=O)NCCCNC(=O)c2ccc(-c3c4nc(c(-c5cccc(S(=O)(=O)[O-])c5F)c5ccc([nH]5)c(-c5cccc(S(=O)(=O)[O-])c5F)c5nc(c(-c6cccc(S(=O)(=O)[O-])c6F)c6ccc3[nH]6)C=C5)C=C4)cc2)CC[C@H](SC(C)C)C1
REMARK SMILES IDX 8 1 7 2 6 3 4 4 5 5 3 7 76 8 83 9 77 10 78 11 2 12 1 13
REMARK SMILES IDX 79 16 80 17 81 18 82 19 9 20 10 21 11 22 12 24 13 25 14 26
REMARK SMILES IDX 75 27 15 28 74 29 16 30 17 31 18 32 68 33 19 34 73 35 67 36
REMARK SMILES IDX 69 37 20 38 72 39 66 40 65 41 21 43 53 44 33 45 52 46 34 47
REMARK SMILES IDX 37 48 51 49 70 50 35 51 36 52 50 54 71 55 38 56 22 57 23 58
REMARK SMILES IDX 31 59 24 60 26 61 32 62 25 63 27 64 28 65 29 66 30 67 54 68
REMARK SMILES IDX 55 69 63 70 56 71 58 72 64 73 57 74 59 75 60 76 61 77 62 78
REMARK SMILES IDX 39 79 40 80 48 81 41 82 43 83 49 84 42 85 44 86 45 87 46 88
REMARK SMILES IDX 47 89
REMARK H PARENT 6 6 2 14 2 15 10 23 69 42 37 53
REMARK Flexibility Score: inf
ROOT
ATOM      1  C   UNL A   1      35.958  22.517  25.817  1.00  0.00     0.042 C 
ENDROOT
BRANCH   1   2
ATOM      2  C   UNL A   1      35.240  23.769  25.331  1.00  0.00     0.118 C 
BRANCH   2   3
ATOM      3  N   UNL A   1      35.023  23.756  23.904  1.00  0.00    -0.351 N 
ATOM      4  C   UNL A   1      33.960  23.434  23.133  1.00  0.00     0.281 C 
ATOM      5  O   UNL A   1      34.202  23.449  21.911  1.00  0.00    -0.268 OA
ATOM      6  H   UNL A   1      35.810  24.040  23.386  1.00  0.00     0.163 HD
BRANCH   4   7
ATOM      7  C   UNL A   1      32.492  23.033  23.624  1.00  0.00     0.176 C 
ATOM      8  C   UNL A   1      32.158  23.438  25.061  1.00  0.00     0.080 C 
ATOM      9  C   UNL A   1      32.271  21.511  23.563  1.00  0.00     0.093 C 
ATOM     10  C   UNL A   1      32.170  22.180  25.927  1.00  0.00     0.022 C 
ATOM     11  C   UNL A   1      32.150  20.959  25.009  1.00  0.00     0.054 C 
BRANCH   7  12
ATOM     12  N   UNL A   1      31.611  23.872  22.745  1.00  0.00    -0.336 N 
ATOM     13  C   UNL A   1      30.590  24.688  23.368  1.00  0.00     0.331 C 
ATOM     14  H   UNL A   1      32.219  24.500  22.219  1.00  0.00     0.346 HD
ATOM     15  H   UNL A   1      31.086  23.191  22.195  1.00  0.00     0.346 HD
ENDBRANCH   7  12
BRANCH  11  16
ATOM     16  S   UNL A   1      33.399  19.615  25.125  1.00  0.00    -0.155 SA
BRANCH  16  17
ATOM     17  C   UNL A   1      32.695  18.028  24.534  1.00  0.00     0.040 C 
ATOM     18  C   UNL A   1      33.003  17.602  23.109  1.00  0.00     0.019 C 
ATOM     19  C   UNL A   1      32.935  16.902  25.528  1.00  0.00     0.019 C 
ENDBRANCH  16  17
ENDBRANCH  11  16
ENDBRANCH   4   7
ENDBRANCH   2   3
ENDBRANCH   1   2
BRANCH   1  20
ATOM     20  C   UNL A   1      37.220  22.205  25.035  1.00  0.00     0.118 C 
BRANCH  20  21
ATOM     21  N   UNL A   1      38.082  21.275  25.759  1.00  0.00    -0.352 N 
ATOM     22  C   UNL A   1      39.293  21.445  26.387  1.00  0.00     0.251 C 
ATOM     23  H   UNL A   1      37.730  20.356  25.805  1.00  0.00     0.163 HD
ATOM     24  O   UNL A   1      39.943  20.439  26.671  1.00  0.00    -0.269 OA
BRANCH  22  25
ATOM     25  C   UNL A   1      39.834  22.786  26.726  1.00  0.00     0.039 A 
ATOM     26  C   UNL A   1      40.791  22.896  27.744  1.00  0.00     0.014 A 
ATOM     27  C   UNL A   1      39.360  23.948  26.123  1.00  0.00     0.014 A 
ATOM     28  C   UNL A   1      41.292  24.150  28.112  1.00  0.00     0.010 A 
ATOM     29  C   UNL A   1      39.951  25.178  26.395  1.00  0.00     0.010 A 
ATOM     30  C   UNL A   1      40.899  25.305  27.418  1.00  0.00    -0.014 A 
BRANCH  30  31
ATOM     31  C   UNL A   1      41.418  26.658  27.760  1.00  0.00     0.031 A 
ATOM     32  C   UNL A   1      42.847  27.024  27.435  1.00  0.00     0.074 A 
ATOM     33  C   UNL A   1      40.648  27.519  28.456  1.00  0.00     0.049 A 
ATOM     34  N   UNL A   1      43.521  28.097  27.760  1.00  0.00    -0.248 NA
ATOM     35  C   UNL A   1      43.637  26.034  26.680  1.00  0.00     0.031 C 
ATOM     36  C   UNL A   1      39.279  27.261  28.906  1.00  0.00     0.029 A 
ATOM     37  N   UNL A   1      40.921  28.777  28.936  1.00  0.00    -0.354 N 
ATOM     38  C   UNL A   1      44.820  27.884  27.306  1.00  0.00     0.074 A 
ATOM     39  C   UNL A   1      44.850  26.564  26.718  1.00  0.00     0.031 C 
ATOM     40  C   UNL A   1      38.828  28.327  29.586  1.00  0.00     0.029 A 
ATOM     41  C   UNL A   1      39.886  29.329  29.655  1.00  0.00     0.049 A 
ATOM     42  H   UNL A   1      41.776  29.239  28.780  1.00  0.00     0.167 HD
ATOM     43  C   UNL A   1      45.886  28.720  27.344  1.00  0.00     0.034 A 
ATOM     44  C   UNL A   1      39.801  30.506  30.308  1.00  0.00     0.034 A 
ATOM     45  C   UNL A   1      45.833  30.059  27.862  1.00  0.00     0.049 A 
ATOM     46  C   UNL A   1      40.977  31.444  30.278  1.00  0.00     0.074 A 
ATOM     47  C   UNL A   1      46.822  31.027  27.847  1.00  0.00     0.029 A 
ATOM     48  N   UNL A   1      44.731  30.622  28.488  1.00  0.00    -0.354 N 
ATOM     49  N   UNL A   1      42.147  31.285  29.708  1.00  0.00    -0.248 NA
ATOM     50  C   UNL A   1      40.810  32.741  30.951  1.00  0.00     0.031 C 
ATOM     51  C   UNL A   1      46.325  32.168  28.485  1.00  0.00     0.029 A 
ATOM     52  C   UNL A   1      45.017  31.921  28.870  1.00  0.00     0.049 A 
ATOM     53  H   UNL A   1      43.873  30.164  28.638  1.00  0.00     0.167 HD
ATOM     54  C   UNL A   1      42.839  32.471  29.918  1.00  0.00     0.074 A 
ATOM     55  C   UNL A   1      41.950  33.349  30.650  1.00  0.00     0.031 C 
ATOM     56  C   UNL A   1      44.101  32.802  29.549  1.00  0.00     0.034 A 
BRANCH  43  57
ATOM     57  C   UNL A   1      47.186  28.231  26.757  1.00  0.00     0.023 A 
ATOM     58  C   UNL A   1      48.253  27.880  27.612  1.00  0.00     0.012 A 
ATOM     59  C   UNL A   1      47.339  28.069  25.366  1.00  0.00     0.148 A 
ATOM     60  C   UNL A   1      49.461  27.419  27.091  1.00  0.00     0.002 A 
ATOM     61  C   UNL A   1      48.528  27.561  24.857  1.00  0.00     0.091 A 
ATOM     62  F   UNL A   1      46.323  28.424  24.565  1.00  0.00    -0.205 F 
ATOM     63  C   UNL A   1      49.595  27.250  25.716  1.00  0.00     0.022 A 
BRANCH  61  64
ATOM     64  S   UNL A   1      48.772  27.225  23.109  1.00  0.00     0.127 S 
ATOM     65  O   UNL A   1      48.060  28.343  22.492  1.00  0.00    -0.237 OA
ATOM     66  O   UNL A   1      50.229  27.287  22.984  1.00  0.00    -0.237 OA
ATOM     67  O   UNL A   1      48.198  25.908  22.869  1.00  0.00    -0.744 OA
ENDBRANCH  61  64
ENDBRANCH  43  57
BRANCH  44  68
ATOM     68  C   UNL A   1      38.529  30.894  30.981  1.00  0.00     0.023 A 
ATOM     69  C   UNL A   1      38.370  30.626  32.356  1.00  0.00     0.012 A 
ATOM     70  C   UNL A   1      37.496  31.551  30.287  1.00  0.00     0.148 A 
ATOM     71  C   UNL A   1      37.191  30.971  33.017  1.00  0.00     0.002 A 
ATOM     72  C   UNL A   1      36.347  31.943  30.964  1.00  0.00     0.091 A 
ATOM     73  F   UNL A   1      37.662  31.790  28.978  1.00  0.00    -0.205 F 
ATOM     74  C   UNL A   1      36.184  31.638  32.325  1.00  0.00     0.022 A 
BRANCH  72  75
ATOM     75  S   UNL A   1      35.054  32.920  30.190  1.00  0.00     0.127 S 
ATOM     76  O   UNL A   1      35.799  34.082  29.716  1.00  0.00    -0.237 OA
ATOM     77  O   UNL A   1      34.583  32.018  29.138  1.00  0.00    -0.237 OA
ATOM     78  O   UNL A   1      34.076  33.180  31.240  1.00  0.00    -0.744 OA
ENDBRANCH  72  75
ENDBRANCH  44  68
BRANCH  56  79
ATOM     79  C   UNL A   1      44.590  34.185  29.885  1.00  0.00     0.023 A 
ATOM     80  C   UNL A   1      45.291  34.412  31.086  1.00  0.00     0.012 A 
ATOM     81  C   UNL A   1      44.423  35.245  28.971  1.00  0.00     0.148 A 
ATOM     82  C   UNL A   1      45.789  35.678  31.387  1.00  0.00     0.002 A 
ATOM     83  C   UNL A   1      44.967  36.492  29.254  1.00  0.00     0.091 A 
ATOM     84  F   UNL A   1      43.738  35.014  27.843  1.00  0.00    -0.205 F 
ATOM     85  C   UNL A   1      45.639  36.713  30.467  1.00  0.00     0.022 A 
BRANCH  83  86
ATOM     86  S   UNL A   1      44.910  37.855  28.085  1.00  0.00     0.127 S 
ATOM     87  O   UNL A   1      45.652  37.306  26.952  1.00  0.00    -0.237 OA
ATOM     88  O   UNL A   1      43.473  38.007  27.858  1.00  0.00    -0.237 OA
ATOM     89  O   UNL A   1      45.539  38.985  28.756  1.00  0.00    -0.744 OA
ENDBRANCH  83  86
ENDBRANCH  56  79
ENDBRANCH  30  31
ENDBRANCH  22  25
ENDBRANCH  20  21
ENDBRANCH   1  20
TORSDOF 16
ENDMDL
