MODEL 1
REMARK VINA RESULT:     -12.4      0.000      0.000
REMARK SMILES C[C@H](C(=O)NCCCNC(=O)c1ccc(-c2c3nc(c(-c4cccc(S(=O)(=O)[O-])c4F)c4ccc([nH]4)c(-c4cccc(S(=O)(=O)[O-])c4F)c4nc(c(-c5cccc(S(=O)(=O)[O-])c5F)c5ccc2[nH]5)C=C4)C=C3)cc1)[C@H](C)n1cnc2cc(F)c(F)cc21
REMARK SMILES IDX 7 1 6 2 5 3 3 4 4 5 2 7 1 8 75 9 76 10 77 11 78 12 87 13
REMARK SMILES IDX 79 14 80 15 86 16 81 17 84 18 82 19 85 20 83 21 8 22 9 23
REMARK SMILES IDX 10 24 11 26 12 27 13 28 74 29 14 30 73 31 15 32 16 33 17 34
REMARK SMILES IDX 67 35 18 36 72 37 66 38 68 39 19 40 71 41 65 42 64 43 20 45
REMARK SMILES IDX 52 46 32 47 51 48 33 49 36 50 50 51 69 52 34 53 35 54 49 56
REMARK SMILES IDX 70 57 37 58 21 59 22 60 30 61 23 62 25 63 31 64 24 65 26 66
REMARK SMILES IDX 27 67 28 68 29 69 53 70 54 71 62 72 55 73 57 74 63 75 56 76
REMARK SMILES IDX 58 77 59 78 60 79 61 80 38 81 39 82 47 83 40 84 42 85 48 86
REMARK SMILES IDX 41 87 43 88 44 89 45 90 46 91
REMARK H PARENT 5 6 9 25 68 44 36 55
REMARK Flexibility Score: inf
ROOT
ATOM      1  C   UNL A   1      31.800  29.066  27.072  1.00  0.00     0.042 C 
ENDROOT
BRANCH   1   2
ATOM      2  C   UNL A   1      32.106  27.574  27.009  1.00  0.00     0.117 C 
BRANCH   2   3
ATOM      3  N   UNL A   1      30.973  26.719  26.709  1.00  0.00    -0.356 N 
ATOM      4  C   UNL A   1      31.028  25.479  26.140  1.00  0.00     0.224 C 
ATOM      5  O   UNL A   1      30.303  24.588  26.587  1.00  0.00    -0.275 OA
ATOM      6  H   UNL A   1      30.081  27.066  26.938  1.00  0.00     0.163 HD
BRANCH   4   7
ATOM      7  C   UNL A   1      31.949  25.232  24.946  1.00  0.00     0.098 C 
ATOM      8  C   UNL A   1      32.260  23.739  24.879  1.00  0.00     0.020 C 
BRANCH   7   9
ATOM      9  C   UNL A   1      31.252  25.769  23.646  1.00  0.00     0.098 C 
ATOM     10  C   UNL A   1      31.813  25.162  22.353  1.00  0.00     0.032 C 
BRANCH   9  11
ATOM     11  N   UNL A   1      31.301  27.241  23.600  1.00  0.00    -0.327 N 
ATOM     12  C   UNL A   1      32.425  27.951  23.256  1.00  0.00     0.200 A 
ATOM     13  C   UNL A   1      30.213  28.051  23.359  1.00  0.00     0.071 A 
ATOM     14  N   UNL A   1      32.114  29.049  22.602  1.00  0.00    -0.237 NA
ATOM     15  C   UNL A   1      30.744  29.070  22.568  1.00  0.00     0.092 A 
ATOM     16  C   UNL A   1      28.846  27.909  23.607  1.00  0.00     0.071 A 
ATOM     17  C   UNL A   1      29.877  29.899  21.846  1.00  0.00     0.073 A 
ATOM     18  C   UNL A   1      28.003  28.759  22.898  1.00  0.00     0.161 A 
ATOM     19  C   UNL A   1      28.505  29.701  22.004  1.00  0.00     0.161 A 
ATOM     20  F   UNL A   1      26.679  28.617  23.048  1.00  0.00    -0.204 F 
ATOM     21  F   UNL A   1      27.658  30.421  21.255  1.00  0.00    -0.204 F 
ENDBRANCH   9  11
ENDBRANCH   7   9
ENDBRANCH   4   7
ENDBRANCH   2   3
ENDBRANCH   1   2
BRANCH   1  22
ATOM     22  C   UNL A   1      32.719  29.995  26.283  1.00  0.00     0.118 C 
BRANCH  22  23
ATOM     23  N   UNL A   1      32.714  31.377  26.744  1.00  0.00    -0.352 N 
ATOM     24  C   UNL A   1      33.597  32.073  27.536  1.00  0.00     0.251 C 
ATOM     25  H   UNL A   1      31.943  31.905  26.434  1.00  0.00     0.163 HD
ATOM     26  O   UNL A   1      33.321  33.229  27.860  1.00  0.00    -0.269 OA
BRANCH  24  27
ATOM     27  C   UNL A   1      34.845  31.453  28.039  1.00  0.00     0.039 A 
ATOM     28  C   UNL A   1      36.004  32.236  28.094  1.00  0.00     0.014 A 
ATOM     29  C   UNL A   1      34.899  30.117  28.436  1.00  0.00     0.014 A 
ATOM     30  C   UNL A   1      37.182  31.706  28.630  1.00  0.00     0.010 A 
ATOM     31  C   UNL A   1      36.047  29.618  29.050  1.00  0.00     0.010 A 
ATOM     32  C   UNL A   1      37.202  30.407  29.160  1.00  0.00    -0.014 A 
BRANCH  32  33
ATOM     33  C   UNL A   1      38.406  29.870  29.854  1.00  0.00     0.031 A 
ATOM     34  C   UNL A   1      38.786  30.365  31.225  1.00  0.00     0.074 A 
ATOM     35  C   UNL A   1      39.214  29.002  29.211  1.00  0.00     0.049 A 
ATOM     36  N   UNL A   1      39.832  30.062  31.952  1.00  0.00    -0.248 NA
ATOM     37  C   UNL A   1      37.890  31.349  31.852  1.00  0.00     0.031 C 
ATOM     38  C   UNL A   1      39.006  28.503  27.848  1.00  0.00     0.029 A 
ATOM     39  N   UNL A   1      40.389  28.406  29.603  1.00  0.00    -0.354 N 
ATOM     40  C   UNL A   1      39.742  30.843  33.097  1.00  0.00     0.074 A 
ATOM     41  C   UNL A   1      38.556  31.660  32.956  1.00  0.00     0.031 C 
ATOM     42  C   UNL A   1      40.012  27.676  27.522  1.00  0.00     0.029 A 
ATOM     43  C   UNL A   1      40.957  27.612  28.632  1.00  0.00     0.049 A 
ATOM     44  H   UNL A   1      40.787  28.536  30.493  1.00  0.00     0.167 HD
ATOM     45  C   UNL A   1      40.554  30.863  34.182  1.00  0.00     0.034 A 
ATOM     46  C   UNL A   1      42.112  26.918  28.629  1.00  0.00     0.034 A 
ATOM     47  C   UNL A   1      41.710  30.023  34.339  1.00  0.00     0.049 A 
ATOM     48  C   UNL A   1      42.979  26.931  29.860  1.00  0.00     0.074 A 
ATOM     49  C   UNL A   1      42.543  29.902  35.438  1.00  0.00     0.029 A 
ATOM     50  N   UNL A   1      42.208  29.169  33.367  1.00  0.00    -0.354 N 
ATOM     51  N   UNL A   1      42.787  27.553  30.997  1.00  0.00    -0.248 NA
ATOM     52  C   UNL A   1      44.203  26.117  29.820  1.00  0.00     0.031 C 
ATOM     53  C   UNL A   1      43.562  28.998  35.120  1.00  0.00     0.029 A 
ATOM     54  C   UNL A   1      43.344  28.528  33.835  1.00  0.00     0.049 A 
ATOM     55  H   UNL A   1      41.813  29.036  32.476  1.00  0.00     0.167 HD
ATOM     56  C   UNL A   1      43.845  27.180  31.819  1.00  0.00     0.074 A 
ATOM     57  C   UNL A   1      44.661  26.258  31.056  1.00  0.00     0.031 C 
ATOM     58  C   UNL A   1      44.121  27.574  33.087  1.00  0.00     0.034 A 
BRANCH  45  59
ATOM     59  C   UNL A   1      40.193  31.795  35.312  1.00  0.00     0.023 A 
ATOM     60  C   UNL A   1      40.820  33.054  35.405  1.00  0.00     0.012 A 
ATOM     61  C   UNL A   1      39.195  31.451  36.244  1.00  0.00     0.148 A 
ATOM     62  C   UNL A   1      40.489  33.941  36.429  1.00  0.00     0.002 A 
ATOM     63  C   UNL A   1      38.836  32.359  37.234  1.00  0.00     0.091 A 
ATOM     64  F   UNL A   1      38.621  30.243  36.152  1.00  0.00    -0.205 F 
ATOM     65  C   UNL A   1      39.490  33.598  37.336  1.00  0.00     0.022 A 
BRANCH  63  66
ATOM     66  S   UNL A   1      37.503  32.050  38.399  1.00  0.00     0.127 S 
ATOM     67  O   UNL A   1      37.161  30.662  38.093  1.00  0.00    -0.237 OA
ATOM     68  O   UNL A   1      38.171  32.243  39.687  1.00  0.00    -0.237 OA
ATOM     69  O   UNL A   1      36.470  33.029  38.098  1.00  0.00    -0.744 OA
ENDBRANCH  63  66
ENDBRANCH  45  59
BRANCH  46  70
ATOM     70  C   UNL A   1      42.492  26.104  27.439  1.00  0.00     0.023 A 
ATOM     71  C   UNL A   1      43.266  26.690  26.418  1.00  0.00     0.012 A 
ATOM     72  C   UNL A   1      42.110  24.753  27.320  1.00  0.00     0.148 A 
ATOM     73  C   UNL A   1      43.623  25.958  25.285  1.00  0.00     0.002 A 
ATOM     74  C   UNL A   1      42.519  24.013  26.217  1.00  0.00     0.091 A 
ATOM     75  F   UNL A   1      41.367  24.215  28.297  1.00  0.00    -0.205 F 
ATOM     76  C   UNL A   1      43.258  24.617  25.189  1.00  0.00     0.022 A 
BRANCH  74  77
ATOM     77  S   UNL A   1      42.210  22.249  26.070  1.00  0.00     0.127 S 
ATOM     78  O   UNL A   1      42.964  21.912  24.866  1.00  0.00    -0.237 OA
ATOM     79  O   UNL A   1      42.781  21.738  27.318  1.00  0.00    -0.237 OA
ATOM     80  O   UNL A   1      40.764  22.108  25.971  1.00  0.00    -0.744 OA
ENDBRANCH  74  77
ENDBRANCH  46  70
BRANCH  58  81
ATOM     81  C   UNL A   1      45.338  26.986  33.754  1.00  0.00     0.023 A 
ATOM     82  C   UNL A   1      46.567  27.675  33.716  1.00  0.00     0.012 A 
ATOM     83  C   UNL A   1      45.244  25.782  34.482  1.00  0.00     0.148 A 
ATOM     84  C   UNL A   1      47.690  27.159  34.361  1.00  0.00     0.002 A 
ATOM     85  C   UNL A   1      46.355  25.301  35.166  1.00  0.00     0.091 A 
ATOM     86  F   UNL A   1      44.073  25.131  34.493  1.00  0.00    -0.205 F 
ATOM     87  C   UNL A   1      47.581  25.980  35.094  1.00  0.00     0.022 A 
BRANCH  85  88
ATOM     88  S   UNL A   1      46.284  23.845  36.216  1.00  0.00     0.127 S 
ATOM     89  O   UNL A   1      46.005  22.789  35.243  1.00  0.00    -0.237 OA
ATOM     90  O   UNL A   1      47.631  23.810  36.785  1.00  0.00    -0.237 OA
ATOM     91  O   UNL A   1      45.224  24.098  37.182  1.00  0.00    -0.744 OA
ENDBRANCH  85  88
ENDBRANCH  58  81
ENDBRANCH  32  33
ENDBRANCH  24  27
ENDBRANCH  22  23
ENDBRANCH   1  22
TORSDOF 15
ENDMDL
MODEL 2
REMARK VINA RESULT:     -12.4      5.468      7.952
REMARK SMILES C[C@H](C(=O)NCCCNC(=O)c1ccc(-c2c3nc(c(-c4cccc(S(=O)(=O)[O-])c4F)c4ccc([nH]4)c(-c4cccc(S(=O)(=O)[O-])c4F)c4nc(c(-c5cccc(S(=O)(=O)[O-])c5F)c5ccc2[nH]5)C=C4)C=C3)cc1)[C@H](C)n1cnc2cc(F)c(F)cc21
REMARK SMILES IDX 7 1 6 2 5 3 3 4 4 5 2 7 1 8 75 9 76 10 77 11 78 12 87 13
REMARK SMILES IDX 79 14 80 15 86 16 81 17 84 18 82 19 85 20 83 21 8 22 9 23
REMARK SMILES IDX 10 24 11 26 12 27 13 28 74 29 14 30 73 31 15 32 16 33 17 34
REMARK SMILES IDX 67 35 18 36 72 37 66 38 68 39 19 40 71 41 65 42 64 43 20 45
REMARK SMILES IDX 52 46 32 47 51 48 33 49 36 50 50 51 69 52 34 53 35 54 49 56
REMARK SMILES IDX 70 57 37 58 21 59 22 60 30 61 23 62 25 63 31 64 24 65 26 66
REMARK SMILES IDX 27 67 28 68 29 69 53 70 54 71 62 72 55 73 57 74 63 75 56 76
REMARK SMILES IDX 58 77 59 78 60 79 61 80 38 81 39 82 47 83 40 84 42 85 48 86
REMARK SMILES IDX 41 87 43 88 44 89 45 90 46 91
REMARK H PARENT 5 6 9 25 68 44 36 55
REMARK Flexibility Score: inf
ROOT
ATOM      1  C   UNL A   1      36.022  20.717  25.073  1.00  0.00     0.042 C 
ENDROOT
BRANCH   1   2
ATOM      2  C   UNL A   1      35.158  21.650  25.915  1.00  0.00     0.117 C 
BRANCH   2   3
ATOM      3  N   UNL A   1      33.759  21.280  26.016  1.00  0.00    -0.356 N 
ATOM      4  C   UNL A   1      32.923  20.998  24.974  1.00  0.00     0.224 C 
ATOM      5  O   UNL A   1      32.147  20.047  25.076  1.00  0.00    -0.275 OA
ATOM      6  H   UNL A   1      33.376  21.227  26.921  1.00  0.00     0.163 HD
BRANCH   4   7
ATOM      7  C   UNL A   1      32.939  21.882  23.727  1.00  0.00     0.098 C 
ATOM      8  C   UNL A   1      32.060  21.231  22.664  1.00  0.00     0.020 C 
BRANCH   7   9
ATOM      9  C   UNL A   1      32.455  23.324  24.120  1.00  0.00     0.098 C 
ATOM     10  C   UNL A   1      30.982  23.589  23.784  1.00  0.00     0.032 C 
BRANCH   9  11
ATOM     11  N   UNL A   1      33.325  24.347  23.515  1.00  0.00    -0.327 N 
ATOM     12  C   UNL A   1      33.505  24.485  22.160  1.00  0.00     0.200 A 
ATOM     13  C   UNL A   1      33.620  25.562  24.094  1.00  0.00     0.071 A 
ATOM     14  N   UNL A   1      33.660  25.747  21.826  1.00  0.00    -0.237 NA
ATOM     15  C   UNL A   1      33.630  26.438  23.009  1.00  0.00     0.092 A 
ATOM     16  C   UNL A   1      33.713  25.987  25.422  1.00  0.00     0.071 A 
ATOM     17  C   UNL A   1      33.560  27.817  23.242  1.00  0.00     0.073 A 
ATOM     18  C   UNL A   1      33.667  27.362  25.629  1.00  0.00     0.161 A 
ATOM     19  C   UNL A   1      33.548  28.254  24.566  1.00  0.00     0.161 A 
ATOM     20  F   UNL A   1      33.682  27.819  26.888  1.00  0.00    -0.204 F 
ATOM     21  F   UNL A   1      33.389  29.562  24.813  1.00  0.00    -0.204 F 
ENDBRANCH   9  11
ENDBRANCH   7   9
ENDBRANCH   4   7
ENDBRANCH   2   3
ENDBRANCH   1   2
BRANCH   1  22
ATOM     22  C   UNL A   1      37.486  21.109  24.889  1.00  0.00     0.118 C 
BRANCH  22  23
ATOM     23  N   UNL A   1      38.436  20.139  25.416  1.00  0.00    -0.352 N 
ATOM     24  C   UNL A   1      39.589  20.302  26.149  1.00  0.00     0.251 C 
ATOM     25  H   UNL A   1      38.215  19.201  25.212  1.00  0.00     0.163 HD
ATOM     26  O   UNL A   1      40.276  19.312  26.405  1.00  0.00    -0.269 OA
BRANCH  24  27
ATOM     27  C   UNL A   1      40.040  21.639  26.600  1.00  0.00     0.039 A 
ATOM     28  C   UNL A   1      41.069  21.713  27.545  1.00  0.00     0.014 A 
ATOM     29  C   UNL A   1      39.456  22.814  26.126  1.00  0.00     0.014 A 
ATOM     30  C   UNL A   1      41.570  22.957  27.940  1.00  0.00     0.010 A 
ATOM     31  C   UNL A   1      40.014  24.050  26.453  1.00  0.00     0.010 A 
ATOM     32  C   UNL A   1      41.081  24.138  27.361  1.00  0.00    -0.014 A 
BRANCH  32  33
ATOM     33  C   UNL A   1      41.688  25.463  27.668  1.00  0.00     0.031 A 
ATOM     34  C   UNL A   1      40.900  26.519  28.399  1.00  0.00     0.074 A 
ATOM     35  C   UNL A   1      42.922  25.753  27.206  1.00  0.00     0.049 A 
ATOM     36  N   UNL A   1      41.241  27.748  28.693  1.00  0.00    -0.248 NA
ATOM     37  C   UNL A   1      39.541  26.157  28.832  1.00  0.00     0.031 C 
ATOM     38  C   UNL A   1      43.763  24.850  26.415  1.00  0.00     0.029 A 
ATOM     39  N   UNL A   1      43.676  26.898  27.308  1.00  0.00    -0.354 N 
ATOM     40  C   UNL A   1      40.131  28.316  29.306  1.00  0.00     0.074 A 
ATOM     41  C   UNL A   1      39.093  27.308  29.314  1.00  0.00     0.031 C 
ATOM     42  C   UNL A   1      44.913  25.471  26.110  1.00  0.00     0.029 A 
ATOM     43  C   UNL A   1      44.881  26.827  26.648  1.00  0.00     0.049 A 
ATOM     44  H   UNL A   1      43.380  27.694  27.806  1.00  0.00     0.167 HD
ATOM     45  C   UNL A   1      39.993  29.554  29.841  1.00  0.00     0.034 A 
ATOM     46  C   UNL A   1      45.850  27.750  26.483  1.00  0.00     0.034 A 
ATOM     47  C   UNL A   1      41.038  30.542  29.869  1.00  0.00     0.049 A 
ATOM     48  C   UNL A   1      45.685  29.106  27.117  1.00  0.00     0.074 A 
ATOM     49  C   UNL A   1      41.027  31.789  30.469  1.00  0.00     0.029 A 
ATOM     50  N   UNL A   1      42.277  30.403  29.263  1.00  0.00    -0.354 N 
ATOM     51  N   UNL A   1      44.690  29.566  27.834  1.00  0.00    -0.248 NA
ATOM     52  C   UNL A   1      46.793  30.058  26.947  1.00  0.00     0.031 C 
ATOM     53  C   UNL A   1      42.247  32.417  30.198  1.00  0.00     0.029 A 
ATOM     54  C   UNL A   1      43.033  31.547  29.461  1.00  0.00     0.049 A 
ATOM     55  H   UNL A   1      42.576  29.609  28.764  1.00  0.00     0.167 HD
ATOM     56  C   UNL A   1      45.065  30.845  28.231  1.00  0.00     0.074 A 
ATOM     57  C   UNL A   1      46.389  31.077  27.694  1.00  0.00     0.031 C 
ATOM     58  C   UNL A   1      44.370  31.749  28.964  1.00  0.00     0.034 A 
BRANCH  45  59
ATOM     59  C   UNL A   1      38.673  29.897  30.486  1.00  0.00     0.023 A 
ATOM     60  C   UNL A   1      38.390  29.430  31.785  1.00  0.00     0.012 A 
ATOM     61  C   UNL A   1      37.741  30.728  29.834  1.00  0.00     0.148 A 
ATOM     62  C   UNL A   1      37.186  29.749  32.411  1.00  0.00     0.002 A 
ATOM     63  C   UNL A   1      36.564  31.083  30.483  1.00  0.00     0.091 A 
ATOM     64  F   UNL A   1      38.019  31.150  28.593  1.00  0.00    -0.205 F 
ATOM     65  C   UNL A   1      36.278  30.584  31.764  1.00  0.00     0.022 A 
BRANCH  63  66
ATOM     66  S   UNL A   1      35.368  32.220  29.773  1.00  0.00     0.127 S 
ATOM     67  O   UNL A   1      36.225  33.336  29.373  1.00  0.00    -0.237 OA
ATOM     68  O   UNL A   1      34.825  31.440  28.660  1.00  0.00    -0.237 OA
ATOM     69  O   UNL A   1      34.414  32.514  30.832  1.00  0.00    -0.744 OA
ENDBRANCH  63  66
ENDBRANCH  45  59
BRANCH  46  70
ATOM     70  C   UNL A   1      47.090  27.406  25.732  1.00  0.00     0.023 A 
ATOM     71  C   UNL A   1      48.140  26.741  26.396  1.00  0.00     0.012 A 
ATOM     72  C   UNL A   1      47.230  27.712  24.364  1.00  0.00     0.148 A 
ATOM     73  C   UNL A   1      49.319  26.420  25.722  1.00  0.00     0.002 A 
ATOM     74  C   UNL A   1      48.383  27.337  23.685  1.00  0.00     0.091 A 
ATOM     75  F   UNL A   1      46.225  28.353  23.751  1.00  0.00    -0.205 F 
ATOM     76  C   UNL A   1      49.437  26.709  24.365  1.00  0.00     0.022 A 
BRANCH  74  77
ATOM     77  S   UNL A   1      48.570  27.548  21.909  1.00  0.00     0.127 S 
ATOM     78  O   UNL A   1      47.271  28.100  21.535  1.00  0.00    -0.237 OA
ATOM     79  O   UNL A   1      49.685  28.493  21.834  1.00  0.00    -0.237 OA
ATOM     80  O   UNL A   1      48.870  26.224  21.384  1.00  0.00    -0.744 OA
ENDBRANCH  74  77
ENDBRANCH  46  70
BRANCH  58  81
ATOM     81  C   UNL A   1      45.037  33.067  29.267  1.00  0.00     0.023 A 
ATOM     82  C   UNL A   1      45.820  33.210  30.430  1.00  0.00     0.012 A 
ATOM     83  C   UNL A   1      44.944  34.142  28.360  1.00  0.00     0.148 A 
ATOM     84  C   UNL A   1      46.472  34.411  30.702  1.00  0.00     0.002 A 
ATOM     85  C   UNL A   1      45.639  35.319  28.612  1.00  0.00     0.091 A 
ATOM     86  F   UNL A   1      44.180  33.994  27.269  1.00  0.00    -0.205 F 
ATOM     87  C   UNL A   1      46.391  35.460  29.789  1.00  0.00     0.022 A 
BRANCH  85  88
ATOM     88  S   UNL A   1      45.675  36.686  27.448  1.00  0.00     0.127 S 
ATOM     89  O   UNL A   1      44.266  37.076  27.403  1.00  0.00    -0.237 OA
ATOM     90  O   UNL A   1      46.551  37.644  28.122  1.00  0.00    -0.237 OA
ATOM     91  O   UNL A   1      46.211  36.144  26.207  1.00  0.00    -0.744 OA
ENDBRANCH  85  88
ENDBRANCH  58  81
ENDBRANCH  32  33
ENDBRANCH  24  27
ENDBRANCH  22  23
ENDBRANCH   1  22
TORSDOF 15
ENDMDL
MODEL 3
REMARK VINA RESULT:     -12.3      2.401      3.596
REMARK SMILES C[C@H](C(=O)NCCCNC(=O)c1ccc(-c2c3nc(c(-c4cccc(S(=O)(=O)[O-])c4F)c4ccc([nH]4)c(-c4cccc(S(=O)(=O)[O-])c4F)c4nc(c(-c5cccc(S(=O)(=O)[O-])c5F)c5ccc2[nH]5)C=C4)C=C3)cc1)[C@H](C)n1cnc2cc(F)c(F)cc21
REMARK SMILES IDX 7 1 6 2 5 3 3 4 4 5 2 7 1 8 75 9 76 10 77 11 78 12 87 13
REMARK SMILES IDX 79 14 80 15 86 16 81 17 84 18 82 19 85 20 83 21 8 22 9 23
REMARK SMILES IDX 10 24 11 26 12 27 13 28 74 29 14 30 73 31 15 32 16 33 17 34
REMARK SMILES IDX 67 35 18 36 72 37 66 38 68 39 19 40 71 41 65 42 64 43 20 45
REMARK SMILES IDX 52 46 32 47 51 48 33 49 36 50 50 51 69 52 34 53 35 54 49 56
REMARK SMILES IDX 70 57 37 58 21 59 22 60 30 61 23 62 25 63 31 64 24 65 26 66
REMARK SMILES IDX 27 67 28 68 29 69 53 70 54 71 62 72 55 73 57 74 63 75 56 76
REMARK SMILES IDX 58 77 59 78 60 79 61 80 38 81 39 82 47 83 40 84 42 85 48 86
REMARK SMILES IDX 41 87 43 88 44 89 45 90 46 91
REMARK H PARENT 5 6 9 25 68 44 36 55
REMARK Flexibility Score: inf
ROOT
ATOM      1  C   UNL A   1      32.324  29.871  25.534  1.00  0.00     0.042 C 
ENDROOT
BRANCH   1   2
ATOM      2  C   UNL A   1      31.254  29.699  24.462  1.00  0.00     0.117 C 
BRANCH   2   3
ATOM      3  N   UNL A   1      31.591  28.780  23.390  1.00  0.00    -0.356 N 
ATOM      4  C   UNL A   1      30.896  27.658  23.042  1.00  0.00     0.224 C 
ATOM      5  O   UNL A   1      30.724  27.412  21.848  1.00  0.00    -0.275 OA
ATOM      6  H   UNL A   1      32.397  28.987  22.863  1.00  0.00     0.163 HD
BRANCH   4   7
ATOM      7  C   UNL A   1      30.382  26.716  24.131  1.00  0.00     0.098 C 
ATOM      8  C   UNL A   1      28.902  26.448  23.875  1.00  0.00     0.020 C 
BRANCH   7   9
ATOM      9  C   UNL A   1      31.250  25.408  24.122  1.00  0.00     0.098 C 
ATOM     10  C   UNL A   1      30.621  24.259  23.323  1.00  0.00     0.032 C 
BRANCH   9  11
ATOM     11  N   UNL A   1      31.562  24.981  25.498  1.00  0.00    -0.327 N 
ATOM     12  C   UNL A   1      30.611  24.555  26.393  1.00  0.00     0.200 A 
ATOM     13  C   UNL A   1      32.769  24.449  25.895  1.00  0.00     0.071 A 
ATOM     14  N   UNL A   1      31.085  23.612  27.178  1.00  0.00    -0.237 NA
ATOM     15  C   UNL A   1      32.397  23.464  26.810  1.00  0.00     0.092 A 
ATOM     16  C   UNL A   1      34.079  24.615  25.440  1.00  0.00     0.071 A 
ATOM     17  C   UNL A   1      33.326  22.482  27.175  1.00  0.00     0.073 A 
ATOM     18  C   UNL A   1      34.992  23.642  25.835  1.00  0.00     0.161 A 
ATOM     19  C   UNL A   1      34.614  22.576  26.646  1.00  0.00     0.161 A 
ATOM     20  F   UNL A   1      36.247  23.718  25.369  1.00  0.00    -0.204 F 
ATOM     21  F   UNL A   1      35.492  21.599  26.908  1.00  0.00    -0.204 F 
ENDBRANCH   9  11
ENDBRANCH   7   9
ENDBRANCH   4   7
ENDBRANCH   2   3
ENDBRANCH   1   2
BRANCH   1  22
ATOM     22  C   UNL A   1      31.880  30.481  26.861  1.00  0.00     0.118 C 
BRANCH  22  23
ATOM     23  N   UNL A   1      32.070  31.923  26.951  1.00  0.00    -0.352 N 
ATOM     24  C   UNL A   1      33.101  32.673  27.466  1.00  0.00     0.251 C 
ATOM     25  H   UNL A   1      31.330  32.454  26.577  1.00  0.00     0.163 HD
ATOM     26  O   UNL A   1      32.985  33.899  27.502  1.00  0.00    -0.269 OA
BRANCH  24  27
ATOM     27  C   UNL A   1      34.325  32.041  28.013  1.00  0.00     0.039 A 
ATOM     28  C   UNL A   1      35.427  32.855  28.296  1.00  0.00     0.014 A 
ATOM     29  C   UNL A   1      34.411  30.666  28.231  1.00  0.00     0.014 A 
ATOM     30  C   UNL A   1      36.573  32.305  28.880  1.00  0.00     0.010 A 
ATOM     31  C   UNL A   1      35.517  30.134  28.893  1.00  0.00     0.010 A 
ATOM     32  C   UNL A   1      36.611  30.946  29.230  1.00  0.00    -0.014 A 
BRANCH  32  33
ATOM     33  C   UNL A   1      37.766  30.368  29.972  1.00  0.00     0.031 A 
ATOM     34  C   UNL A   1      38.051  30.781  31.392  1.00  0.00     0.074 A 
ATOM     35  C   UNL A   1      38.618  29.538  29.335  1.00  0.00     0.049 A 
ATOM     36  N   UNL A   1      39.047  30.435  32.168  1.00  0.00    -0.248 NA
ATOM     37  C   UNL A   1      37.112  31.729  32.014  1.00  0.00     0.031 C 
ATOM     38  C   UNL A   1      38.504  29.120  27.935  1.00  0.00     0.029 A 
ATOM     39  N   UNL A   1      39.765  28.918  29.770  1.00  0.00    -0.354 N 
ATOM     40  C   UNL A   1      38.878  31.148  33.349  1.00  0.00     0.074 A 
ATOM     41  C   UNL A   1      37.701  31.973  33.176  1.00  0.00     0.031 C 
ATOM     42  C   UNL A   1      39.531  28.312  27.629  1.00  0.00     0.029 A 
ATOM     43  C   UNL A   1      40.399  28.182  28.795  1.00  0.00     0.049 A 
ATOM     44  H   UNL A   1      40.102  28.996  30.692  1.00  0.00     0.167 HD
ATOM     45  C   UNL A   1      39.615  31.103  34.485  1.00  0.00     0.034 A 
ATOM     46  C   UNL A   1      41.554  27.487  28.830  1.00  0.00     0.034 A 
ATOM     47  C   UNL A   1      40.760  30.253  34.671  1.00  0.00     0.049 A 
ATOM     48  C   UNL A   1      42.335  27.426  30.115  1.00  0.00     0.074 A 
ATOM     49  C   UNL A   1      41.516  30.067  35.815  1.00  0.00     0.029 A 
ATOM     50  N   UNL A   1      41.323  29.456  33.687  1.00  0.00    -0.354 N 
ATOM     51  N   UNL A   1      42.066  27.981  31.271  1.00  0.00    -0.248 NA
ATOM     52  C   UNL A   1      43.561  26.615  30.110  1.00  0.00     0.031 C 
ATOM     53  C   UNL A   1      42.556  29.182  35.514  1.00  0.00     0.029 A 
ATOM     54  C   UNL A   1      42.427  28.788  34.192  1.00  0.00     0.049 A 
ATOM     55  H   UNL A   1      40.990  29.377  32.764  1.00  0.00     0.167 HD
ATOM     56  C   UNL A   1      43.066  27.559  32.140  1.00  0.00     0.074 A 
ATOM     57  C   UNL A   1      43.934  26.682  31.381  1.00  0.00     0.031 C 
ATOM     58  C   UNL A   1      43.255  27.878  33.443  1.00  0.00     0.034 A 
BRANCH  45  59
ATOM     59  C   UNL A   1      39.176  31.967  35.641  1.00  0.00     0.023 A 
ATOM     60  C   UNL A   1      38.294  31.443  36.608  1.00  0.00     0.012 A 
ATOM     61  C   UNL A   1      39.680  33.272  35.805  1.00  0.00     0.148 A 
ATOM     62  C   UNL A   1      37.889  32.214  37.697  1.00  0.00     0.002 A 
ATOM     63  C   UNL A   1      39.311  34.018  36.917  1.00  0.00     0.091 A 
ATOM     64  F   UNL A   1      40.505  33.761  34.868  1.00  0.00    -0.205 F 
ATOM     65  C   UNL A   1      38.405  33.498  37.856  1.00  0.00     0.022 A 
BRANCH  63  66
ATOM     66  S   UNL A   1      39.985  35.648  37.262  1.00  0.00     0.127 S 
ATOM     67  O   UNL A   1      39.239  36.027  38.461  1.00  0.00    -0.237 OA
ATOM     68  O   UNL A   1      41.400  35.353  37.492  1.00  0.00    -0.237 OA
ATOM     69  O   UNL A   1      39.716  36.453  36.079  1.00  0.00    -0.744 OA
ENDBRANCH  63  66
ENDBRANCH  45  59
BRANCH  46  70
ATOM     70  C   UNL A   1      42.015  26.744  27.622  1.00  0.00     0.023 A 
ATOM     71  C   UNL A   1      42.713  27.431  26.611  1.00  0.00     0.012 A 
ATOM     72  C   UNL A   1      41.784  25.361  27.477  1.00  0.00     0.148 A 
ATOM     73  C   UNL A   1      43.143  26.766  25.462  1.00  0.00     0.002 A 
ATOM     74  C   UNL A   1      42.266  24.693  26.359  1.00  0.00     0.091 A 
ATOM     75  F   UNL A   1      41.110  24.725  28.446  1.00  0.00    -0.205 F 
ATOM     76  C   UNL A   1      42.929  25.395  25.341  1.00  0.00     0.022 A 
BRANCH  74  77
ATOM     77  S   UNL A   1      42.154  22.908  26.178  1.00  0.00     0.127 S 
ATOM     78  O   UNL A   1      42.830  22.441  27.386  1.00  0.00    -0.237 OA
ATOM     79  O   UNL A   1      40.706  22.697  26.161  1.00  0.00    -0.237 OA
ATOM     80  O   UNL A   1      42.820  22.596  24.921  1.00  0.00    -0.744 OA
ENDBRANCH  74  77
ENDBRANCH  46  70
BRANCH  58  81
ATOM     81  C   UNL A   1      44.426  27.250  34.156  1.00  0.00     0.023 A 
ATOM     82  C   UNL A   1      45.681  27.891  34.152  1.00  0.00     0.012 A 
ATOM     83  C   UNL A   1      44.261  26.058  34.891  1.00  0.00     0.148 A 
ATOM     84  C   UNL A   1      46.761  27.338  34.839  1.00  0.00     0.002 A 
ATOM     85  C   UNL A   1      45.329  25.541  35.615  1.00  0.00     0.091 A 
ATOM     86  F   UNL A   1      43.065  25.453  34.868  1.00  0.00    -0.205 F 
ATOM     87  C   UNL A   1      46.582  26.172  35.579  1.00  0.00     0.022 A 
BRANCH  85  88
ATOM     88  S   UNL A   1      45.167  24.100  36.676  1.00  0.00     0.127 S 
ATOM     89  O   UNL A   1      46.549  23.892  37.107  1.00  0.00    -0.237 OA
ATOM     90  O   UNL A   1      44.268  24.586  37.722  1.00  0.00    -0.237 OA
ATOM     91  O   UNL A   1      44.610  23.046  35.839  1.00  0.00    -0.744 OA
ENDBRANCH  85  88
ENDBRANCH  58  81
ENDBRANCH  32  33
ENDBRANCH  24  27
ENDBRANCH  22  23
ENDBRANCH   1  22
TORSDOF 15
ENDMDL
