MODEL 1
REMARK VINA RESULT:     -12.7      0.000      0.000
REMARK SMILES CC(C)N(c1cc2c(cc1Cl)C=C(C(=O)NCCCNC(=O)c1ccc(-c3c4nc(c(-c5cccc(S(=O)(=O)[O-])c5F)c5ccc([nH]5)c(-c5cccc(S(=O)(=O)[O-])c5F)c5nc(c(-c6cccc(S(=O)(=O)[O-])c6F)c6ccc3[nH]6)C=C5)C=C4)cc1)[C@@H](C(F)(F)F)O2)C(C)C
REMARK SMILES IDX 18 1 17 2 16 3 14 4 15 5 13 7 5 8 6 9 10 10 7 11 9 12 11 13
REMARK SMILES IDX 8 14 91 15 12 16 86 17 4 18 2 19 1 20 3 21 92 22 93 23 94 24
REMARK SMILES IDX 87 25 88 26 89 27 90 28 19 29 20 30 21 31 22 33 23 34 24 35
REMARK SMILES IDX 85 36 25 37 84 38 26 39 27 40 28 41 78 42 29 43 83 44 77 45
REMARK SMILES IDX 79 46 30 47 82 48 76 49 75 50 31 52 63 53 43 54 62 55 44 56
REMARK SMILES IDX 47 57 61 58 80 59 45 60 46 61 60 63 81 64 48 65 32 66 33 67
REMARK SMILES IDX 41 68 34 69 36 70 42 71 35 72 37 73 38 74 39 75 40 76 64 77
REMARK SMILES IDX 65 78 73 79 66 80 68 81 74 82 67 83 69 84 70 85 71 86 72 87
REMARK SMILES IDX 49 88 50 89 58 90 51 91 53 92 59 93 52 94 54 95 55 96 56 97
REMARK SMILES IDX 57 98
REMARK H PARENT 16 6 20 32 79 51 47 62
REMARK Flexibility Score: inf
ROOT
ATOM      1  C   UNL A   1      37.822  19.917  24.938  1.00  0.00     0.042 C 
ENDROOT
BRANCH   1   2
ATOM      2  C   UNL A   1      36.533  20.641  25.299  1.00  0.00     0.118 C 
BRANCH   2   3
ATOM      3  N   UNL A   1      35.353  19.893  24.884  1.00  0.00    -0.352 N 
ATOM      4  C   UNL A   1      34.038  20.133  24.682  1.00  0.00     0.251 C 
ATOM      5  O   UNL A   1      33.378  19.151  24.326  1.00  0.00    -0.270 OA
ATOM      6  H   UNL A   1      35.576  18.952  24.700  1.00  0.00     0.163 HD
BRANCH   4   7
ATOM      7  C   UNL A   1      33.365  21.454  24.839  1.00  0.00     0.067 C 
ATOM      8  C   UNL A   1      31.870  26.266  24.326  1.00  0.00     0.060 A 
ATOM      9  C   UNL A   1      31.426  25.154  25.068  1.00  0.00     0.074 A 
ATOM     10  C   UNL A   1      32.896  26.026  23.380  1.00  0.00     0.065 A 
ATOM     11  C   UNL A   1      32.010  23.897  24.922  1.00  0.00     0.130 A 
ATOM     12  C   UNL A   1      33.435  24.741  23.191  1.00  0.00     0.034 A 
ATOM     13  Cl  UNL A   1      33.650  27.290  22.462  1.00  0.00    -0.082 Cl
ATOM     14  C   UNL A   1      33.005  23.676  23.977  1.00  0.00     0.019 A 
ATOM     15  O   UNL A   1      31.560  22.901  25.746  1.00  0.00    -0.475 OA
ATOM     16  C   UNL A   1      33.576  22.341  23.846  1.00  0.00     0.025 C 
ATOM     17  C   UNL A   1      32.536  21.854  26.028  1.00  0.00     0.314 C 
BRANCH   8  18
ATOM     18  N   UNL A   1      31.308  27.534  24.591  1.00  0.00    -0.365 N 
BRANCH  18  19
ATOM     19  C   UNL A   1      32.073  28.444  25.472  1.00  0.00     0.076 C 
ATOM     20  C   UNL A   1      31.579  29.889  25.416  1.00  0.00     0.030 C 
ATOM     21  C   UNL A   1      32.152  27.955  26.917  1.00  0.00     0.030 C 
ENDBRANCH  18  19
BRANCH  18  22
ATOM     22  C   UNL A   1      30.090  27.883  23.820  1.00  0.00     0.076 C 
ATOM     23  C   UNL A   1      30.403  28.353  22.402  1.00  0.00     0.030 C 
ATOM     24  C   UNL A   1      29.025  26.789  23.821  1.00  0.00     0.030 C 
ENDBRANCH  18  22
ENDBRANCH   8  18
BRANCH  17  25
ATOM     25  C   UNL A   1      33.404  22.260  27.237  1.00  0.00     0.429 C 
ATOM     26  F   UNL A   1      32.635  22.768  28.231  1.00  0.00    -0.167 F 
ATOM     27  F   UNL A   1      34.076  21.210  27.769  1.00  0.00    -0.167 F 
ATOM     28  F   UNL A   1      34.333  23.194  26.928  1.00  0.00    -0.167 F 
ENDBRANCH  17  25
ENDBRANCH   4   7
ENDBRANCH   2   3
ENDBRANCH   1   2
BRANCH   1  29
ATOM     29  C   UNL A   1      39.019  20.420  25.741  1.00  0.00     0.118 C 
BRANCH  29  30
ATOM     30  N   UNL A   1      40.020  19.379  25.951  1.00  0.00    -0.352 N 
ATOM     31  C   UNL A   1      41.380  19.478  26.142  1.00  0.00     0.251 C 
ATOM     32  H   UNL A   1      39.667  18.460  25.958  1.00  0.00     0.163 HD
ATOM     33  O   UNL A   1      42.078  18.471  26.067  1.00  0.00    -0.269 OA
BRANCH  31  34
ATOM     34  C   UNL A   1      41.992  20.797  26.402  1.00  0.00     0.039 A 
ATOM     35  C   UNL A   1      42.276  21.194  27.709  1.00  0.00     0.014 A 
ATOM     36  C   UNL A   1      42.266  21.653  25.333  1.00  0.00     0.014 A 
ATOM     37  C   UNL A   1      42.636  22.512  27.964  1.00  0.00     0.010 A 
ATOM     38  C   UNL A   1      42.718  22.951  25.587  1.00  0.00     0.010 A 
ATOM     39  C   UNL A   1      42.845  23.412  26.908  1.00  0.00    -0.014 A 
BRANCH  39  40
ATOM     40  C   UNL A   1      43.149  24.836  27.200  1.00  0.00     0.031 A 
ATOM     41  C   UNL A   1      44.468  25.434  26.777  1.00  0.00     0.074 A 
ATOM     42  C   UNL A   1      42.224  25.609  27.803  1.00  0.00     0.049 A 
ATOM     43  N   UNL A   1      44.934  26.636  26.997  1.00  0.00    -0.248 NA
ATOM     44  C   UNL A   1      45.384  24.573  26.008  1.00  0.00     0.031 C 
ATOM     45  C   UNL A   1      40.902  25.156  28.245  1.00  0.00     0.029 A 
ATOM     46  N   UNL A   1      42.247  26.939  28.136  1.00  0.00    -0.354 N 
ATOM     47  C   UNL A   1      46.209  26.660  26.446  1.00  0.00     0.074 A 
ATOM     48  C   UNL A   1      46.448  25.354  25.871  1.00  0.00     0.031 C 
ATOM     49  C   UNL A   1      40.227  26.198  28.752  1.00  0.00     0.029 A 
ATOM     50  C   UNL A   1      41.087  27.377  28.732  1.00  0.00     0.049 A 
ATOM     51  H   UNL A   1      43.019  27.524  27.965  1.00  0.00     0.167 HD
ATOM     52  C   UNL A   1      47.095  27.682  26.405  1.00  0.00     0.034 A 
ATOM     53  C   UNL A   1      40.759  28.584  29.229  1.00  0.00     0.034 A 
ATOM     54  C   UNL A   1      46.831  29.002  26.908  1.00  0.00     0.049 A 
ATOM     55  C   UNL A   1      41.766  29.696  29.178  1.00  0.00     0.074 A 
ATOM     56  C   UNL A   1      47.660  30.110  26.882  1.00  0.00     0.029 A 
ATOM     57  N   UNL A   1      45.651  29.397  27.513  1.00  0.00    -0.354 N 
ATOM     58  N   UNL A   1      42.954  29.703  28.627  1.00  0.00    -0.248 NA
ATOM     59  C   UNL A   1      41.389  30.964  29.820  1.00  0.00     0.031 C 
ATOM     60  C   UNL A   1      46.976  31.180  27.467  1.00  0.00     0.029 A 
ATOM     61  C   UNL A   1      45.725  30.733  27.862  1.00  0.00     0.049 A 
ATOM     62  H   UNL A   1      44.873  28.814  27.671  1.00  0.00     0.167 HD
ATOM     63  C   UNL A   1      43.468  30.974  28.855  1.00  0.00     0.074 A 
ATOM     64  C   UNL A   1      42.449  31.719  29.564  1.00  0.00     0.031 C 
ATOM     65  C   UNL A   1      44.686  31.469  28.530  1.00  0.00     0.034 A 
BRANCH  52  66
ATOM     66  C   UNL A   1      48.424  27.445  25.745  1.00  0.00     0.023 A 
ATOM     67  C   UNL A   1      49.504  26.983  26.522  1.00  0.00     0.012 A 
ATOM     68  C   UNL A   1      48.571  27.565  24.349  1.00  0.00     0.148 A 
ATOM     69  C   UNL A   1      50.715  26.646  25.920  1.00  0.00     0.002 A 
ATOM     70  C   UNL A   1      49.773  27.203  23.753  1.00  0.00     0.091 A 
ATOM     71  F   UNL A   1      47.529  28.013  23.635  1.00  0.00    -0.205 F 
ATOM     72  C   UNL A   1      50.846  26.747  24.537  1.00  0.00     0.022 A 
BRANCH  70  73
ATOM     73  S   UNL A   1      50.037  27.250  21.977  1.00  0.00     0.127 S 
ATOM     74  O   UNL A   1      49.849  28.671  21.688  1.00  0.00    -0.237 OA
ATOM     75  O   UNL A   1      51.418  26.781  21.863  1.00  0.00    -0.237 OA
ATOM     76  O   UNL A   1      49.036  26.367  21.396  1.00  0.00    -0.744 OA
ENDBRANCH  70  73
ENDBRANCH  52  66
BRANCH  53  77
ATOM     77  C   UNL A   1      39.402  28.805  29.797  1.00  0.00     0.023 A 
ATOM     78  C   UNL A   1      39.145  28.420  31.127  1.00  0.00     0.012 A 
ATOM     79  C   UNL A   1      38.387  29.432  29.050  1.00  0.00     0.148 A 
ATOM     80  C   UNL A   1      37.894  28.650  31.701  1.00  0.00     0.002 A 
ATOM     81  C   UNL A   1      37.159  29.698  29.642  1.00  0.00     0.091 A 
ATOM     82  F   UNL A   1      38.651  29.770  27.780  1.00  0.00    -0.205 F 
ATOM     83  C   UNL A   1      36.907  29.299  30.963  1.00  0.00     0.022 A 
BRANCH  81  84
ATOM     84  S   UNL A   1      35.872  30.631  28.805  1.00  0.00     0.127 S 
ATOM     85  O   UNL A   1      35.147  31.214  29.932  1.00  0.00    -0.237 OA
ATOM     86  O   UNL A   1      36.654  31.584  28.016  1.00  0.00    -0.237 OA
ATOM     87  O   UNL A   1      35.135  29.658  28.012  1.00  0.00    -0.744 OA
ENDBRANCH  81  84
ENDBRANCH  53  77
BRANCH  65  88
ATOM     88  C   UNL A   1      44.997  32.878  28.947  1.00  0.00     0.023 A 
ATOM     89  C   UNL A   1      45.550  33.106  30.221  1.00  0.00     0.012 A 
ATOM     90  C   UNL A   1      44.829  33.954  28.055  1.00  0.00     0.148 A 
ATOM     91  C   UNL A   1      45.923  34.390  30.608  1.00  0.00     0.002 A 
ATOM     92  C   UNL A   1      45.232  35.227  28.437  1.00  0.00     0.091 A 
ATOM     93  F   UNL A   1      44.284  33.710  26.854  1.00  0.00    -0.205 F 
ATOM     94  C   UNL A   1      45.775  35.448  29.714  1.00  0.00     0.022 A 
BRANCH  92  95
ATOM     95  S   UNL A   1      45.145  36.636  27.327  1.00  0.00     0.127 S 
ATOM     96  O   UNL A   1      45.699  37.704  28.157  1.00  0.00    -0.237 OA
ATOM     97  O   UNL A   1      46.004  36.215  26.220  1.00  0.00    -0.237 OA
ATOM     98  O   UNL A   1      43.738  36.782  26.977  1.00  0.00    -0.744 OA
ENDBRANCH  92  95
ENDBRANCH  65  88
ENDBRANCH  39  40
ENDBRANCH  31  34
ENDBRANCH  29  30
ENDBRANCH   1  29
TORSDOF 17
ENDMDL
MODEL 2
REMARK VINA RESULT:     -12.7      1.333      7.514
REMARK SMILES CC(C)N(c1cc2c(cc1Cl)C=C(C(=O)NCCCNC(=O)c1ccc(-c3c4nc(c(-c5cccc(S(=O)(=O)[O-])c5F)c5ccc([nH]5)c(-c5cccc(S(=O)(=O)[O-])c5F)c5nc(c(-c6cccc(S(=O)(=O)[O-])c6F)c6ccc3[nH]6)C=C5)C=C4)cc1)[C@@H](C(F)(F)F)O2)C(C)C
REMARK SMILES IDX 18 1 17 2 16 3 14 4 15 5 13 7 5 8 6 9 10 10 7 11 9 12 11 13
REMARK SMILES IDX 8 14 91 15 12 16 86 17 4 18 2 19 1 20 3 21 92 22 93 23 94 24
REMARK SMILES IDX 87 25 88 26 89 27 90 28 19 29 20 30 21 31 22 33 23 34 24 35
REMARK SMILES IDX 85 36 25 37 84 38 26 39 27 40 28 41 78 42 29 43 83 44 77 45
REMARK SMILES IDX 79 46 30 47 82 48 76 49 75 50 31 52 63 53 43 54 62 55 44 56
REMARK SMILES IDX 47 57 61 58 80 59 45 60 46 61 60 63 81 64 48 65 32 66 33 67
REMARK SMILES IDX 41 68 34 69 36 70 42 71 35 72 37 73 38 74 39 75 40 76 64 77
REMARK SMILES IDX 65 78 73 79 66 80 68 81 74 82 67 83 69 84 70 85 71 86 72 87
REMARK SMILES IDX 49 88 50 89 58 90 51 91 53 92 59 93 52 94 54 95 55 96 56 97
REMARK SMILES IDX 57 98
REMARK H PARENT 16 6 20 32 79 51 47 62
REMARK Flexibility Score: inf
ROOT
ATOM      1  C   UNL A   1      35.839  21.256  24.512  1.00  0.00     0.042 C 
ENDROOT
BRANCH   1   2
ATOM      2  C   UNL A   1      35.509  19.974  25.264  1.00  0.00     0.118 C 
BRANCH   2   3
ATOM      3  N   UNL A   1      34.231  19.411  24.846  1.00  0.00    -0.352 N 
ATOM      4  C   UNL A   1      32.975  19.852  24.610  1.00  0.00     0.251 C 
ATOM      5  O   UNL A   1      32.171  18.976  24.269  1.00  0.00    -0.270 OA
ATOM      6  H   UNL A   1      34.302  18.441  24.695  1.00  0.00     0.163 HD
BRANCH   4   7
ATOM      7  C   UNL A   1      32.520  21.267  24.713  1.00  0.00     0.067 C 
ATOM      8  C   UNL A   1      31.634  26.186  23.890  1.00  0.00     0.060 A 
ATOM      9  C   UNL A   1      31.161  25.224  24.802  1.00  0.00     0.074 A 
ATOM     10  C   UNL A   1      32.462  25.712  22.844  1.00  0.00     0.065 A 
ATOM     11  C   UNL A   1      31.539  23.884  24.716  1.00  0.00     0.130 A 
ATOM     12  C   UNL A   1      32.786  24.348  22.723  1.00  0.00     0.034 A 
ATOM     13  Cl  UNL A   1      33.233  26.762  21.698  1.00  0.00    -0.082 Cl
ATOM     14  C   UNL A   1      32.339  23.434  23.672  1.00  0.00     0.019 A 
ATOM     15  O   UNL A   1      31.088  23.044  25.697  1.00  0.00    -0.475 OA
ATOM     16  C   UNL A   1      32.696  22.022  23.610  1.00  0.00     0.025 C 
ATOM     17  C   UNL A   1      31.944  21.891  25.955  1.00  0.00     0.314 C 
BRANCH   8  18
ATOM     18  N   UNL A   1      31.297  27.542  24.090  1.00  0.00    -0.365 N 
BRANCH  18  19
ATOM     19  C   UNL A   1      30.184  28.089  23.283  1.00  0.00     0.076 C 
ATOM     20  C   UNL A   1      28.851  27.390  23.548  1.00  0.00     0.030 C 
ATOM     21  C   UNL A   1      30.034  29.603  23.414  1.00  0.00     0.030 C 
ENDBRANCH  18  19
BRANCH  18  22
ATOM     22  C   UNL A   1      31.984  28.229  25.210  1.00  0.00     0.076 C 
ATOM     23  C   UNL A   1      31.408  27.857  26.574  1.00  0.00     0.030 C 
ATOM     24  C   UNL A   1      33.503  28.076  25.188  1.00  0.00     0.030 C 
ENDBRANCH  18  22
ENDBRANCH   8  18
BRANCH  17  25
ATOM     25  C   UNL A   1      33.033  22.266  26.981  1.00  0.00     0.429 C 
ATOM     26  F   UNL A   1      32.505  22.994  27.996  1.00  0.00    -0.167 F 
ATOM     27  F   UNL A   1      33.608  21.178  27.547  1.00  0.00    -0.167 F 
ATOM     28  F   UNL A   1      34.036  22.994  26.441  1.00  0.00    -0.167 F 
ENDBRANCH  17  25
ENDBRANCH   4   7
ENDBRANCH   2   3
ENDBRANCH   1   2
BRANCH   1  29
ATOM     29  C   UNL A   1      37.208  21.815  24.886  1.00  0.00     0.118 C 
BRANCH  29  30
ATOM     30  N   UNL A   1      38.113  20.779  25.376  1.00  0.00    -0.352 N 
ATOM     31  C   UNL A   1      39.307  20.888  26.052  1.00  0.00     0.251 C 
ATOM     32  H   UNL A   1      37.823  19.856  25.194  1.00  0.00     0.163 HD
ATOM     33  O   UNL A   1      40.030  19.903  26.169  1.00  0.00    -0.269 OA
BRANCH  31  34
ATOM     34  C   UNL A   1      39.725  22.193  26.602  1.00  0.00     0.039 A 
ATOM     35  C   UNL A   1      39.129  23.371  26.148  1.00  0.00     0.014 A 
ATOM     36  C   UNL A   1      40.736  22.245  27.565  1.00  0.00     0.014 A 
ATOM     37  C   UNL A   1      39.677  24.598  26.498  1.00  0.00     0.010 A 
ATOM     38  C   UNL A   1      41.225  23.484  27.986  1.00  0.00     0.010 A 
ATOM     39  C   UNL A   1      40.744  24.670  27.407  1.00  0.00    -0.014 A 
BRANCH  39  40
ATOM     40  C   UNL A   1      41.372  25.983  27.708  1.00  0.00     0.031 A 
ATOM     41  C   UNL A   1      40.627  27.015  28.517  1.00  0.00     0.074 A 
ATOM     42  C   UNL A   1      42.630  26.233  27.296  1.00  0.00     0.049 A 
ATOM     43  N   UNL A   1      40.987  28.233  28.827  1.00  0.00    -0.248 NA
ATOM     44  C   UNL A   1      39.307  26.632  29.048  1.00  0.00     0.031 C 
ATOM     45  C   UNL A   1      43.466  25.310  26.522  1.00  0.00     0.029 A 
ATOM     46  N   UNL A   1      43.433  27.330  27.481  1.00  0.00    -0.354 N 
ATOM     47  C   UNL A   1      39.925  28.778  29.537  1.00  0.00     0.074 A 
ATOM     48  C   UNL A   1      38.903  27.758  29.622  1.00  0.00     0.031 C 
ATOM     49  C   UNL A   1      44.674  25.862  26.334  1.00  0.00     0.029 A 
ATOM     50  C   UNL A   1      44.680  27.200  26.916  1.00  0.00     0.049 A 
ATOM     51  H   UNL A   1      43.143  28.132  27.970  1.00  0.00     0.167 HD
ATOM     52  C   UNL A   1      39.816  30.011  30.085  1.00  0.00     0.034 A 
ATOM     53  C   UNL A   1      45.707  28.069  26.852  1.00  0.00     0.034 A 
ATOM     54  C   UNL A   1      40.858  31.000  30.066  1.00  0.00     0.049 A 
ATOM     55  C   UNL A   1      45.553  29.432  27.460  1.00  0.00     0.074 A 
ATOM     56  C   UNL A   1      40.847  32.267  30.623  1.00  0.00     0.029 A 
ATOM     57  N   UNL A   1      42.098  30.831  29.474  1.00  0.00    -0.354 N 
ATOM     58  N   UNL A   1      44.550  29.915  28.151  1.00  0.00    -0.248 NA
ATOM     59  C   UNL A   1      46.670  30.371  27.277  1.00  0.00     0.031 C 
ATOM     60  C   UNL A   1      42.086  32.864  30.372  1.00  0.00     0.029 A 
ATOM     61  C   UNL A   1      42.864  31.969  29.655  1.00  0.00     0.049 A 
ATOM     62  H   UNL A   1      42.392  30.022  28.996  1.00  0.00     0.167 HD
ATOM     63  C   UNL A   1      44.913  31.214  28.486  1.00  0.00     0.074 A 
ATOM     64  C   UNL A   1      46.242  31.430  27.952  1.00  0.00     0.031 C 
ATOM     65  C   UNL A   1      44.198  32.151  29.152  1.00  0.00     0.034 A 
BRANCH  52  66
ATOM     66  C   UNL A   1      38.545  30.358  30.807  1.00  0.00     0.023 A 
ATOM     67  C   UNL A   1      38.405  29.997  32.162  1.00  0.00     0.012 A 
ATOM     68  C   UNL A   1      37.549  31.136  30.187  1.00  0.00     0.148 A 
ATOM     69  C   UNL A   1      37.288  30.404  32.890  1.00  0.00     0.002 A 
ATOM     70  C   UNL A   1      36.449  31.559  30.926  1.00  0.00     0.091 A 
ATOM     71  F   UNL A   1      37.704  31.459  28.895  1.00  0.00    -0.205 F 
ATOM     72  C   UNL A   1      36.317  31.190  32.276  1.00  0.00     0.022 A 
BRANCH  70  73
ATOM     73  S   UNL A   1      35.163  32.613  30.249  1.00  0.00     0.127 S 
ATOM     74  O   UNL A   1      34.240  32.715  31.379  1.00  0.00    -0.237 OA
ATOM     75  O   UNL A   1      35.900  33.840  29.951  1.00  0.00    -0.237 OA
ATOM     76  O   UNL A   1      34.635  31.912  29.087  1.00  0.00    -0.744 OA
ENDBRANCH  70  73
ENDBRANCH  52  66
BRANCH  53  77
ATOM     77  C   UNL A   1      46.982  27.658  26.203  1.00  0.00     0.023 A 
ATOM     78  C   UNL A   1      47.969  27.018  26.976  1.00  0.00     0.012 A 
ATOM     79  C   UNL A   1      47.199  27.853  24.826  1.00  0.00     0.148 A 
ATOM     80  C   UNL A   1      49.158  26.586  26.388  1.00  0.00     0.002 A 
ATOM     81  C   UNL A   1      48.365  27.380  24.239  1.00  0.00     0.091 A 
ATOM     82  F   UNL A   1      46.252  28.482  24.117  1.00  0.00    -0.205 F 
ATOM     83  C   UNL A   1      49.350  26.756  25.019  1.00  0.00     0.022 A 
BRANCH  81  84
ATOM     84  S   UNL A   1      48.644  27.452  22.465  1.00  0.00     0.127 S 
ATOM     85  O   UNL A   1      49.945  28.112  22.396  1.00  0.00    -0.237 OA
ATOM     86  O   UNL A   1      48.651  26.034  22.103  1.00  0.00    -0.237 OA
ATOM     87  O   UNL A   1      47.521  28.203  21.922  1.00  0.00    -0.744 OA
ENDBRANCH  81  84
ENDBRANCH  53  77
BRANCH  65  88
ATOM     88  C   UNL A   1      44.825  33.504  29.333  1.00  0.00     0.023 A 
ATOM     89  C   UNL A   1      45.601  33.747  30.482  1.00  0.00     0.012 A 
ATOM     90  C   UNL A   1      44.724  34.492  28.335  1.00  0.00     0.148 A 
ATOM     91  C   UNL A   1      46.261  34.963  30.642  1.00  0.00     0.002 A 
ATOM     92  C   UNL A   1      45.410  35.690  28.488  1.00  0.00     0.091 A 
ATOM     93  F   UNL A   1      43.965  34.238  27.259  1.00  0.00    -0.205 F 
ATOM     94  C   UNL A   1      46.175  35.929  29.642  1.00  0.00     0.022 A 
BRANCH  92  95
ATOM     95  S   UNL A   1      45.416  36.962  27.221  1.00  0.00     0.127 S 
ATOM     96  O   UNL A   1      46.223  38.006  27.850  1.00  0.00    -0.237 OA
ATOM     97  O   UNL A   1      46.063  36.283  26.098  1.00  0.00    -0.237 OA
ATOM     98  O   UNL A   1      44.018  37.305  26.993  1.00  0.00    -0.744 OA
ENDBRANCH  92  95
ENDBRANCH  65  88
ENDBRANCH  39  40
ENDBRANCH  31  34
ENDBRANCH  29  30
ENDBRANCH   1  29
TORSDOF 17
ENDMDL
MODEL 3
REMARK VINA RESULT:     -12.6      6.210     11.514
REMARK SMILES CC(C)N(c1cc2c(cc1Cl)C=C(C(=O)NCCCNC(=O)c1ccc(-c3c4nc(c(-c5cccc(S(=O)(=O)[O-])c5F)c5ccc([nH]5)c(-c5cccc(S(=O)(=O)[O-])c5F)c5nc(c(-c6cccc(S(=O)(=O)[O-])c6F)c6ccc3[nH]6)C=C5)C=C4)cc1)[C@@H](C(F)(F)F)O2)C(C)C
REMARK SMILES IDX 18 1 17 2 16 3 14 4 15 5 13 7 5 8 6 9 10 10 7 11 9 12 11 13
REMARK SMILES IDX 8 14 91 15 12 16 86 17 4 18 2 19 1 20 3 21 92 22 93 23 94 24
REMARK SMILES IDX 87 25 88 26 89 27 90 28 19 29 20 30 21 31 22 33 23 34 24 35
REMARK SMILES IDX 85 36 25 37 84 38 26 39 27 40 28 41 78 42 29 43 83 44 77 45
REMARK SMILES IDX 79 46 30 47 82 48 76 49 75 50 31 52 63 53 43 54 62 55 44 56
REMARK SMILES IDX 47 57 61 58 80 59 45 60 46 61 60 63 81 64 48 65 32 66 33 67
REMARK SMILES IDX 41 68 34 69 36 70 42 71 35 72 37 73 38 74 39 75 40 76 64 77
REMARK SMILES IDX 65 78 73 79 66 80 68 81 74 82 67 83 69 84 70 85 71 86 72 87
REMARK SMILES IDX 49 88 50 89 58 90 51 91 53 92 59 93 52 94 54 95 55 96 56 97
REMARK SMILES IDX 57 98
REMARK H PARENT 16 6 20 32 79 51 47 62
REMARK Flexibility Score: inf
ROOT
ATOM      1  C   UNL A   1      31.656  31.792  26.850  1.00  0.00     0.042 C 
ENDROOT
BRANCH   1   2
ATOM      2  C   UNL A   1      32.013  30.575  26.008  1.00  0.00     0.118 C 
BRANCH   2   3
ATOM      3  N   UNL A   1      31.011  30.308  24.984  1.00  0.00    -0.352 N 
ATOM      4  C   UNL A   1      30.714  29.319  24.111  1.00  0.00     0.251 C 
ATOM      5  O   UNL A   1      29.734  29.538  23.390  1.00  0.00    -0.270 OA
ATOM      6  H   UNL A   1      30.376  31.055  24.905  1.00  0.00     0.163 HD
BRANCH   4   7
ATOM      7  C   UNL A   1      31.450  28.030  23.979  1.00  0.00     0.067 C 
ATOM      8  C   UNL A   1      33.541  23.491  24.808  1.00  0.00     0.060 A 
ATOM      9  C   UNL A   1      33.339  24.309  23.679  1.00  0.00     0.074 A 
ATOM     10  C   UNL A   1      32.929  23.915  26.013  1.00  0.00     0.065 A 
ATOM     11  C   UNL A   1      32.627  25.504  23.758  1.00  0.00     0.130 A 
ATOM     12  C   UNL A   1      32.155  25.088  26.071  1.00  0.00     0.034 A 
ATOM     13  Cl  UNL A   1      33.162  23.104  27.529  1.00  0.00    -0.082 Cl
ATOM     14  C   UNL A   1      32.018  25.896  24.946  1.00  0.00     0.019 A 
ATOM     15  O   UNL A   1      32.555  26.265  22.623  1.00  0.00    -0.475 OA
ATOM     16  C   UNL A   1      31.268  27.146  24.980  1.00  0.00     0.025 C 
ATOM     17  C   UNL A   1      32.393  27.696  22.856  1.00  0.00     0.314 C 
BRANCH   8  18
ATOM     18  N   UNL A   1      34.356  22.345  24.686  1.00  0.00    -0.365 N 
BRANCH  18  19
ATOM     19  C   UNL A   1      33.689  21.076  24.322  1.00  0.00     0.076 C 
ATOM     20  C   UNL A   1      34.464  19.839  24.775  1.00  0.00     0.030 C 
ATOM     21  C   UNL A   1      32.237  21.004  24.791  1.00  0.00     0.030 C 
ENDBRANCH  18  19
BRANCH  18  22
ATOM     22  C   UNL A   1      35.819  22.571  24.771  1.00  0.00     0.076 C 
ATOM     23  C   UNL A   1      36.466  22.768  23.403  1.00  0.00     0.030 C 
ATOM     24  C   UNL A   1      36.217  23.682  25.740  1.00  0.00     0.030 C 
ENDBRANCH  18  22
ENDBRANCH   8  18
BRANCH  17  25
ATOM     25  C   UNL A   1      33.775  28.357  23.035  1.00  0.00     0.429 C 
ATOM     26  F   UNL A   1      34.646  27.910  22.097  1.00  0.00    -0.167 F 
ATOM     27  F   UNL A   1      33.726  29.705  22.902  1.00  0.00    -0.167 F 
ATOM     28  F   UNL A   1      34.324  28.110  24.246  1.00  0.00    -0.167 F 
ENDBRANCH  17  25
ENDBRANCH   4   7
ENDBRANCH   2   3
ENDBRANCH   1   2
BRANCH   1  29
ATOM     29  C   UNL A   1      32.891  32.535  27.353  1.00  0.00     0.118 C 
BRANCH  29  30
ATOM     30  N   UNL A   1      32.609  33.937  27.649  1.00  0.00    -0.352 N 
ATOM     31  C   UNL A   1      33.114  34.757  28.632  1.00  0.00     0.251 C 
ATOM     32  H   UNL A   1      31.952  34.363  27.052  1.00  0.00     0.163 HD
ATOM     33  O   UNL A   1      32.576  35.837  28.858  1.00  0.00    -0.269 OA
BRANCH  31  34
ATOM     34  C   UNL A   1      34.279  34.320  29.428  1.00  0.00     0.039 A 
ATOM     35  C   UNL A   1      35.574  34.505  28.940  1.00  0.00     0.014 A 
ATOM     36  C   UNL A   1      34.077  33.700  30.664  1.00  0.00     0.014 A 
ATOM     37  C   UNL A   1      36.644  33.893  29.581  1.00  0.00     0.010 A 
ATOM     38  C   UNL A   1      35.168  33.164  31.354  1.00  0.00     0.010 A 
ATOM     39  C   UNL A   1      36.452  33.200  30.787  1.00  0.00    -0.014 A 
BRANCH  39  40
ATOM     40  C   UNL A   1      37.591  32.483  31.416  1.00  0.00     0.031 A 
ATOM     41  C   UNL A   1      38.055  32.859  32.800  1.00  0.00     0.074 A 
ATOM     42  C   UNL A   1      38.180  31.461  30.765  1.00  0.00     0.049 A 
ATOM     43  N   UNL A   1      39.065  32.390  33.485  1.00  0.00    -0.248 NA
ATOM     44  C   UNL A   1      37.287  33.898  33.511  1.00  0.00     0.031 C 
ATOM     45  C   UNL A   1      37.813  30.985  29.429  1.00  0.00     0.029 A 
ATOM     46  N   UNL A   1      39.203  30.628  31.143  1.00  0.00    -0.354 N 
ATOM     47  C   UNL A   1      39.089  33.106  34.676  1.00  0.00     0.074 A 
ATOM     48  C   UNL A   1      37.986  34.042  34.629  1.00  0.00     0.031 C 
ATOM     49  C   UNL A   1      38.569  29.922  29.116  1.00  0.00     0.029 A 
ATOM     50  C   UNL A   1      39.517  29.679  30.198  1.00  0.00     0.049 A 
ATOM     51  H   UNL A   1      39.667  30.703  32.007  1.00  0.00     0.167 HD
ATOM     52  C   UNL A   1      39.939  32.984  35.721  1.00  0.00     0.034 A 
ATOM     53  C   UNL A   1      40.475  28.733  30.192  1.00  0.00     0.034 A 
ATOM     54  C   UNL A   1      40.988  32.005  35.801  1.00  0.00     0.049 A 
ATOM     55  C   UNL A   1      41.409  28.628  31.361  1.00  0.00     0.074 A 
ATOM     56  C   UNL A   1      41.880  31.788  36.837  1.00  0.00     0.029 A 
ATOM     57  N   UNL A   1      41.277  31.073  34.820  1.00  0.00    -0.354 N 
ATOM     58  N   UNL A   1      41.394  29.297  32.488  1.00  0.00    -0.248 NA
ATOM     59  C   UNL A   1      42.494  27.641  31.258  1.00  0.00     0.031 C 
ATOM     60  C   UNL A   1      42.707  30.718  36.482  1.00  0.00     0.029 A 
ATOM     61  C   UNL A   1      42.331  30.275  35.224  1.00  0.00     0.049 A 
ATOM     62  H   UNL A   1      40.803  30.991  33.961  1.00  0.00     0.167 HD
ATOM     63  C   UNL A   1      42.466  28.814  33.228  1.00  0.00     0.074 A 
ATOM     64  C   UNL A   1      43.088  27.772  32.438  1.00  0.00     0.031 C 
ATOM     65  C   UNL A   1      42.911  29.217  34.442  1.00  0.00     0.034 A 
BRANCH  52  66
ATOM     66  C   UNL A   1      39.748  33.893  36.902  1.00  0.00     0.023 A 
ATOM     67  C   UNL A   1      40.083  35.256  36.780  1.00  0.00     0.012 A 
ATOM     68  C   UNL A   1      39.135  33.429  38.082  1.00  0.00     0.148 A 
ATOM     69  C   UNL A   1      39.812  36.146  37.819  1.00  0.00     0.002 A 
ATOM     70  C   UNL A   1      38.845  34.326  39.103  1.00  0.00     0.091 A 
ATOM     71  F   UNL A   1      38.834  32.126  38.173  1.00  0.00    -0.205 F 
ATOM     72  C   UNL A   1      39.186  35.684  38.974  1.00  0.00     0.022 A 
BRANCH  70  73
ATOM     73  S   UNL A   1      38.000  33.849  40.614  1.00  0.00     0.127 S 
ATOM     74  O   UNL A   1      36.787  33.223  40.089  1.00  0.00    -0.237 OA
ATOM     75  O   UNL A   1      38.955  32.920  41.216  1.00  0.00    -0.237 OA
ATOM     76  O   UNL A   1      37.782  35.080  41.361  1.00  0.00    -0.744 OA
ENDBRANCH  70  73
ENDBRANCH  52  66
BRANCH  53  77
ATOM     77  C   UNL A   1      40.578  27.794  29.042  1.00  0.00     0.023 A 
ATOM     78  C   UNL A   1      39.678  26.715  28.955  1.00  0.00     0.012 A 
ATOM     79  C   UNL A   1      41.522  27.992  28.017  1.00  0.00     0.148 A 
ATOM     80  C   UNL A   1      39.725  25.840  27.869  1.00  0.00     0.002 A 
ATOM     81  C   UNL A   1      41.532  27.145  26.916  1.00  0.00     0.091 A 
ATOM     82  F   UNL A   1      42.379  29.015  28.133  1.00  0.00    -0.205 F 
ATOM     83  C   UNL A   1      40.642  26.063  26.845  1.00  0.00     0.022 A 
BRANCH  81  84
ATOM     84  S   UNL A   1      42.600  27.425  25.499  1.00  0.00     0.127 S 
ATOM     85  O   UNL A   1      42.076  28.684  24.976  1.00  0.00    -0.237 OA
ATOM     86  O   UNL A   1      43.919  27.519  26.128  1.00  0.00    -0.237 OA
ATOM     87  O   UNL A   1      42.427  26.260  24.642  1.00  0.00    -0.744 OA
ENDBRANCH  81  84
ENDBRANCH  53  77
BRANCH  65  88
ATOM     88  C   UNL A   1      44.136  28.544  34.991  1.00  0.00     0.023 A 
ATOM     89  C   UNL A   1      45.392  29.151  34.798  1.00  0.00     0.012 A 
ATOM     90  C   UNL A   1      44.037  27.374  35.768  1.00  0.00     0.148 A 
ATOM     91  C   UNL A   1      46.537  28.595  35.362  1.00  0.00     0.002 A 
ATOM     92  C   UNL A   1      45.180  26.843  36.352  1.00  0.00     0.091 A 
ATOM     93  F   UNL A   1      42.831  26.809  35.920  1.00  0.00    -0.205 F 
ATOM     94  C   UNL A   1      46.431  27.449  36.147  1.00  0.00     0.022 A 
BRANCH  92  95
ATOM     95  S   UNL A   1      45.129  25.412  37.436  1.00  0.00     0.127 S 
ATOM     96  O   UNL A   1      46.547  25.206  37.723  1.00  0.00    -0.237 OA
ATOM     97  O   UNL A   1      44.341  25.904  38.566  1.00  0.00    -0.237 OA
ATOM     98  O   UNL A   1      44.486  24.353  36.669  1.00  0.00    -0.744 OA
ENDBRANCH  92  95
ENDBRANCH  65  88
ENDBRANCH  39  40
ENDBRANCH  31  34
ENDBRANCH  29  30
ENDBRANCH   1  29
TORSDOF 17
ENDMDL
