MODEL 1
REMARK VINA RESULT:     -13.1      0.000      0.000
REMARK SMILES C[C@@H]1CC[C@H](C)[N@H+]1Cc1cc2c(cc1Cl)C=C(C(=O)NCCCNC(=O)c1ccc(-c3c4nc(c(-c5cccc(S(=O)(=O)[O-])c5F)c5ccc([nH]5)c(-c5cccc(S(=O)(=O)[O-])c5F)c5nc(c(-c6cccc(S(=O)(=O)[O-])c6F)c6ccc3[nH]6)C=C5)C=C4)cc1)[C@@H](C(F)(F)F)O2
REMARK SMILES IDX 22 1 21 2 20 3 18 4 19 5 17 7 9 8 10 9 14 10 11 11 13 12
REMARK SMILES IDX 15 13 12 14 95 15 16 16 90 17 8 18 7 19 6 20 5 21 4 22 3 23
REMARK SMILES IDX 2 24 1 26 91 27 92 28 93 29 94 30 23 31 24 32 25 33 26 35
REMARK SMILES IDX 27 36 28 37 89 38 29 39 88 40 30 41 31 42 32 43 82 44 33 45
REMARK SMILES IDX 87 46 81 47 83 48 34 49 86 50 80 51 79 52 35 54 67 55 47 56
REMARK SMILES IDX 66 57 48 58 51 59 65 60 84 61 49 62 50 63 64 65 85 66 52 67
REMARK SMILES IDX 36 68 37 69 45 70 38 71 40 72 46 73 39 74 41 75 42 76 43 77
REMARK SMILES IDX 44 78 68 79 69 80 77 81 70 82 72 83 78 84 71 85 73 86 74 87
REMARK SMILES IDX 75 88 76 89 53 90 54 91 62 92 55 93 57 94 63 95 56 96 58 97
REMARK SMILES IDX 59 98 60 99 61 100
REMARK H PARENT 20 6 7 25 24 34 83 53 51 64
REMARK Flexibility Score: inf
ROOT
ATOM      1  C   UNL A   1      31.090  32.036  26.100  1.00  0.00     0.042 C 
ENDROOT
BRANCH   1   2
ATOM      2  C   UNL A   1      31.028  30.627  25.533  1.00  0.00     0.118 C 
BRANCH   2   3
ATOM      3  N   UNL A   1      30.279  30.584  24.288  1.00  0.00    -0.352 N 
ATOM      4  C   UNL A   1      30.108  29.716  23.267  1.00  0.00     0.251 C 
ATOM      5  O   UNL A   1      29.357  30.104  22.365  1.00  0.00    -0.270 OA
ATOM      6  H   UNL A   1      29.756  31.407  24.153  1.00  0.00     0.163 HD
BRANCH   4   7
ATOM      7  C   UNL A   1      30.734  28.371  23.176  1.00  0.00     0.067 C 
ATOM      8  C   UNL A   1      31.781  23.461  23.647  1.00  0.00     0.029 A 
ATOM      9  C   UNL A   1      32.098  24.451  22.697  1.00  0.00     0.058 A 
ATOM     10  C   UNL A   1      31.032  23.849  24.773  1.00  0.00     0.050 A 
ATOM     11  C   UNL A   1      31.605  25.744  22.828  1.00  0.00     0.128 A 
ATOM     12  C   UNL A   1      30.467  25.128  24.852  1.00  0.00     0.033 A 
ATOM     13  Cl  UNL A   1      30.835  22.841  26.165  1.00  0.00    -0.084 Cl
ATOM     14  C   UNL A   1      30.735  26.071  23.865  1.00  0.00     0.019 A 
ATOM     15  O   UNL A   1      31.998  26.668  21.899  1.00  0.00    -0.475 OA
ATOM     16  C   UNL A   1      30.140  27.400  23.893  1.00  0.00     0.025 C 
ATOM     17  C   UNL A   1      31.972  28.044  22.387  1.00  0.00     0.314 C 
BRANCH   8  18
ATOM     18  C   UNL A   1      32.239  22.038  23.376  1.00  0.00     0.301 C 
BRANCH  18  19
ATOM     19  N   UNL A   1      33.521  21.629  23.975  1.00  0.00    -0.327 N 
ATOM     20  C   UNL A   1      33.582  19.237  24.629  1.00  0.00     0.075 C 
ATOM     21  C   UNL A   1      33.447  20.679  25.099  1.00  0.00     0.181 C 
ATOM     22  C   UNL A   1      34.584  21.076  26.039  1.00  0.00     0.071 C 
ATOM     23  C   UNL A   1      34.690  22.569  25.824  1.00  0.00     0.071 C 
ATOM     24  C   UNL A   1      34.425  22.728  24.334  1.00  0.00     0.181 C 
ATOM     25  H   UNL A   1      33.923  21.124  23.185  1.00  0.00     0.348 HD
ATOM     26  C   UNL A   1      35.699  22.610  23.498  1.00  0.00     0.075 C 
ENDBRANCH  18  19
ENDBRANCH   8  18
BRANCH  17  27
ATOM     27  C   UNL A   1      33.260  28.360  23.181  1.00  0.00     0.429 C 
ATOM     28  F   UNL A   1      33.014  28.365  24.513  1.00  0.00    -0.167 F 
ATOM     29  F   UNL A   1      34.233  27.439  22.972  1.00  0.00    -0.167 F 
ATOM     30  F   UNL A   1      33.799  29.560  22.865  1.00  0.00    -0.167 F 
ENDBRANCH  17  27
ENDBRANCH   4   7
ENDBRANCH   2   3
ENDBRANCH   1   2
BRANCH   1  31
ATOM     31  C   UNL A   1      32.373  32.286  26.882  1.00  0.00     0.118 C 
BRANCH  31  32
ATOM     32  N   UNL A   1      32.423  33.637  27.436  1.00  0.00    -0.352 N 
ATOM     33  C   UNL A   1      33.279  34.186  28.365  1.00  0.00     0.251 C 
ATOM     34  H   UNL A   1      31.736  34.253  27.091  1.00  0.00     0.163 HD
ATOM     35  O   UNL A   1      33.011  35.262  28.879  1.00  0.00    -0.269 OA
BRANCH  33  36
ATOM     36  C   UNL A   1      34.504  33.449  28.745  1.00  0.00     0.039 A 
ATOM     37  C   UNL A   1      34.407  32.160  29.266  1.00  0.00     0.014 A 
ATOM     38  C   UNL A   1      35.752  34.061  28.610  1.00  0.00     0.014 A 
ATOM     39  C   UNL A   1      35.517  31.576  29.855  1.00  0.00     0.010 A 
ATOM     40  C   UNL A   1      36.892  33.415  29.098  1.00  0.00     0.010 A 
ATOM     41  C   UNL A   1      36.775  32.196  29.782  1.00  0.00    -0.014 A 
BRANCH  41  42
ATOM     42  C   UNL A   1      37.936  31.546  30.442  1.00  0.00     0.031 A 
ATOM     43  C   UNL A   1      38.279  31.848  31.878  1.00  0.00     0.074 A 
ATOM     44  C   UNL A   1      38.646  30.627  29.757  1.00  0.00     0.049 A 
ATOM     45  N   UNL A   1      39.243  31.351  32.610  1.00  0.00    -0.248 NA
ATOM     46  C   UNL A   1      37.443  32.833  32.587  1.00  0.00     0.031 C 
ATOM     47  C   UNL A   1      38.417  30.257  28.357  1.00  0.00     0.029 A 
ATOM     48  N   UNL A   1      39.684  29.819  30.146  1.00  0.00    -0.354 N 
ATOM     49  C   UNL A   1      39.164  31.996  33.838  1.00  0.00     0.074 A 
ATOM     50  C   UNL A   1      38.056  32.921  33.761  1.00  0.00     0.031 C 
ATOM     51  C   UNL A   1      39.246  29.260  28.023  1.00  0.00     0.029 A 
ATOM     52  C   UNL A   1      40.113  28.963  29.159  1.00  0.00     0.049 A 
ATOM     53  H   UNL A   1      40.084  29.849  31.044  1.00  0.00     0.167 HD
ATOM     54  C   UNL A   1      39.933  31.818  34.937  1.00  0.00     0.034 A 
ATOM     55  C   UNL A   1      41.101  28.050  29.155  1.00  0.00     0.034 A 
ATOM     56  C   UNL A   1      40.986  30.847  35.037  1.00  0.00     0.049 A 
ATOM     57  C   UNL A   1      41.925  27.863  30.393  1.00  0.00     0.074 A 
ATOM     58  C   UNL A   1      41.779  30.555  36.134  1.00  0.00     0.029 A 
ATOM     59  N   UNL A   1      41.387  30.003  34.014  1.00  0.00    -0.354 N 
ATOM     60  N   UNL A   1      41.788  28.437  31.562  1.00  0.00    -0.248 NA
ATOM     61  C   UNL A   1      43.037  26.905  30.316  1.00  0.00     0.031 C 
ATOM     62  C   UNL A   1      42.665  29.538  35.770  1.00  0.00     0.029 A 
ATOM     63  C   UNL A   1      42.420  29.194  34.451  1.00  0.00     0.049 A 
ATOM     64  H   UNL A   1      40.995  29.982  33.112  1.00  0.00     0.167 HD
ATOM     65  C   UNL A   1      42.791  27.909  32.363  1.00  0.00     0.074 A 
ATOM     66  C   UNL A   1      43.514  26.950  31.554  1.00  0.00     0.031 C 
ATOM     67  C   UNL A   1      43.099  28.214  33.647  1.00  0.00     0.034 A 
BRANCH  54  68
ATOM     68  C   UNL A   1      39.643  32.653  36.154  1.00  0.00     0.023 A 
ATOM     69  C   UNL A   1      40.206  33.940  36.255  1.00  0.00     0.012 A 
ATOM     70  C   UNL A   1      38.726  32.214  37.129  1.00  0.00     0.148 A 
ATOM     71  C   UNL A   1      39.864  34.779  37.315  1.00  0.00     0.002 A 
ATOM     72  C   UNL A   1      38.370  33.066  38.167  1.00  0.00     0.091 A 
ATOM     73  F   UNL A   1      38.213  30.981  37.012  1.00  0.00    -0.205 F 
ATOM     74  C   UNL A   1      38.940  34.347  38.263  1.00  0.00     0.022 A 
BRANCH  72  75
ATOM     75  S   UNL A   1      37.149  32.631  39.410  1.00  0.00     0.127 S 
ATOM     76  O   UNL A   1      37.330  33.704  40.388  1.00  0.00    -0.237 OA
ATOM     77  O   UNL A   1      35.900  32.703  38.651  1.00  0.00    -0.237 OA
ATOM     78  O   UNL A   1      37.506  31.301  39.881  1.00  0.00    -0.744 OA
ENDBRANCH  72  75
ENDBRANCH  54  68
BRANCH  55  79
ATOM     79  C   UNL A   1      41.330  27.232  27.934  1.00  0.00     0.023 A 
ATOM     80  C   UNL A   1      41.997  27.804  26.835  1.00  0.00     0.012 A 
ATOM     81  C   UNL A   1      40.972  25.870  27.894  1.00  0.00     0.148 A 
ATOM     82  C   UNL A   1      42.300  27.033  25.713  1.00  0.00     0.002 A 
ATOM     83  C   UNL A   1      41.319  25.097  26.795  1.00  0.00     0.091 A 
ATOM     84  F   UNL A   1      40.332  25.354  28.953  1.00  0.00    -0.205 F 
ATOM     85  C   UNL A   1      41.974  25.678  25.698  1.00  0.00     0.022 A 
BRANCH  83  86
ATOM     86  S   UNL A   1      41.050  23.322  26.738  1.00  0.00     0.127 S 
ATOM     87  O   UNL A   1      39.612  23.247  26.494  1.00  0.00    -0.237 OA
ATOM     88  O   UNL A   1      41.890  22.929  25.607  1.00  0.00    -0.237 OA
ATOM     89  O   UNL A   1      41.495  22.813  28.027  1.00  0.00    -0.744 OA
ENDBRANCH  83  86
ENDBRANCH  55  79
BRANCH  67  90
ATOM     90  C   UNL A   1      44.269  27.514  34.273  1.00  0.00     0.023 A 
ATOM     91  C   UNL A   1      45.538  28.125  34.226  1.00  0.00     0.012 A 
ATOM     92  C   UNL A   1      44.089  26.333  35.019  1.00  0.00     0.148 A 
ATOM     93  C   UNL A   1      46.614  27.567  34.913  1.00  0.00     0.002 A 
ATOM     94  C   UNL A   1      45.158  25.802  35.728  1.00  0.00     0.091 A 
ATOM     95  F   UNL A   1      42.871  25.773  35.040  1.00  0.00    -0.205 F 
ATOM     96  C   UNL A   1      46.422  26.415  35.672  1.00  0.00     0.022 A 
BRANCH  94  97
ATOM     97  S   UNL A   1      44.996  24.366  36.794  1.00  0.00     0.127 S 
ATOM     98  O   UNL A   1      44.013  24.832  37.772  1.00  0.00    -0.237 OA
ATOM     99  O   UNL A   1      44.501  23.349  35.868  1.00  0.00    -0.237 OA
ATOM    100  O   UNL A   1      46.325  24.107  37.331  1.00  0.00    -0.744 OA
ENDBRANCH  94  97
ENDBRANCH  67  90
ENDBRANCH  41  42
ENDBRANCH  33  36
ENDBRANCH  31  32
ENDBRANCH   1  31
TORSDOF 16
ENDMDL
MODEL 2
REMARK VINA RESULT:     -12.8      5.773      9.785
REMARK SMILES C[C@@H]1CC[C@H](C)[N@H+]1Cc1cc2c(cc1Cl)C=C(C(=O)NCCCNC(=O)c1ccc(-c3c4nc(c(-c5cccc(S(=O)(=O)[O-])c5F)c5ccc([nH]5)c(-c5cccc(S(=O)(=O)[O-])c5F)c5nc(c(-c6cccc(S(=O)(=O)[O-])c6F)c6ccc3[nH]6)C=C5)C=C4)cc1)[C@@H](C(F)(F)F)O2
REMARK SMILES IDX 22 1 21 2 20 3 18 4 19 5 17 7 9 8 10 9 14 10 11 11 13 12
REMARK SMILES IDX 15 13 12 14 95 15 16 16 90 17 8 18 7 19 6 20 5 21 4 22 3 23
REMARK SMILES IDX 2 24 1 26 91 27 92 28 93 29 94 30 23 31 24 32 25 33 26 35
REMARK SMILES IDX 27 36 28 37 89 38 29 39 88 40 30 41 31 42 32 43 82 44 33 45
REMARK SMILES IDX 87 46 81 47 83 48 34 49 86 50 80 51 79 52 35 54 67 55 47 56
REMARK SMILES IDX 66 57 48 58 51 59 65 60 84 61 49 62 50 63 64 65 85 66 52 67
REMARK SMILES IDX 36 68 37 69 45 70 38 71 40 72 46 73 39 74 41 75 42 76 43 77
REMARK SMILES IDX 44 78 68 79 69 80 77 81 70 82 72 83 78 84 71 85 73 86 74 87
REMARK SMILES IDX 75 88 76 89 53 90 54 91 62 92 55 93 57 94 63 95 56 96 58 97
REMARK SMILES IDX 59 98 60 99 61 100
REMARK H PARENT 20 6 7 25 24 34 83 53 51 64
REMARK Flexibility Score: inf
ROOT
ATOM      1  C   UNL A   1      38.092  19.821  24.841  1.00  0.00     0.042 C 
ENDROOT
BRANCH   1   2
ATOM      2  C   UNL A   1      36.777  20.534  25.110  1.00  0.00     0.118 C 
BRANCH   2   3
ATOM      3  N   UNL A   1      35.642  19.640  24.953  1.00  0.00    -0.352 N 
ATOM      4  C   UNL A   1      34.297  19.752  24.886  1.00  0.00     0.251 C 
ATOM      5  O   UNL A   1      33.685  18.687  24.752  1.00  0.00    -0.270 OA
ATOM      6  H   UNL A   1      35.929  18.702  24.872  1.00  0.00     0.163 HD
BRANCH   4   7
ATOM      7  C   UNL A   1      33.543  21.032  24.949  1.00  0.00     0.067 C 
ATOM      8  C   UNL A   1      31.464  25.500  23.877  1.00  0.00     0.029 A 
ATOM      9  C   UNL A   1      31.156  24.457  24.771  1.00  0.00     0.058 A 
ATOM     10  C   UNL A   1      32.620  25.364  23.085  1.00  0.00     0.050 A 
ATOM     11  C   UNL A   1      31.920  23.296  24.798  1.00  0.00     0.128 A 
ATOM     12  C   UNL A   1      33.330  24.158  23.054  1.00  0.00     0.033 A 
ATOM     13  Cl  UNL A   1      33.301  26.673  22.184  1.00  0.00    -0.084 Cl
ATOM     14  C   UNL A   1      32.966  23.112  23.897  1.00  0.00     0.019 A 
ATOM     15  O   UNL A   1      31.597  22.347  25.730  1.00  0.00    -0.475 OA
ATOM     16  C   UNL A   1      33.657  21.831  23.871  1.00  0.00     0.025 C 
ATOM     17  C   UNL A   1      32.718  21.494  26.117  1.00  0.00     0.314 C 
BRANCH   8  18
ATOM     18  C   UNL A   1      30.514  26.682  23.804  1.00  0.00     0.301 C 
BRANCH  18  19
ATOM     19  N   UNL A   1      30.847  27.853  24.634  1.00  0.00    -0.327 N 
ATOM     20  C   UNL A   1      29.852  29.966  23.799  1.00  0.00     0.075 C 
ATOM     21  C   UNL A   1      31.108  29.113  23.917  1.00  0.00     0.181 C 
ATOM     22  C   UNL A   1      32.196  29.820  24.725  1.00  0.00     0.071 C 
ATOM     23  C   UNL A   1      32.980  28.666  25.309  1.00  0.00     0.071 C 
ATOM     24  C   UNL A   1      31.905  27.637  25.628  1.00  0.00     0.181 C 
ATOM     25  H   UNL A   1      29.960  27.968  25.126  1.00  0.00     0.348 HD
ATOM     26  C   UNL A   1      31.315  27.822  27.025  1.00  0.00     0.075 C 
ENDBRANCH  18  19
ENDBRANCH   8  18
BRANCH  17  27
ATOM     27  C   UNL A   1      33.581  22.193  27.192  1.00  0.00     0.429 C 
ATOM     28  F   UNL A   1      32.801  22.707  28.174  1.00  0.00    -0.167 F 
ATOM     29  F   UNL A   1      34.446  21.339  27.793  1.00  0.00    -0.167 F 
ATOM     30  F   UNL A   1      34.329  23.206  26.698  1.00  0.00    -0.167 F 
ENDBRANCH  17  27
ENDBRANCH   4   7
ENDBRANCH   2   3
ENDBRANCH   1   2
BRANCH   1  31
ATOM     31  C   UNL A   1      39.193  20.258  25.798  1.00  0.00     0.118 C 
BRANCH  31  32
ATOM     32  N   UNL A   1      40.196  19.215  25.996  1.00  0.00    -0.352 N 
ATOM     33  C   UNL A   1      41.562  19.311  26.136  1.00  0.00     0.251 C 
ATOM     34  H   UNL A   1      39.838  18.298  26.034  1.00  0.00     0.163 HD
ATOM     35  O   UNL A   1      42.255  18.307  26.049  1.00  0.00    -0.269 OA
BRANCH  33  36
ATOM     36  C   UNL A   1      42.176  20.636  26.367  1.00  0.00     0.039 A 
ATOM     37  C   UNL A   1      42.345  21.107  27.668  1.00  0.00     0.014 A 
ATOM     38  C   UNL A   1      42.556  21.424  25.279  1.00  0.00     0.014 A 
ATOM     39  C   UNL A   1      42.676  22.436  27.876  1.00  0.00     0.010 A 
ATOM     40  C   UNL A   1      43.007  22.730  25.498  1.00  0.00     0.010 A 
ATOM     41  C   UNL A   1      43.010  23.268  26.794  1.00  0.00    -0.014 A 
BRANCH  41  42
ATOM     42  C   UNL A   1      43.342  24.691  27.057  1.00  0.00     0.031 A 
ATOM     43  C   UNL A   1      42.358  25.603  27.742  1.00  0.00     0.074 A 
ATOM     44  C   UNL A   1      44.570  25.145  26.733  1.00  0.00     0.049 A 
ATOM     45  N   UNL A   1      42.498  26.862  28.067  1.00  0.00    -0.248 NA
ATOM     46  C   UNL A   1      41.046  25.039  28.107  1.00  0.00     0.031 C 
ATOM     47  C   UNL A   1      45.607  24.361  26.056  1.00  0.00     0.029 A 
ATOM     48  N   UNL A   1      45.165  26.362  26.948  1.00  0.00    -0.354 N 
ATOM     49  C   UNL A   1      41.286  27.253  28.621  1.00  0.00     0.074 A 
ATOM     50  C   UNL A   1      40.415  26.100  28.595  1.00  0.00     0.031 C 
ATOM     51  C   UNL A   1      46.725  25.094  25.963  1.00  0.00     0.029 A 
ATOM     52  C   UNL A   1      46.467  26.422  26.510  1.00  0.00     0.049 A 
ATOM     53  H   UNL A   1      44.704  27.120  27.374  1.00  0.00     0.167 HD
ATOM     54  C   UNL A   1      40.937  28.459  29.125  1.00  0.00     0.034 A 
ATOM     55  C   UNL A   1      47.356  27.432  26.530  1.00  0.00     0.034 A 
ATOM     56  C   UNL A   1      41.826  29.584  29.218  1.00  0.00     0.049 A 
ATOM     57  C   UNL A   1      46.947  28.752  27.110  1.00  0.00     0.074 A 
ATOM     58  C   UNL A   1      41.576  30.828  29.770  1.00  0.00     0.029 A 
ATOM     59  N   UNL A   1      43.134  29.600  28.762  1.00  0.00    -0.354 N 
ATOM     60  N   UNL A   1      45.818  29.077  27.689  1.00  0.00    -0.248 NA
ATOM     61  C   UNL A   1      47.928  29.843  27.044  1.00  0.00     0.031 C 
ATOM     62  C   UNL A   1      42.733  31.601  29.641  1.00  0.00     0.029 A 
ATOM     63  C   UNL A   1      43.703  30.835  29.014  1.00  0.00     0.049 A 
ATOM     64  H   UNL A   1      43.590  28.846  28.325  1.00  0.00     0.167 HD
ATOM     65  C   UNL A   1      45.951  30.408  28.060  1.00  0.00     0.074 A 
ATOM     66  C   UNL A   1      47.281  30.823  27.664  1.00  0.00     0.031 C 
ATOM     67  C   UNL A   1      45.042  31.218  28.653  1.00  0.00     0.034 A 
BRANCH  54  68
ATOM     68  C   UNL A   1      39.545  28.630  29.669  1.00  0.00     0.023 A 
ATOM     69  C   UNL A   1      39.283  28.284  31.008  1.00  0.00     0.012 A 
ATOM     70  C   UNL A   1      38.538  29.239  28.896  1.00  0.00     0.148 A 
ATOM     71  C   UNL A   1      38.033  28.537  31.572  1.00  0.00     0.002 A 
ATOM     72  C   UNL A   1      37.304  29.514  29.472  1.00  0.00     0.091 A 
ATOM     73  F   UNL A   1      38.812  29.549  27.621  1.00  0.00    -0.205 F 
ATOM     74  C   UNL A   1      37.048  29.161  30.808  1.00  0.00     0.022 A 
BRANCH  72  75
ATOM     75  S   UNL A   1      35.985  30.362  28.596  1.00  0.00     0.127 S 
ATOM     76  O   UNL A   1      35.264  31.000  29.698  1.00  0.00    -0.237 OA
ATOM     77  O   UNL A   1      36.730  31.285  27.741  1.00  0.00    -0.237 OA
ATOM     78  O   UNL A   1      35.241  29.330  27.888  1.00  0.00    -0.744 OA
ENDBRANCH  72  75
ENDBRANCH  54  68
BRANCH  55  79
ATOM     79  C   UNL A   1      48.728  27.204  26.002  1.00  0.00     0.023 A 
ATOM     80  C   UNL A   1      49.690  26.587  26.824  1.00  0.00     0.012 A 
ATOM     81  C   UNL A   1      49.054  27.512  24.667  1.00  0.00     0.148 A 
ATOM     82  C   UNL A   1      50.956  26.283  26.324  1.00  0.00     0.002 A 
ATOM     83  C   UNL A   1      50.299  27.165  24.163  1.00  0.00     0.091 A 
ATOM     84  F   UNL A   1      48.120  28.106  23.909  1.00  0.00    -0.205 F 
ATOM     85  C   UNL A   1      51.256  26.559  24.992  1.00  0.00     0.022 A 
BRANCH  83  86
ATOM     86  S   UNL A   1      50.732  27.369  22.432  1.00  0.00     0.127 S 
ATOM     87  O   UNL A   1      52.067  26.779  22.387  1.00  0.00    -0.237 OA
ATOM     88  O   UNL A   1      49.688  26.587  21.768  1.00  0.00    -0.237 OA
ATOM     89  O   UNL A   1      50.669  28.801  22.174  1.00  0.00    -0.744 OA
ENDBRANCH  83  86
ENDBRANCH  55  79
BRANCH  67  90
ATOM     90  C   UNL A   1      45.435  32.642  28.916  1.00  0.00     0.023 A 
ATOM     91  C   UNL A   1      46.186  32.943  30.068  1.00  0.00     0.012 A 
ATOM     92  C   UNL A   1      45.183  33.648  27.962  1.00  0.00     0.148 A 
ATOM     93  C   UNL A   1      46.680  34.230  30.270  1.00  0.00     0.002 A 
ATOM     94  C   UNL A   1      45.707  34.919  28.155  1.00  0.00     0.091 A 
ATOM     95  F   UNL A   1      44.460  33.330  26.879  1.00  0.00    -0.205 F 
ATOM     96  C   UNL A   1      46.452  35.212  29.310  1.00  0.00     0.022 A 
BRANCH  94  97
ATOM     97  S   UNL A   1      45.533  36.232  26.942  1.00  0.00     0.127 S 
ATOM     98  O   UNL A   1      46.270  37.323  27.579  1.00  0.00    -0.237 OA
ATOM     99  O   UNL A   1      46.188  35.655  25.769  1.00  0.00    -0.237 OA
ATOM    100  O   UNL A   1      44.102  36.459  26.793  1.00  0.00    -0.744 OA
ENDBRANCH  94  97
ENDBRANCH  67  90
ENDBRANCH  41  42
ENDBRANCH  33  36
ENDBRANCH  31  32
ENDBRANCH   1  31
TORSDOF 16
ENDMDL
MODEL 3
REMARK VINA RESULT:     -12.7      5.262     10.894
REMARK SMILES C[C@@H]1CC[C@H](C)[N@H+]1Cc1cc2c(cc1Cl)C=C(C(=O)NCCCNC(=O)c1ccc(-c3c4nc(c(-c5cccc(S(=O)(=O)[O-])c5F)c5ccc([nH]5)c(-c5cccc(S(=O)(=O)[O-])c5F)c5nc(c(-c6cccc(S(=O)(=O)[O-])c6F)c6ccc3[nH]6)C=C5)C=C4)cc1)[C@@H](C(F)(F)F)O2
REMARK SMILES IDX 22 1 21 2 20 3 18 4 19 5 17 7 9 8 10 9 14 10 11 11 13 12
REMARK SMILES IDX 15 13 12 14 95 15 16 16 90 17 8 18 7 19 6 20 5 21 4 22 3 23
REMARK SMILES IDX 2 24 1 26 91 27 92 28 93 29 94 30 23 31 24 32 25 33 26 35
REMARK SMILES IDX 27 36 28 37 89 38 29 39 88 40 30 41 31 42 32 43 82 44 33 45
REMARK SMILES IDX 87 46 81 47 83 48 34 49 86 50 80 51 79 52 35 54 67 55 47 56
REMARK SMILES IDX 66 57 48 58 51 59 65 60 84 61 49 62 50 63 64 65 85 66 52 67
REMARK SMILES IDX 36 68 37 69 45 70 38 71 40 72 46 73 39 74 41 75 42 76 43 77
REMARK SMILES IDX 44 78 68 79 69 80 77 81 70 82 72 83 78 84 71 85 73 86 74 87
REMARK SMILES IDX 75 88 76 89 53 90 54 91 62 92 55 93 57 94 63 95 56 96 58 97
REMARK SMILES IDX 59 98 60 99 61 100
REMARK H PARENT 20 6 7 25 24 34 83 53 51 64
REMARK Flexibility Score: inf
ROOT
ATOM      1  C   UNL A   1      36.610  20.355  24.855  1.00  0.00     0.042 C 
ENDROOT
BRANCH   1   2
ATOM      2  C   UNL A   1      35.403  21.278  24.826  1.00  0.00     0.118 C 
BRANCH   2   3
ATOM      3  N   UNL A   1      35.042  21.727  26.161  1.00  0.00    -0.352 N 
ATOM      4  C   UNL A   1      34.283  22.704  26.704  1.00  0.00     0.251 C 
ATOM      5  O   UNL A   1      34.261  22.731  27.939  1.00  0.00    -0.270 OA
ATOM      6  H   UNL A   1      35.461  21.169  26.856  1.00  0.00     0.163 HD
BRANCH   4   7
ATOM      7  C   UNL A   1      33.494  23.700  25.931  1.00  0.00     0.067 C 
ATOM      8  C   UNL A   1      31.776  27.937  23.805  1.00  0.00     0.029 A 
ATOM      9  C   UNL A   1      31.672  26.567  23.498  1.00  0.00     0.058 A 
ATOM     10  C   UNL A   1      32.472  28.297  24.973  1.00  0.00     0.050 A 
ATOM     11  C   UNL A   1      32.318  25.615  24.278  1.00  0.00     0.128 A 
ATOM     12  C   UNL A   1      33.192  27.341  25.701  1.00  0.00     0.033 A 
ATOM     13  Cl  UNL A   1      32.418  29.888  25.649  1.00  0.00    -0.084 Cl
ATOM     14  C   UNL A   1      33.133  25.999  25.339  1.00  0.00     0.019 A 
ATOM     15  O   UNL A   1      32.128  24.298  23.955  1.00  0.00    -0.475 OA
ATOM     16  C   UNL A   1      33.894  24.980  26.049  1.00  0.00     0.025 C 
ATOM     17  C   UNL A   1      32.294  23.384  25.082  1.00  0.00     0.314 C 
BRANCH   8  18
ATOM     18  C   UNL A   1      31.159  28.933  22.839  1.00  0.00     0.301 C 
BRANCH  18  19
ATOM     19  N   UNL A   1      29.780  29.368  23.125  1.00  0.00    -0.327 N 
ATOM     20  C   UNL A   1      28.259  27.498  23.706  1.00  0.00     0.075 C 
ATOM     21  C   UNL A   1      28.701  28.491  22.640  1.00  0.00     0.181 C 
ATOM     22  C   UNL A   1      27.565  29.431  22.238  1.00  0.00     0.071 C 
ATOM     23  C   UNL A   1      28.302  30.672  21.788  1.00  0.00     0.071 C 
ATOM     24  C   UNL A   1      29.472  30.756  22.759  1.00  0.00     0.181 C 
ATOM     25  H   UNL A   1      29.788  29.296  24.142  1.00  0.00     0.348 HD
ATOM     26  C   UNL A   1      29.124  31.534  24.027  1.00  0.00     0.075 C 
ENDBRANCH  18  19
ENDBRANCH   8  18
BRANCH  17  27
ATOM     27  C   UNL A   1      30.997  23.319  25.920  1.00  0.00     0.429 C 
ATOM     28  F   UNL A   1      30.000  24.008  25.314  1.00  0.00    -0.167 F 
ATOM     29  F   UNL A   1      30.549  22.049  26.079  1.00  0.00    -0.167 F 
ATOM     30  F   UNL A   1      31.141  23.830  27.164  1.00  0.00    -0.167 F 
ENDBRANCH  17  27
ENDBRANCH   4   7
ENDBRANCH   2   3
ENDBRANCH   1   2
BRANCH   1  31
ATOM     31  C   UNL A   1      37.875  21.073  25.307  1.00  0.00     0.118 C 
BRANCH  31  32
ATOM     32  N   UNL A   1      38.905  20.141  25.758  1.00  0.00    -0.352 N 
ATOM     33  C   UNL A   1      40.127  20.383  26.346  1.00  0.00     0.251 C 
ATOM     34  H   UNL A   1      38.693  19.189  25.619  1.00  0.00     0.163 HD
ATOM     35  O   UNL A   1      40.951  19.483  26.429  1.00  0.00    -0.269 OA
BRANCH  33  36
ATOM     36  C   UNL A   1      40.433  21.739  26.849  1.00  0.00     0.039 A 
ATOM     37  C   UNL A   1      39.945  22.857  26.176  1.00  0.00     0.014 A 
ATOM     38  C   UNL A   1      41.238  21.894  27.980  1.00  0.00     0.014 A 
ATOM     39  C   UNL A   1      40.437  24.113  26.491  1.00  0.00     0.010 A 
ATOM     40  C   UNL A   1      41.637  23.177  28.370  1.00  0.00     0.010 A 
ATOM     41  C   UNL A   1      41.293  24.291  27.591  1.00  0.00    -0.014 A 
BRANCH  41  42
ATOM     42  C   UNL A   1      41.813  25.651  27.885  1.00  0.00     0.031 A 
ATOM     43  C   UNL A   1      43.155  26.096  27.365  1.00  0.00     0.074 A 
ATOM     44  C   UNL A   1      41.036  26.513  28.572  1.00  0.00     0.049 A 
ATOM     45  N   UNL A   1      43.745  27.254  27.510  1.00  0.00    -0.248 NA
ATOM     46  C   UNL A   1      43.942  25.122  26.586  1.00  0.00     0.031 C 
ATOM     47  C   UNL A   1      39.722  26.195  29.138  1.00  0.00     0.029 A 
ATOM     48  N   UNL A   1      41.223  27.833  28.893  1.00  0.00    -0.354 N 
ATOM     49  C   UNL A   1      44.984  27.133  26.893  1.00  0.00     0.074 A 
ATOM     50  C   UNL A   1      45.068  25.790  26.366  1.00  0.00     0.031 C 
ATOM     51  C   UNL A   1      39.197  27.301  29.683  1.00  0.00     0.029 A 
ATOM     52  C   UNL A   1      40.162  28.389  29.568  1.00  0.00     0.049 A 
ATOM     53  H   UNL A   1      42.037  28.335  28.662  1.00  0.00     0.167 HD
ATOM     54  C   UNL A   1      45.957  28.065  26.760  1.00  0.00     0.034 A 
ATOM     55  C   UNL A   1      39.985  29.631  30.058  1.00  0.00     0.034 A 
ATOM     56  C   UNL A   1      45.844  29.421  27.219  1.00  0.00     0.049 A 
ATOM     57  C   UNL A   1      41.072  30.647  29.881  1.00  0.00     0.074 A 
ATOM     58  C   UNL A   1      46.757  30.452  27.075  1.00  0.00     0.029 A 
ATOM     59  N   UNL A   1      44.754  29.940  27.899  1.00  0.00    -0.354 N 
ATOM     60  N   UNL A   1      42.206  30.528  29.235  1.00  0.00    -0.248 NA
ATOM     61  C   UNL A   1      40.860  31.965  30.494  1.00  0.00     0.031 C 
ATOM     62  C   UNL A   1      46.220  31.594  27.674  1.00  0.00     0.029 A 
ATOM     63  C   UNL A   1      44.973  31.275  28.186  1.00  0.00     0.049 A 
ATOM     64  H   UNL A   1      43.946  29.435  28.141  1.00  0.00     0.167 HD
ATOM     65  C   UNL A   1      42.843  31.755  29.360  1.00  0.00     0.074 A 
ATOM     66  C   UNL A   1      41.957  32.612  30.121  1.00  0.00     0.031 C 
ATOM     67  C   UNL A   1      44.064  32.126  28.906  1.00  0.00     0.034 A 
BRANCH  54  68
ATOM     68  C   UNL A   1      47.222  27.679  26.045  1.00  0.00     0.023 A 
ATOM     69  C   UNL A   1      48.237  27.010  26.755  1.00  0.00     0.012 A 
ATOM     70  C   UNL A   1      47.353  27.870  24.656  1.00  0.00     0.148 A 
ATOM     71  C   UNL A   1      49.371  26.540  26.093  1.00  0.00     0.002 A 
ATOM     72  C   UNL A   1      48.472  27.375  23.998  1.00  0.00     0.091 A 
ATOM     73  F   UNL A   1      46.376  28.519  24.006  1.00  0.00    -0.205 F 
ATOM     74  C   UNL A   1      49.483  26.713  24.715  1.00  0.00     0.022 A 
BRANCH  72  75
ATOM     75  S   UNL A   1      48.692  27.494  22.219  1.00  0.00     0.127 S 
ATOM     76  O   UNL A   1      48.816  26.086  21.844  1.00  0.00    -0.237 OA
ATOM     77  O   UNL A   1      47.443  28.130  21.799  1.00  0.00    -0.237 OA
ATOM     78  O   UNL A   1      49.890  28.296  22.012  1.00  0.00    -0.744 OA
ENDBRANCH  72  75
ENDBRANCH  54  68
BRANCH  55  79
ATOM     79  C   UNL A   1      38.704  29.969  30.735  1.00  0.00     0.023 A 
ATOM     80  C   UNL A   1      38.517  29.603  32.080  1.00  0.00     0.012 A 
ATOM     81  C   UNL A   1      37.713  30.726  30.079  1.00  0.00     0.148 A 
ATOM     82  C   UNL A   1      37.361  29.984  32.763  1.00  0.00     0.002 A 
ATOM     83  C   UNL A   1      36.588  31.142  30.777  1.00  0.00     0.091 A 
ATOM     84  F   UNL A   1      37.915  31.054  28.795  1.00  0.00    -0.205 F 
ATOM     85  C   UNL A   1      36.405  30.764  32.116  1.00  0.00     0.022 A 
BRANCH  83  86
ATOM     86  S   UNL A   1      35.364  32.247  30.066  1.00  0.00     0.127 S 
ATOM     87  O   UNL A   1      34.411  32.382  31.164  1.00  0.00    -0.237 OA
ATOM     88  O   UNL A   1      36.164  33.441  29.791  1.00  0.00    -0.237 OA
ATOM     89  O   UNL A   1      34.862  31.571  28.878  1.00  0.00    -0.744 OA
ENDBRANCH  83  86
ENDBRANCH  55  79
BRANCH  67  90
ATOM     90  C   UNL A   1      44.534  33.518  29.212  1.00  0.00     0.023 A 
ATOM     91  C   UNL A   1      45.373  33.727  30.324  1.00  0.00     0.012 A 
ATOM     92  C   UNL A   1      44.261  34.582  28.331  1.00  0.00     0.148 A 
ATOM     93  C   UNL A   1      45.934  34.981  30.556  1.00  0.00     0.002 A 
ATOM     94  C   UNL A   1      44.850  35.820  28.551  1.00  0.00     0.091 A 
ATOM     95  F   UNL A   1      43.454  34.351  27.285  1.00  0.00    -0.205 F 
ATOM     96  C   UNL A   1      45.683  36.022  29.665  1.00  0.00     0.022 A 
BRANCH  94  97
ATOM     97  S   UNL A   1      44.651  37.202  27.421  1.00  0.00     0.127 S 
ATOM     98  O   UNL A   1      43.349  36.911  26.823  1.00  0.00    -0.237 OA
ATOM     99  O   UNL A   1      44.663  38.346  28.331  1.00  0.00    -0.237 OA
ATOM    100  O   UNL A   1      45.780  37.140  26.503  1.00  0.00    -0.744 OA
ENDBRANCH  94  97
ENDBRANCH  67  90
ENDBRANCH  41  42
ENDBRANCH  33  36
ENDBRANCH  31  32
ENDBRANCH   1  31
TORSDOF 16
ENDMDL
