MODEL 1
REMARK VINA RESULT:     -12.7      0.000      0.000
REMARK SMILES Cc1ccc(F)cc1NS(=O)(=O)c1ccc(C(=O)NCCCNC(=O)c2ccc(-c3c4nc(c(-c5cccc(S(=O)(=O)[O-])c5F)c5ccc([nH]5)c(-c5cccc(S(=O)(=O)[O-])c5F)c5nc(c(-c6cccc(S(=O)(=O)[O-])c6F)c6ccc3[nH]6)C=C5)C=C4)cc2)cc1
REMARK SMILES IDX 21 1 20 2 19 3 17 4 18 5 16 7 13 8 14 9 90 10 15 11 89 12
REMARK SMILES IDX 10 13 11 14 12 15 9 16 8 18 1 19 2 20 3 21 4 22 7 23 5 24
REMARK SMILES IDX 6 25 22 26 23 27 24 28 25 30 26 31 27 32 88 33 28 34 87 35
REMARK SMILES IDX 29 36 30 37 31 38 81 39 32 40 86 41 80 42 82 43 33 44 85 45
REMARK SMILES IDX 79 46 78 47 34 49 66 50 46 51 65 52 47 53 50 54 64 55 83 56
REMARK SMILES IDX 48 57 49 58 63 60 84 61 51 62 35 63 36 64 44 65 37 66 39 67
REMARK SMILES IDX 45 68 38 69 40 70 41 71 42 72 43 73 67 74 68 75 76 76 69 77
REMARK SMILES IDX 71 78 77 79 70 80 72 81 73 82 74 83 75 84 52 85 53 86 61 87
REMARK SMILES IDX 54 88 56 89 62 90 55 91 57 92 58 93 59 94 60 95
REMARK H PARENT 19 6 9 17 23 29 82 48 50 59
REMARK Flexibility Score: inf
ROOT
ATOM      1  C   UNL A   1      34.996  22.306  27.203  1.00  0.00     0.042 C 
ENDROOT
BRANCH   1   2
ATOM      2  C   UNL A   1      33.514  22.603  27.004  1.00  0.00     0.118 C 
BRANCH   2   3
ATOM      3  N   UNL A   1      32.776  21.449  26.523  1.00  0.00    -0.352 N 
ATOM      4  C   UNL A   1      32.266  21.214  25.274  1.00  0.00     0.251 C 
ATOM      5  O   UNL A   1      31.876  20.091  24.968  1.00  0.00    -0.269 OA
ATOM      6  H   UNL A   1      32.621  20.737  27.186  1.00  0.00     0.163 HD
BRANCH   4   7
ATOM      7  C   UNL A   1      32.198  22.299  24.273  1.00  0.00     0.039 A 
ATOM      8  C   UNL A   1      32.187  24.537  22.619  1.00  0.00     0.087 A 
ATOM      9  C   UNL A   1      31.154  24.363  23.548  1.00  0.00     0.023 A 
ATOM     10  C   UNL A   1      33.187  23.567  22.468  1.00  0.00     0.023 A 
ATOM     11  C   UNL A   1      31.177  23.250  24.393  1.00  0.00     0.015 A 
ATOM     12  C   UNL A   1      33.194  22.448  23.302  1.00  0.00     0.015 A 
BRANCH   8  13
ATOM     13  S   UNL A   1      32.422  26.101  21.802  1.00  0.00     0.261 S 
ATOM     14  O   UNL A   1      31.118  26.728  21.733  1.00  0.00    -0.201 OA
ATOM     15  O   UNL A   1      33.219  25.874  20.619  1.00  0.00    -0.201 OA
BRANCH  13  16
ATOM     16  N   UNL A   1      33.319  27.041  22.851  1.00  0.00    -0.279 N 
ATOM     17  H   UNL A   1      34.243  27.240  22.574  1.00  0.00     0.180 HD
BRANCH  16  18
ATOM     18  C   UNL A   1      32.903  27.588  24.104  1.00  0.00     0.055 A 
ATOM     19  C   UNL A   1      34.207  25.754  25.328  1.00  0.00     0.046 C 
ATOM     20  C   UNL A   1      33.489  27.076  25.280  1.00  0.00    -0.027 A 
ATOM     21  C   UNL A   1      33.401  27.812  26.477  1.00  0.00     0.008 A 
ATOM     22  C   UNL A   1      32.691  29.007  26.523  1.00  0.00     0.039 A 
ATOM     23  C   UNL A   1      32.096  28.724  24.196  1.00  0.00     0.066 A 
ATOM     24  C   UNL A   1      32.016  29.432  25.392  1.00  0.00     0.125 A 
ATOM     25  F   UNL A   1      31.308  30.567  25.437  1.00  0.00    -0.207 F 
ENDBRANCH  16  18
ENDBRANCH  13  16
ENDBRANCH   8  13
ENDBRANCH   4   7
ENDBRANCH   2   3
ENDBRANCH   1   2
BRANCH   1  26
ATOM     26  C   UNL A   1      35.819  22.345  25.919  1.00  0.00     0.118 C 
BRANCH  26  27
ATOM     27  N   UNL A   1      36.787  21.260  25.854  1.00  0.00    -0.352 N 
ATOM     28  C   UNL A   1      38.157  21.296  25.873  1.00  0.00     0.251 C 
ATOM     29  H   UNL A   1      36.397  20.359  25.784  1.00  0.00     0.163 HD
ATOM     30  O   UNL A   1      38.783  20.277  25.589  1.00  0.00    -0.269 OA
BRANCH  28  31
ATOM     31  C   UNL A   1      38.887  22.534  26.232  1.00  0.00     0.039 A 
ATOM     32  C   UNL A   1      40.005  22.434  27.065  1.00  0.00     0.014 A 
ATOM     33  C   UNL A   1      38.436  23.793  25.821  1.00  0.00     0.014 A 
ATOM     34  C   UNL A   1      40.681  23.588  27.469  1.00  0.00     0.010 A 
ATOM     35  C   UNL A   1      39.150  24.938  26.171  1.00  0.00     0.010 A 
ATOM     36  C   UNL A   1      40.264  24.849  27.018  1.00  0.00    -0.014 A 
BRANCH  36  37
ATOM     37  C   UNL A   1      40.958  26.086  27.458  1.00  0.00     0.031 A 
ATOM     38  C   UNL A   1      42.390  26.331  27.063  1.00  0.00     0.074 A 
ATOM     39  C   UNL A   1      40.321  26.960  28.261  1.00  0.00     0.049 A 
ATOM     40  N   UNL A   1      43.166  27.341  27.360  1.00  0.00    -0.248 NA
ATOM     41  C   UNL A   1      43.045  25.292  26.251  1.00  0.00     0.031 C 
ATOM     42  C   UNL A   1      38.962  26.793  28.781  1.00  0.00     0.029 A 
ATOM     43  N   UNL A   1      40.738  28.152  28.797  1.00  0.00    -0.354 N 
ATOM     44  C   UNL A   1      44.406  27.044  26.806  1.00  0.00     0.074 A 
ATOM     45  C   UNL A   1      44.290  25.744  26.181  1.00  0.00     0.031 C 
ATOM     46  C   UNL A   1      38.657  27.846  29.558  1.00  0.00     0.029 A 
ATOM     47  C   UNL A   1      39.799  28.756  29.597  1.00  0.00     0.049 A 
ATOM     48  H   UNL A   1      41.628  28.537  28.625  1.00  0.00     0.167 HD
ATOM     49  C   UNL A   1      45.531  27.798  26.787  1.00  0.00     0.034 A 
ATOM     50  C   UNL A   1      39.847  29.920  30.275  1.00  0.00     0.034 A 
ATOM     51  C   UNL A   1      45.624  29.118  27.351  1.00  0.00     0.049 A 
ATOM     52  C   UNL A   1      41.073  30.783  30.156  1.00  0.00     0.074 A 
ATOM     53  C   UNL A   1      46.691  29.998  27.314  1.00  0.00     0.029 A 
ATOM     54  N   UNL A   1      44.606  29.751  28.047  1.00  0.00    -0.354 N 
ATOM     55  N   UNL A   1      42.181  30.556  29.490  1.00  0.00    -0.248 NA
ATOM     56  C   UNL A   1      41.040  32.084  30.840  1.00  0.00     0.031 C 
ATOM     57  C   UNL A   1      46.315  31.167  27.985  1.00  0.00     0.029 A 
ATOM     58  C   UNL A   1      45.014  31.015  28.437  1.00  0.00     0.049 A 
ATOM     59  H   UNL A   1      43.724  29.359  28.236  1.00  0.00     0.167 HD
ATOM     60  C   UNL A   1      42.958  31.698  29.644  1.00  0.00     0.074 A 
ATOM     61  C   UNL A   1      42.187  32.624  30.448  1.00  0.00     0.031 C 
ATOM     62  C   UNL A   1      44.207  31.949  29.177  1.00  0.00     0.034 A 
BRANCH  49  63
ATOM     63  C   UNL A   1      46.730  27.243  26.063  1.00  0.00     0.023 A 
ATOM     64  C   UNL A   1      47.519  26.261  26.695  1.00  0.00     0.012 A 
ATOM     65  C   UNL A   1      47.050  27.651  24.754  1.00  0.00     0.148 A 
ATOM     66  C   UNL A   1      48.629  25.716  26.049  1.00  0.00     0.002 A 
ATOM     67  C   UNL A   1      48.136  27.074  24.102  1.00  0.00     0.091 A 
ATOM     68  F   UNL A   1      46.305  28.604  24.178  1.00  0.00    -0.205 F 
ATOM     69  C   UNL A   1      48.930  26.115  24.751  1.00  0.00     0.022 A 
BRANCH  67  70
ATOM     70  S   UNL A   1      48.560  27.473  22.401  1.00  0.00     0.127 S 
ATOM     71  O   UNL A   1      47.413  28.280  21.991  1.00  0.00    -0.237 OA
ATOM     72  O   UNL A   1      49.807  28.223  22.559  1.00  0.00    -0.237 OA
ATOM     73  O   UNL A   1      48.709  26.195  21.719  1.00  0.00    -0.744 OA
ENDBRANCH  67  70
ENDBRANCH  49  63
BRANCH  50  74
ATOM     74  C   UNL A   1      38.650  30.384  31.033  1.00  0.00     0.023 A 
ATOM     75  C   UNL A   1      38.572  30.125  32.415  1.00  0.00     0.012 A 
ATOM     76  C   UNL A   1      37.622  31.116  30.411  1.00  0.00     0.148 A 
ATOM     77  C   UNL A   1      37.477  30.562  33.159  1.00  0.00     0.002 A 
ATOM     78  C   UNL A   1      36.557  31.592  31.170  1.00  0.00     0.091 A 
ATOM     79  F   UNL A   1      37.705  31.339  29.092  1.00  0.00    -0.205 F 
ATOM     80  C   UNL A   1      36.475  31.304  32.541  1.00  0.00     0.022 A 
BRANCH  78  81
ATOM     81  S   UNL A   1      35.298  32.668  30.473  1.00  0.00     0.127 S 
ATOM     82  O   UNL A   1      34.809  31.872  29.352  1.00  0.00    -0.237 OA
ATOM     83  O   UNL A   1      34.358  32.806  31.587  1.00  0.00    -0.237 OA
ATOM     84  O   UNL A   1      35.995  33.901  30.129  1.00  0.00    -0.744 OA
ENDBRANCH  78  81
ENDBRANCH  50  74
BRANCH  62  85
ATOM     85  C   UNL A   1      44.811  33.290  29.497  1.00  0.00     0.023 A 
ATOM     86  C   UNL A   1      45.570  33.447  30.671  1.00  0.00     0.012 A 
ATOM     87  C   UNL A   1      44.687  34.370  28.602  1.00  0.00     0.148 A 
ATOM     88  C   UNL A   1      46.174  34.670  30.966  1.00  0.00     0.002 A 
ATOM     89  C   UNL A   1      45.325  35.573  28.883  1.00  0.00     0.091 A 
ATOM     90  F   UNL A   1      43.940  34.211  27.499  1.00  0.00    -0.205 F 
ATOM     91  C   UNL A   1      46.061  35.727  30.068  1.00  0.00     0.022 A 
BRANCH  89  92
ATOM     92  S   UNL A   1      45.295  36.948  27.726  1.00  0.00     0.127 S 
ATOM     93  O   UNL A   1      45.702  36.303  26.481  1.00  0.00    -0.237 OA
ATOM     94  O   UNL A   1      43.893  37.368  27.765  1.00  0.00    -0.237 OA
ATOM     95  O   UNL A   1      46.225  37.930  28.267  1.00  0.00    -0.744 OA
ENDBRANCH  89  92
ENDBRANCH  62  85
ENDBRANCH  36  37
ENDBRANCH  28  31
ENDBRANCH  26  27
ENDBRANCH   1  26
TORSDOF 16
ENDMDL
MODEL 2
REMARK VINA RESULT:     -12.6      5.388     10.353
REMARK SMILES Cc1ccc(F)cc1NS(=O)(=O)c1ccc(C(=O)NCCCNC(=O)c2ccc(-c3c4nc(c(-c5cccc(S(=O)(=O)[O-])c5F)c5ccc([nH]5)c(-c5cccc(S(=O)(=O)[O-])c5F)c5nc(c(-c6cccc(S(=O)(=O)[O-])c6F)c6ccc3[nH]6)C=C5)C=C4)cc2)cc1
REMARK SMILES IDX 21 1 20 2 19 3 17 4 18 5 16 7 13 8 14 9 90 10 15 11 89 12
REMARK SMILES IDX 10 13 11 14 12 15 9 16 8 18 1 19 2 20 3 21 4 22 7 23 5 24
REMARK SMILES IDX 6 25 22 26 23 27 24 28 25 30 26 31 27 32 88 33 28 34 87 35
REMARK SMILES IDX 29 36 30 37 31 38 81 39 32 40 86 41 80 42 82 43 33 44 85 45
REMARK SMILES IDX 79 46 78 47 34 49 66 50 46 51 65 52 47 53 50 54 64 55 83 56
REMARK SMILES IDX 48 57 49 58 63 60 84 61 51 62 35 63 36 64 44 65 37 66 39 67
REMARK SMILES IDX 45 68 38 69 40 70 41 71 42 72 43 73 67 74 68 75 76 76 69 77
REMARK SMILES IDX 71 78 77 79 70 80 72 81 73 82 74 83 75 84 52 85 53 86 61 87
REMARK SMILES IDX 54 88 56 89 62 90 55 91 57 92 58 93 59 94 60 95
REMARK H PARENT 19 6 9 17 23 29 82 48 50 59
REMARK Flexibility Score: inf
ROOT
ATOM      1  C   UNL A   1      31.510  28.885  26.085  1.00  0.00     0.042 C 
ENDROOT
BRANCH   1   2
ATOM      2  C   UNL A   1      31.306  27.772  25.063  1.00  0.00     0.118 C 
BRANCH   2   3
ATOM      3  N   UNL A   1      32.323  27.777  24.026  1.00  0.00    -0.352 N 
ATOM      4  C   UNL A   1      33.091  26.739  23.570  1.00  0.00     0.251 C 
ATOM      5  O   UNL A   1      33.734  26.856  22.531  1.00  0.00    -0.269 OA
ATOM      6  H   UNL A   1      32.482  28.646  23.591  1.00  0.00     0.163 HD
BRANCH   4   7
ATOM      7  C   UNL A   1      33.140  25.459  24.308  1.00  0.00     0.039 A 
ATOM      8  C   UNL A   1      33.413  22.937  25.452  1.00  0.00     0.087 A 
ATOM      9  C   UNL A   1      32.478  23.130  24.428  1.00  0.00     0.023 A 
ATOM     10  C   UNL A   1      34.163  24.010  25.950  1.00  0.00     0.023 A 
ATOM     11  C   UNL A   1      32.362  24.392  23.840  1.00  0.00     0.015 A 
ATOM     12  C   UNL A   1      34.029  25.272  25.372  1.00  0.00     0.015 A 
BRANCH   8  13
ATOM     13  S   UNL A   1      33.878  21.296  25.961  1.00  0.00     0.261 S 
ATOM     14  O   UNL A   1      33.955  21.321  27.408  1.00  0.00    -0.201 OA
ATOM     15  O   UNL A   1      34.995  20.874  25.150  1.00  0.00    -0.201 OA
BRANCH  13  16
ATOM     16  N   UNL A   1      32.580  20.312  25.597  1.00  0.00    -0.279 N 
ATOM     17  H   UNL A   1      31.688  20.668  25.818  1.00  0.00     0.180 HD
BRANCH  16  18
ATOM     18  C   UNL A   1      32.611  19.012  25.003  1.00  0.00     0.055 A 
ATOM     19  C   UNL A   1      32.152  20.057  22.709  1.00  0.00     0.046 C 
ATOM     20  C   UNL A   1      32.593  18.923  23.595  1.00  0.00    -0.027 A 
ATOM     21  C   UNL A   1      32.992  17.727  22.970  1.00  0.00     0.008 A 
ATOM     22  C   UNL A   1      33.343  16.614  23.727  1.00  0.00     0.039 A 
ATOM     23  C   UNL A   1      32.850  17.853  25.745  1.00  0.00     0.066 A 
ATOM     24  C   UNL A   1      33.233  16.678  25.106  1.00  0.00     0.125 A 
ATOM     25  F   UNL A   1      33.544  15.603  25.839  1.00  0.00    -0.207 F 
ENDBRANCH  16  18
ENDBRANCH  13  16
ENDBRANCH   8  13
ENDBRANCH   4   7
ENDBRANCH   2   3
ENDBRANCH   1   2
BRANCH   1  26
ATOM     26  C   UNL A   1      32.759  29.729  25.848  1.00  0.00     0.118 C 
BRANCH  26  27
ATOM     27  N   UNL A   1      32.557  31.123  26.210  1.00  0.00    -0.352 N 
ATOM     28  C   UNL A   1      33.203  31.897  27.140  1.00  0.00     0.251 C 
ATOM     29  H   UNL A   1      31.844  31.583  25.711  1.00  0.00     0.163 HD
ATOM     30  O   UNL A   1      32.728  32.992  27.436  1.00  0.00    -0.269 OA
BRANCH  28  31
ATOM     31  C   UNL A   1      34.456  31.439  27.782  1.00  0.00     0.039 A 
ATOM     32  C   UNL A   1      34.525  30.123  28.251  1.00  0.00     0.014 A 
ATOM     33  C   UNL A   1      35.529  32.310  27.996  1.00  0.00     0.014 A 
ATOM     34  C   UNL A   1      35.671  29.676  28.912  1.00  0.00     0.010 A 
ATOM     35  C   UNL A   1      36.697  31.845  28.598  1.00  0.00     0.010 A 
ATOM     36  C   UNL A   1      36.770  30.532  29.085  1.00  0.00    -0.014 A 
BRANCH  36  37
ATOM     37  C   UNL A   1      37.986  30.079  29.807  1.00  0.00     0.031 A 
ATOM     38  C   UNL A   1      38.264  30.570  31.203  1.00  0.00     0.074 A 
ATOM     39  C   UNL A   1      38.869  29.273  29.188  1.00  0.00     0.049 A 
ATOM     40  N   UNL A   1      39.274  30.299  31.987  1.00  0.00    -0.248 NA
ATOM     41  C   UNL A   1      37.293  31.512  31.785  1.00  0.00     0.031 C 
ATOM     42  C   UNL A   1      38.755  28.797  27.808  1.00  0.00     0.029 A 
ATOM     43  N   UNL A   1      40.049  28.729  29.630  1.00  0.00    -0.354 N 
ATOM     44  C   UNL A   1      39.083  31.061  33.134  1.00  0.00     0.074 A 
ATOM     45  C   UNL A   1      37.875  31.831  32.932  1.00  0.00     0.031 C 
ATOM     46  C   UNL A   1      39.819  28.029  27.519  1.00  0.00     0.029 A 
ATOM     47  C   UNL A   1      40.692  27.965  28.687  1.00  0.00     0.049 A 
ATOM     48  H   UNL A   1      40.400  28.874  30.539  1.00  0.00     0.167 HD
ATOM     49  C   UNL A   1      39.823  31.092  34.267  1.00  0.00     0.034 A 
ATOM     50  C   UNL A   1      41.849  27.278  28.760  1.00  0.00     0.034 A 
ATOM     51  C   UNL A   1      40.987  30.277  34.491  1.00  0.00     0.049 A 
ATOM     52  C   UNL A   1      42.601  27.252  30.064  1.00  0.00     0.074 A 
ATOM     53  C   UNL A   1      41.760  30.172  35.633  1.00  0.00     0.029 A 
ATOM     54  N   UNL A   1      41.537  29.417  33.554  1.00  0.00    -0.354 N 
ATOM     55  N   UNL A   1      42.314  27.854  31.194  1.00  0.00    -0.248 NA
ATOM     56  C   UNL A   1      43.808  26.415  30.119  1.00  0.00     0.031 C 
ATOM     57  C   UNL A   1      42.777  29.243  35.388  1.00  0.00     0.029 A 
ATOM     58  C   UNL A   1      42.635  28.769  34.094  1.00  0.00     0.049 A 
ATOM     59  H   UNL A   1      41.198  29.286  32.640  1.00  0.00     0.167 HD
ATOM     60  C   UNL A   1      43.281  27.440  32.102  1.00  0.00     0.074 A 
ATOM     61  C   UNL A   1      44.149  26.519  31.397  1.00  0.00     0.031 C 
ATOM     62  C   UNL A   1      43.446  27.803  33.399  1.00  0.00     0.034 A 
BRANCH  49  63
ATOM     63  C   UNL A   1      39.350  31.985  35.385  1.00  0.00     0.023 A 
ATOM     64  C   UNL A   1      38.416  31.483  36.315  1.00  0.00     0.012 A 
ATOM     65  C   UNL A   1      39.854  33.289  35.547  1.00  0.00     0.148 A 
ATOM     66  C   UNL A   1      37.966  32.276  37.369  1.00  0.00     0.002 A 
ATOM     67  C   UNL A   1      39.430  34.060  36.625  1.00  0.00     0.091 A 
ATOM     68  F   UNL A   1      40.722  33.759  34.640  1.00  0.00    -0.205 F 
ATOM     69  C   UNL A   1      38.480  33.560  37.530  1.00  0.00     0.022 A 
BRANCH  67  70
ATOM     70  S   UNL A   1      40.089  35.700  36.954  1.00  0.00     0.127 S 
ATOM     71  O   UNL A   1      41.525  35.437  37.008  1.00  0.00    -0.237 OA
ATOM     72  O   UNL A   1      39.652  36.453  35.777  1.00  0.00    -0.237 OA
ATOM     73  O   UNL A   1      39.477  36.129  38.204  1.00  0.00    -0.744 OA
ENDBRANCH  67  70
ENDBRANCH  49  63
BRANCH  50  74
ATOM     74  C   UNL A   1      42.303  26.468  27.595  1.00  0.00     0.023 A 
ATOM     75  C   UNL A   1      43.156  27.058  26.641  1.00  0.00     0.012 A 
ATOM     76  C   UNL A   1      41.941  25.116  27.450  1.00  0.00     0.148 A 
ATOM     77  C   UNL A   1      43.617  26.325  25.549  1.00  0.00     0.002 A 
ATOM     78  C   UNL A   1      42.445  24.376  26.385  1.00  0.00     0.091 A 
ATOM     79  F   UNL A   1      41.116  24.576  28.358  1.00  0.00    -0.205 F 
ATOM     80  C   UNL A   1      43.271  24.982  25.426  1.00  0.00     0.022 A 
BRANCH  78  81
ATOM     81  S   UNL A   1      42.154  22.610  26.231  1.00  0.00     0.127 S 
ATOM     82  O   UNL A   1      42.729  22.101  27.472  1.00  0.00    -0.237 OA
ATOM     83  O   UNL A   1      40.694  22.542  26.154  1.00  0.00    -0.237 OA
ATOM     84  O   UNL A   1      42.832  22.215  25.002  1.00  0.00    -0.744 OA
ENDBRANCH  78  81
ENDBRANCH  50  74
BRANCH  62  85
ATOM     85  C   UNL A   1      44.592  27.185  34.153  1.00  0.00     0.023 A 
ATOM     86  C   UNL A   1      45.852  27.813  34.140  1.00  0.00     0.012 A 
ATOM     87  C   UNL A   1      44.404  26.025  34.929  1.00  0.00     0.148 A 
ATOM     88  C   UNL A   1      46.916  27.279  34.866  1.00  0.00     0.002 A 
ATOM     89  C   UNL A   1      45.459  25.523  35.683  1.00  0.00     0.091 A 
ATOM     90  F   UNL A   1      43.204  25.425  34.912  1.00  0.00    -0.205 F 
ATOM     91  C   UNL A   1      46.717  26.143  35.646  1.00  0.00     0.022 A 
BRANCH  89  92
ATOM     92  S   UNL A   1      45.247  24.114  36.778  1.00  0.00     0.127 S 
ATOM     93  O   UNL A   1      46.594  23.947  37.318  1.00  0.00    -0.237 OA
ATOM     94  O   UNL A   1      44.261  24.604  37.743  1.00  0.00    -0.237 OA
ATOM     95  O   UNL A   1      44.763  23.033  35.930  1.00  0.00    -0.744 OA
ENDBRANCH  89  92
ENDBRANCH  62  85
ENDBRANCH  36  37
ENDBRANCH  28  31
ENDBRANCH  26  27
ENDBRANCH   1  26
TORSDOF 16
ENDMDL
MODEL 3
REMARK VINA RESULT:     -12.5      0.703      7.524
REMARK SMILES Cc1ccc(F)cc1NS(=O)(=O)c1ccc(C(=O)NCCCNC(=O)c2ccc(-c3c4nc(c(-c5cccc(S(=O)(=O)[O-])c5F)c5ccc([nH]5)c(-c5cccc(S(=O)(=O)[O-])c5F)c5nc(c(-c6cccc(S(=O)(=O)[O-])c6F)c6ccc3[nH]6)C=C5)C=C4)cc2)cc1
REMARK SMILES IDX 21 1 20 2 19 3 17 4 18 5 16 7 13 8 14 9 90 10 15 11 89 12
REMARK SMILES IDX 10 13 11 14 12 15 9 16 8 18 1 19 2 20 3 21 4 22 7 23 5 24
REMARK SMILES IDX 6 25 22 26 23 27 24 28 25 30 26 31 27 32 88 33 28 34 87 35
REMARK SMILES IDX 29 36 30 37 31 38 81 39 32 40 86 41 80 42 82 43 33 44 85 45
REMARK SMILES IDX 79 46 78 47 34 49 66 50 46 51 65 52 47 53 50 54 64 55 83 56
REMARK SMILES IDX 48 57 49 58 63 60 84 61 51 62 35 63 36 64 44 65 37 66 39 67
REMARK SMILES IDX 45 68 38 69 40 70 41 71 42 72 43 73 67 74 68 75 76 76 69 77
REMARK SMILES IDX 71 78 77 79 70 80 72 81 73 82 74 83 75 84 52 85 53 86 61 87
REMARK SMILES IDX 54 88 56 89 62 90 55 91 57 92 58 93 59 94 60 95
REMARK H PARENT 19 6 9 17 23 29 82 48 50 59
REMARK Flexibility Score: inf
ROOT
ATOM      1  C   UNL A   1      34.950  22.263  27.195  1.00  0.00     0.042 C 
ENDROOT
BRANCH   1   2
ATOM      2  C   UNL A   1      33.466  22.571  27.035  1.00  0.00     0.118 C 
BRANCH   2   3
ATOM      3  N   UNL A   1      32.713  21.432  26.541  1.00  0.00    -0.352 N 
ATOM      4  C   UNL A   1      32.206  21.215  25.287  1.00  0.00     0.251 C 
ATOM      5  O   UNL A   1      31.801  20.100  24.970  1.00  0.00    -0.269 OA
ATOM      6  H   UNL A   1      32.543  20.718  27.197  1.00  0.00     0.163 HD
BRANCH   4   7
ATOM      7  C   UNL A   1      32.161  22.308  24.294  1.00  0.00     0.039 A 
ATOM      8  C   UNL A   1      32.190  24.560  22.659  1.00  0.00     0.087 A 
ATOM      9  C   UNL A   1      31.139  24.382  23.567  1.00  0.00     0.023 A 
ATOM     10  C   UNL A   1      33.189  23.587  22.519  1.00  0.00     0.023 A 
ATOM     11  C   UNL A   1      31.142  23.263  24.403  1.00  0.00     0.015 A 
ATOM     12  C   UNL A   1      33.176  22.462  23.343  1.00  0.00     0.015 A 
BRANCH   8  13
ATOM     13  S   UNL A   1      32.447  26.130  21.860  1.00  0.00     0.261 S 
ATOM     14  O   UNL A   1      31.139  26.741  21.727  1.00  0.00    -0.201 OA
ATOM     15  O   UNL A   1      33.305  25.917  20.718  1.00  0.00    -0.201 OA
BRANCH  13  16
ATOM     16  N   UNL A   1      33.277  27.077  22.955  1.00  0.00    -0.279 N 
ATOM     17  H   UNL A   1      34.216  27.276  22.734  1.00  0.00     0.180 HD
BRANCH  16  18
ATOM     18  C   UNL A   1      32.786  27.631  24.177  1.00  0.00     0.055 A 
ATOM     19  C   UNL A   1      34.045  25.828  25.491  1.00  0.00     0.046 C 
ATOM     20  C   UNL A   1      33.313  27.139  25.390  1.00  0.00    -0.027 A 
ATOM     21  C   UNL A   1      33.150  27.886  26.572  1.00  0.00     0.008 A 
ATOM     22  C   UNL A   1      32.423  29.071  26.566  1.00  0.00     0.039 A 
ATOM     23  C   UNL A   1      31.960  28.757  24.213  1.00  0.00     0.066 A 
ATOM     24  C   UNL A   1      31.805  29.475  25.395  1.00  0.00     0.125 A 
ATOM     25  F   UNL A   1      31.081  30.600  25.389  1.00  0.00    -0.207 F 
ENDBRANCH  16  18
ENDBRANCH  13  16
ENDBRANCH   8  13
ENDBRANCH   4   7
ENDBRANCH   2   3
ENDBRANCH   1   2
BRANCH   1  26
ATOM     26  C   UNL A   1      35.759  22.405  25.908  1.00  0.00     0.118 C 
BRANCH  26  27
ATOM     27  N   UNL A   1      36.711  21.318  25.736  1.00  0.00    -0.352 N 
ATOM     28  C   UNL A   1      38.082  21.329  25.777  1.00  0.00     0.251 C 
ATOM     29  H   UNL A   1      36.308  20.437  25.561  1.00  0.00     0.163 HD
ATOM     30  O   UNL A   1      38.696  20.337  25.390  1.00  0.00    -0.269 OA
BRANCH  28  31
ATOM     31  C   UNL A   1      38.825  22.507  26.281  1.00  0.00     0.039 A 
ATOM     32  C   UNL A   1      38.478  23.773  25.798  1.00  0.00     0.014 A 
ATOM     33  C   UNL A   1      39.904  22.369  27.160  1.00  0.00     0.014 A 
ATOM     34  C   UNL A   1      39.197  24.898  26.209  1.00  0.00     0.010 A 
ATOM     35  C   UNL A   1      40.578  23.499  27.620  1.00  0.00     0.010 A 
ATOM     36  C   UNL A   1      40.248  24.771  27.130  1.00  0.00    -0.014 A 
BRANCH  36  37
ATOM     37  C   UNL A   1      41.036  25.954  27.557  1.00  0.00     0.031 A 
ATOM     38  C   UNL A   1      40.396  27.026  28.399  1.00  0.00     0.074 A 
ATOM     39  C   UNL A   1      42.309  26.095  27.141  1.00  0.00     0.049 A 
ATOM     40  N   UNL A   1      40.915  28.135  28.858  1.00  0.00    -0.248 NA
ATOM     41  C   UNL A   1      38.977  26.842  28.748  1.00  0.00     0.031 C 
ATOM     42  C   UNL A   1      43.015  25.168  26.254  1.00  0.00     0.029 A 
ATOM     43  N   UNL A   1      43.229  27.082  27.390  1.00  0.00    -0.354 N 
ATOM     44  C   UNL A   1      39.883  28.796  29.514  1.00  0.00     0.074 A 
ATOM     45  C   UNL A   1      38.698  27.979  29.369  1.00  0.00     0.031 C 
ATOM     46  C   UNL A   1      44.258  25.629  26.037  1.00  0.00     0.029 A 
ATOM     47  C   UNL A   1      44.435  26.885  26.761  1.00  0.00     0.049 A 
ATOM     48  H   UNL A   1      43.042  27.859  27.966  1.00  0.00     0.167 HD
ATOM     49  C   UNL A   1      39.924  29.959  30.206  1.00  0.00     0.034 A 
ATOM     50  C   UNL A   1      45.561  27.625  26.778  1.00  0.00     0.034 A 
ATOM     51  C   UNL A   1      41.118  30.736  30.406  1.00  0.00     0.049 A 
ATOM     52  C   UNL A   1      45.608  28.861  27.635  1.00  0.00     0.074 A 
ATOM     53  C   UNL A   1      41.284  31.885  31.158  1.00  0.00     0.029 A 
ATOM     54  N   UNL A   1      42.354  30.435  29.855  1.00  0.00    -0.354 N 
ATOM     55  N   UNL A   1      44.664  29.384  28.381  1.00  0.00    -0.248 NA
ATOM     56  C   UNL A   1      46.887  29.583  27.691  1.00  0.00     0.031 C 
ATOM     57  C   UNL A   1      42.625  32.276  31.067  1.00  0.00     0.029 A 
ATOM     58  C   UNL A   1      43.292  31.369  30.259  1.00  0.00     0.049 A 
ATOM     59  H   UNL A   1      42.537  29.669  29.265  1.00  0.00     0.167 HD
ATOM     60  C   UNL A   1      45.246  30.471  29.023  1.00  0.00     0.074 A 
ATOM     61  C   UNL A   1      46.628  30.520  28.594  1.00  0.00     0.031 C 
ATOM     62  C   UNL A   1      44.680  31.361  29.877  1.00  0.00     0.034 A 
BRANCH  49  63
ATOM     63  C   UNL A   1      38.651  30.422  30.868  1.00  0.00     0.023 A 
ATOM     64  C   UNL A   1      38.435  30.119  32.227  1.00  0.00     0.012 A 
ATOM     65  C   UNL A   1      37.699  31.189  30.170  1.00  0.00     0.148 A 
ATOM     66  C   UNL A   1      37.275  30.543  32.874  1.00  0.00     0.002 A 
ATOM     67  C   UNL A   1      36.562  31.642  30.834  1.00  0.00     0.091 A 
ATOM     68  F   UNL A   1      37.909  31.447  28.872  1.00  0.00    -0.205 F 
ATOM     69  C   UNL A   1      36.345  31.312  32.181  1.00  0.00     0.022 A 
BRANCH  67  70
ATOM     70  S   UNL A   1      35.342  32.698  30.042  1.00  0.00     0.127 S 
ATOM     71  O   UNL A   1      36.157  33.844  29.643  1.00  0.00    -0.237 OA
ATOM     72  O   UNL A   1      34.881  31.863  28.932  1.00  0.00    -0.237 OA
ATOM     73  O   UNL A   1      34.331  32.964  31.056  1.00  0.00    -0.744 OA
ENDBRANCH  67  70
ENDBRANCH  49  63
BRANCH  50  74
ATOM     74  C   UNL A   1      46.769  27.150  26.046  1.00  0.00     0.023 A 
ATOM     75  C   UNL A   1      47.581  26.161  26.634  1.00  0.00     0.012 A 
ATOM     76  C   UNL A   1      47.091  27.631  24.764  1.00  0.00     0.148 A 
ATOM     77  C   UNL A   1      48.708  25.679  25.970  1.00  0.00     0.002 A 
ATOM     78  C   UNL A   1      48.188  27.109  24.086  1.00  0.00     0.091 A 
ATOM     79  F   UNL A   1      46.316  28.583  24.226  1.00  0.00    -0.205 F 
ATOM     80  C   UNL A   1      49.006  26.144  24.693  1.00  0.00     0.022 A 
BRANCH  78  81
ATOM     81  S   UNL A   1      48.559  27.558  22.386  1.00  0.00     0.127 S 
ATOM     82  O   UNL A   1      48.646  26.252  21.741  1.00  0.00    -0.237 OA
ATOM     83  O   UNL A   1      47.387  28.353  22.014  1.00  0.00    -0.237 OA
ATOM     84  O   UNL A   1      49.798  28.324  22.454  1.00  0.00    -0.744 OA
ENDBRANCH  78  81
ENDBRANCH  50  74
BRANCH  62  85
ATOM     85  C   UNL A   1      45.560  32.449  30.430  1.00  0.00     0.023 A 
ATOM     86  C   UNL A   1      46.298  32.216  31.606  1.00  0.00     0.012 A 
ATOM     87  C   UNL A   1      45.711  33.673  29.749  1.00  0.00     0.148 A 
ATOM     88  C   UNL A   1      47.152  33.195  32.112  1.00  0.00     0.002 A 
ATOM     89  C   UNL A   1      46.595  34.628  30.238  1.00  0.00     0.091 A 
ATOM     90  F   UNL A   1      44.983  33.889  28.643  1.00  0.00    -0.205 F 
ATOM     91  C   UNL A   1      47.309  34.395  31.424  1.00  0.00     0.022 A 
BRANCH  89  92
ATOM     92  S   UNL A   1      46.912  36.159  29.352  1.00  0.00     0.127 S 
ATOM     93  O   UNL A   1      45.584  36.764  29.313  1.00  0.00    -0.237 OA
ATOM     94  O   UNL A   1      47.867  36.842  30.227  1.00  0.00    -0.237 OA
ATOM     95  O   UNL A   1      47.466  35.755  28.067  1.00  0.00    -0.744 OA
ENDBRANCH  89  92
ENDBRANCH  62  85
ENDBRANCH  36  37
ENDBRANCH  28  31
ENDBRANCH  26  27
ENDBRANCH   1  26
TORSDOF 16
ENDMDL
