MODEL 1
REMARK VINA RESULT:     -12.2      0.000      0.000
REMARK SMILES Cc1ccc(NS(=O)(=O)N2CCCC[C@@H]2C(=O)NCCCNC(=O)c2ccc(-c3c4nc(c(-c5cccc(S(=O)(=O)[O-])c5F)c5ccc([nH]5)c(-c5cccc(S(=O)(=O)[O-])c5F)c5nc(c(-c6cccc(S(=O)(=O)[O-])c6F)c6ccc3[nH]6)C=C5)C=C4)cc2)c(C)n1
REMARK SMILES IDX 20 1 19 2 18 3 16 4 17 5 15 7 10 8 11 9 12 10 14 11 13 12
REMARK SMILES IDX 7 13 8 14 9 15 6 16 5 18 1 19 2 20 3 21 90 22 4 23 88 24
REMARK SMILES IDX 89 25 21 26 22 27 23 28 24 30 25 31 26 32 87 33 27 34 86 35
REMARK SMILES IDX 28 36 29 37 30 38 80 39 31 40 85 41 79 42 81 43 32 44 84 45
REMARK SMILES IDX 78 46 77 47 33 49 65 50 45 51 64 52 46 53 49 54 63 55 82 56
REMARK SMILES IDX 47 57 48 58 62 60 83 61 50 62 34 63 35 64 43 65 36 66 38 67
REMARK SMILES IDX 44 68 37 69 39 70 40 71 41 72 42 73 66 74 67 75 75 76 68 77
REMARK SMILES IDX 70 78 76 79 69 80 71 81 72 82 73 83 74 84 51 85 52 86 60 87
REMARK SMILES IDX 53 88 55 89 61 90 54 91 56 92 57 93 58 94 59 95
REMARK H PARENT 18 6 6 17 22 29 81 48 49 59
REMARK Flexibility Score: inf
ROOT
ATOM      1  C   UNL A   1      31.804  28.163  26.133  1.00  0.00     0.042 C 
ENDROOT
BRANCH   1   2
ATOM      2  C   UNL A   1      32.337  26.852  26.720  1.00  0.00     0.117 C 
BRANCH   2   3
ATOM      3  N   UNL A   1      31.372  25.760  26.678  1.00  0.00    -0.355 N 
ATOM      4  C   UNL A   1      31.111  24.747  25.815  1.00  0.00     0.238 C 
ATOM      5  O   UNL A   1      30.347  23.881  26.268  1.00  0.00    -0.273 OA
ATOM      6  H   UNL A   1      30.770  25.759  27.456  1.00  0.00     0.163 HD
BRANCH   4   7
ATOM      7  C   UNL A   1      31.654  24.606  24.386  1.00  0.00     0.163 C 
ATOM      8  N   UNL A   1      33.125  24.290  24.223  1.00  0.00    -0.172 NA
ATOM      9  C   UNL A   1      33.467  24.046  22.785  1.00  0.00     0.105 C 
ATOM     10  C   UNL A   1      33.125  25.265  21.943  1.00  0.00     0.017 C 
ATOM     11  C   UNL A   1      31.229  25.769  23.475  1.00  0.00     0.030 C 
ATOM     12  C   UNL A   1      31.636  25.556  22.021  1.00  0.00     0.004 C 
BRANCH   8  13
ATOM     13  S   UNL A   1      33.717  23.028  25.205  1.00  0.00     0.302 S 
ATOM     14  O   UNL A   1      33.920  23.510  26.552  1.00  0.00    -0.189 OA
ATOM     15  O   UNL A   1      34.817  22.395  24.517  1.00  0.00    -0.189 OA
BRANCH  13  16
ATOM     16  N   UNL A   1      32.459  21.965  25.234  1.00  0.00    -0.269 N 
ATOM     17  H   UNL A   1      31.644  22.274  25.689  1.00  0.00     0.181 HD
BRANCH  16  18
ATOM     18  C   UNL A   1      32.404  20.640  24.676  1.00  0.00     0.071 A 
ATOM     19  C   UNL A   1      33.812  16.866  23.312  1.00  0.00     0.067 C 
ATOM     20  C   UNL A   1      33.131  18.084  23.851  1.00  0.00     0.038 A 
ATOM     21  C   UNL A   1      33.104  18.360  25.204  1.00  0.00     0.026 A 
ATOM     22  N   UNL A   1      32.702  18.978  22.941  1.00  0.00    -0.256 NA
ATOM     23  C   UNL A   1      32.756  19.647  25.608  1.00  0.00     0.030 A 
ATOM     24  C   UNL A   1      32.313  20.225  23.339  1.00  0.00     0.062 A 
ATOM     25  C   UNL A   1      31.858  21.025  22.167  1.00  0.00     0.069 C 
ENDBRANCH  16  18
ENDBRANCH  13  16
ENDBRANCH   8  13
ENDBRANCH   4   7
ENDBRANCH   2   3
ENDBRANCH   1   2
BRANCH   1  26
ATOM     26  C   UNL A   1      32.846  29.251  25.864  1.00  0.00     0.118 C 
BRANCH  26  27
ATOM     27  N   UNL A   1      32.450  30.596  26.251  1.00  0.00    -0.352 N 
ATOM     28  C   UNL A   1      33.058  31.543  27.041  1.00  0.00     0.251 C 
ATOM     29  H   UNL A   1      31.585  30.882  25.877  1.00  0.00     0.163 HD
ATOM     30  O   UNL A   1      32.479  32.608  27.256  1.00  0.00    -0.269 OA
BRANCH  28  31
ATOM     31  C   UNL A   1      34.373  31.303  27.670  1.00  0.00     0.039 A 
ATOM     32  C   UNL A   1      34.687  30.017  28.137  1.00  0.00     0.014 A 
ATOM     33  C   UNL A   1      35.269  32.347  27.880  1.00  0.00     0.014 A 
ATOM     34  C   UNL A   1      35.916  29.773  28.760  1.00  0.00     0.010 A 
ATOM     35  C   UNL A   1      36.523  32.088  28.415  1.00  0.00     0.010 A 
ATOM     36  C   UNL A   1      36.852  30.806  28.884  1.00  0.00    -0.014 A 
BRANCH  36  37
ATOM     37  C   UNL A   1      38.162  30.649  29.563  1.00  0.00     0.031 A 
ATOM     38  C   UNL A   1      39.169  29.704  28.963  1.00  0.00     0.074 A 
ATOM     39  C   UNL A   1      38.358  31.181  30.785  1.00  0.00     0.049 A 
ATOM     40  N   UNL A   1      40.213  29.144  29.512  1.00  0.00    -0.248 NA
ATOM     41  C   UNL A   1      38.922  29.282  27.571  1.00  0.00     0.031 C 
ATOM     42  C   UNL A   1      37.423  32.058  31.489  1.00  0.00     0.029 A 
ATOM     43  N   UNL A   1      39.383  30.996  31.680  1.00  0.00    -0.354 N 
ATOM     44  C   UNL A   1      40.690  28.237  28.573  1.00  0.00     0.074 A 
ATOM     45  C   UNL A   1      39.821  28.320  27.420  1.00  0.00     0.031 C 
ATOM     46  C   UNL A   1      37.895  32.303  32.722  1.00  0.00     0.029 A 
ATOM     47  C   UNL A   1      39.144  31.571  32.908  1.00  0.00     0.049 A 
ATOM     48  H   UNL A   1      40.207  30.503  31.464  1.00  0.00     0.167 HD
ATOM     49  C   UNL A   1      41.762  27.416  28.663  1.00  0.00     0.034 A 
ATOM     50  C   UNL A   1      39.837  31.486  34.061  1.00  0.00     0.034 A 
ATOM     51  C   UNL A   1      42.673  27.424  29.775  1.00  0.00     0.049 A 
ATOM     52  C   UNL A   1      41.100  30.666  34.087  1.00  0.00     0.074 A 
ATOM     53  C   UNL A   1      43.867  26.742  29.916  1.00  0.00     0.029 A 
ATOM     54  N   UNL A   1      42.494  28.166  30.933  1.00  0.00    -0.354 N 
ATOM     55  N   UNL A   1      41.619  29.921  33.140  1.00  0.00    -0.248 NA
ATOM     56  C   UNL A   1      41.892  30.702  35.325  1.00  0.00     0.031 C 
ATOM     57  C   UNL A   1      44.410  27.070  31.163  1.00  0.00     0.029 A 
ATOM     58  C   UNL A   1      43.558  27.965  31.791  1.00  0.00     0.049 A 
ATOM     59  H   UNL A   1      41.723  28.749  31.116  1.00  0.00     0.167 HD
ATOM     60  C   UNL A   1      42.811  29.424  33.655  1.00  0.00     0.074 A 
ATOM     61  C   UNL A   1      42.949  29.973  34.989  1.00  0.00     0.031 C 
ATOM     62  C   UNL A   1      43.702  28.575  33.087  1.00  0.00     0.034 A 
BRANCH  49  63
ATOM     63  C   UNL A   1      42.047  26.487  27.511  1.00  0.00     0.023 A 
ATOM     64  C   UNL A   1      42.753  26.961  26.388  1.00  0.00     0.012 A 
ATOM     65  C   UNL A   1      41.668  25.130  27.566  1.00  0.00     0.148 A 
ATOM     66  C   UNL A   1      43.047  26.113  25.322  1.00  0.00     0.002 A 
ATOM     67  C   UNL A   1      42.004  24.279  26.519  1.00  0.00     0.091 A 
ATOM     68  F   UNL A   1      40.979  24.700  28.632  1.00  0.00    -0.205 F 
ATOM     69  C   UNL A   1      42.682  24.771  25.392  1.00  0.00     0.022 A 
BRANCH  67  70
ATOM     70  S   UNL A   1      41.651  22.517  26.545  1.00  0.00     0.127 S 
ATOM     71  O   UNL A   1      42.268  22.074  25.295  1.00  0.00    -0.237 OA
ATOM     72  O   UNL A   1      42.348  22.082  27.755  1.00  0.00    -0.237 OA
ATOM     73  O   UNL A   1      40.201  22.398  26.601  1.00  0.00    -0.744 OA
ENDBRANCH  67  70
ENDBRANCH  49  63
BRANCH  50  74
ATOM     74  C   UNL A   1      39.380  32.242  35.262  1.00  0.00     0.023 A 
ATOM     75  C   UNL A   1      38.529  31.609  36.188  1.00  0.00     0.012 A 
ATOM     76  C   UNL A   1      39.812  33.559  35.518  1.00  0.00     0.148 A 
ATOM     77  C   UNL A   1      38.093  32.280  37.331  1.00  0.00     0.002 A 
ATOM     78  C   UNL A   1      39.418  34.202  36.687  1.00  0.00     0.091 A 
ATOM     79  F   UNL A   1      40.609  34.154  34.620  1.00  0.00    -0.205 F 
ATOM     80  C   UNL A   1      38.545  33.571  37.586  1.00  0.00     0.022 A 
BRANCH  78  81
ATOM     81  S   UNL A   1      40.070  35.809  37.157  1.00  0.00     0.127 S 
ATOM     82  O   UNL A   1      39.684  36.637  36.019  1.00  0.00    -0.237 OA
ATOM     83  O   UNL A   1      39.343  36.088  38.396  1.00  0.00    -0.237 OA
ATOM     84  O   UNL A   1      41.501  35.602  37.344  1.00  0.00    -0.744 OA
ENDBRANCH  78  81
ENDBRANCH  50  74
BRANCH  62  85
ATOM     85  C   UNL A   1      44.924  28.212  33.886  1.00  0.00     0.023 A 
ATOM     86  C   UNL A   1      46.061  29.040  33.831  1.00  0.00     0.012 A 
ATOM     87  C   UNL A   1      44.910  27.105  34.755  1.00  0.00     0.148 A 
ATOM     88  C   UNL A   1      47.179  28.757  34.616  1.00  0.00     0.002 A 
ATOM     89  C   UNL A   1      46.010  26.854  35.567  1.00  0.00     0.091 A 
ATOM     90  F   UNL A   1      43.823  26.318  34.776  1.00  0.00    -0.205 F 
ATOM     91  C   UNL A   1      47.148  27.673  35.491  1.00  0.00     0.022 A 
BRANCH  89  92
ATOM     92  S   UNL A   1      46.016  25.539  36.790  1.00  0.00     0.127 S 
ATOM     93  O   UNL A   1      45.941  24.347  35.947  1.00  0.00    -0.237 OA
ATOM     94  O   UNL A   1      47.304  25.735  37.455  1.00  0.00    -0.237 OA
ATOM     95  O   UNL A   1      44.858  25.782  37.641  1.00  0.00    -0.744 OA
ENDBRANCH  89  92
ENDBRANCH  62  85
ENDBRANCH  36  37
ENDBRANCH  28  31
ENDBRANCH  26  27
ENDBRANCH   1  26
TORSDOF 16
ENDMDL
MODEL 2
REMARK VINA RESULT:     -12.0      1.623      2.050
REMARK SMILES Cc1ccc(NS(=O)(=O)N2CCCC[C@@H]2C(=O)NCCCNC(=O)c2ccc(-c3c4nc(c(-c5cccc(S(=O)(=O)[O-])c5F)c5ccc([nH]5)c(-c5cccc(S(=O)(=O)[O-])c5F)c5nc(c(-c6cccc(S(=O)(=O)[O-])c6F)c6ccc3[nH]6)C=C5)C=C4)cc2)c(C)n1
REMARK SMILES IDX 20 1 19 2 18 3 16 4 17 5 15 7 10 8 11 9 12 10 14 11 13 12
REMARK SMILES IDX 7 13 8 14 9 15 6 16 5 18 1 19 2 20 3 21 90 22 4 23 88 24
REMARK SMILES IDX 89 25 21 26 22 27 23 28 24 30 25 31 26 32 87 33 27 34 86 35
REMARK SMILES IDX 28 36 29 37 30 38 80 39 31 40 85 41 79 42 81 43 32 44 84 45
REMARK SMILES IDX 78 46 77 47 33 49 65 50 45 51 64 52 46 53 49 54 63 55 82 56
REMARK SMILES IDX 47 57 48 58 62 60 83 61 50 62 34 63 35 64 43 65 36 66 38 67
REMARK SMILES IDX 44 68 37 69 39 70 40 71 41 72 42 73 66 74 67 75 75 76 68 77
REMARK SMILES IDX 70 78 76 79 69 80 71 81 72 82 73 83 74 84 51 85 52 86 60 87
REMARK SMILES IDX 53 88 55 89 61 90 54 91 56 92 57 93 58 94 59 95
REMARK H PARENT 18 6 6 17 22 29 81 48 49 59
REMARK Flexibility Score: inf
ROOT
ATOM      1  C   UNL A   1      31.802  29.296  26.766  1.00  0.00     0.042 C 
ENDROOT
BRANCH   1   2
ATOM      2  C   UNL A   1      32.345  27.927  27.194  1.00  0.00     0.117 C 
BRANCH   2   3
ATOM      3  N   UNL A   1      31.360  26.857  27.107  1.00  0.00    -0.355 N 
ATOM      4  C   UNL A   1      30.954  26.006  26.132  1.00  0.00     0.238 C 
ATOM      5  O   UNL A   1      30.244  25.073  26.538  1.00  0.00    -0.273 OA
ATOM      6  H   UNL A   1      30.876  26.721  27.953  1.00  0.00     0.163 HD
BRANCH   4   7
ATOM      7  C   UNL A   1      31.283  26.113  24.636  1.00  0.00     0.163 C 
ATOM      8  N   UNL A   1      32.739  26.039  24.232  1.00  0.00    -0.172 NA
ATOM      9  C   UNL A   1      32.883  26.016  22.740  1.00  0.00     0.105 C 
ATOM     10  C   UNL A   1      32.260  27.260  22.127  1.00  0.00     0.017 C 
ATOM     11  C   UNL A   1      30.576  27.298  23.960  1.00  0.00     0.030 C 
ATOM     12  C   UNL A   1      30.776  27.318  22.448  1.00  0.00     0.004 C 
BRANCH   8  13
ATOM     13  S   UNL A   1      33.634  24.773  24.942  1.00  0.00     0.302 S 
ATOM     14  O   UNL A   1      33.854  25.054  26.342  1.00  0.00    -0.189 OA
ATOM     15  O   UNL A   1      34.772  24.493  24.099  1.00  0.00    -0.189 OA
BRANCH  13  16
ATOM     16  N   UNL A   1      32.603  23.492  24.840  1.00  0.00    -0.269 N 
ATOM     17  H   UNL A   1      31.645  23.713  24.796  1.00  0.00     0.181 HD
BRANCH  16  18
ATOM     18  C   UNL A   1      32.928  22.091  24.807  1.00  0.00     0.071 A 
ATOM     19  C   UNL A   1      32.288  17.887  24.757  1.00  0.00     0.067 C 
ATOM     20  C   UNL A   1      32.692  19.324  24.648  1.00  0.00     0.038 A 
ATOM     21  C   UNL A   1      32.392  20.079  23.532  1.00  0.00     0.026 A 
ATOM     22  N   UNL A   1      33.206  19.883  25.759  1.00  0.00    -0.256 NA
ATOM     23  C   UNL A   1      32.495  21.465  23.625  1.00  0.00     0.030 A 
ATOM     24  C   UNL A   1      33.355  21.239  25.836  1.00  0.00     0.062 A 
ATOM     25  C   UNL A   1      33.962  21.621  27.143  1.00  0.00     0.069 C 
ENDBRANCH  16  18
ENDBRANCH  13  16
ENDBRANCH   8  13
ENDBRANCH   4   7
ENDBRANCH   2   3
ENDBRANCH   1   2
BRANCH   1  26
ATOM     26  C   UNL A   1      32.850  30.351  26.408  1.00  0.00     0.118 C 
BRANCH  26  27
ATOM     27  N   UNL A   1      32.491  31.720  26.750  1.00  0.00    -0.352 N 
ATOM     28  C   UNL A   1      33.106  32.662  27.539  1.00  0.00     0.251 C 
ATOM     29  H   UNL A   1      31.650  32.028  26.338  1.00  0.00     0.163 HD
ATOM     30  O   UNL A   1      32.559  33.753  27.708  1.00  0.00    -0.269 OA
BRANCH  28  31
ATOM     31  C   UNL A   1      34.388  32.390  28.220  1.00  0.00     0.039 A 
ATOM     32  C   UNL A   1      35.479  33.244  27.996  1.00  0.00     0.014 A 
ATOM     33  C   UNL A   1      34.554  31.257  29.010  1.00  0.00     0.014 A 
ATOM     34  C   UNL A   1      36.712  32.990  28.609  1.00  0.00     0.010 A 
ATOM     35  C   UNL A   1      35.746  31.054  29.690  1.00  0.00     0.010 A 
ATOM     36  C   UNL A   1      36.845  31.902  29.479  1.00  0.00    -0.014 A 
BRANCH  36  37
ATOM     37  C   UNL A   1      38.121  31.534  30.141  1.00  0.00     0.031 A 
ATOM     38  C   UNL A   1      38.982  30.478  29.499  1.00  0.00     0.074 A 
ATOM     39  C   UNL A   1      38.395  31.985  31.380  1.00  0.00     0.049 A 
ATOM     40  N   UNL A   1      39.936  29.755  30.018  1.00  0.00    -0.248 NA
ATOM     41  C   UNL A   1      38.674  30.148  28.095  1.00  0.00     0.031 C 
ATOM     42  C   UNL A   1      37.596  32.960  32.124  1.00  0.00     0.029 A 
ATOM     43  N   UNL A   1      39.385  31.623  32.260  1.00  0.00    -0.354 N 
ATOM     44  C   UNL A   1      40.276  28.824  29.043  1.00  0.00     0.074 A 
ATOM     45  C   UNL A   1      39.425  29.074  27.901  1.00  0.00     0.031 C 
ATOM     46  C   UNL A   1      38.102  33.088  33.361  1.00  0.00     0.029 A 
ATOM     47  C   UNL A   1      39.233  32.179  33.510  1.00  0.00     0.049 A 
ATOM     48  H   UNL A   1      40.129  31.025  32.020  1.00  0.00     0.167 HD
ATOM     49  C   UNL A   1      41.221  27.857  29.094  1.00  0.00     0.034 A 
ATOM     50  C   UNL A   1      39.909  31.952  34.654  1.00  0.00     0.034 A 
ATOM     51  C   UNL A   1      42.126  27.692  30.199  1.00  0.00     0.049 A 
ATOM     52  C   UNL A   1      41.042  30.960  34.640  1.00  0.00     0.074 A 
ATOM     53  C   UNL A   1      43.211  26.842  30.304  1.00  0.00     0.029 A 
ATOM     54  N   UNL A   1      42.057  28.408  31.384  1.00  0.00    -0.354 N 
ATOM     55  N   UNL A   1      41.448  30.185  33.662  1.00  0.00    -0.248 NA
ATOM     56  C   UNL A   1      41.835  30.836  35.872  1.00  0.00     0.031 C 
ATOM     57  C   UNL A   1      43.798  27.042  31.558  1.00  0.00     0.029 A 
ATOM     58  C   UNL A   1      43.084  28.025  32.226  1.00  0.00     0.049 A 
ATOM     59  H   UNL A   1      41.378  29.088  31.595  1.00  0.00     0.167 HD
ATOM     60  C   UNL A   1      42.558  29.505  34.149  1.00  0.00     0.074 A 
ATOM     61  C   UNL A   1      42.776  29.977  35.501  1.00  0.00     0.031 C 
ATOM     62  C   UNL A   1      43.317  28.559  33.543  1.00  0.00     0.034 A 
BRANCH  49  63
ATOM     63  C   UNL A   1      41.367  26.940  27.907  1.00  0.00     0.023 A 
ATOM     64  C   UNL A   1      42.107  27.362  26.784  1.00  0.00     0.012 A 
ATOM     65  C   UNL A   1      40.822  25.640  27.924  1.00  0.00     0.148 A 
ATOM     66  C   UNL A   1      42.274  26.522  25.685  1.00  0.00     0.002 A 
ATOM     67  C   UNL A   1      41.031  24.791  26.843  1.00  0.00     0.091 A 
ATOM     68  F   UNL A   1      40.103  25.262  28.991  1.00  0.00    -0.205 F 
ATOM     69  C   UNL A   1      41.746  25.234  25.718  1.00  0.00     0.022 A 
BRANCH  67  70
ATOM     70  S   UNL A   1      40.461  23.087  26.818  1.00  0.00     0.127 S 
ATOM     71  O   UNL A   1      39.025  23.259  26.602  1.00  0.00    -0.237 OA
ATOM     72  O   UNL A   1      41.188  22.537  25.674  1.00  0.00    -0.237 OA
ATOM     73  O   UNL A   1      40.835  22.519  28.106  1.00  0.00    -0.744 OA
ENDBRANCH  67  70
ENDBRANCH  49  63
BRANCH  50  74
ATOM     74  C   UNL A   1      39.568  32.720  35.885  1.00  0.00     0.023 A 
ATOM     75  C   UNL A   1      40.087  34.019  36.048  1.00  0.00     0.012 A 
ATOM     76  C   UNL A   1      38.705  32.199  36.870  1.00  0.00     0.148 A 
ATOM     77  C   UNL A   1      39.779  34.774  37.180  1.00  0.00     0.002 A 
ATOM     78  C   UNL A   1      38.357  32.978  37.969  1.00  0.00     0.091 A 
ATOM     79  F   UNL A   1      38.231  30.956  36.708  1.00  0.00    -0.205 F 
ATOM     80  C   UNL A   1      38.906  34.259  38.135  1.00  0.00     0.022 A 
BRANCH  78  81
ATOM     81  S   UNL A   1      37.129  32.443  39.166  1.00  0.00     0.127 S 
ATOM     82  O   UNL A   1      37.386  33.343  40.286  1.00  0.00    -0.237 OA
ATOM     83  O   UNL A   1      35.874  32.690  38.454  1.00  0.00    -0.237 OA
ATOM     84  O   UNL A   1      37.409  31.032  39.399  1.00  0.00    -0.744 OA
ENDBRANCH  78  81
ENDBRANCH  50  74
BRANCH  62  85
ATOM     85  C   UNL A   1      44.477  27.995  34.318  1.00  0.00     0.023 A 
ATOM     86  C   UNL A   1      45.730  28.633  34.255  1.00  0.00     0.012 A 
ATOM     87  C   UNL A   1      44.299  26.892  35.174  1.00  0.00     0.148 A 
ATOM     88  C   UNL A   1      46.799  28.165  35.019  1.00  0.00     0.002 A 
ATOM     89  C   UNL A   1      45.356  26.458  35.966  1.00  0.00     0.091 A 
ATOM     90  F   UNL A   1      43.101  26.287  35.202  1.00  0.00    -0.205 F 
ATOM     91  C   UNL A   1      46.608  27.088  35.882  1.00  0.00     0.022 A 
BRANCH  89  92
ATOM     92  S   UNL A   1      45.170  25.142  37.173  1.00  0.00     0.127 S 
ATOM     93  O   UNL A   1      44.916  23.986  36.316  1.00  0.00    -0.237 OA
ATOM     94  O   UNL A   1      46.474  25.136  37.834  1.00  0.00    -0.237 OA
ATOM     95  O   UNL A   1      44.063  25.544  38.031  1.00  0.00    -0.744 OA
ENDBRANCH  89  92
ENDBRANCH  62  85
ENDBRANCH  36  37
ENDBRANCH  28  31
ENDBRANCH  26  27
ENDBRANCH   1  26
TORSDOF 16
ENDMDL
MODEL 3
REMARK VINA RESULT:     -11.9      4.907      9.954
REMARK SMILES Cc1ccc(NS(=O)(=O)N2CCCC[C@@H]2C(=O)NCCCNC(=O)c2ccc(-c3c4nc(c(-c5cccc(S(=O)(=O)[O-])c5F)c5ccc([nH]5)c(-c5cccc(S(=O)(=O)[O-])c5F)c5nc(c(-c6cccc(S(=O)(=O)[O-])c6F)c6ccc3[nH]6)C=C5)C=C4)cc2)c(C)n1
REMARK SMILES IDX 20 1 19 2 18 3 16 4 17 5 15 7 10 8 11 9 12 10 14 11 13 12
REMARK SMILES IDX 7 13 8 14 9 15 6 16 5 18 1 19 2 20 3 21 90 22 4 23 88 24
REMARK SMILES IDX 89 25 21 26 22 27 23 28 24 30 25 31 26 32 87 33 27 34 86 35
REMARK SMILES IDX 28 36 29 37 30 38 80 39 31 40 85 41 79 42 81 43 32 44 84 45
REMARK SMILES IDX 78 46 77 47 33 49 65 50 45 51 64 52 46 53 49 54 63 55 82 56
REMARK SMILES IDX 47 57 48 58 62 60 83 61 50 62 34 63 35 64 43 65 36 66 38 67
REMARK SMILES IDX 44 68 37 69 39 70 40 71 41 72 42 73 66 74 67 75 75 76 68 77
REMARK SMILES IDX 70 78 76 79 69 80 71 81 72 82 73 83 74 84 51 85 52 86 60 87
REMARK SMILES IDX 53 88 55 89 61 90 54 91 56 92 57 93 58 94 59 95
REMARK H PARENT 18 6 6 17 22 29 81 48 49 59
REMARK Flexibility Score: inf
ROOT
ATOM      1  C   UNL A   1      36.058  22.564  24.238  1.00  0.00     0.042 C 
ENDROOT
BRANCH   1   2
ATOM      2  C   UNL A   1      35.328  23.912  24.238  1.00  0.00     0.117 C 
BRANCH   2   3
ATOM      3  N   UNL A   1      34.430  24.088  23.104  1.00  0.00    -0.355 N 
ATOM      4  C   UNL A   1      33.103  24.328  22.962  1.00  0.00     0.238 C 
ATOM      5  O   UNL A   1      32.767  24.649  21.812  1.00  0.00    -0.273 OA
ATOM      6  H   UNL A   1      34.896  24.015  22.240  1.00  0.00     0.163 HD
BRANCH   4   7
ATOM      7  C   UNL A   1      32.037  24.225  24.062  1.00  0.00     0.163 C 
ATOM      8  N   UNL A   1      32.071  25.255  25.169  1.00  0.00    -0.172 NA
ATOM      9  C   UNL A   1      30.890  25.106  26.080  1.00  0.00     0.105 C 
ATOM     10  C   UNL A   1      30.867  23.716  26.696  1.00  0.00     0.017 C 
ATOM     11  C   UNL A   1      31.909  22.801  24.628  1.00  0.00     0.030 C 
ATOM     12  C   UNL A   1      30.749  22.661  25.608  1.00  0.00     0.004 C 
BRANCH   8  13
ATOM     13  S   UNL A   1      32.237  26.874  24.660  1.00  0.00     0.302 S 
ATOM     14  O   UNL A   1      33.616  27.144  24.325  1.00  0.00    -0.189 OA
ATOM     15  O   UNL A   1      31.573  27.723  25.620  1.00  0.00    -0.189 OA
BRANCH  13  16
ATOM     16  N   UNL A   1      31.362  26.911  23.264  1.00  0.00    -0.269 N 
ATOM     17  H   UNL A   1      31.641  26.279  22.564  1.00  0.00     0.181 HD
BRANCH  16  18
ATOM     18  C   UNL A   1      30.240  27.751  22.941  1.00  0.00     0.071 A 
ATOM     19  C   UNL A   1      27.655  31.125  23.102  1.00  0.00     0.067 C 
ATOM     20  C   UNL A   1      28.511  29.928  22.829  1.00  0.00     0.038 A 
ATOM     21  C   UNL A   1      29.761  30.046  22.255  1.00  0.00     0.026 A 
ATOM     22  N   UNL A   1      28.072  28.758  23.327  1.00  0.00    -0.256 NA
ATOM     23  C   UNL A   1      30.628  28.958  22.331  1.00  0.00     0.030 A 
ATOM     24  C   UNL A   1      28.903  27.674  23.359  1.00  0.00     0.062 A 
ATOM     25  C   UNL A   1      28.194  26.493  23.929  1.00  0.00     0.069 C 
ENDBRANCH  16  18
ENDBRANCH  13  16
ENDBRANCH   8  13
ENDBRANCH   4   7
ENDBRANCH   2   3
ENDBRANCH   1   2
BRANCH   1  26
ATOM     26  C   UNL A   1      36.410  21.991  25.612  1.00  0.00     0.118 C 
BRANCH  26  27
ATOM     27  N   UNL A   1      37.401  20.925  25.602  1.00  0.00    -0.352 N 
ATOM     28  C   UNL A   1      38.729  20.900  25.957  1.00  0.00     0.251 C 
ATOM     29  H   UNL A   1      37.055  20.060  25.282  1.00  0.00     0.163 HD
ATOM     30  O   UNL A   1      39.371  19.861  25.806  1.00  0.00    -0.269 OA
BRANCH  28  31
ATOM     31  C   UNL A   1      39.416  22.097  26.483  1.00  0.00     0.039 A 
ATOM     32  C   UNL A   1      39.030  23.367  26.027  1.00  0.00     0.014 A 
ATOM     33  C   UNL A   1      40.493  21.980  27.356  1.00  0.00     0.014 A 
ATOM     34  C   UNL A   1      39.685  24.513  26.490  1.00  0.00     0.010 A 
ATOM     35  C   UNL A   1      41.083  23.119  27.886  1.00  0.00     0.010 A 
ATOM     36  C   UNL A   1      40.705  24.395  27.441  1.00  0.00    -0.014 A 
BRANCH  36  37
ATOM     37  C   UNL A   1      41.480  25.550  27.960  1.00  0.00     0.031 A 
ATOM     38  C   UNL A   1      40.743  26.626  28.711  1.00  0.00     0.074 A 
ATOM     39  C   UNL A   1      42.764  25.723  27.591  1.00  0.00     0.049 A 
ATOM     40  N   UNL A   1      41.099  27.856  28.965  1.00  0.00    -0.248 NA
ATOM     41  C   UNL A   1      39.386  26.285  29.180  1.00  0.00     0.031 C 
ATOM     42  C   UNL A   1      43.557  24.775  26.808  1.00  0.00     0.029 A 
ATOM     43  N   UNL A   1      43.601  26.798  27.765  1.00  0.00    -0.354 N 
ATOM     44  C   UNL A   1      39.985  28.461  29.533  1.00  0.00     0.074 A 
ATOM     45  C   UNL A   1      38.938  27.464  29.587  1.00  0.00     0.031 C 
ATOM     46  C   UNL A   1      44.752  25.325  26.534  1.00  0.00     0.029 A 
ATOM     47  C   UNL A   1      44.793  26.675  27.086  1.00  0.00     0.049 A 
ATOM     48  H   UNL A   1      43.372  27.577  28.320  1.00  0.00     0.167 HD
ATOM     49  C   UNL A   1      39.851  29.732  29.980  1.00  0.00     0.034 A 
ATOM     50  C   UNL A   1      45.788  27.566  26.903  1.00  0.00     0.034 A 
ATOM     51  C   UNL A   1      40.934  30.676  30.014  1.00  0.00     0.049 A 
ATOM     52  C   UNL A   1      45.662  28.931  27.527  1.00  0.00     0.074 A 
ATOM     53  C   UNL A   1      40.957  31.941  30.570  1.00  0.00     0.029 A 
ATOM     54  N   UNL A   1      42.193  30.448  29.480  1.00  0.00    -0.354 N 
ATOM     55  N   UNL A   1      44.652  29.444  28.189  1.00  0.00    -0.248 NA
ATOM     56  C   UNL A   1      46.821  29.826  27.411  1.00  0.00     0.031 C 
ATOM     57  C   UNL A   1      42.232  32.481  30.369  1.00  0.00     0.029 A 
ATOM     58  C   UNL A   1      43.004  31.545  29.698  1.00  0.00     0.049 A 
ATOM     59  H   UNL A   1      42.468  29.626  29.014  1.00  0.00     0.167 HD
ATOM     60  C   UNL A   1      45.064  30.708  28.595  1.00  0.00     0.074 A 
ATOM     61  C   UNL A   1      46.425  30.873  28.124  1.00  0.00     0.031 C 
ATOM     62  C   UNL A   1      44.376  31.657  29.276  1.00  0.00     0.034 A 
BRANCH  49  63
ATOM     63  C   UNL A   1      38.512  30.159  30.522  1.00  0.00     0.023 A 
ATOM     64  C   UNL A   1      38.194  29.916  31.873  1.00  0.00     0.012 A 
ATOM     65  C   UNL A   1      37.591  30.854  29.711  1.00  0.00     0.148 A 
ATOM     66  C   UNL A   1      36.970  30.324  32.401  1.00  0.00     0.002 A 
ATOM     67  C   UNL A   1      36.391  31.298  30.256  1.00  0.00     0.091 A 
ATOM     68  F   UNL A   1      37.900  31.059  28.423  1.00  0.00    -0.205 F 
ATOM     69  C   UNL A   1      36.074  31.023  31.596  1.00  0.00     0.022 A 
BRANCH  67  70
ATOM     70  S   UNL A   1      35.202  32.275  29.328  1.00  0.00     0.127 S 
ATOM     71  O   UNL A   1      34.684  31.289  28.381  1.00  0.00    -0.237 OA
ATOM     72  O   UNL A   1      34.256  32.677  30.369  1.00  0.00    -0.237 OA
ATOM     73  O   UNL A   1      35.957  33.371  28.737  1.00  0.00    -0.744 OA
ENDBRANCH  67  70
ENDBRANCH  49  63
BRANCH  50  74
ATOM     74  C   UNL A   1      47.009  27.172  26.144  1.00  0.00     0.023 A 
ATOM     75  C   UNL A   1      47.105  27.503  24.779  1.00  0.00     0.012 A 
ATOM     76  C   UNL A   1      48.090  26.515  26.767  1.00  0.00     0.148 A 
ATOM     77  C   UNL A   1      48.239  27.164  24.040  1.00  0.00     0.002 A 
ATOM     78  C   UNL A   1      49.240  26.229  26.038  1.00  0.00     0.091 A 
ATOM     79  F   UNL A   1      47.978  26.193  28.063  1.00  0.00    -0.205 F 
ATOM     80  C   UNL A   1      49.310  26.537  24.671  1.00  0.00     0.022 A 
BRANCH  78  81
ATOM     81  S   UNL A   1      50.715  25.555  26.811  1.00  0.00     0.127 S 
ATOM     82  O   UNL A   1      51.114  26.641  27.700  1.00  0.00    -0.237 OA
ATOM     83  O   UNL A   1      50.194  24.366  27.488  1.00  0.00    -0.237 OA
ATOM     84  O   UNL A   1      51.624  25.260  25.711  1.00  0.00    -0.744 OA
ENDBRANCH  78  81
ENDBRANCH  50  74
BRANCH  62  85
ATOM     85  C   UNL A   1      45.088  32.945  29.587  1.00  0.00     0.023 A 
ATOM     86  C   UNL A   1      45.892  33.033  30.739  1.00  0.00     0.012 A 
ATOM     87  C   UNL A   1      45.032  34.030  28.693  1.00  0.00     0.148 A 
ATOM     88  C   UNL A   1      46.614  34.196  31.009  1.00  0.00     0.002 A 
ATOM     89  C   UNL A   1      45.787  35.170  28.945  1.00  0.00     0.091 A 
ATOM     90  F   UNL A   1      44.242  33.932  27.612  1.00  0.00    -0.205 F 
ATOM     91  C   UNL A   1      46.571  35.256  30.107  1.00  0.00     0.022 A 
BRANCH  89  92
ATOM     92  S   UNL A   1      45.866  36.541  27.788  1.00  0.00     0.127 S 
ATOM     93  O   UNL A   1      44.554  37.159  27.970  1.00  0.00    -0.237 OA
ATOM     94  O   UNL A   1      46.986  37.325  28.307  1.00  0.00    -0.237 OA
ATOM     95  O   UNL A   1      46.104  35.945  26.480  1.00  0.00    -0.744 OA
ENDBRANCH  89  92
ENDBRANCH  62  85
ENDBRANCH  36  37
ENDBRANCH  28  31
ENDBRANCH  26  27
ENDBRANCH   1  26
TORSDOF 16
ENDMDL
