MODEL 1
REMARK VINA RESULT:     -11.7      0.000      0.000
REMARK SMILES CC(C)(C)OC(=O)NC[C@H]1CC[C@@H](C(=O)NCCCNC(=O)c2ccc(-c3c4nc(c(-c5cccc(S(=O)(=O)[O-])c5F)c5ccc([nH]5)c(-c5cccc(S(=O)(=O)[O-])c5F)c5nc(c(-c6cccc(S(=O)(=O)[O-])c6F)c6ccc3[nH]6)C=C5)C=C4)cc2)CC1
REMARK SMILES IDX 17 1 16 2 14 3 15 4 13 6 10 7 11 8 87 9 12 10 86 11 9 12
REMARK SMILES IDX 8 13 6 14 7 15 5 17 2 18 1 19 3 20 4 21 18 22 19 23 20 24
REMARK SMILES IDX 21 25 22 27 23 28 24 29 85 30 25 31 84 32 26 33 27 34 28 35
REMARK SMILES IDX 78 36 29 37 83 38 77 39 79 40 30 41 82 42 76 43 75 44 31 46
REMARK SMILES IDX 63 47 43 48 62 49 44 50 47 51 61 52 80 53 45 54 46 55 60 57
REMARK SMILES IDX 81 58 48 59 32 60 33 61 41 62 34 63 36 64 42 65 35 66 37 67
REMARK SMILES IDX 38 68 39 69 40 70 64 71 65 72 73 73 66 74 68 75 74 76 67 77
REMARK SMILES IDX 69 78 70 79 71 80 72 81 49 82 50 83 58 84 51 85 53 86 59 87
REMARK SMILES IDX 52 88 54 89 55 90 56 91 57 92
REMARK H PARENT 16 5 8 16 20 26 79 45 47 56
REMARK Flexibility Score: inf
ROOT
ATOM      1  C   UNL A   1      36.821  20.307  24.845  1.00  0.00     0.117 C 
ENDROOT
BRANCH   1   2
ATOM      2  N   UNL A   1      37.263  21.680  24.887  1.00  0.00    -0.356 N 
ATOM      3  C   UNL A   1      36.582  22.843  25.024  1.00  0.00     0.223 C 
ATOM      4  O   UNL A   1      37.274  23.864  25.129  1.00  0.00    -0.275 OA
ATOM      5  H   UNL A   1      38.237  21.793  24.801  1.00  0.00     0.163 HD
BRANCH   3   6
ATOM      6  C   UNL A   1      35.051  22.965  25.102  1.00  0.00     0.078 C 
ATOM      7  C   UNL A   1      33.349  24.758  23.364  1.00  0.00     0.008 C 
ATOM      8  C   UNL A   1      33.981  23.468  22.814  1.00  0.00     0.006 C 
ATOM      9  C   UNL A   1      33.971  25.297  24.668  1.00  0.00     0.006 C 
ATOM     10  C   UNL A   1      34.303  22.436  23.884  1.00  0.00     0.014 C 
ATOM     11  C   UNL A   1      34.465  24.256  25.671  1.00  0.00     0.014 C 
BRANCH   7  12
ATOM     12  C   UNL A   1      33.245  25.835  22.247  1.00  0.00     0.123 C 
BRANCH  12  13
ATOM     13  N   UNL A   1      33.740  27.148  22.618  1.00  0.00    -0.321 N 
ATOM     14  C   UNL A   1      33.072  28.318  22.822  1.00  0.00     0.407 C 
ATOM     15  O   UNL A   1      33.691  29.317  23.149  1.00  0.00    -0.225 OA
ATOM     16  H   UNL A   1      34.715  27.202  22.743  1.00  0.00     0.167 HD
BRANCH  14  17
ATOM     17  O   UNL A   1      31.737  28.241  22.620  1.00  0.00    -0.444 OA
BRANCH  17  18
ATOM     18  C   UNL A   1      30.804  28.306  23.741  1.00  0.00     0.106 C 
ATOM     19  C   UNL A   1      29.734  27.257  23.409  1.00  0.00     0.056 C 
ATOM     20  C   UNL A   1      30.134  29.682  23.790  1.00  0.00     0.056 C 
ATOM     21  C   UNL A   1      31.411  27.940  25.105  1.00  0.00     0.056 C 
ENDBRANCH  17  18
ENDBRANCH  14  17
ENDBRANCH  12  13
ENDBRANCH   7  12
ENDBRANCH   3   6
ENDBRANCH   1   2
BRANCH   1  22
ATOM     22  C   UNL A   1      37.914  19.309  25.194  1.00  0.00     0.042 C 
BRANCH  22  23
ATOM     23  C   UNL A   1      39.307  19.917  25.244  1.00  0.00     0.118 C 
BRANCH  23  24
ATOM     24  N   UNL A   1      40.167  19.335  26.271  1.00  0.00    -0.352 N 
ATOM     25  C   UNL A   1      41.048  19.904  27.159  1.00  0.00     0.251 C 
ATOM     26  H   UNL A   1      40.104  18.355  26.338  1.00  0.00     0.163 HD
ATOM     27  O   UNL A   1      41.759  19.179  27.854  1.00  0.00    -0.269 OA
BRANCH  25  28
ATOM     28  C   UNL A   1      41.119  21.367  27.336  1.00  0.00     0.039 A 
ATOM     29  C   UNL A   1      40.380  22.211  26.492  1.00  0.00     0.014 A 
ATOM     30  C   UNL A   1      42.018  21.909  28.250  1.00  0.00     0.014 A 
ATOM     31  C   UNL A   1      40.532  23.597  26.582  1.00  0.00     0.010 A 
ATOM     32  C   UNL A   1      42.102  23.283  28.404  1.00  0.00     0.010 A 
ATOM     33  C   UNL A   1      41.398  24.135  27.539  1.00  0.00    -0.014 A 
BRANCH  33  34
ATOM     34  C   UNL A   1      41.734  25.575  27.604  1.00  0.00     0.031 A 
ATOM     35  C   UNL A   1      43.087  25.998  27.099  1.00  0.00     0.074 A 
ATOM     36  C   UNL A   1      40.926  26.431  28.252  1.00  0.00     0.049 A 
ATOM     37  N   UNL A   1      43.749  27.100  27.322  1.00  0.00    -0.248 NA
ATOM     38  C   UNL A   1      43.819  25.010  26.285  1.00  0.00     0.031 C 
ATOM     39  C   UNL A   1      39.613  26.099  28.809  1.00  0.00     0.029 A 
ATOM     40  N   UNL A   1      41.120  27.741  28.602  1.00  0.00    -0.354 N 
ATOM     41  C   UNL A   1      45.001  26.905  26.749  1.00  0.00     0.074 A 
ATOM     42  C   UNL A   1      45.013  25.575  26.185  1.00  0.00     0.031 C 
ATOM     43  C   UNL A   1      39.132  27.172  29.459  1.00  0.00     0.029 A 
ATOM     44  C   UNL A   1      40.119  28.245  29.400  1.00  0.00     0.049 A 
ATOM     45  H   UNL A   1      41.899  28.269  28.312  1.00  0.00     0.167 HD
ATOM     46  C   UNL A   1      46.041  27.769  26.686  1.00  0.00     0.034 A 
ATOM     47  C   UNL A   1      40.034  29.431  30.034  1.00  0.00     0.034 A 
ATOM     48  C   UNL A   1      45.971  29.113  27.188  1.00  0.00     0.049 A 
ATOM     49  C   UNL A   1      41.167  30.409  29.874  1.00  0.00     0.074 A 
ATOM     50  C   UNL A   1      46.914  30.120  27.102  1.00  0.00     0.029 A 
ATOM     51  N   UNL A   1      44.877  29.641  27.861  1.00  0.00    -0.354 N 
ATOM     52  N   UNL A   1      42.306  30.255  29.239  1.00  0.00    -0.248 NA
ATOM     53  C   UNL A   1      40.994  31.732  30.488  1.00  0.00     0.031 C 
ATOM     54  C   UNL A   1      46.392  31.256  27.730  1.00  0.00     0.029 A 
ATOM     55  C   UNL A   1      45.116  30.962  28.190  1.00  0.00     0.049 A 
ATOM     56  H   UNL A   1      44.052  29.147  28.074  1.00  0.00     0.167 HD
ATOM     57  C   UNL A   1      42.969  31.472  29.344  1.00  0.00     0.074 A 
ATOM     58  C   UNL A   1      42.095  32.357  30.090  1.00  0.00     0.031 C 
ATOM     59  C   UNL A   1      44.195  31.826  28.883  1.00  0.00     0.034 A 
BRANCH  46  60
ATOM     60  C   UNL A   1      47.307  27.301  26.014  1.00  0.00     0.023 A 
ATOM     61  C   UNL A   1      48.254  26.554  26.747  1.00  0.00     0.012 A 
ATOM     62  C   UNL A   1      47.553  27.577  24.654  1.00  0.00     0.148 A 
ATOM     63  C   UNL A   1      49.442  26.130  26.153  1.00  0.00     0.002 A 
ATOM     64  C   UNL A   1      48.718  27.108  24.056  1.00  0.00     0.091 A 
ATOM     65  F   UNL A   1      46.657  28.307  23.976  1.00  0.00    -0.205 F 
ATOM     66  C   UNL A   1      49.670  26.398  24.806  1.00  0.00     0.022 A 
BRANCH  64  67
ATOM     67  S   UNL A   1      49.071  27.330  22.307  1.00  0.00     0.127 S 
ATOM     68  O   UNL A   1      48.269  28.511  21.992  1.00  0.00    -0.237 OA
ATOM     69  O   UNL A   1      50.516  27.559  22.313  1.00  0.00    -0.237 OA
ATOM     70  O   UNL A   1      48.654  26.098  21.653  1.00  0.00    -0.744 OA
ENDBRANCH  64  67
ENDBRANCH  46  60
BRANCH  47  71
ATOM     71  C   UNL A   1      38.806  29.773  30.807  1.00  0.00     0.023 A 
ATOM     72  C   UNL A   1      38.664  29.275  32.117  1.00  0.00     0.012 A 
ATOM     73  C   UNL A   1      37.814  30.627  30.288  1.00  0.00     0.148 A 
ATOM     74  C   UNL A   1      37.545  29.597  32.886  1.00  0.00     0.002 A 
ATOM     75  C   UNL A   1      36.727  30.988  31.079  1.00  0.00     0.091 A 
ATOM     76  F   UNL A   1      37.961  31.086  29.037  1.00  0.00    -0.205 F 
ATOM     77  C   UNL A   1      36.583  30.462  32.372  1.00  0.00     0.022 A 
BRANCH  75  78
ATOM     78  S   UNL A   1      35.511  32.203  30.552  1.00  0.00     0.127 S 
ATOM     79  O   UNL A   1      36.340  33.387  30.346  1.00  0.00    -0.237 OA
ATOM     80  O   UNL A   1      34.988  31.596  29.326  1.00  0.00    -0.237 OA
ATOM     81  O   UNL A   1      34.543  32.285  31.636  1.00  0.00    -0.744 OA
ENDBRANCH  75  78
ENDBRANCH  47  71
BRANCH  59  82
ATOM     82  C   UNL A   1      44.644  33.240  29.132  1.00  0.00     0.023 A 
ATOM     83  C   UNL A   1      45.312  33.561  30.329  1.00  0.00     0.012 A 
ATOM     84  C   UNL A   1      44.483  34.225  28.138  1.00  0.00     0.148 A 
ATOM     85  C   UNL A   1      45.789  34.852  30.547  1.00  0.00     0.002 A 
ATOM     86  C   UNL A   1      45.004  35.496  28.342  1.00  0.00     0.091 A 
ATOM     87  F   UNL A   1      43.827  33.900  27.015  1.00  0.00    -0.205 F 
ATOM     88  C   UNL A   1      45.646  35.815  29.549  1.00  0.00     0.022 A 
BRANCH  86  89
ATOM     89  S   UNL A   1      44.956  36.766  27.072  1.00  0.00     0.127 S 
ATOM     90  O   UNL A   1      45.562  37.902  27.764  1.00  0.00    -0.237 OA
ATOM     91  O   UNL A   1      45.784  36.181  26.017  1.00  0.00    -0.237 OA
ATOM     92  O   UNL A   1      43.552  36.924  26.718  1.00  0.00    -0.744 OA
ENDBRANCH  86  89
ENDBRANCH  59  82
ENDBRANCH  33  34
ENDBRANCH  25  28
ENDBRANCH  23  24
ENDBRANCH  22  23
ENDBRANCH   1  22
TORSDOF 17
ENDMDL
MODEL 2
REMARK VINA RESULT:     -11.6      1.915      8.539
REMARK SMILES CC(C)(C)OC(=O)NC[C@H]1CC[C@@H](C(=O)NCCCNC(=O)c2ccc(-c3c4nc(c(-c5cccc(S(=O)(=O)[O-])c5F)c5ccc([nH]5)c(-c5cccc(S(=O)(=O)[O-])c5F)c5nc(c(-c6cccc(S(=O)(=O)[O-])c6F)c6ccc3[nH]6)C=C5)C=C4)cc2)CC1
REMARK SMILES IDX 17 1 16 2 14 3 15 4 13 6 10 7 11 8 87 9 12 10 86 11 9 12
REMARK SMILES IDX 8 13 6 14 7 15 5 17 2 18 1 19 3 20 4 21 18 22 19 23 20 24
REMARK SMILES IDX 21 25 22 27 23 28 24 29 85 30 25 31 84 32 26 33 27 34 28 35
REMARK SMILES IDX 78 36 29 37 83 38 77 39 79 40 30 41 82 42 76 43 75 44 31 46
REMARK SMILES IDX 63 47 43 48 62 49 44 50 47 51 61 52 80 53 45 54 46 55 60 57
REMARK SMILES IDX 81 58 48 59 32 60 33 61 41 62 34 63 36 64 42 65 35 66 37 67
REMARK SMILES IDX 38 68 39 69 40 70 64 71 65 72 73 73 66 74 68 75 74 76 67 77
REMARK SMILES IDX 69 78 70 79 71 80 72 81 49 82 50 83 58 84 51 85 53 86 59 87
REMARK SMILES IDX 52 88 54 89 55 90 56 91 57 92
REMARK H PARENT 16 5 8 16 20 26 79 45 47 56
REMARK Flexibility Score: inf
ROOT
ATOM      1  C   UNL A   1      34.191  23.950  25.546  1.00  0.00     0.117 C 
ENDROOT
BRANCH   1   2
ATOM      2  N   UNL A   1      34.089  25.278  24.989  1.00  0.00    -0.356 N 
ATOM      3  C   UNL A   1      33.317  25.783  23.997  1.00  0.00     0.223 C 
ATOM      4  O   UNL A   1      33.393  27.007  23.826  1.00  0.00    -0.275 OA
ATOM      5  H   UNL A   1      34.691  25.937  25.406  1.00  0.00     0.163 HD
BRANCH   3   6
ATOM      6  C   UNL A   1      32.346  24.965  23.131  1.00  0.00     0.078 C 
ATOM      7  C   UNL A   1      31.908  21.982  23.339  1.00  0.00     0.008 C 
ATOM      8  C   UNL A   1      31.351  22.952  24.393  1.00  0.00     0.006 C 
ATOM      9  C   UNL A   1      33.035  22.545  22.449  1.00  0.00     0.006 C 
ATOM     10  C   UNL A   1      31.159  24.372  23.883  1.00  0.00     0.014 C 
ATOM     11  C   UNL A   1      32.941  24.026  22.084  1.00  0.00     0.014 C 
BRANCH   7  12
ATOM     12  C   UNL A   1      32.270  20.616  23.989  1.00  0.00     0.123 C 
BRANCH  12  13
ATOM     13  N   UNL A   1      33.692  20.356  24.110  1.00  0.00    -0.321 N 
ATOM     14  C   UNL A   1      34.353  19.288  24.639  1.00  0.00     0.407 C 
ATOM     15  O   UNL A   1      35.573  19.266  24.625  1.00  0.00    -0.225 OA
ATOM     16  H   UNL A   1      34.274  21.065  23.752  1.00  0.00     0.167 HD
BRANCH  14  17
ATOM     17  O   UNL A   1      33.546  18.332  25.154  1.00  0.00    -0.444 OA
BRANCH  17  18
ATOM     18  C   UNL A   1      33.662  16.942  24.725  1.00  0.00     0.106 C 
ATOM     19  C   UNL A   1      33.472  16.994  23.204  1.00  0.00     0.056 C 
ATOM     20  C   UNL A   1      32.528  16.108  25.327  1.00  0.00     0.056 C 
ATOM     21  C   UNL A   1      35.029  16.295  25.005  1.00  0.00     0.056 C 
ENDBRANCH  17  18
ENDBRANCH  14  17
ENDBRANCH  12  13
ENDBRANCH   7  12
ENDBRANCH   3   6
ENDBRANCH   1   2
BRANCH   1  22
ATOM     22  C   UNL A   1      35.509  23.261  25.232  1.00  0.00     0.042 C 
BRANCH  22  23
ATOM     23  C   UNL A   1      35.995  22.335  26.336  1.00  0.00     0.118 C 
BRANCH  23  24
ATOM     24  N   UNL A   1      37.077  21.445  25.923  1.00  0.00    -0.352 N 
ATOM     25  C   UNL A   1      38.442  21.615  25.889  1.00  0.00     0.251 C 
ATOM     26  H   UNL A   1      36.774  20.562  25.612  1.00  0.00     0.163 HD
ATOM     27  O   UNL A   1      39.145  20.746  25.376  1.00  0.00    -0.269 OA
BRANCH  25  28
ATOM     28  C   UNL A   1      39.081  22.792  26.504  1.00  0.00     0.039 A 
ATOM     29  C   UNL A   1      38.682  24.083  26.128  1.00  0.00     0.014 A 
ATOM     30  C   UNL A   1      40.168  22.621  27.357  1.00  0.00     0.014 A 
ATOM     31  C   UNL A   1      39.362  25.199  26.623  1.00  0.00     0.010 A 
ATOM     32  C   UNL A   1      40.785  23.724  27.922  1.00  0.00     0.010 A 
ATOM     33  C   UNL A   1      40.419  25.020  27.521  1.00  0.00    -0.014 A 
BRANCH  33  34
ATOM     34  C   UNL A   1      41.288  26.127  27.976  1.00  0.00     0.031 A 
ATOM     35  C   UNL A   1      40.645  27.244  28.754  1.00  0.00     0.074 A 
ATOM     36  C   UNL A   1      42.561  26.207  27.555  1.00  0.00     0.049 A 
ATOM     37  N   UNL A   1      41.081  28.450  28.991  1.00  0.00    -0.248 NA
ATOM     38  C   UNL A   1      39.291  26.979  29.278  1.00  0.00     0.031 C 
ATOM     39  C   UNL A   1      43.257  25.190  26.764  1.00  0.00     0.029 A 
ATOM     40  N   UNL A   1      43.476  27.218  27.684  1.00  0.00    -0.354 N 
ATOM     41  C   UNL A   1      40.029  29.111  29.615  1.00  0.00     0.074 A 
ATOM     42  C   UNL A   1      38.928  28.180  29.704  1.00  0.00     0.031 C 
ATOM     43  C   UNL A   1      44.483  25.643  26.452  1.00  0.00     0.029 A 
ATOM     44  C   UNL A   1      44.638  26.993  26.983  1.00  0.00     0.049 A 
ATOM     45  H   UNL A   1      43.318  28.025  28.225  1.00  0.00     0.167 HD
ATOM     46  C   UNL A   1      39.994  30.380  30.086  1.00  0.00     0.034 A 
ATOM     47  C   UNL A   1      45.691  27.807  26.772  1.00  0.00     0.034 A 
ATOM     48  C   UNL A   1      41.132  31.256  30.053  1.00  0.00     0.049 A 
ATOM     49  C   UNL A   1      45.664  29.183  27.383  1.00  0.00     0.074 A 
ATOM     50  C   UNL A   1      41.261  32.527  30.581  1.00  0.00     0.029 A 
ATOM     51  N   UNL A   1      42.349  30.938  29.464  1.00  0.00    -0.354 N 
ATOM     52  N   UNL A   1      44.705  29.764  28.064  1.00  0.00    -0.248 NA
ATOM     53  C   UNL A   1      46.872  30.004  27.225  1.00  0.00     0.031 C 
ATOM     54  C   UNL A   1      42.557  32.979  30.305  1.00  0.00     0.029 A 
ATOM     55  C   UNL A   1      43.239  31.982  29.622  1.00  0.00     0.049 A 
ATOM     56  H   UNL A   1      42.548  30.092  29.001  1.00  0.00     0.167 HD
ATOM     57  C   UNL A   1      45.205  31.002  28.450  1.00  0.00     0.074 A 
ATOM     58  C   UNL A   1      46.560  31.078  27.937  1.00  0.00     0.031 C 
ATOM     59  C   UNL A   1      44.600  31.995  29.147  1.00  0.00     0.034 A 
BRANCH  46  60
ATOM     60  C   UNL A   1      38.712  30.864  30.714  1.00  0.00     0.023 A 
ATOM     61  C   UNL A   1      38.522  30.739  32.106  1.00  0.00     0.012 A 
ATOM     62  C   UNL A   1      37.703  31.466  29.934  1.00  0.00     0.148 A 
ATOM     63  C   UNL A   1      37.336  31.159  32.705  1.00  0.00     0.002 A 
ATOM     64  C   UNL A   1      36.543  31.928  30.547  1.00  0.00     0.091 A 
ATOM     65  F   UNL A   1      37.887  31.558  28.610  1.00  0.00    -0.205 F 
ATOM     66  C   UNL A   1      36.351  31.762  31.928  1.00  0.00     0.022 A 
BRANCH  64  67
ATOM     67  S   UNL A   1      35.246  32.791  29.649  1.00  0.00     0.127 S 
ATOM     68  O   UNL A   1      34.225  32.948  30.683  1.00  0.00    -0.237 OA
ATOM     69  O   UNL A   1      35.917  34.032  29.261  1.00  0.00    -0.237 OA
ATOM     70  O   UNL A   1      34.883  31.924  28.537  1.00  0.00    -0.744 OA
ENDBRANCH  64  67
ENDBRANCH  46  60
BRANCH  47  71
ATOM     71  C   UNL A   1      46.873  27.310  26.011  1.00  0.00     0.023 A 
ATOM     72  C   UNL A   1      47.724  26.363  26.615  1.00  0.00     0.012 A 
ATOM     73  C   UNL A   1      47.130  27.717  24.688  1.00  0.00     0.148 A 
ATOM     74  C   UNL A   1      48.824  25.851  25.926  1.00  0.00     0.002 A 
ATOM     75  C   UNL A   1      48.197  27.161  23.987  1.00  0.00     0.091 A 
ATOM     76  F   UNL A   1      46.316  28.625  24.131  1.00  0.00    -0.205 F 
ATOM     77  C   UNL A   1      49.054  26.241  24.609  1.00  0.00     0.022 A 
BRANCH  75  78
ATOM     78  S   UNL A   1      48.489  27.500  22.246  1.00  0.00     0.127 S 
ATOM     79  O   UNL A   1      49.713  28.296  22.296  1.00  0.00    -0.237 OA
ATOM     80  O   UNL A   1      48.652  26.153  21.697  1.00  0.00    -0.237 OA
ATOM     81  O   UNL A   1      47.298  28.196  21.776  1.00  0.00    -0.744 OA
ENDBRANCH  75  78
ENDBRANCH  47  71
BRANCH  59  82
ATOM     82  C   UNL A   1      45.410  33.229  29.437  1.00  0.00     0.023 A 
ATOM     83  C   UNL A   1      46.225  33.276  30.585  1.00  0.00     0.012 A 
ATOM     84  C   UNL A   1      45.429  34.301  28.524  1.00  0.00     0.148 A 
ATOM     85  C   UNL A   1      47.027  34.387  30.834  1.00  0.00     0.002 A 
ATOM     86  C   UNL A   1      46.268  35.383  28.754  1.00  0.00     0.091 A 
ATOM     87  F   UNL A   1      44.630  34.241  27.449  1.00  0.00    -0.205 F 
ATOM     88  C   UNL A   1      47.059  35.434  29.914  1.00  0.00     0.022 A 
BRANCH  86  89
ATOM     89  S   UNL A   1      46.447  36.725  27.574  1.00  0.00     0.127 S 
ATOM     90  O   UNL A   1      45.106  37.306  27.578  1.00  0.00    -0.237 OA
ATOM     91  O   UNL A   1      47.475  37.556  28.201  1.00  0.00    -0.237 OA
ATOM     92  O   UNL A   1      46.856  36.103  26.321  1.00  0.00    -0.744 OA
ENDBRANCH  86  89
ENDBRANCH  59  82
ENDBRANCH  33  34
ENDBRANCH  25  28
ENDBRANCH  23  24
ENDBRANCH  22  23
ENDBRANCH   1  22
TORSDOF 17
ENDMDL
MODEL 3
REMARK VINA RESULT:     -11.6      5.056     10.865
REMARK SMILES CC(C)(C)OC(=O)NC[C@H]1CC[C@@H](C(=O)NCCCNC(=O)c2ccc(-c3c4nc(c(-c5cccc(S(=O)(=O)[O-])c5F)c5ccc([nH]5)c(-c5cccc(S(=O)(=O)[O-])c5F)c5nc(c(-c6cccc(S(=O)(=O)[O-])c6F)c6ccc3[nH]6)C=C5)C=C4)cc2)CC1
REMARK SMILES IDX 17 1 16 2 14 3 15 4 13 6 10 7 11 8 87 9 12 10 86 11 9 12
REMARK SMILES IDX 8 13 6 14 7 15 5 17 2 18 1 19 3 20 4 21 18 22 19 23 20 24
REMARK SMILES IDX 21 25 22 27 23 28 24 29 85 30 25 31 84 32 26 33 27 34 28 35
REMARK SMILES IDX 78 36 29 37 83 38 77 39 79 40 30 41 82 42 76 43 75 44 31 46
REMARK SMILES IDX 63 47 43 48 62 49 44 50 47 51 61 52 80 53 45 54 46 55 60 57
REMARK SMILES IDX 81 58 48 59 32 60 33 61 41 62 34 63 36 64 42 65 35 66 37 67
REMARK SMILES IDX 38 68 39 69 40 70 64 71 65 72 73 73 66 74 68 75 74 76 67 77
REMARK SMILES IDX 69 78 70 79 71 80 72 81 49 82 50 83 58 84 51 85 53 86 59 87
REMARK SMILES IDX 52 88 54 89 55 90 56 91 57 92
REMARK H PARENT 16 5 8 16 20 26 79 45 47 56
REMARK Flexibility Score: inf
ROOT
ATOM      1  C   UNL A   1      31.939  30.226  26.098  1.00  0.00     0.117 C 
ENDROOT
BRANCH   1   2
ATOM      2  N   UNL A   1      31.913  29.756  24.734  1.00  0.00    -0.356 N 
ATOM      3  C   UNL A   1      31.416  28.625  24.179  1.00  0.00     0.223 C 
ATOM      4  O   UNL A   1      31.460  28.567  22.943  1.00  0.00    -0.275 OA
ATOM      5  H   UNL A   1      32.334  30.369  24.088  1.00  0.00     0.163 HD
BRANCH   3   6
ATOM      6  C   UNL A   1      30.775  27.467  24.960  1.00  0.00     0.078 C 
ATOM      7  C   UNL A   1      31.283  24.530  24.461  1.00  0.00     0.008 C 
ATOM      8  C   UNL A   1      32.330  25.422  25.148  1.00  0.00     0.006 C 
ATOM      9  C   UNL A   1      30.189  25.278  23.672  1.00  0.00     0.006 C 
ATOM     10  C   UNL A   1      31.744  26.657  25.815  1.00  0.00     0.014 C 
ATOM     11  C   UNL A   1      29.727  26.616  24.247  1.00  0.00     0.014 C 
BRANCH   7  12
ATOM     12  C   UNL A   1      31.976  23.411  23.632  1.00  0.00     0.123 C 
BRANCH  12  13
ATOM     13  N   UNL A   1      33.317  23.732  23.177  1.00  0.00    -0.321 N 
ATOM     14  C   UNL A   1      34.493  23.066  23.356  1.00  0.00     0.407 C 
ATOM     15  O   UNL A   1      35.518  23.512  22.868  1.00  0.00    -0.225 OA
ATOM     16  H   UNL A   1      33.389  24.564  22.655  1.00  0.00     0.167 HD
BRANCH  14  17
ATOM     17  O   UNL A   1      34.389  21.940  24.098  1.00  0.00    -0.444 OA
BRANCH  17  18
ATOM     18  C   UNL A   1      34.875  21.901  25.474  1.00  0.00     0.106 C 
ATOM     19  C   UNL A   1      36.097  20.974  25.420  1.00  0.00     0.056 C 
ATOM     20  C   UNL A   1      33.824  21.265  26.387  1.00  0.00     0.056 C 
ATOM     21  C   UNL A   1      35.340  23.257  26.030  1.00  0.00     0.056 C 
ENDBRANCH  17  18
ENDBRANCH  14  17
ENDBRANCH  12  13
ENDBRANCH   7  12
ENDBRANCH   3   6
ENDBRANCH   1   2
BRANCH   1  22
ATOM     22  C   UNL A   1      31.568  31.694  26.240  1.00  0.00     0.042 C 
BRANCH  22  23
ATOM     23  C   UNL A   1      32.036  32.322  27.543  1.00  0.00     0.118 C 
BRANCH  23  24
ATOM     24  N   UNL A   1      32.719  33.601  27.369  1.00  0.00    -0.352 N 
ATOM     25  C   UNL A   1      33.984  34.020  27.711  1.00  0.00     0.251 C 
ATOM     26  H   UNL A   1      32.173  34.290  26.925  1.00  0.00     0.163 HD
ATOM     27  O   UNL A   1      34.287  35.203  27.565  1.00  0.00    -0.269 OA
BRANCH  25  28
ATOM     28  C   UNL A   1      34.999  33.068  28.197  1.00  0.00     0.039 A 
ATOM     29  C   UNL A   1      34.636  31.744  28.488  1.00  0.00     0.014 A 
ATOM     30  C   UNL A   1      36.283  33.518  28.490  1.00  0.00     0.014 A 
ATOM     31  C   UNL A   1      35.568  30.871  29.055  1.00  0.00     0.010 A 
ATOM     32  C   UNL A   1      37.235  32.631  28.965  1.00  0.00     0.010 A 
ATOM     33  C   UNL A   1      36.871  31.316  29.297  1.00  0.00    -0.014 A 
BRANCH  33  34
ATOM     34  C   UNL A   1      37.876  30.513  30.030  1.00  0.00     0.031 A 
ATOM     35  C   UNL A   1      38.141  30.872  31.467  1.00  0.00     0.074 A 
ATOM     36  C   UNL A   1      38.637  29.620  29.376  1.00  0.00     0.049 A 
ATOM     37  N   UNL A   1      39.156  30.563  32.226  1.00  0.00    -0.248 NA
ATOM     38  C   UNL A   1      37.154  31.758  32.113  1.00  0.00     0.031 C 
ATOM     39  C   UNL A   1      38.478  29.238  27.972  1.00  0.00     0.029 A 
ATOM     40  N   UNL A   1      39.737  28.918  29.794  1.00  0.00    -0.354 N 
ATOM     41  C   UNL A   1      38.972  31.280  33.404  1.00  0.00     0.074 A 
ATOM     42  C   UNL A   1      37.760  32.052  33.252  1.00  0.00     0.031 C 
ATOM     43  C   UNL A   1      39.464  28.391  27.635  1.00  0.00     0.029 A 
ATOM     44  C   UNL A   1      40.345  28.208  28.784  1.00  0.00     0.049 A 
ATOM     45  H   UNL A   1      40.059  28.921  30.724  1.00  0.00     0.167 HD
ATOM     46  C   UNL A   1      39.741  31.278  34.518  1.00  0.00     0.034 A 
ATOM     47  C   UNL A   1      41.502  27.518  28.789  1.00  0.00     0.034 A 
ATOM     48  C   UNL A   1      40.898  30.439  34.667  1.00  0.00     0.049 A 
ATOM     49  C   UNL A   1      42.293  27.460  30.069  1.00  0.00     0.074 A 
ATOM     50  C   UNL A   1      41.706  30.269  35.775  1.00  0.00     0.029 A 
ATOM     51  N   UNL A   1      41.401  29.615  33.669  1.00  0.00    -0.354 N 
ATOM     52  N   UNL A   1      42.055  28.057  31.213  1.00  0.00    -0.248 NA
ATOM     53  C   UNL A   1      43.491  26.611  30.071  1.00  0.00     0.031 C 
ATOM     54  C   UNL A   1      42.703  29.344  35.444  1.00  0.00     0.029 A 
ATOM     55  C   UNL A   1      42.503  28.925  34.136  1.00  0.00     0.049 A 
ATOM     56  H   UNL A   1      41.027  29.534  32.762  1.00  0.00     0.167 HD
ATOM     57  C   UNL A   1      43.051  27.627  32.083  1.00  0.00     0.074 A 
ATOM     58  C   UNL A   1      43.884  26.706  31.334  1.00  0.00     0.031 C 
ATOM     59  C   UNL A   1      43.272  27.972  33.376  1.00  0.00     0.034 A 
BRANCH  46  60
ATOM     60  C   UNL A   1      39.325  32.167  35.663  1.00  0.00     0.023 A 
ATOM     61  C   UNL A   1      38.459  31.667  36.658  1.00  0.00     0.012 A 
ATOM     62  C   UNL A   1      39.809  33.486  35.772  1.00  0.00     0.148 A 
ATOM     63  C   UNL A   1      38.043  32.477  37.714  1.00  0.00     0.002 A 
ATOM     64  C   UNL A   1      39.428  34.272  36.855  1.00  0.00     0.091 A 
ATOM     65  F   UNL A   1      40.613  33.955  34.808  1.00  0.00    -0.205 F 
ATOM     66  C   UNL A   1      38.535  33.775  37.818  1.00  0.00     0.022 A 
BRANCH  64  67
ATOM     67  S   UNL A   1      40.068  35.930  37.125  1.00  0.00     0.127 S 
ATOM     68  O   UNL A   1      41.499  35.675  37.275  1.00  0.00    -0.237 OA
ATOM     69  O   UNL A   1      39.697  36.608  35.882  1.00  0.00    -0.237 OA
ATOM     70  O   UNL A   1      39.394  36.432  38.314  1.00  0.00    -0.744 OA
ENDBRANCH  64  67
ENDBRANCH  46  60
BRANCH  47  71
ATOM     71  C   UNL A   1      41.931  26.778  27.568  1.00  0.00     0.023 A 
ATOM     72  C   UNL A   1      42.582  27.482  26.537  1.00  0.00     0.012 A 
ATOM     73  C   UNL A   1      41.755  25.386  27.443  1.00  0.00     0.148 A 
ATOM     74  C   UNL A   1      43.026  26.821  25.391  1.00  0.00     0.002 A 
ATOM     75  C   UNL A   1      42.249  24.724  26.323  1.00  0.00     0.091 A 
ATOM     76  F   UNL A   1      41.127  24.732  28.430  1.00  0.00    -0.205 F 
ATOM     77  C   UNL A   1      42.870  25.441  25.289  1.00  0.00     0.022 A 
BRANCH  75  78
ATOM     78  S   UNL A   1      42.215  22.933  26.168  1.00  0.00     0.127 S 
ATOM     79  O   UNL A   1      42.822  22.734  24.855  1.00  0.00    -0.237 OA
ATOM     80  O   UNL A   1      43.045  22.514  27.300  1.00  0.00    -0.237 OA
ATOM     81  O   UNL A   1      40.813  22.555  26.284  1.00  0.00    -0.744 OA
ENDBRANCH  75  78
ENDBRANCH  47  71
BRANCH  59  82
ATOM     82  C   UNL A   1      44.430  27.318  34.077  1.00  0.00     0.023 A 
ATOM     83  C   UNL A   1      45.716  27.884  33.979  1.00  0.00     0.012 A 
ATOM     84  C   UNL A   1      44.223  26.197  34.904  1.00  0.00     0.148 A 
ATOM     85  C   UNL A   1      46.787  27.325  34.674  1.00  0.00     0.002 A 
ATOM     86  C   UNL A   1      45.285  25.675  35.631  1.00  0.00     0.091 A 
ATOM     87  F   UNL A   1      42.994  25.665  34.966  1.00  0.00    -0.205 F 
ATOM     88  C   UNL A   1      46.570  26.230  35.508  1.00  0.00     0.022 A 
BRANCH  86  89
ATOM     89  S   UNL A   1      45.075  24.333  36.805  1.00  0.00     0.127 S 
ATOM     90  O   UNL A   1      44.034  24.866  37.683  1.00  0.00    -0.237 OA
ATOM     91  O   UNL A   1      44.642  23.232  35.944  1.00  0.00    -0.237 OA
ATOM     92  O   UNL A   1      46.377  24.136  37.426  1.00  0.00    -0.744 OA
ENDBRANCH  86  89
ENDBRANCH  59  82
ENDBRANCH  33  34
ENDBRANCH  25  28
ENDBRANCH  23  24
ENDBRANCH  22  23
ENDBRANCH   1  22
TORSDOF 17
ENDMDL
