MODEL 1
REMARK VINA RESULT:     -12.8      0.000      0.000
REMARK SMILES Cc1nn(CC(=O)NCCCNC(=O)c2ccc(-c3c4nc(c(-c5cccc(S(=O)(=O)[O-])c5F)c5ccc([nH]5)c(-c5cccc(S(=O)(=O)[O-])c5F)c5nc(c(-c6cccc(S(=O)(=O)[O-])c6F)c6ccc3[nH]6)C=C5)C=C4)cc2)c(C)c1S(=O)(=O)N1CCC(C)(C)C1
REMARK SMILES IDX 10 1 9 2 8 3 6 4 7 5 5 7 4 8 1 9 2 10 3 11 80 12 78 13 79 14
REMARK SMILES IDX 81 15 82 16 83 17 84 18 85 19 90 20 86 21 87 22 88 23 89 24
REMARK SMILES IDX 11 25 12 26 13 27 14 29 15 30 16 31 77 32 17 33 76 34 18 35
REMARK SMILES IDX 19 36 20 37 70 38 21 39 75 40 69 41 71 42 22 43 74 44 68 45
REMARK SMILES IDX 67 46 23 48 55 49 35 50 54 51 36 52 39 53 53 54 72 55 37 56
REMARK SMILES IDX 38 57 52 59 73 60 40 61 24 62 25 63 33 64 26 65 28 66 34 67
REMARK SMILES IDX 27 68 29 69 30 70 31 71 32 72 56 73 57 74 65 75 58 76 60 77
REMARK SMILES IDX 66 78 59 79 61 80 62 81 63 82 64 83 41 84 42 85 50 86 43 87
REMARK SMILES IDX 45 88 51 89 44 90 46 91 47 92 48 93 49 94
REMARK H PARENT 8 6 12 28 71 47 39 58
REMARK Flexibility Score: inf
ROOT
ATOM      1  C   UNL A   1      37.909  19.652  24.809  1.00  0.00     0.042 C 
ENDROOT
BRANCH   1   2
ATOM      2  C   UNL A   1      36.679  20.532  25.044  1.00  0.00     0.117 C 
BRANCH   2   3
ATOM      3  N   UNL A   1      36.970  21.950  25.115  1.00  0.00    -0.354 N 
ATOM      4  C   UNL A   1      36.185  23.009  24.745  1.00  0.00     0.241 C 
ATOM      5  O   UNL A   1      36.513  24.127  25.149  1.00  0.00    -0.273 OA
ATOM      6  H   UNL A   1      37.854  22.183  25.479  1.00  0.00     0.163 HD
BRANCH   4   7
ATOM      7  C   UNL A   1      34.872  22.804  24.023  1.00  0.00     0.244 C 
BRANCH   7   8
ATOM      8  N   UNL A   1      34.032  23.989  23.972  1.00  0.00    -0.259 N 
ATOM      9  C   UNL A   1      33.055  26.730  21.998  1.00  0.00     0.070 C 
ATOM     10  C   UNL A   1      33.192  25.738  23.088  1.00  0.00     0.080 A 
ATOM     11  N   UNL A   1      34.107  24.782  22.896  1.00  0.00    -0.176 NA
ATOM     12  C   UNL A   1      32.569  25.589  24.350  1.00  0.00     0.126 A 
ATOM     13  C   UNL A   1      33.200  24.495  24.941  1.00  0.00     0.056 A 
ATOM     14  C   UNL A   1      33.057  23.909  26.299  1.00  0.00     0.068 C 
BRANCH  12  15
ATOM     15  S   UNL A   1      31.309  26.501  25.097  1.00  0.00     0.246 S 
ATOM     16  O   UNL A   1      30.358  25.471  25.489  1.00  0.00    -0.207 OA
ATOM     17  O   UNL A   1      32.010  27.280  26.090  1.00  0.00    -0.207 OA
BRANCH  15  18
ATOM     18  N   UNL A   1      30.527  27.569  24.104  1.00  0.00    -0.197 NA
ATOM     19  C   UNL A   1      29.279  27.215  23.435  1.00  0.00     0.103 C 
ATOM     20  C   UNL A   1      30.778  29.014  24.116  1.00  0.00     0.109 C 
ATOM     21  C   UNL A   1      28.563  28.541  23.238  1.00  0.00     0.024 C 
ATOM     22  C   UNL A   1      29.676  29.601  23.207  1.00  0.00    -0.020 C 
ATOM     23  C   UNL A   1      30.203  29.791  21.776  1.00  0.00     0.012 C 
ATOM     24  C   UNL A   1      29.161  30.939  23.744  1.00  0.00     0.012 C 
ENDBRANCH  15  18
ENDBRANCH  12  15
ENDBRANCH   7   8
ENDBRANCH   4   7
ENDBRANCH   2   3
ENDBRANCH   1   2
BRANCH   1  25
ATOM     25  C   UNL A   1      39.082  20.083  25.666  1.00  0.00     0.118 C 
BRANCH  25  26
ATOM     26  N   UNL A   1      40.125  19.047  25.790  1.00  0.00    -0.352 N 
ATOM     27  C   UNL A   1      41.483  19.218  26.020  1.00  0.00     0.251 C 
ATOM     28  H   UNL A   1      39.818  18.116  25.696  1.00  0.00     0.163 HD
ATOM     29  O   UNL A   1      42.286  18.317  25.807  1.00  0.00    -0.269 OA
BRANCH  27  30
ATOM     30  C   UNL A   1      41.930  20.519  26.539  1.00  0.00     0.039 A 
ATOM     31  C   UNL A   1      42.523  21.506  25.746  1.00  0.00     0.014 A 
ATOM     32  C   UNL A   1      41.623  20.765  27.867  1.00  0.00     0.014 A 
ATOM     33  C   UNL A   1      42.723  22.769  26.303  1.00  0.00     0.010 A 
ATOM     34  C   UNL A   1      41.520  22.054  28.281  1.00  0.00     0.010 A 
ATOM     35  C   UNL A   1      42.200  23.033  27.577  1.00  0.00    -0.014 A 
BRANCH  35  36
ATOM     36  C   UNL A   1      42.307  24.323  28.238  1.00  0.00     0.031 A 
ATOM     37  C   UNL A   1      41.153  25.234  28.041  1.00  0.00     0.074 A 
ATOM     38  C   UNL A   1      43.258  24.540  29.178  1.00  0.00     0.049 A 
ATOM     39  N   UNL A   1      41.140  26.357  27.403  1.00  0.00    -0.248 NA
ATOM     40  C   UNL A   1      39.824  24.786  28.484  1.00  0.00     0.031 C 
ATOM     41  C   UNL A   1      44.254  23.590  29.713  1.00  0.00     0.029 A 
ATOM     42  N   UNL A   1      43.419  25.610  29.995  1.00  0.00    -0.354 N 
ATOM     43  C   UNL A   1      39.859  26.875  27.584  1.00  0.00     0.074 A 
ATOM     44  C   UNL A   1      39.048  25.784  28.055  1.00  0.00     0.031 C 
ATOM     45  C   UNL A   1      44.681  24.013  30.921  1.00  0.00     0.029 A 
ATOM     46  C   UNL A   1      44.165  25.347  31.139  1.00  0.00     0.049 A 
ATOM     47  H   UNL A   1      43.040  26.498  29.797  1.00  0.00     0.167 HD
ATOM     48  C   UNL A   1      39.635  28.219  27.589  1.00  0.00     0.034 A 
ATOM     49  C   UNL A   1      44.308  26.156  32.216  1.00  0.00     0.034 A 
ATOM     50  C   UNL A   1      40.783  28.947  27.111  1.00  0.00     0.049 A 
ATOM     51  C   UNL A   1      43.967  27.524  31.769  1.00  0.00     0.074 A 
ATOM     52  C   UNL A   1      41.516  28.961  25.940  1.00  0.00     0.029 A 
ATOM     53  N   UNL A   1      41.586  29.529  28.064  1.00  0.00    -0.354 N 
ATOM     54  N   UNL A   1      44.657  28.175  30.874  1.00  0.00    -0.248 NA
ATOM     55  C   UNL A   1      42.599  27.979  31.960  1.00  0.00     0.031 C 
ATOM     56  C   UNL A   1      42.873  29.089  26.364  1.00  0.00     0.029 A 
ATOM     57  C   UNL A   1      42.884  29.218  27.755  1.00  0.00     0.049 A 
ATOM     58  H   UNL A   1      41.282  30.069  28.828  1.00  0.00     0.167 HD
ATOM     59  C   UNL A   1      43.697  28.784  30.075  1.00  0.00     0.074 A 
ATOM     60  C   UNL A   1      42.462  28.722  30.858  1.00  0.00     0.031 C 
ATOM     61  C   UNL A   1      43.920  29.006  28.744  1.00  0.00     0.034 A 
BRANCH  48  62
ATOM     62  C   UNL A   1      38.542  28.920  28.363  1.00  0.00     0.023 A 
ATOM     63  C   UNL A   1      37.724  29.824  27.648  1.00  0.00     0.012 A 
ATOM     64  C   UNL A   1      38.454  28.952  29.773  1.00  0.00     0.148 A 
ATOM     65  C   UNL A   1      36.901  30.745  28.304  1.00  0.00     0.002 A 
ATOM     66  C   UNL A   1      37.574  29.816  30.418  1.00  0.00     0.091 A 
ATOM     67  F   UNL A   1      39.314  28.251  30.516  1.00  0.00    -0.205 F 
ATOM     68  C   UNL A   1      36.820  30.738  29.690  1.00  0.00     0.022 A 
BRANCH  66  69
ATOM     69  S   UNL A   1      37.395  29.809  32.205  1.00  0.00     0.127 S 
ATOM     70  O   UNL A   1      38.598  30.522  32.622  1.00  0.00    -0.237 OA
ATOM     71  O   UNL A   1      36.143  30.545  32.385  1.00  0.00    -0.237 OA
ATOM     72  O   UNL A   1      37.315  28.402  32.580  1.00  0.00    -0.744 OA
ENDBRANCH  66  69
ENDBRANCH  48  62
BRANCH  49  73
ATOM     73  C   UNL A   1      44.433  25.781  33.641  1.00  0.00     0.023 A 
ATOM     74  C   UNL A   1      45.701  25.535  34.199  1.00  0.00     0.012 A 
ATOM     75  C   UNL A   1      43.332  25.926  34.516  1.00  0.00     0.148 A 
ATOM     76  C   UNL A   1      45.873  25.462  35.587  1.00  0.00     0.002 A 
ATOM     77  C   UNL A   1      43.507  25.849  35.895  1.00  0.00     0.091 A 
ATOM     78  F   UNL A   1      42.134  26.226  33.995  1.00  0.00    -0.205 F 
ATOM     79  C   UNL A   1      44.779  25.627  36.434  1.00  0.00     0.022 A 
BRANCH  77  80
ATOM     80  S   UNL A   1      42.151  26.084  37.052  1.00  0.00     0.127 S 
ATOM     81  O   UNL A   1      41.452  24.802  36.954  1.00  0.00    -0.237 OA
ATOM     82  O   UNL A   1      42.863  26.298  38.309  1.00  0.00    -0.237 OA
ATOM     83  O   UNL A   1      41.398  27.225  36.551  1.00  0.00    -0.744 OA
ENDBRANCH  77  80
ENDBRANCH  49  73
BRANCH  61  84
ATOM     84  C   UNL A   1      45.313  28.761  28.207  1.00  0.00     0.023 A 
ATOM     85  C   UNL A   1      46.374  29.669  28.416  1.00  0.00     0.012 A 
ATOM     86  C   UNL A   1      45.601  27.511  27.639  1.00  0.00     0.148 A 
ATOM     87  C   UNL A   1      47.684  29.349  28.047  1.00  0.00     0.002 A 
ATOM     88  C   UNL A   1      46.911  27.178  27.311  1.00  0.00     0.091 A 
ATOM     89  F   UNL A   1      44.588  26.650  27.458  1.00  0.00    -0.205 F 
ATOM     90  C   UNL A   1      47.954  28.096  27.505  1.00  0.00     0.022 A 
BRANCH  88  91
ATOM     91  S   UNL A   1      47.343  25.539  26.723  1.00  0.00     0.127 S 
ATOM     92  O   UNL A   1      46.532  25.426  25.512  1.00  0.00    -0.237 OA
ATOM     93  O   UNL A   1      48.782  25.658  26.487  1.00  0.00    -0.237 OA
ATOM     94  O   UNL A   1      46.992  24.621  27.801  1.00  0.00    -0.744 OA
ENDBRANCH  88  91
ENDBRANCH  61  84
ENDBRANCH  35  36
ENDBRANCH  27  30
ENDBRANCH  25  26
ENDBRANCH   1  25
TORSDOF 16
ENDMDL
MODEL 2
REMARK VINA RESULT:     -12.8      4.068      9.742
REMARK SMILES Cc1nn(CC(=O)NCCCNC(=O)c2ccc(-c3c4nc(c(-c5cccc(S(=O)(=O)[O-])c5F)c5ccc([nH]5)c(-c5cccc(S(=O)(=O)[O-])c5F)c5nc(c(-c6cccc(S(=O)(=O)[O-])c6F)c6ccc3[nH]6)C=C5)C=C4)cc2)c(C)c1S(=O)(=O)N1CCC(C)(C)C1
REMARK SMILES IDX 10 1 9 2 8 3 6 4 7 5 5 7 4 8 1 9 2 10 3 11 80 12 78 13 79 14
REMARK SMILES IDX 81 15 82 16 83 17 84 18 85 19 90 20 86 21 87 22 88 23 89 24
REMARK SMILES IDX 11 25 12 26 13 27 14 29 15 30 16 31 77 32 17 33 76 34 18 35
REMARK SMILES IDX 19 36 20 37 70 38 21 39 75 40 69 41 71 42 22 43 74 44 68 45
REMARK SMILES IDX 67 46 23 48 55 49 35 50 54 51 36 52 39 53 53 54 72 55 37 56
REMARK SMILES IDX 38 57 52 59 73 60 40 61 24 62 25 63 33 64 26 65 28 66 34 67
REMARK SMILES IDX 27 68 29 69 30 70 31 71 32 72 56 73 57 74 65 75 58 76 60 77
REMARK SMILES IDX 66 78 59 79 61 80 62 81 63 82 64 83 41 84 42 85 50 86 43 87
REMARK SMILES IDX 45 88 51 89 44 90 46 91 47 92 48 93 49 94
REMARK H PARENT 8 6 12 28 71 47 39 58
REMARK Flexibility Score: inf
ROOT
ATOM      1  C   UNL A   1      31.398  31.771  26.488  1.00  0.00     0.042 C 
ENDROOT
BRANCH   1   2
ATOM      2  C   UNL A   1      31.667  30.300  26.161  1.00  0.00     0.117 C 
BRANCH   2   3
ATOM      3  N   UNL A   1      31.683  30.003  24.742  1.00  0.00    -0.354 N 
ATOM      4  C   UNL A   1      32.227  28.927  24.094  1.00  0.00     0.241 C 
ATOM      5  O   UNL A   1      31.885  28.735  22.925  1.00  0.00    -0.273 OA
ATOM      6  H   UNL A   1      31.242  30.668  24.165  1.00  0.00     0.163 HD
BRANCH   4   7
ATOM      7  C   UNL A   1      33.074  27.910  24.827  1.00  0.00     0.244 C 
BRANCH   7   8
ATOM      8  N   UNL A   1      32.333  26.755  25.305  1.00  0.00    -0.259 N 
ATOM      9  C   UNL A   1      29.129  25.503  26.035  1.00  0.00     0.070 C 
ATOM     10  C   UNL A   1      30.588  25.650  25.837  1.00  0.00     0.080 A 
ATOM     11  N   UNL A   1      31.007  26.863  25.459  1.00  0.00    -0.176 NA
ATOM     12  C   UNL A   1      31.685  24.769  25.996  1.00  0.00     0.126 A 
ATOM     13  C   UNL A   1      32.815  25.541  25.730  1.00  0.00     0.056 A 
ATOM     14  C   UNL A   1      34.260  25.210  25.828  1.00  0.00     0.068 C 
BRANCH  12  15
ATOM     15  S   UNL A   1      31.731  23.099  26.426  1.00  0.00     0.246 S 
ATOM     16  O   UNL A   1      32.162  23.138  27.816  1.00  0.00    -0.207 OA
ATOM     17  O   UNL A   1      30.412  22.631  26.073  1.00  0.00    -0.207 OA
BRANCH  15  18
ATOM     18  N   UNL A   1      32.815  22.180  25.579  1.00  0.00    -0.197 NA
ATOM     19  C   UNL A   1      32.932  22.284  24.127  1.00  0.00     0.103 C 
ATOM     20  C   UNL A   1      33.965  21.513  26.198  1.00  0.00     0.109 C 
ATOM     21  C   UNL A   1      34.371  21.890  23.832  1.00  0.00     0.024 C 
ATOM     22  C   UNL A   1      34.790  20.986  25.003  1.00  0.00    -0.020 C 
ATOM     23  C   UNL A   1      34.436  19.520  24.709  1.00  0.00     0.012 C 
ATOM     24  C   UNL A   1      36.294  21.107  25.263  1.00  0.00     0.012 C 
ENDBRANCH  15  18
ENDBRANCH  12  15
ENDBRANCH   7   8
ENDBRANCH   4   7
ENDBRANCH   2   3
ENDBRANCH   1   2
BRANCH   1  25
ATOM     25  C   UNL A   1      32.546  32.397  27.255  1.00  0.00     0.118 C 
BRANCH  25  26
ATOM     26  N   UNL A   1      32.343  33.831  27.537  1.00  0.00    -0.352 N 
ATOM     27  C   UNL A   1      33.007  34.626  28.461  1.00  0.00     0.251 C 
ATOM     28  H   UNL A   1      31.649  34.280  27.002  1.00  0.00     0.163 HD
ATOM     29  O   UNL A   1      32.556  35.710  28.812  1.00  0.00    -0.269 OA
BRANCH  27  30
ATOM     30  C   UNL A   1      34.281  34.129  29.001  1.00  0.00     0.039 A 
ATOM     31  C   UNL A   1      34.403  33.510  30.249  1.00  0.00     0.014 A 
ATOM     32  C   UNL A   1      35.362  34.208  28.140  1.00  0.00     0.014 A 
ATOM     33  C   UNL A   1      35.617  32.903  30.570  1.00  0.00     0.010 A 
ATOM     34  C   UNL A   1      36.400  33.351  28.320  1.00  0.00     0.010 A 
ATOM     35  C   UNL A   1      36.609  32.820  29.582  1.00  0.00    -0.014 A 
BRANCH  35  36
ATOM     36  C   UNL A   1      37.894  32.172  29.787  1.00  0.00     0.031 A 
ATOM     37  C   UNL A   1      38.001  30.794  29.247  1.00  0.00     0.074 A 
ATOM     38  C   UNL A   1      38.973  32.888  30.185  1.00  0.00     0.049 A 
ATOM     39  N   UNL A   1      38.141  29.698  29.916  1.00  0.00    -0.248 NA
ATOM     40  C   UNL A   1      37.795  30.589  27.805  1.00  0.00     0.031 C 
ATOM     41  C   UNL A   1      39.072  34.342  30.422  1.00  0.00     0.029 A 
ATOM     42  N   UNL A   1      40.266  32.494  30.285  1.00  0.00    -0.354 N 
ATOM     43  C   UNL A   1      38.293  28.695  28.962  1.00  0.00     0.074 A 
ATOM     44  C   UNL A   1      37.855  29.259  27.713  1.00  0.00     0.031 C 
ATOM     45  C   UNL A   1      40.362  34.728  30.336  1.00  0.00     0.029 A 
ATOM     46  C   UNL A   1      41.184  33.540  30.259  1.00  0.00     0.049 A 
ATOM     47  H   UNL A   1      40.534  31.550  30.369  1.00  0.00     0.167 HD
ATOM     48  C   UNL A   1      39.017  27.572  29.227  1.00  0.00     0.034 A 
ATOM     49  C   UNL A   1      42.528  33.433  30.134  1.00  0.00     0.034 A 
ATOM     50  C   UNL A   1      39.316  27.457  30.633  1.00  0.00     0.049 A 
ATOM     51  C   UNL A   1      42.885  32.052  30.528  1.00  0.00     0.074 A 
ATOM     52  C   UNL A   1      38.567  27.381  31.790  1.00  0.00     0.029 A 
ATOM     53  N   UNL A   1      40.581  27.826  31.027  1.00  0.00    -0.354 N 
ATOM     54  N   UNL A   1      42.708  31.585  31.733  1.00  0.00    -0.248 NA
ATOM     55  C   UNL A   1      42.988  31.052  29.477  1.00  0.00     0.031 C 
ATOM     56  C   UNL A   1      39.279  28.180  32.735  1.00  0.00     0.029 A 
ATOM     57  C   UNL A   1      40.451  28.634  32.125  1.00  0.00     0.049 A 
ATOM     58  H   UNL A   1      41.425  27.558  30.597  1.00  0.00     0.167 HD
ATOM     59  C   UNL A   1      42.212  30.303  31.536  1.00  0.00     0.074 A 
ATOM     60  C   UNL A   1      42.516  29.992  30.139  1.00  0.00     0.031 C 
ATOM     61  C   UNL A   1      41.341  29.735  32.426  1.00  0.00     0.034 A 
BRANCH  48  62
ATOM     62  C   UNL A   1      39.783  26.763  28.205  1.00  0.00     0.023 A 
ATOM     63  C   UNL A   1      39.634  25.359  28.250  1.00  0.00     0.012 A 
ATOM     64  C   UNL A   1      40.831  27.271  27.404  1.00  0.00     0.148 A 
ATOM     65  C   UNL A   1      40.512  24.505  27.575  1.00  0.00     0.002 A 
ATOM     66  C   UNL A   1      41.652  26.421  26.672  1.00  0.00     0.091 A 
ATOM     67  F   UNL A   1      41.139  28.570  27.447  1.00  0.00    -0.205 F 
ATOM     68  C   UNL A   1      41.519  25.035  26.780  1.00  0.00     0.022 A 
BRANCH  66  69
ATOM     69  S   UNL A   1      42.935  27.060  25.588  1.00  0.00     0.127 S 
ATOM     70  O   UNL A   1      43.882  27.614  26.551  1.00  0.00    -0.237 OA
ATOM     71  O   UNL A   1      43.383  25.846  24.904  1.00  0.00    -0.237 OA
ATOM     72  O   UNL A   1      42.264  28.018  24.718  1.00  0.00    -0.744 OA
ENDBRANCH  66  69
ENDBRANCH  48  62
BRANCH  49  73
ATOM     73  C   UNL A   1      43.463  34.338  29.431  1.00  0.00     0.023 A 
ATOM     74  C   UNL A   1      44.204  35.290  30.156  1.00  0.00     0.012 A 
ATOM     75  C   UNL A   1      43.827  34.086  28.089  1.00  0.00     0.148 A 
ATOM     76  C   UNL A   1      45.290  35.953  29.569  1.00  0.00     0.002 A 
ATOM     77  C   UNL A   1      44.904  34.749  27.509  1.00  0.00     0.091 A 
ATOM     78  F   UNL A   1      43.169  33.132  27.414  1.00  0.00    -0.205 F 
ATOM     79  C   UNL A   1      45.645  35.677  28.251  1.00  0.00     0.022 A 
BRANCH  77  80
ATOM     80  S   UNL A   1      45.443  34.423  25.825  1.00  0.00     0.127 S 
ATOM     81  O   UNL A   1      45.926  33.046  25.928  1.00  0.00    -0.237 OA
ATOM     82  O   UNL A   1      44.199  34.581  25.076  1.00  0.00    -0.237 OA
ATOM     83  O   UNL A   1      46.477  35.409  25.544  1.00  0.00    -0.744 OA
ENDBRANCH  77  80
ENDBRANCH  49  73
BRANCH  61  84
ATOM     84  C   UNL A   1      41.091  30.456  33.733  1.00  0.00     0.023 A 
ATOM     85  C   UNL A   1      42.048  30.495  34.769  1.00  0.00     0.012 A 
ATOM     86  C   UNL A   1      39.947  31.259  33.844  1.00  0.00     0.148 A 
ATOM     87  C   UNL A   1      41.858  31.295  35.900  1.00  0.00     0.002 A 
ATOM     88  C   UNL A   1      39.779  32.086  34.950  1.00  0.00     0.091 A 
ATOM     89  F   UNL A   1      39.049  31.226  32.847  1.00  0.00    -0.205 F 
ATOM     90  C   UNL A   1      40.727  32.101  35.984  1.00  0.00     0.022 A 
BRANCH  88  91
ATOM     91  S   UNL A   1      38.407  33.236  35.062  1.00  0.00     0.127 S 
ATOM     92  O   UNL A   1      37.280  32.342  35.326  1.00  0.00    -0.237 OA
ATOM     93  O   UNL A   1      38.794  34.081  36.193  1.00  0.00    -0.237 OA
ATOM     94  O   UNL A   1      38.366  33.937  33.784  1.00  0.00    -0.744 OA
ENDBRANCH  88  91
ENDBRANCH  61  84
ENDBRANCH  35  36
ENDBRANCH  27  30
ENDBRANCH  25  26
ENDBRANCH   1  25
TORSDOF 16
ENDMDL
MODEL 3
REMARK VINA RESULT:     -12.8      1.761      2.114
REMARK SMILES Cc1nn(CC(=O)NCCCNC(=O)c2ccc(-c3c4nc(c(-c5cccc(S(=O)(=O)[O-])c5F)c5ccc([nH]5)c(-c5cccc(S(=O)(=O)[O-])c5F)c5nc(c(-c6cccc(S(=O)(=O)[O-])c6F)c6ccc3[nH]6)C=C5)C=C4)cc2)c(C)c1S(=O)(=O)N1CCC(C)(C)C1
REMARK SMILES IDX 10 1 9 2 8 3 6 4 7 5 5 7 4 8 1 9 2 10 3 11 80 12 78 13 79 14
REMARK SMILES IDX 81 15 82 16 83 17 84 18 85 19 90 20 86 21 87 22 88 23 89 24
REMARK SMILES IDX 11 25 12 26 13 27 14 29 15 30 16 31 77 32 17 33 76 34 18 35
REMARK SMILES IDX 19 36 20 37 70 38 21 39 75 40 69 41 71 42 22 43 74 44 68 45
REMARK SMILES IDX 67 46 23 48 55 49 35 50 54 51 36 52 39 53 53 54 72 55 37 56
REMARK SMILES IDX 38 57 52 59 73 60 40 61 24 62 25 63 33 64 26 65 28 66 34 67
REMARK SMILES IDX 27 68 29 69 30 70 31 71 32 72 56 73 57 74 65 75 58 76 60 77
REMARK SMILES IDX 66 78 59 79 61 80 62 81 63 82 64 83 41 84 42 85 50 86 43 87
REMARK SMILES IDX 45 88 51 89 44 90 46 91 47 92 48 93 49 94
REMARK H PARENT 8 6 12 28 71 47 39 58
REMARK Flexibility Score: inf
ROOT
ATOM      1  C   UNL A   1      37.910  19.565  24.986  1.00  0.00     0.042 C 
ENDROOT
BRANCH   1   2
ATOM      2  C   UNL A   1      36.910  20.705  24.778  1.00  0.00     0.117 C 
BRANCH   2   3
ATOM      3  N   UNL A   1      35.809  20.707  25.721  1.00  0.00    -0.354 N 
ATOM      4  C   UNL A   1      35.163  21.773  26.287  1.00  0.00     0.241 C 
ATOM      5  O   UNL A   1      34.083  21.554  26.840  1.00  0.00    -0.273 OA
ATOM      6  H   UNL A   1      35.482  19.819  25.992  1.00  0.00     0.163 HD
BRANCH   4   7
ATOM      7  C   UNL A   1      35.657  23.189  26.093  1.00  0.00     0.244 C 
BRANCH   7   8
ATOM      8  N   UNL A   1      34.700  24.067  25.440  1.00  0.00    -0.259 N 
ATOM      9  C   UNL A   1      32.283  26.568  25.959  1.00  0.00     0.070 C 
ATOM     10  C   UNL A   1      33.203  25.584  25.348  1.00  0.00     0.080 A 
ATOM     11  N   UNL A   1      33.924  24.848  26.202  1.00  0.00    -0.176 NA
ATOM     12  C   UNL A   1      33.478  25.210  24.011  1.00  0.00     0.126 A 
ATOM     13  C   UNL A   1      34.389  24.158  24.105  1.00  0.00     0.056 A 
ATOM     14  C   UNL A   1      34.976  23.285  23.056  1.00  0.00     0.068 C 
BRANCH  12  15
ATOM     15  S   UNL A   1      32.874  25.838  22.521  1.00  0.00     0.246 S 
ATOM     16  O   UNL A   1      34.054  26.453  21.931  1.00  0.00    -0.207 OA
ATOM     17  O   UNL A   1      32.253  24.688  21.907  1.00  0.00    -0.207 OA
BRANCH  15  18
ATOM     18  N   UNL A   1      31.708  27.002  22.667  1.00  0.00    -0.197 NA
ATOM     19  C   UNL A   1      30.307  26.654  22.887  1.00  0.00     0.103 C 
ATOM     20  C   UNL A   1      32.002  28.405  22.972  1.00  0.00     0.109 C 
ATOM     21  C   UNL A   1      29.730  27.849  23.629  1.00  0.00     0.024 C 
ATOM     22  C   UNL A   1      30.617  29.039  23.229  1.00  0.00    -0.020 C 
ATOM     23  C   UNL A   1      30.085  29.706  21.952  1.00  0.00     0.012 C 
ATOM     24  C   UNL A   1      30.674  30.071  24.359  1.00  0.00     0.012 C 
ENDBRANCH  15  18
ENDBRANCH  12  15
ENDBRANCH   7   8
ENDBRANCH   4   7
ENDBRANCH   2   3
ENDBRANCH   1   2
BRANCH   1  25
ATOM     25  C   UNL A   1      39.154  20.033  25.714  1.00  0.00     0.118 C 
BRANCH  25  26
ATOM     26  N   UNL A   1      40.224  19.018  25.749  1.00  0.00    -0.352 N 
ATOM     27  C   UNL A   1      41.588  19.213  25.915  1.00  0.00     0.251 C 
ATOM     28  H   UNL A   1      39.933  18.083  25.640  1.00  0.00     0.163 HD
ATOM     29  O   UNL A   1      42.398  18.339  25.632  1.00  0.00    -0.269 OA
BRANCH  27  30
ATOM     30  C   UNL A   1      42.033  20.507  26.455  1.00  0.00     0.039 A 
ATOM     31  C   UNL A   1      42.593  21.520  25.672  1.00  0.00     0.014 A 
ATOM     32  C   UNL A   1      41.758  20.716  27.796  1.00  0.00     0.014 A 
ATOM     33  C   UNL A   1      42.792  22.772  26.255  1.00  0.00     0.010 A 
ATOM     34  C   UNL A   1      41.650  21.993  28.245  1.00  0.00     0.010 A 
ATOM     35  C   UNL A   1      42.300  22.997  27.548  1.00  0.00    -0.014 A 
BRANCH  35  36
ATOM     36  C   UNL A   1      42.409  24.272  28.238  1.00  0.00     0.031 A 
ATOM     37  C   UNL A   1      41.248  25.182  28.075  1.00  0.00     0.074 A 
ATOM     38  C   UNL A   1      43.369  24.472  29.173  1.00  0.00     0.049 A 
ATOM     39  N   UNL A   1      41.223  26.320  27.465  1.00  0.00    -0.248 NA
ATOM     40  C   UNL A   1      39.926  24.717  28.523  1.00  0.00     0.031 C 
ATOM     41  C   UNL A   1      44.375  23.514  29.673  1.00  0.00     0.029 A 
ATOM     42  N   UNL A   1      43.534  25.523  30.013  1.00  0.00    -0.354 N 
ATOM     43  C   UNL A   1      39.942  26.827  27.672  1.00  0.00     0.074 A 
ATOM     44  C   UNL A   1      39.141  25.721  28.126  1.00  0.00     0.031 C 
ATOM     45  C   UNL A   1      44.814  23.910  30.886  1.00  0.00     0.029 A 
ATOM     46  C   UNL A   1      44.294  25.236  31.142  1.00  0.00     0.049 A 
ATOM     47  H   UNL A   1      43.149  26.413  29.839  1.00  0.00     0.167 HD
ATOM     48  C   UNL A   1      39.711  28.169  27.711  1.00  0.00     0.034 A 
ATOM     49  C   UNL A   1      44.446  26.020  32.236  1.00  0.00     0.034 A 
ATOM     50  C   UNL A   1      40.851  28.914  27.237  1.00  0.00     0.049 A 
ATOM     51  C   UNL A   1      44.094  27.398  31.825  1.00  0.00     0.074 A 
ATOM     52  C   UNL A   1      41.570  28.959  26.059  1.00  0.00     0.029 A 
ATOM     53  N   UNL A   1      41.662  29.477  28.195  1.00  0.00    -0.354 N 
ATOM     54  N   UNL A   1      44.771  28.073  30.937  1.00  0.00    -0.248 NA
ATOM     55  C   UNL A   1      42.726  27.841  32.041  1.00  0.00     0.031 C 
ATOM     56  C   UNL A   1      42.932  29.083  26.470  1.00  0.00     0.029 A 
ATOM     57  C   UNL A   1      42.958  29.180  27.864  1.00  0.00     0.049 A 
ATOM     58  H   UNL A   1      41.365  29.998  28.975  1.00  0.00     0.167 HD
ATOM     59  C   UNL A   1      43.799  28.695  30.164  1.00  0.00     0.074 A 
ATOM     60  C   UNL A   1      42.573  28.610  30.959  1.00  0.00     0.031 C 
ATOM     61  C   UNL A   1      44.006  28.950  28.836  1.00  0.00     0.034 A 
BRANCH  48  62
ATOM     62  C   UNL A   1      38.625  28.847  28.513  1.00  0.00     0.023 A 
ATOM     63  C   UNL A   1      37.785  29.753  27.826  1.00  0.00     0.012 A 
ATOM     64  C   UNL A   1      38.559  28.857  29.925  1.00  0.00     0.148 A 
ATOM     65  C   UNL A   1      36.964  30.655  28.509  1.00  0.00     0.002 A 
ATOM     66  C   UNL A   1      37.681  29.701  30.597  1.00  0.00     0.091 A 
ATOM     67  F   UNL A   1      39.439  28.154  30.643  1.00  0.00    -0.205 F 
ATOM     68  C   UNL A   1      36.906  30.626  29.896  1.00  0.00     0.022 A 
BRANCH  66  69
ATOM     69  S   UNL A   1      37.531  29.665  32.387  1.00  0.00     0.127 S 
ATOM     70  O   UNL A   1      38.747  30.361  32.796  1.00  0.00    -0.237 OA
ATOM     71  O   UNL A   1      36.289  30.408  32.600  1.00  0.00    -0.237 OA
ATOM     72  O   UNL A   1      37.446  28.253  32.739  1.00  0.00    -0.744 OA
ENDBRANCH  66  69
ENDBRANCH  48  62
BRANCH  49  73
ATOM     73  C   UNL A   1      44.588  25.613  33.650  1.00  0.00     0.023 A 
ATOM     74  C   UNL A   1      43.446  25.420  34.449  1.00  0.00     0.012 A 
ATOM     75  C   UNL A   1      45.832  25.153  34.138  1.00  0.00     0.148 A 
ATOM     76  C   UNL A   1      43.535  24.768  35.685  1.00  0.00     0.002 A 
ATOM     77  C   UNL A   1      45.917  24.508  35.369  1.00  0.00     0.091 A 
ATOM     78  F   UNL A   1      46.913  25.273  33.354  1.00  0.00    -0.205 F 
ATOM     79  C   UNL A   1      44.767  24.304  36.140  1.00  0.00     0.022 A 
BRANCH  77  80
ATOM     80  S   UNL A   1      47.465  23.854  36.008  1.00  0.00     0.127 S 
ATOM     81  O   UNL A   1      48.281  25.064  36.109  1.00  0.00    -0.237 OA
ATOM     82  O   UNL A   1      47.046  23.290  37.289  1.00  0.00    -0.237 OA
ATOM     83  O   UNL A   1      47.927  22.893  35.017  1.00  0.00    -0.744 OA
ENDBRANCH  77  80
ENDBRANCH  49  73
BRANCH  61  84
ATOM     84  C   UNL A   1      45.394  28.724  28.278  1.00  0.00     0.023 A 
ATOM     85  C   UNL A   1      46.455  29.629  28.502  1.00  0.00     0.012 A 
ATOM     86  C   UNL A   1      45.679  27.492  27.672  1.00  0.00     0.148 A 
ATOM     87  C   UNL A   1      47.761  29.323  28.111  1.00  0.00     0.002 A 
ATOM     88  C   UNL A   1      46.986  27.171  27.321  1.00  0.00     0.091 A 
ATOM     89  F   UNL A   1      44.666  26.634  27.476  1.00  0.00    -0.205 F 
ATOM     90  C   UNL A   1      48.029  28.087  27.530  1.00  0.00     0.022 A 
BRANCH  88  91
ATOM     91  S   UNL A   1      47.416  25.552  26.681  1.00  0.00     0.127 S 
ATOM     92  O   UNL A   1      48.834  25.715  26.364  1.00  0.00    -0.237 OA
ATOM     93  O   UNL A   1      47.141  24.678  27.822  1.00  0.00    -0.237 OA
ATOM     94  O   UNL A   1      46.539  25.327  25.537  1.00  0.00    -0.744 OA
ENDBRANCH  88  91
ENDBRANCH  61  84
ENDBRANCH  35  36
ENDBRANCH  27  30
ENDBRANCH  25  26
ENDBRANCH   1  25
TORSDOF 16
ENDMDL
