MODEL 1
REMARK VINA RESULT:     -12.3      0.000      0.000
REMARK SMILES CCCc1c(C(=O)NCCCNC(=O)c2ccc(-c3c4nc(c(-c5cccc(S(=O)(=O)[O-])c5F)c5ccc([nH]5)c(-c5cccc(S(=O)(=O)[O-])c5F)c5nc(c(-c6cccc(S(=O)(=O)[O-])c6F)c6ccc3[nH]6)C=C5)C=C4)cc2)nnn1-c1ccccc1[N+](=O)[O-]
REMARK SMILES IDX 10 1 9 2 8 3 6 4 7 5 5 7 4 8 80 9 78 10 79 11 3 12 2 13 1 14
REMARK SMILES IDX 81 15 82 16 86 17 83 18 85 19 84 20 87 21 88 22 89 23 11 24
REMARK SMILES IDX 12 25 13 26 14 28 15 29 16 30 77 31 17 32 76 33 18 34 19 35
REMARK SMILES IDX 20 36 70 37 21 38 75 39 69 40 71 41 22 42 74 43 68 44 67 45
REMARK SMILES IDX 23 47 55 48 35 49 54 50 36 51 39 52 53 53 72 54 37 55 38 56
REMARK SMILES IDX 52 58 73 59 40 60 24 61 25 62 33 63 26 64 28 65 34 66 27 67
REMARK SMILES IDX 29 68 30 69 31 70 32 71 56 72 57 73 65 74 58 75 60 76 66 77
REMARK SMILES IDX 59 78 61 79 62 80 63 81 64 82 41 83 42 84 50 85 43 86 45 87
REMARK SMILES IDX 51 88 44 89 46 90 47 91 48 92 49 93
REMARK H PARENT 8 6 12 27 71 46 39 57
REMARK Flexibility Score: inf
ROOT
ATOM      1  C   UNL A   1      37.817  19.728  24.960  1.00  0.00     0.042 C 
ENDROOT
BRANCH   1   2
ATOM      2  C   UNL A   1      36.619  20.685  25.015  1.00  0.00     0.118 C 
BRANCH   2   3
ATOM      3  N   UNL A   1      35.367  19.968  25.070  1.00  0.00    -0.351 N 
ATOM      4  C   UNL A   1      34.071  20.298  24.765  1.00  0.00     0.273 C 
ATOM      5  O   UNL A   1      33.284  19.348  24.808  1.00  0.00    -0.267 OA
ATOM      6  H   UNL A   1      35.464  19.044  25.394  1.00  0.00     0.163 HD
BRANCH   4   7
ATOM      7  C   UNL A   1      33.591  21.631  24.364  1.00  0.00     0.174 A 
ATOM      8  C   UNL A   1      33.722  22.952  24.833  1.00  0.00     0.078 A 
ATOM      9  N   UNL A   1      33.043  23.688  23.872  1.00  0.00    -0.210 N 
ATOM     10  N   UNL A   1      32.696  21.651  23.308  1.00  0.00    -0.124 NA
ATOM     11  N   UNL A   1      32.304  22.886  23.092  1.00  0.00    -0.061 NA
BRANCH   8  12
ATOM     12  C   UNL A   1      34.351  23.497  26.073  1.00  0.00     0.059 C 
BRANCH  12  13
ATOM     13  C   UNL A   1      34.463  22.752  27.397  1.00  0.00     0.003 C 
ATOM     14  C   UNL A   1      33.139  22.368  28.027  1.00  0.00     0.004 C 
ENDBRANCH  12  13
ENDBRANCH   8  12
BRANCH   9  15
ATOM     15  C   UNL A   1      32.896  25.076  23.728  1.00  0.00     0.144 A 
ATOM     16  C   UNL A   1      33.663  25.685  22.719  1.00  0.00     0.036 A 
ATOM     17  C   UNL A   1      31.994  25.838  24.479  1.00  0.00     0.294 A 
ATOM     18  C   UNL A   1      33.451  27.022  22.397  1.00  0.00     0.003 A 
ATOM     19  C   UNL A   1      31.796  27.190  24.157  1.00  0.00     0.088 A 
ATOM     20  C   UNL A   1      32.509  27.770  23.104  1.00  0.00     0.007 A 
BRANCH  17  21
ATOM     21  N   UNL A   1      31.241  25.287  25.609  1.00  0.00     0.065 N 
ATOM     22  O   UNL A   1      31.636  25.579  26.748  1.00  0.00    -0.258 OA
ATOM     23  O   UNL A   1      30.268  24.564  25.369  1.00  0.00    -0.258 OA
ENDBRANCH  17  21
ENDBRANCH   9  15
ENDBRANCH   4   7
ENDBRANCH   2   3
ENDBRANCH   1   2
BRANCH   1  24
ATOM     24  C   UNL A   1      39.023  20.245  25.696  1.00  0.00     0.118 C 
BRANCH  24  25
ATOM     25  N   UNL A   1      40.062  19.213  25.843  1.00  0.00    -0.352 N 
ATOM     26  C   UNL A   1      41.425  19.398  25.992  1.00  0.00     0.251 C 
ATOM     27  H   UNL A   1      39.749  18.279  25.836  1.00  0.00     0.163 HD
ATOM     28  O   UNL A   1      42.219  18.488  25.747  1.00  0.00    -0.269 OA
BRANCH  26  29
ATOM     29  C   UNL A   1      41.889  20.707  26.469  1.00  0.00     0.039 A 
ATOM     30  C   UNL A   1      42.363  21.726  25.638  1.00  0.00     0.014 A 
ATOM     31  C   UNL A   1      41.716  20.926  27.824  1.00  0.00     0.014 A 
ATOM     32  C   UNL A   1      42.613  22.972  26.213  1.00  0.00     0.010 A 
ATOM     33  C   UNL A   1      41.558  22.200  28.251  1.00  0.00     0.010 A 
ATOM     34  C   UNL A   1      42.200  23.187  27.535  1.00  0.00    -0.014 A 
BRANCH  34  35
ATOM     35  C   UNL A   1      42.321  24.443  28.253  1.00  0.00     0.031 A 
ATOM     36  C   UNL A   1      41.150  25.324  28.053  1.00  0.00     0.074 A 
ATOM     37  C   UNL A   1      43.245  24.604  29.232  1.00  0.00     0.049 A 
ATOM     38  N   UNL A   1      41.069  26.343  27.265  1.00  0.00    -0.248 NA
ATOM     39  C   UNL A   1      39.851  24.884  28.590  1.00  0.00     0.031 C 
ATOM     40  C   UNL A   1      44.216  23.615  29.746  1.00  0.00     0.029 A 
ATOM     41  N   UNL A   1      43.430  25.648  30.080  1.00  0.00    -0.354 N 
ATOM     42  C   UNL A   1      39.786  26.846  27.466  1.00  0.00     0.074 A 
ATOM     43  C   UNL A   1      39.025  25.759  28.012  1.00  0.00     0.031 C 
ATOM     44  C   UNL A   1      44.707  24.028  30.938  1.00  0.00     0.029 A 
ATOM     45  C   UNL A   1      44.236  25.373  31.186  1.00  0.00     0.049 A 
ATOM     46  H   UNL A   1      43.026  26.532  29.927  1.00  0.00     0.167 HD
ATOM     47  C   UNL A   1      39.572  28.192  27.518  1.00  0.00     0.034 A 
ATOM     48  C   UNL A   1      44.483  26.204  32.231  1.00  0.00     0.034 A 
ATOM     49  C   UNL A   1      40.771  28.895  27.115  1.00  0.00     0.049 A 
ATOM     50  C   UNL A   1      44.152  27.566  31.767  1.00  0.00     0.074 A 
ATOM     51  C   UNL A   1      41.512  29.030  25.962  1.00  0.00     0.029 A 
ATOM     52  N   UNL A   1      41.587  29.243  28.165  1.00  0.00    -0.354 N 
ATOM     53  N   UNL A   1      44.818  28.178  30.829  1.00  0.00    -0.248 NA
ATOM     54  C   UNL A   1      42.824  28.093  32.040  1.00  0.00     0.031 C 
ATOM     55  C   UNL A   1      42.867  29.152  26.394  1.00  0.00     0.029 A 
ATOM     56  C   UNL A   1      42.898  29.160  27.791  1.00  0.00     0.049 A 
ATOM     57  H   UNL A   1      41.272  29.513  29.059  1.00  0.00     0.167 HD
ATOM     58  C   UNL A   1      43.840  28.825  30.090  1.00  0.00     0.074 A 
ATOM     59  C   UNL A   1      42.676  28.883  30.972  1.00  0.00     0.031 C 
ATOM     60  C   UNL A   1      43.975  28.961  28.738  1.00  0.00     0.034 A 
BRANCH  47  61
ATOM     61  C   UNL A   1      38.529  28.912  28.362  1.00  0.00     0.023 A 
ATOM     62  C   UNL A   1      37.751  29.887  27.692  1.00  0.00     0.012 A 
ATOM     63  C   UNL A   1      38.452  28.908  29.773  1.00  0.00     0.148 A 
ATOM     64  C   UNL A   1      37.014  30.854  28.386  1.00  0.00     0.002 A 
ATOM     65  C   UNL A   1      37.671  29.834  30.459  1.00  0.00     0.091 A 
ATOM     66  F   UNL A   1      39.218  28.089  30.492  1.00  0.00    -0.205 F 
ATOM     67  C   UNL A   1      36.976  30.829  29.772  1.00  0.00     0.022 A 
BRANCH  65  68
ATOM     68  S   UNL A   1      37.563  29.837  32.256  1.00  0.00     0.127 S 
ATOM     69  O   UNL A   1      38.887  30.328  32.626  1.00  0.00    -0.237 OA
ATOM     70  O   UNL A   1      36.465  30.776  32.484  1.00  0.00    -0.237 OA
ATOM     71  O   UNL A   1      37.263  28.463  32.639  1.00  0.00    -0.744 OA
ENDBRANCH  65  68
ENDBRANCH  47  61
BRANCH  48  72
ATOM     72  C   UNL A   1      44.807  25.947  33.653  1.00  0.00     0.023 A 
ATOM     73  C   UNL A   1      46.143  26.022  34.100  1.00  0.00     0.012 A 
ATOM     74  C   UNL A   1      43.778  25.956  34.618  1.00  0.00     0.148 A 
ATOM     75  C   UNL A   1      46.444  26.148  35.463  1.00  0.00     0.002 A 
ATOM     76  C   UNL A   1      44.082  26.093  35.971  1.00  0.00     0.091 A 
ATOM     77  F   UNL A   1      42.508  25.926  34.191  1.00  0.00    -0.205 F 
ATOM     78  C   UNL A   1      45.413  26.200  36.396  1.00  0.00     0.022 A 
BRANCH  76  79
ATOM     79  S   UNL A   1      42.814  26.240  37.238  1.00  0.00     0.127 S 
ATOM     80  O   UNL A   1      42.075  24.989  37.066  1.00  0.00    -0.237 OA
ATOM     81  O   UNL A   1      43.615  26.314  38.458  1.00  0.00    -0.237 OA
ATOM     82  O   UNL A   1      42.064  27.442  36.907  1.00  0.00    -0.744 OA
ENDBRANCH  76  79
ENDBRANCH  48  72
BRANCH  60  83
ATOM     83  C   UNL A   1      45.345  28.714  28.160  1.00  0.00     0.023 A 
ATOM     84  C   UNL A   1      46.418  29.623  28.289  1.00  0.00     0.012 A 
ATOM     85  C   UNL A   1      45.584  27.461  27.578  1.00  0.00     0.148 A 
ATOM     86  C   UNL A   1      47.696  29.290  27.829  1.00  0.00     0.002 A 
ATOM     87  C   UNL A   1      46.862  27.116  27.165  1.00  0.00     0.091 A 
ATOM     88  F   UNL A   1      44.551  26.613  27.463  1.00  0.00    -0.205 F 
ATOM     89  C   UNL A   1      47.920  28.031  27.278  1.00  0.00     0.022 A 
BRANCH  87  90
ATOM     90  S   UNL A   1      47.231  25.468  26.567  1.00  0.00     0.127 S 
ATOM     91  O   UNL A   1      46.313  25.341  25.437  1.00  0.00    -0.237 OA
ATOM     92  O   UNL A   1      48.644  25.577  26.202  1.00  0.00    -0.237 OA
ATOM     93  O   UNL A   1      46.976  24.569  27.686  1.00  0.00    -0.744 OA
ENDBRANCH  87  90
ENDBRANCH  60  83
ENDBRANCH  34  35
ENDBRANCH  26  29
ENDBRANCH  24  25
ENDBRANCH   1  24
TORSDOF 17
ENDMDL
MODEL 2
REMARK VINA RESULT:     -12.2      4.237      9.622
REMARK SMILES CCCc1c(C(=O)NCCCNC(=O)c2ccc(-c3c4nc(c(-c5cccc(S(=O)(=O)[O-])c5F)c5ccc([nH]5)c(-c5cccc(S(=O)(=O)[O-])c5F)c5nc(c(-c6cccc(S(=O)(=O)[O-])c6F)c6ccc3[nH]6)C=C5)C=C4)cc2)nnn1-c1ccccc1[N+](=O)[O-]
REMARK SMILES IDX 10 1 9 2 8 3 6 4 7 5 5 7 4 8 80 9 78 10 79 11 3 12 2 13 1 14
REMARK SMILES IDX 81 15 82 16 86 17 83 18 85 19 84 20 87 21 88 22 89 23 11 24
REMARK SMILES IDX 12 25 13 26 14 28 15 29 16 30 77 31 17 32 76 33 18 34 19 35
REMARK SMILES IDX 20 36 70 37 21 38 75 39 69 40 71 41 22 42 74 43 68 44 67 45
REMARK SMILES IDX 23 47 55 48 35 49 54 50 36 51 39 52 53 53 72 54 37 55 38 56
REMARK SMILES IDX 52 58 73 59 40 60 24 61 25 62 33 63 26 64 28 65 34 66 27 67
REMARK SMILES IDX 29 68 30 69 31 70 32 71 56 72 57 73 65 74 58 75 60 76 66 77
REMARK SMILES IDX 59 78 61 79 62 80 63 81 64 82 41 83 42 84 50 85 43 86 45 87
REMARK SMILES IDX 51 88 44 89 46 90 47 91 48 92 49 93
REMARK H PARENT 8 6 12 27 71 46 39 57
REMARK Flexibility Score: inf
ROOT
ATOM      1  C   UNL A   1      31.561  32.388  26.891  1.00  0.00     0.042 C 
ENDROOT
BRANCH   1   2
ATOM      2  C   UNL A   1      31.757  30.946  26.404  1.00  0.00     0.118 C 
BRANCH   2   3
ATOM      3  N   UNL A   1      30.994  30.680  25.208  1.00  0.00    -0.351 N 
ATOM      4  C   UNL A   1      31.012  29.674  24.275  1.00  0.00     0.273 C 
ATOM      5  O   UNL A   1      30.088  29.726  23.459  1.00  0.00    -0.267 OA
ATOM      6  H   UNL A   1      30.315  31.368  25.021  1.00  0.00     0.163 HD
BRANCH   4   7
ATOM      7  C   UNL A   1      31.982  28.568  24.218  1.00  0.00     0.174 A 
ATOM      8  C   UNL A   1      32.052  27.241  24.681  1.00  0.00     0.078 A 
ATOM      9  N   UNL A   1      33.259  26.796  24.160  1.00  0.00    -0.210 N 
ATOM     10  N   UNL A   1      33.206  28.876  23.651  1.00  0.00    -0.124 NA
ATOM     11  N   UNL A   1      33.993  27.826  23.715  1.00  0.00    -0.061 NA
BRANCH   8  12
ATOM     12  C   UNL A   1      31.139  26.460  25.569  1.00  0.00     0.059 C 
BRANCH  12  13
ATOM     13  C   UNL A   1      29.895  25.714  25.106  1.00  0.00     0.003 C 
ATOM     14  C   UNL A   1      29.124  26.390  23.989  1.00  0.00     0.004 C 
ENDBRANCH  12  13
ENDBRANCH   8  12
BRANCH   9  15
ATOM     15  C   UNL A   1      33.850  25.524  24.195  1.00  0.00     0.144 A 
ATOM     16  C   UNL A   1      34.693  25.257  25.288  1.00  0.00     0.036 A 
ATOM     17  C   UNL A   1      33.583  24.523  23.254  1.00  0.00     0.294 A 
ATOM     18  C   UNL A   1      35.180  23.969  25.491  1.00  0.00     0.003 A 
ATOM     19  C   UNL A   1      34.091  23.230  23.458  1.00  0.00     0.088 A 
ATOM     20  C   UNL A   1      34.869  22.954  24.586  1.00  0.00     0.007 A 
BRANCH  17  21
ATOM     21  N   UNL A   1      32.797  24.766  22.041  1.00  0.00     0.065 N 
ATOM     22  O   UNL A   1      33.407  25.181  21.045  1.00  0.00    -0.258 OA
ATOM     23  O   UNL A   1      31.580  24.552  22.079  1.00  0.00    -0.258 OA
ENDBRANCH  17  21
ENDBRANCH   9  15
ENDBRANCH   4   7
ENDBRANCH   2   3
ENDBRANCH   1   2
BRANCH   1  24
ATOM     24  C   UNL A   1      32.839  33.038  27.350  1.00  0.00     0.118 C 
BRANCH  24  25
ATOM     25  N   UNL A   1      32.596  34.348  27.975  1.00  0.00    -0.352 N 
ATOM     26  C   UNL A   1      33.167  34.854  29.129  1.00  0.00     0.251 C 
ATOM     27  H   UNL A   1      31.951  34.934  27.517  1.00  0.00     0.163 HD
ATOM     28  O   UNL A   1      32.637  35.781  29.745  1.00  0.00    -0.269 OA
BRANCH  26  29
ATOM     29  C   UNL A   1      34.431  34.262  29.583  1.00  0.00     0.039 A 
ATOM     30  C   UNL A   1      34.550  33.396  30.674  1.00  0.00     0.014 A 
ATOM     31  C   UNL A   1      35.520  34.526  28.772  1.00  0.00     0.014 A 
ATOM     32  C   UNL A   1      35.784  32.781  30.886  1.00  0.00     0.010 A 
ATOM     33  C   UNL A   1      36.531  33.627  28.744  1.00  0.00     0.010 A 
ATOM     34  C   UNL A   1      36.770  32.914  29.899  1.00  0.00    -0.014 A 
BRANCH  34  35
ATOM     35  C   UNL A   1      38.076  32.282  29.934  1.00  0.00     0.031 A 
ATOM     36  C   UNL A   1      38.055  30.909  29.386  1.00  0.00     0.074 A 
ATOM     37  C   UNL A   1      39.201  33.011  30.139  1.00  0.00     0.049 A 
ATOM     38  N   UNL A   1      38.041  29.804  30.054  1.00  0.00    -0.248 NA
ATOM     39  C   UNL A   1      37.763  30.739  27.952  1.00  0.00     0.031 C 
ATOM     40  C   UNL A   1      39.326  34.472  30.323  1.00  0.00     0.029 A 
ATOM     41  N   UNL A   1      40.502  32.621  30.090  1.00  0.00    -0.354 N 
ATOM     42  C   UNL A   1      38.059  28.804  29.085  1.00  0.00     0.074 A 
ATOM     43  C   UNL A   1      37.573  29.419  27.884  1.00  0.00     0.031 C 
ATOM     44  C   UNL A   1      40.612  34.852  30.142  1.00  0.00     0.029 A 
ATOM     45  C   UNL A   1      41.426  33.663  30.010  1.00  0.00     0.049 A 
ATOM     46  H   UNL A   1      40.771  31.675  30.110  1.00  0.00     0.167 HD
ATOM     47  C   UNL A   1      38.813  27.683  29.265  1.00  0.00     0.034 A 
ATOM     48  C   UNL A   1      42.767  33.541  29.839  1.00  0.00     0.034 A 
ATOM     49  C   UNL A   1      39.326  27.647  30.617  1.00  0.00     0.049 A 
ATOM     50  C   UNL A   1      43.111  32.157  30.224  1.00  0.00     0.074 A 
ATOM     51  C   UNL A   1      38.798  27.526  31.884  1.00  0.00     0.029 A 
ATOM     52  N   UNL A   1      40.577  28.200  30.750  1.00  0.00    -0.354 N 
ATOM     53  N   UNL A   1      42.997  31.711  31.444  1.00  0.00    -0.248 NA
ATOM     54  C   UNL A   1      43.180  31.140  29.187  1.00  0.00     0.031 C 
ATOM     55  C   UNL A   1      39.639  28.319  32.722  1.00  0.00     0.029 A 
ATOM     56  C   UNL A   1      40.687  28.833  31.955  1.00  0.00     0.049 A 
ATOM     57  H   UNL A   1      41.292  28.147  30.074  1.00  0.00     0.167 HD
ATOM     58  C   UNL A   1      42.505  30.425  31.285  1.00  0.00     0.074 A 
ATOM     59  C   UNL A   1      42.804  30.073  29.899  1.00  0.00     0.031 C 
ATOM     60  C   UNL A   1      41.629  29.907  32.196  1.00  0.00     0.034 A 
BRANCH  47  61
ATOM     61  C   UNL A   1      39.513  26.878  28.177  1.00  0.00     0.023 A 
ATOM     62  C   UNL A   1      39.282  25.480  28.191  1.00  0.00     0.012 A 
ATOM     63  C   UNL A   1      40.565  27.332  27.350  1.00  0.00     0.148 A 
ATOM     64  C   UNL A   1      40.103  24.585  27.496  1.00  0.00     0.002 A 
ATOM     65  C   UNL A   1      41.343  26.444  26.614  1.00  0.00     0.091 A 
ATOM     66  F   UNL A   1      40.915  28.617  27.343  1.00  0.00    -0.205 F 
ATOM     67  C   UNL A   1      41.138  25.067  26.708  1.00  0.00     0.022 A 
BRANCH  65  68
ATOM     68  S   UNL A   1      42.684  27.011  25.554  1.00  0.00     0.127 S 
ATOM     69  O   UNL A   1      43.688  27.402  26.541  1.00  0.00    -0.237 OA
ATOM     70  O   UNL A   1      42.994  25.800  24.797  1.00  0.00    -0.237 OA
ATOM     71  O   UNL A   1      42.126  28.092  24.751  1.00  0.00    -0.744 OA
ENDBRANCH  65  68
ENDBRANCH  47  61
BRANCH  48  72
ATOM     72  C   UNL A   1      43.776  34.424  29.210  1.00  0.00     0.023 A 
ATOM     73  C   UNL A   1      44.430  35.410  29.978  1.00  0.00     0.012 A 
ATOM     74  C   UNL A   1      44.325  34.079  27.958  1.00  0.00     0.148 A 
ATOM     75  C   UNL A   1      45.619  36.003  29.533  1.00  0.00     0.002 A 
ATOM     76  C   UNL A   1      45.515  34.663  27.525  1.00  0.00     0.091 A 
ATOM     77  F   UNL A   1      43.728  33.113  27.247  1.00  0.00    -0.205 F 
ATOM     78  C   UNL A   1      46.170  35.617  28.314  1.00  0.00     0.022 A 
BRANCH  76  79
ATOM     79  S   UNL A   1      46.334  34.175  26.000  1.00  0.00     0.127 S 
ATOM     80  O   UNL A   1      45.311  34.483  25.001  1.00  0.00    -0.237 OA
ATOM     81  O   UNL A   1      47.493  35.064  25.984  1.00  0.00    -0.237 OA
ATOM     82  O   UNL A   1      46.633  32.758  26.150  1.00  0.00    -0.744 OA
ENDBRANCH  76  79
ENDBRANCH  48  72
BRANCH  60  83
ATOM     83  C   UNL A   1      41.512  30.623  33.517  1.00  0.00     0.023 A 
ATOM     84  C   UNL A   1      42.506  30.571  34.518  1.00  0.00     0.012 A 
ATOM     85  C   UNL A   1      40.416  31.479  33.692  1.00  0.00     0.148 A 
ATOM     86  C   UNL A   1      42.393  31.346  35.677  1.00  0.00     0.002 A 
ATOM     87  C   UNL A   1      40.331  32.280  34.821  1.00  0.00     0.091 A 
ATOM     88  F   UNL A   1      39.482  31.511  32.730  1.00  0.00    -0.205 F 
ATOM     89  C   UNL A   1      41.311  32.210  35.822  1.00  0.00     0.022 A 
BRANCH  87  90
ATOM     90  S   UNL A   1      39.028  33.498  34.997  1.00  0.00     0.127 S 
ATOM     91  O   UNL A   1      37.837  32.658  35.102  1.00  0.00    -0.237 OA
ATOM     92  O   UNL A   1      39.406  34.183  36.234  1.00  0.00    -0.237 OA
ATOM     93  O   UNL A   1      39.101  34.339  33.808  1.00  0.00    -0.744 OA
ENDBRANCH  87  90
ENDBRANCH  60  83
ENDBRANCH  34  35
ENDBRANCH  26  29
ENDBRANCH  24  25
ENDBRANCH   1  24
TORSDOF 17
ENDMDL
MODEL 3
REMARK VINA RESULT:     -11.9      4.114      9.428
REMARK SMILES CCCc1c(C(=O)NCCCNC(=O)c2ccc(-c3c4nc(c(-c5cccc(S(=O)(=O)[O-])c5F)c5ccc([nH]5)c(-c5cccc(S(=O)(=O)[O-])c5F)c5nc(c(-c6cccc(S(=O)(=O)[O-])c6F)c6ccc3[nH]6)C=C5)C=C4)cc2)nnn1-c1ccccc1[N+](=O)[O-]
REMARK SMILES IDX 10 1 9 2 8 3 6 4 7 5 5 7 4 8 80 9 78 10 79 11 3 12 2 13 1 14
REMARK SMILES IDX 81 15 82 16 86 17 83 18 85 19 84 20 87 21 88 22 89 23 11 24
REMARK SMILES IDX 12 25 13 26 14 28 15 29 16 30 77 31 17 32 76 33 18 34 19 35
REMARK SMILES IDX 20 36 70 37 21 38 75 39 69 40 71 41 22 42 74 43 68 44 67 45
REMARK SMILES IDX 23 47 55 48 35 49 54 50 36 51 39 52 53 53 72 54 37 55 38 56
REMARK SMILES IDX 52 58 73 59 40 60 24 61 25 62 33 63 26 64 28 65 34 66 27 67
REMARK SMILES IDX 29 68 30 69 31 70 32 71 56 72 57 73 65 74 58 75 60 76 66 77
REMARK SMILES IDX 59 78 61 79 62 80 63 81 64 82 41 83 42 84 50 85 43 86 45 87
REMARK SMILES IDX 51 88 44 89 46 90 47 91 48 92 49 93
REMARK H PARENT 8 6 12 27 71 46 39 57
REMARK Flexibility Score: inf
ROOT
ATOM      1  C   UNL A   1      31.501  31.959  26.553  1.00  0.00     0.042 C 
ENDROOT
BRANCH   1   2
ATOM      2  C   UNL A   1      31.606  30.456  26.266  1.00  0.00     0.118 C 
BRANCH   2   3
ATOM      3  N   UNL A   1      32.711  29.855  26.974  1.00  0.00    -0.351 N 
ATOM      4  C   UNL A   1      33.232  28.586  27.017  1.00  0.00     0.273 C 
ATOM      5  O   UNL A   1      34.291  28.497  27.643  1.00  0.00    -0.267 OA
ATOM      6  H   UNL A   1      33.194  30.491  27.548  1.00  0.00     0.163 HD
BRANCH   4   7
ATOM      7  C   UNL A   1      32.665  27.397  26.359  1.00  0.00     0.174 A 
ATOM      8  C   UNL A   1      33.161  26.246  25.719  1.00  0.00     0.078 A 
ATOM      9  N   UNL A   1      32.005  25.536  25.426  1.00  0.00    -0.210 N 
ATOM     10  N   UNL A   1      31.288  27.392  26.219  1.00  0.00    -0.124 NA
ATOM     11  N   UNL A   1      30.921  26.311  25.568  1.00  0.00    -0.061 NA
BRANCH   8  12
ATOM     12  C   UNL A   1      34.553  25.850  25.349  1.00  0.00     0.059 C 
BRANCH  12  13
ATOM     13  C   UNL A   1      35.162  24.474  25.583  1.00  0.00     0.003 C 
ATOM     14  C   UNL A   1      35.539  23.720  24.323  1.00  0.00     0.004 C 
ENDBRANCH  12  13
ENDBRANCH   8  12
BRANCH   9  15
ATOM     15  C   UNL A   1      31.841  24.259  24.867  1.00  0.00     0.144 A 
ATOM     16  C   UNL A   1      31.995  24.162  23.473  1.00  0.00     0.036 A 
ATOM     17  C   UNL A   1      31.609  23.108  25.629  1.00  0.00     0.294 A 
ATOM     18  C   UNL A   1      32.019  22.911  22.862  1.00  0.00     0.003 A 
ATOM     19  C   UNL A   1      31.620  21.851  25.003  1.00  0.00     0.088 A 
ATOM     20  C   UNL A   1      31.847  21.758  23.627  1.00  0.00     0.007 A 
BRANCH  17  21
ATOM     21  N   UNL A   1      31.340  23.152  27.069  1.00  0.00     0.065 N 
ATOM     22  O   UNL A   1      32.321  23.126  27.828  1.00  0.00    -0.258 OA
ATOM     23  O   UNL A   1      30.164  23.207  27.445  1.00  0.00    -0.258 OA
ENDBRANCH  17  21
ENDBRANCH   9  15
ENDBRANCH   4   7
ENDBRANCH   2   3
ENDBRANCH   1   2
BRANCH   1  24
ATOM     24  C   UNL A   1      32.692  32.507  27.291  1.00  0.00     0.118 C 
BRANCH  24  25
ATOM     25  N   UNL A   1      32.517  33.925  27.643  1.00  0.00    -0.352 N 
ATOM     26  C   UNL A   1      33.143  34.630  28.656  1.00  0.00     0.251 C 
ATOM     27  H   UNL A   1      31.879  34.433  27.091  1.00  0.00     0.163 HD
ATOM     28  O   UNL A   1      32.667  35.683  29.084  1.00  0.00    -0.269 OA
BRANCH  26  29
ATOM     29  C   UNL A   1      34.399  34.089  29.191  1.00  0.00     0.039 A 
ATOM     30  C   UNL A   1      34.502  33.365  30.382  1.00  0.00     0.014 A 
ATOM     31  C   UNL A   1      35.495  34.241  28.361  1.00  0.00     0.014 A 
ATOM     32  C   UNL A   1      35.729  32.772  30.679  1.00  0.00     0.010 A 
ATOM     33  C   UNL A   1      36.498  33.338  28.455  1.00  0.00     0.010 A 
ATOM     34  C   UNL A   1      36.723  32.773  29.691  1.00  0.00    -0.014 A 
BRANCH  34  35
ATOM     35  C   UNL A   1      38.024  32.140  29.815  1.00  0.00     0.031 A 
ATOM     36  C   UNL A   1      38.050  30.782  29.229  1.00  0.00     0.074 A 
ATOM     37  C   UNL A   1      39.126  32.862  30.131  1.00  0.00     0.049 A 
ATOM     38  N   UNL A   1      37.984  29.660  29.863  1.00  0.00    -0.248 NA
ATOM     39  C   UNL A   1      37.876  30.653  27.772  1.00  0.00     0.031 C 
ATOM     40  C   UNL A   1      39.232  34.317  30.366  1.00  0.00     0.029 A 
ATOM     41  N   UNL A   1      40.427  32.474  30.178  1.00  0.00    -0.354 N 
ATOM     42  C   UNL A   1      38.083  28.686  28.871  1.00  0.00     0.074 A 
ATOM     43  C   UNL A   1      37.695  29.335  27.652  1.00  0.00     0.031 C 
ATOM     44  C   UNL A   1      40.528  34.703  30.301  1.00  0.00     0.029 A 
ATOM     45  C   UNL A   1      41.353  33.518  30.203  1.00  0.00     0.049 A 
ATOM     46  H   UNL A   1      40.696  31.528  30.194  1.00  0.00     0.167 HD
ATOM     47  C   UNL A   1      38.823  27.561  29.081  1.00  0.00     0.034 A 
ATOM     48  C   UNL A   1      42.704  33.400  30.138  1.00  0.00     0.034 A 
ATOM     49  C   UNL A   1      39.223  27.487  30.469  1.00  0.00     0.049 A 
ATOM     50  C   UNL A   1      43.018  32.006  30.512  1.00  0.00     0.074 A 
ATOM     51  C   UNL A   1      38.593  27.331  31.684  1.00  0.00     0.029 A 
ATOM     52  N   UNL A   1      40.458  28.036  30.718  1.00  0.00    -0.354 N 
ATOM     53  N   UNL A   1      42.806  31.526  31.705  1.00  0.00    -0.248 NA
ATOM     54  C   UNL A   1      43.174  31.019  29.456  1.00  0.00     0.031 C 
ATOM     55  C   UNL A   1      39.362  28.100  32.610  1.00  0.00     0.029 A 
ATOM     56  C   UNL A   1      40.468  28.636  31.946  1.00  0.00     0.049 A 
ATOM     57  H   UNL A   1      41.225  28.002  30.102  1.00  0.00     0.167 HD
ATOM     58  C   UNL A   1      42.331  30.245  31.471  1.00  0.00     0.074 A 
ATOM     59  C   UNL A   1      42.743  29.932  30.105  1.00  0.00     0.031 C 
ATOM     60  C   UNL A   1      41.385  29.702  32.293  1.00  0.00     0.034 A 
BRANCH  47  61
ATOM     61  C   UNL A   1      39.610  26.786  28.032  1.00  0.00     0.023 A 
ATOM     62  C   UNL A   1      39.427  25.382  28.027  1.00  0.00     0.012 A 
ATOM     63  C   UNL A   1      40.692  27.281  27.269  1.00  0.00     0.148 A 
ATOM     64  C   UNL A   1      40.317  24.519  27.377  1.00  0.00     0.002 A 
ATOM     65  C   UNL A   1      41.541  26.424  26.575  1.00  0.00     0.091 A 
ATOM     66  F   UNL A   1      40.998  28.577  27.287  1.00  0.00    -0.205 F 
ATOM     67  C   UNL A   1      41.378  25.041  26.652  1.00  0.00     0.022 A 
BRANCH  65  68
ATOM     68  S   UNL A   1      42.920  27.042  25.596  1.00  0.00     0.127 S 
ATOM     69  O   UNL A   1      43.401  25.816  24.965  1.00  0.00    -0.237 OA
ATOM     70  O   UNL A   1      42.249  27.982  24.700  1.00  0.00    -0.237 OA
ATOM     71  O   UNL A   1      43.832  27.669  26.546  1.00  0.00    -0.744 OA
ENDBRANCH  65  68
ENDBRANCH  47  61
BRANCH  48  72
ATOM     72  C   UNL A   1      43.759  34.300  29.619  1.00  0.00     0.023 A 
ATOM     73  C   UNL A   1      44.550  35.053  30.513  1.00  0.00     0.012 A 
ATOM     74  C   UNL A   1      44.200  34.166  28.286  1.00  0.00     0.148 A 
ATOM     75  C   UNL A   1      45.765  35.618  30.103  1.00  0.00     0.002 A 
ATOM     76  C   UNL A   1      45.416  34.719  27.888  1.00  0.00     0.091 A 
ATOM     77  F   UNL A   1      43.471  33.417  27.449  1.00  0.00    -0.205 F 
ATOM     78  C   UNL A   1      46.206  35.437  28.795  1.00  0.00     0.022 A 
BRANCH  76  79
ATOM     79  S   UNL A   1      46.096  34.476  26.240  1.00  0.00     0.127 S 
ATOM     80  O   UNL A   1      46.254  33.023  26.195  1.00  0.00    -0.237 OA
ATOM     81  O   UNL A   1      45.027  35.002  25.393  1.00  0.00    -0.237 OA
ATOM     82  O   UNL A   1      47.343  35.226  26.215  1.00  0.00    -0.744 OA
ENDBRANCH  76  79
ENDBRANCH  48  72
BRANCH  60  83
ATOM     83  C   UNL A   1      41.159  30.381  33.619  1.00  0.00     0.023 A 
ATOM     84  C   UNL A   1      42.095  30.352  34.676  1.00  0.00     0.012 A 
ATOM     85  C   UNL A   1      40.015  31.182  33.748  1.00  0.00     0.148 A 
ATOM     86  C   UNL A   1      41.880  31.093  35.842  1.00  0.00     0.002 A 
ATOM     87  C   UNL A   1      39.828  31.952  34.886  1.00  0.00     0.091 A 
ATOM     88  F   UNL A   1      39.138  31.194  32.733  1.00  0.00    -0.205 F 
ATOM     89  C   UNL A   1      40.752  31.903  35.941  1.00  0.00     0.022 A 
BRANCH  87  90
ATOM     90  S   UNL A   1      38.461  33.105  35.011  1.00  0.00     0.127 S 
ATOM     91  O   UNL A   1      37.315  32.207  35.134  1.00  0.00    -0.237 OA
ATOM     92  O   UNL A   1      38.792  33.850  36.227  1.00  0.00    -0.237 OA
ATOM     93  O   UNL A   1      38.502  33.908  33.795  1.00  0.00    -0.744 OA
ENDBRANCH  87  90
ENDBRANCH  60  83
ENDBRANCH  34  35
ENDBRANCH  26  29
ENDBRANCH  24  25
ENDBRANCH   1  24
TORSDOF 17
ENDMDL
