MODEL 1
REMARK VINA RESULT:     -12.0      0.000      0.000
REMARK SMILES O=C(C[C@@H]1CN(C(=O)NC[C@H]2C[C@H]3CC[C@@H]2C3)CCO1)NCCCNC(=O)c1ccc(-c2c3nc(c(-c4cccc(S(=O)(=O)[O-])c4F)c4ccc([nH]4)c(-c4cccc(S(=O)(=O)[O-])c4F)c4nc(c(-c5cccc(S(=O)(=O)[O-])c5F)c5ccc2[nH]5)C=C4)C=C3)cc1
REMARK SMILES IDX 22 1 21 2 1 3 2 4 3 6 4 7 5 8 20 9 6 10 19 11 18 12 7 13
REMARK SMILES IDX 8 14 9 15 10 17 11 18 12 19 16 20 13 21 15 22 17 23 14 24
REMARK SMILES IDX 23 25 24 26 25 27 26 28 27 30 28 31 29 32 90 33 30 34 89 35
REMARK SMILES IDX 31 36 32 37 33 38 83 39 34 40 88 41 82 42 84 43 35 44 87 45
REMARK SMILES IDX 81 46 80 47 36 49 68 50 48 51 67 52 49 53 52 54 66 55 85 56
REMARK SMILES IDX 50 57 51 58 65 60 86 61 53 62 37 63 38 64 46 65 39 66 41 67
REMARK SMILES IDX 47 68 40 69 42 70 43 71 44 72 45 73 69 74 70 75 78 76 71 77
REMARK SMILES IDX 73 78 79 79 72 80 74 81 75 82 76 83 77 84 54 85 55 86 63 87
REMARK SMILES IDX 56 88 58 89 64 90 57 91 59 92 60 93 61 94 62 95
REMARK H PARENT 21 5 9 16 25 29 84 48 52 59
REMARK Flexibility Score: inf
ROOT
ATOM      1  C   UNL A   1      34.668  21.254  25.544  1.00  0.00     0.117 C 
ENDROOT
BRANCH   1   2
ATOM      2  N   UNL A   1      33.601  22.204  25.328  1.00  0.00    -0.356 N 
ATOM      3  O   UNL A   1      31.910  20.686  24.986  1.00  0.00    -0.275 OA
ATOM      4  C   UNL A   1      32.299  21.846  25.085  1.00  0.00     0.222 C 
ATOM      5  H   UNL A   1      33.821  23.163  25.357  1.00  0.00     0.163 HD
BRANCH   4   6
ATOM      6  C   UNL A   1      31.379  23.015  24.817  1.00  0.00     0.133 C 
BRANCH   6   7
ATOM      7  C   UNL A   1      31.953  24.183  24.005  1.00  0.00     0.147 C 
ATOM      8  C   UNL A   1      30.814  25.103  23.509  1.00  0.00     0.154 C 
ATOM      9  O   UNL A   1      32.732  23.757  22.874  1.00  0.00    -0.374 OA
ATOM     10  N   UNL A   1      31.343  26.255  22.780  1.00  0.00    -0.320 N 
ATOM     11  C   UNL A   1      33.350  24.891  22.244  1.00  0.00     0.182 C 
ATOM     12  C   UNL A   1      32.291  25.865  21.723  1.00  0.00     0.150 C 
BRANCH  10  13
ATOM     13  C   UNL A   1      30.928  27.548  22.791  1.00  0.00     0.317 C 
ATOM     14  O   UNL A   1      29.790  27.859  22.417  1.00  0.00    -0.249 OA
ATOM     15  N   UNL A   1      31.676  28.590  23.171  1.00  0.00    -0.338 N 
ATOM     16  H   UNL A   1      31.128  29.407  23.183  1.00  0.00     0.165 HD
BRANCH  15  17
ATOM     17  C   UNL A   1      33.034  28.904  23.571  1.00  0.00     0.121 C 
BRANCH  17  18
ATOM     18  C   UNL A   1      33.268  29.217  25.057  1.00  0.00     0.012 C 
ATOM     19  C   UNL A   1      32.072  29.772  25.847  1.00  0.00     0.009 C 
ATOM     20  C   UNL A   1      33.805  28.104  25.997  1.00  0.00    -0.006 C 
ATOM     21  C   UNL A   1      32.121  28.985  27.165  1.00  0.00    -0.011 C 
ATOM     22  C   UNL A   1      32.840  26.919  26.177  1.00  0.00     0.004 C 
ATOM     23  C   UNL A   1      33.623  28.788  27.362  1.00  0.00     0.007 C 
ATOM     24  C   UNL A   1      31.635  27.551  26.882  1.00  0.00     0.004 C 
ENDBRANCH  17  18
ENDBRANCH  15  17
ENDBRANCH  10  13
ENDBRANCH   6   7
ENDBRANCH   4   6
ENDBRANCH   1   2
BRANCH   1  25
ATOM     25  C   UNL A   1      35.940  21.631  24.796  1.00  0.00     0.042 C 
BRANCH  25  26
ATOM     26  C   UNL A   1      37.053  22.217  25.663  1.00  0.00     0.118 C 
BRANCH  26  27
ATOM     27  N   UNL A   1      38.166  21.303  25.879  1.00  0.00    -0.352 N 
ATOM     28  C   UNL A   1      39.451  21.544  26.297  1.00  0.00     0.251 C 
ATOM     29  H   UNL A   1      37.962  20.358  25.696  1.00  0.00     0.163 HD
ATOM     30  O   UNL A   1      40.259  20.617  26.295  1.00  0.00    -0.269 OA
BRANCH  28  31
ATOM     31  C   UNL A   1      39.886  22.895  26.725  1.00  0.00     0.039 A 
ATOM     32  C   UNL A   1      40.732  23.001  27.835  1.00  0.00     0.014 A 
ATOM     33  C   UNL A   1      39.448  24.055  26.080  1.00  0.00     0.014 A 
ATOM     34  C   UNL A   1      41.181  24.256  28.256  1.00  0.00     0.010 A 
ATOM     35  C   UNL A   1      39.958  25.300  26.454  1.00  0.00     0.010 A 
ATOM     36  C   UNL A   1      40.824  25.417  27.550  1.00  0.00    -0.014 A 
BRANCH  36  37
ATOM     37  C   UNL A   1      41.371  26.746  27.942  1.00  0.00     0.031 A 
ATOM     38  C   UNL A   1      42.810  27.101  27.675  1.00  0.00     0.074 A 
ATOM     39  C   UNL A   1      40.580  27.620  28.599  1.00  0.00     0.049 A 
ATOM     40  N   UNL A   1      43.444  28.216  27.936  1.00  0.00    -0.248 NA
ATOM     41  C   UNL A   1      43.654  26.064  27.060  1.00  0.00     0.031 C 
ATOM     42  C   UNL A   1      39.196  27.367  29.006  1.00  0.00     0.029 A 
ATOM     43  N   UNL A   1      40.832  28.890  29.055  1.00  0.00    -0.354 N 
ATOM     44  C   UNL A   1      44.762  28.006  27.546  1.00  0.00     0.074 A 
ATOM     45  C   UNL A   1      44.846  26.644  27.065  1.00  0.00     0.031 C 
ATOM     46  C   UNL A   1      38.718  28.450  29.637  1.00  0.00     0.029 A 
ATOM     47  C   UNL A   1      39.762  29.468  29.698  1.00  0.00     0.049 A 
ATOM     48  H   UNL A   1      41.697  29.344  28.934  1.00  0.00     0.167 HD
ATOM     49  C   UNL A   1      45.802  28.875  27.555  1.00  0.00     0.034 A 
ATOM     50  C   UNL A   1      39.631  30.683  30.267  1.00  0.00     0.034 A 
ATOM     51  C   UNL A   1      45.710  30.245  27.988  1.00  0.00     0.049 A 
ATOM     52  C   UNL A   1      40.780  31.653  30.200  1.00  0.00     0.074 A 
ATOM     53  C   UNL A   1      46.683  31.229  27.948  1.00  0.00     0.029 A 
ATOM     54  N   UNL A   1      44.580  30.825  28.544  1.00  0.00    -0.354 N 
ATOM     55  N   UNL A   1      41.966  31.491  29.665  1.00  0.00    -0.248 NA
ATOM     56  C   UNL A   1      40.557  32.987  30.775  1.00  0.00     0.031 C 
ATOM     57  C   UNL A   1      46.147  32.400  28.494  1.00  0.00     0.029 A 
ATOM     58  C   UNL A   1      44.832  32.151  28.855  1.00  0.00     0.049 A 
ATOM     59  H   UNL A   1      43.724  30.363  28.695  1.00  0.00     0.167 HD
ATOM     60  C   UNL A   1      42.617  32.712  29.807  1.00  0.00     0.074 A 
ATOM     61  C   UNL A   1      41.683  33.610  30.454  1.00  0.00     0.031 C 
ATOM     62  C   UNL A   1      43.879  33.053  29.450  1.00  0.00     0.034 A 
BRANCH  49  63
ATOM     63  C   UNL A   1      47.124  28.390  27.017  1.00  0.00     0.023 A 
ATOM     64  C   UNL A   1      48.197  28.177  27.909  1.00  0.00     0.012 A 
ATOM     65  C   UNL A   1      47.291  28.086  25.652  1.00  0.00     0.148 A 
ATOM     66  C   UNL A   1      49.424  27.702  27.446  1.00  0.00     0.002 A 
ATOM     67  C   UNL A   1      48.504  27.571  25.205  1.00  0.00     0.091 A 
ATOM     68  F   UNL A   1      46.269  28.313  24.816  1.00  0.00    -0.205 F 
ATOM     69  C   UNL A   1      49.574  27.390  26.098  1.00  0.00     0.022 A 
BRANCH  67  70
ATOM     70  S   UNL A   1      48.773  27.065  23.502  1.00  0.00     0.127 S 
ATOM     71  O   UNL A   1      48.367  28.264  22.770  1.00  0.00    -0.237 OA
ATOM     72  O   UNL A   1      50.213  26.798  23.483  1.00  0.00    -0.237 OA
ATOM     73  O   UNL A   1      47.937  25.892  23.296  1.00  0.00    -0.744 OA
ENDBRANCH  67  70
ENDBRANCH  49  63
BRANCH  50  74
ATOM     74  C   UNL A   1      38.329  31.084  30.871  1.00  0.00     0.023 A 
ATOM     75  C   UNL A   1      38.113  30.876  32.248  1.00  0.00     0.012 A 
ATOM     76  C   UNL A   1      37.318  31.691  30.102  1.00  0.00     0.148 A 
ATOM     77  C   UNL A   1      36.903  31.235  32.841  1.00  0.00     0.002 A 
ATOM     78  C   UNL A   1      36.136  32.097  30.711  1.00  0.00     0.091 A 
ATOM     79  F   UNL A   1      37.537  31.868  28.791  1.00  0.00    -0.205 F 
ATOM     80  C   UNL A   1      35.919  31.856  32.076  1.00  0.00     0.022 A 
BRANCH  78  81
ATOM     81  S   UNL A   1      34.872  33.022  29.830  1.00  0.00     0.127 S 
ATOM     82  O   UNL A   1      34.341  32.010  28.920  1.00  0.00    -0.237 OA
ATOM     83  O   UNL A   1      33.970  33.411  30.914  1.00  0.00    -0.237 OA
ATOM     84  O   UNL A   1      35.569  34.137  29.205  1.00  0.00    -0.744 OA
ENDBRANCH  78  81
ENDBRANCH  50  74
BRANCH  62  85
ATOM     85  C   UNL A   1      44.323  34.467  29.723  1.00  0.00     0.023 A 
ATOM     86  C   UNL A   1      44.906  34.791  30.963  1.00  0.00     0.012 A 
ATOM     87  C   UNL A   1      44.211  35.463  28.732  1.00  0.00     0.148 A 
ATOM     88  C   UNL A   1      45.336  36.091  31.229  1.00  0.00     0.002 A 
ATOM     89  C   UNL A   1      44.685  36.746  28.986  1.00  0.00     0.091 A 
ATOM     90  F   UNL A   1      43.633  35.144  27.564  1.00  0.00    -0.205 F 
ATOM     91  C   UNL A   1      45.236  37.064  30.238  1.00  0.00     0.022 A 
BRANCH  89  92
ATOM     92  S   UNL A   1      44.680  38.031  27.733  1.00  0.00     0.127 S 
ATOM     93  O   UNL A   1      43.252  38.175  27.457  1.00  0.00    -0.237 OA
ATOM     94  O   UNL A   1      45.279  39.164  28.441  1.00  0.00    -0.237 OA
ATOM     95  O   UNL A   1      45.486  37.518  26.634  1.00  0.00    -0.744 OA
ENDBRANCH  89  92
ENDBRANCH  62  85
ENDBRANCH  36  37
ENDBRANCH  28  31
ENDBRANCH  26  27
ENDBRANCH  25  26
ENDBRANCH   1  25
TORSDOF 17
ENDMDL
MODEL 2
REMARK VINA RESULT:     -11.7      4.802     10.160
REMARK SMILES O=C(C[C@@H]1CN(C(=O)NC[C@H]2C[C@H]3CC[C@@H]2C3)CCO1)NCCCNC(=O)c1ccc(-c2c3nc(c(-c4cccc(S(=O)(=O)[O-])c4F)c4ccc([nH]4)c(-c4cccc(S(=O)(=O)[O-])c4F)c4nc(c(-c5cccc(S(=O)(=O)[O-])c5F)c5ccc2[nH]5)C=C4)C=C3)cc1
REMARK SMILES IDX 22 1 21 2 1 3 2 4 3 6 4 7 5 8 20 9 6 10 19 11 18 12 7 13
REMARK SMILES IDX 8 14 9 15 10 17 11 18 12 19 16 20 13 21 15 22 17 23 14 24
REMARK SMILES IDX 23 25 24 26 25 27 26 28 27 30 28 31 29 32 90 33 30 34 89 35
REMARK SMILES IDX 31 36 32 37 33 38 83 39 34 40 88 41 82 42 84 43 35 44 87 45
REMARK SMILES IDX 81 46 80 47 36 49 68 50 48 51 67 52 49 53 52 54 66 55 85 56
REMARK SMILES IDX 50 57 51 58 65 60 86 61 53 62 37 63 38 64 46 65 39 66 41 67
REMARK SMILES IDX 47 68 40 69 42 70 43 71 44 72 45 73 69 74 70 75 78 76 71 77
REMARK SMILES IDX 73 78 79 79 72 80 74 81 75 82 76 83 77 84 54 85 55 86 63 87
REMARK SMILES IDX 56 88 58 89 64 90 57 91 59 92 60 93 61 94 62 95
REMARK H PARENT 21 5 9 16 25 29 84 48 52 59
REMARK Flexibility Score: inf
ROOT
ATOM      1  C   UNL A   1      31.952  28.976  23.770  1.00  0.00     0.117 C 
ENDROOT
BRANCH   1   2
ATOM      2  N   UNL A   1      31.339  27.687  23.993  1.00  0.00    -0.356 N 
ATOM      3  O   UNL A   1      29.344  28.115  22.934  1.00  0.00    -0.275 OA
ATOM      4  C   UNL A   1      30.087  27.350  23.540  1.00  0.00     0.222 C 
ATOM      5  H   UNL A   1      31.847  27.012  24.498  1.00  0.00     0.163 HD
BRANCH   4   6
ATOM      6  C   UNL A   1      29.632  25.971  23.961  1.00  0.00     0.133 C 
BRANCH   6   7
ATOM      7  C   UNL A   1      30.572  24.799  23.648  1.00  0.00     0.147 C 
ATOM      8  C   UNL A   1      31.216  24.266  24.948  1.00  0.00     0.154 C 
ATOM      9  O   UNL A   1      31.615  25.144  22.719  1.00  0.00    -0.374 OA
ATOM     10  N   UNL A   1      32.073  23.112  24.678  1.00  0.00    -0.320 N 
ATOM     11  C   UNL A   1      32.369  23.973  22.367  1.00  0.00     0.182 C 
ATOM     12  C   UNL A   1      33.042  23.369  23.601  1.00  0.00     0.150 C 
BRANCH  10  13
ATOM     13  C   UNL A   1      32.242  21.975  25.403  1.00  0.00     0.317 C 
ATOM     14  O   UNL A   1      31.403  21.066  25.375  1.00  0.00    -0.249 OA
ATOM     15  N   UNL A   1      33.280  21.728  26.210  1.00  0.00    -0.338 N 
ATOM     16  H   UNL A   1      33.228  20.806  26.548  1.00  0.00     0.165 HD
BRANCH  15  17
ATOM     17  C   UNL A   1      34.458  22.380  26.747  1.00  0.00     0.121 C 
BRANCH  17  18
ATOM     18  C   UNL A   1      35.823  21.833  26.300  1.00  0.00     0.012 C 
ATOM     19  C   UNL A   1      35.826  20.872  25.101  1.00  0.00     0.009 C 
ATOM     20  C   UNL A   1      36.964  22.824  25.941  1.00  0.00    -0.006 C 
ATOM     21  C   UNL A   1      37.011  21.363  24.255  1.00  0.00    -0.011 C 
ATOM     22  C   UNL A   1      36.668  23.696  24.709  1.00  0.00     0.004 C 
ATOM     23  C   UNL A   1      37.985  21.853  25.326  1.00  0.00     0.007 C 
ATOM     24  C   UNL A   1      36.592  22.676  23.567  1.00  0.00     0.004 C 
ENDBRANCH  17  18
ENDBRANCH  15  17
ENDBRANCH  10  13
ENDBRANCH   6   7
ENDBRANCH   4   6
ENDBRANCH   1   2
BRANCH   1  25
ATOM     25  C   UNL A   1      32.922  29.357  24.882  1.00  0.00     0.042 C 
BRANCH  25  26
ATOM     26  C   UNL A   1      32.270  29.723  26.214  1.00  0.00     0.118 C 
BRANCH  26  27
ATOM     27  N   UNL A   1      32.212  31.157  26.459  1.00  0.00    -0.352 N 
ATOM     28  C   UNL A   1      33.034  31.971  27.199  1.00  0.00     0.251 C 
ATOM     29  H   UNL A   1      31.460  31.618  26.022  1.00  0.00     0.163 HD
ATOM     30  O   UNL A   1      32.716  33.148  27.357  1.00  0.00    -0.269 OA
BRANCH  28  31
ATOM     31  C   UNL A   1      34.275  31.455  27.824  1.00  0.00     0.039 A 
ATOM     32  C   UNL A   1      35.355  32.331  27.978  1.00  0.00     0.014 A 
ATOM     33  C   UNL A   1      34.406  30.123  28.225  1.00  0.00     0.014 A 
ATOM     34  C   UNL A   1      36.535  31.888  28.583  1.00  0.00     0.010 A 
ATOM     35  C   UNL A   1      35.556  29.703  28.898  1.00  0.00     0.010 A 
ATOM     36  C   UNL A   1      36.637  30.577  29.078  1.00  0.00    -0.014 A 
BRANCH  36  37
ATOM     37  C   UNL A   1      37.858  30.129  29.802  1.00  0.00     0.031 A 
ATOM     38  C   UNL A   1      38.150  30.604  31.201  1.00  0.00     0.074 A 
ATOM     39  C   UNL A   1      38.747  29.332  29.171  1.00  0.00     0.049 A 
ATOM     40  N   UNL A   1      39.156  30.300  31.981  1.00  0.00    -0.248 NA
ATOM     41  C   UNL A   1      37.204  31.563  31.794  1.00  0.00     0.031 C 
ATOM     42  C   UNL A   1      38.636  28.876  27.784  1.00  0.00     0.029 A 
ATOM     43  N   UNL A   1      39.925  28.779  29.608  1.00  0.00    -0.354 N 
ATOM     44  C   UNL A   1      38.983  31.049  33.139  1.00  0.00     0.074 A 
ATOM     45  C   UNL A   1      37.793  31.850  32.946  1.00  0.00     0.031 C 
ATOM     46  C   UNL A   1      39.694  28.104  27.489  1.00  0.00     0.029 A 
ATOM     47  C   UNL A   1      40.567  28.023  28.655  1.00  0.00     0.049 A 
ATOM     48  H   UNL A   1      40.278  28.913  30.518  1.00  0.00     0.167 HD
ATOM     49  C   UNL A   1      39.724  31.049  34.273  1.00  0.00     0.034 A 
ATOM     50  C   UNL A   1      41.724  27.334  28.714  1.00  0.00     0.034 A 
ATOM     51  C   UNL A   1      40.880  30.217  34.486  1.00  0.00     0.049 A 
ATOM     52  C   UNL A   1      42.490  27.293  30.009  1.00  0.00     0.074 A 
ATOM     53  C   UNL A   1      41.641  30.077  35.634  1.00  0.00     0.029 A 
ATOM     54  N   UNL A   1      41.444  29.387  33.530  1.00  0.00    -0.354 N 
ATOM     55  N   UNL A   1      42.209  27.872  31.152  1.00  0.00    -0.248 NA
ATOM     56  C   UNL A   1      43.707  26.470  30.036  1.00  0.00     0.031 C 
ATOM     57  C   UNL A   1      42.675  29.174  35.366  1.00  0.00     0.029 A 
ATOM     58  C   UNL A   1      42.546  28.735  34.059  1.00  0.00     0.049 A 
ATOM     59  H   UNL A   1      41.111  29.277  32.610  1.00  0.00     0.167 HD
ATOM     60  C   UNL A   1      43.194  27.454  32.041  1.00  0.00     0.074 A 
ATOM     61  C   UNL A   1      44.061  26.554  31.311  1.00  0.00     0.031 C 
ATOM     62  C   UNL A   1      43.372  27.799  33.340  1.00  0.00     0.034 A 
BRANCH  49  63
ATOM     63  C   UNL A   1      39.268  31.931  35.408  1.00  0.00     0.023 A 
ATOM     64  C   UNL A   1      38.398  31.405  36.387  1.00  0.00     0.012 A 
ATOM     65  C   UNL A   1      39.743  33.250  35.545  1.00  0.00     0.148 A 
ATOM     66  C   UNL A   1      37.981  32.187  37.463  1.00  0.00     0.002 A 
ATOM     67  C   UNL A   1      39.358  34.009  36.646  1.00  0.00     0.091 A 
ATOM     68  F   UNL A   1      40.553  33.740  34.597  1.00  0.00    -0.205 F 
ATOM     69  C   UNL A   1      38.469  33.483  37.598  1.00  0.00     0.022 A 
BRANCH  67  70
ATOM     70  S   UNL A   1      39.990  35.663  36.951  1.00  0.00     0.127 S 
ATOM     71  O   UNL A   1      39.278  36.029  38.175  1.00  0.00    -0.237 OA
ATOM     72  O   UNL A   1      41.423  35.418  37.130  1.00  0.00    -0.237 OA
ATOM     73  O   UNL A   1      39.652  36.445  35.772  1.00  0.00    -0.744 OA
ENDBRANCH  67  70
ENDBRANCH  49  63
BRANCH  50  74
ATOM     74  C   UNL A   1      42.182  26.549  27.532  1.00  0.00     0.023 A 
ATOM     75  C   UNL A   1      42.883  27.203  26.500  1.00  0.00     0.012 A 
ATOM     76  C   UNL A   1      41.955  25.163  27.437  1.00  0.00     0.148 A 
ATOM     77  C   UNL A   1      43.319  26.498  25.379  1.00  0.00     0.002 A 
ATOM     78  C   UNL A   1      42.441  24.457  26.344  1.00  0.00     0.091 A 
ATOM     79  F   UNL A   1      41.274  24.562  28.424  1.00  0.00    -0.205 F 
ATOM     80  C   UNL A   1      43.109  25.124  25.305  1.00  0.00     0.022 A 
BRANCH  78  81
ATOM     81  S   UNL A   1      42.331  22.667  26.232  1.00  0.00     0.127 S 
ATOM     82  O   UNL A   1      42.978  22.250  27.473  1.00  0.00    -0.237 OA
ATOM     83  O   UNL A   1      40.884  22.453  26.190  1.00  0.00    -0.237 OA
ATOM     84  O   UNL A   1      43.023  22.309  25.002  1.00  0.00    -0.744 OA
ENDBRANCH  78  81
ENDBRANCH  50  74
BRANCH  62  85
ATOM     85  C   UNL A   1      44.536  27.181  34.071  1.00  0.00     0.023 A 
ATOM     86  C   UNL A   1      45.788  27.826  34.068  1.00  0.00     0.012 A 
ATOM     87  C   UNL A   1      44.377  25.989  34.806  1.00  0.00     0.148 A 
ATOM     88  C   UNL A   1      46.873  27.277  34.751  1.00  0.00     0.002 A 
ATOM     89  C   UNL A   1      45.449  25.472  35.524  1.00  0.00     0.091 A 
ATOM     90  F   UNL A   1      43.184  25.375  34.782  1.00  0.00    -0.205 F 
ATOM     91  C   UNL A   1      46.701  26.107  35.487  1.00  0.00     0.022 A 
BRANCH  89  92
ATOM     92  S   UNL A   1      45.287  24.023  36.573  1.00  0.00     0.127 S 
ATOM     93  O   UNL A   1      46.684  23.702  36.858  1.00  0.00    -0.237 OA
ATOM     94  O   UNL A   1      44.537  24.545  37.716  1.00  0.00    -0.237 OA
ATOM     95  O   UNL A   1      44.563  23.039  35.780  1.00  0.00    -0.744 OA
ENDBRANCH  89  92
ENDBRANCH  62  85
ENDBRANCH  36  37
ENDBRANCH  28  31
ENDBRANCH  26  27
ENDBRANCH  25  26
ENDBRANCH   1  25
TORSDOF 17
ENDMDL
MODEL 3
REMARK VINA RESULT:     -11.6      1.436      2.389
REMARK SMILES O=C(C[C@@H]1CN(C(=O)NC[C@H]2C[C@H]3CC[C@@H]2C3)CCO1)NCCCNC(=O)c1ccc(-c2c3nc(c(-c4cccc(S(=O)(=O)[O-])c4F)c4ccc([nH]4)c(-c4cccc(S(=O)(=O)[O-])c4F)c4nc(c(-c5cccc(S(=O)(=O)[O-])c5F)c5ccc2[nH]5)C=C4)C=C3)cc1
REMARK SMILES IDX 22 1 21 2 1 3 2 4 3 6 4 7 5 8 20 9 6 10 19 11 18 12 7 13
REMARK SMILES IDX 8 14 9 15 10 17 11 18 12 19 16 20 13 21 15 22 17 23 14 24
REMARK SMILES IDX 23 25 24 26 25 27 26 28 27 30 28 31 29 32 90 33 30 34 89 35
REMARK SMILES IDX 31 36 32 37 33 38 83 39 34 40 88 41 82 42 84 43 35 44 87 45
REMARK SMILES IDX 81 46 80 47 36 49 68 50 48 51 67 52 49 53 52 54 66 55 85 56
REMARK SMILES IDX 50 57 51 58 65 60 86 61 53 62 37 63 38 64 46 65 39 66 41 67
REMARK SMILES IDX 47 68 40 69 42 70 43 71 44 72 45 73 69 74 70 75 78 76 71 77
REMARK SMILES IDX 73 78 79 79 72 80 74 81 75 82 76 83 77 84 54 85 55 86 63 87
REMARK SMILES IDX 56 88 58 89 64 90 57 91 59 92 60 93 61 94 62 95
REMARK H PARENT 21 5 9 16 25 29 84 48 52 59
REMARK Flexibility Score: inf
ROOT
ATOM      1  C   UNL A   1      35.542  23.071  23.585  1.00  0.00     0.117 C 
ENDROOT
BRANCH   1   2
ATOM      2  N   UNL A   1      34.117  23.306  23.620  1.00  0.00    -0.356 N 
ATOM      3  O   UNL A   1      34.049  24.979  22.045  1.00  0.00    -0.275 OA
ATOM      4  C   UNL A   1      33.477  24.230  22.832  1.00  0.00     0.222 C 
ATOM      5  H   UNL A   1      33.574  22.774  24.245  1.00  0.00     0.163 HD
BRANCH   4   6
ATOM      6  C   UNL A   1      31.994  24.346  23.101  1.00  0.00     0.133 C 
BRANCH   6   7
ATOM      7  C   UNL A   1      31.565  25.245  24.268  1.00  0.00     0.147 C 
ATOM      8  C   UNL A   1      32.259  26.623  24.167  1.00  0.00     0.154 C 
ATOM      9  O   UNL A   1      31.850  24.674  25.557  1.00  0.00    -0.374 OA
ATOM     10  N   UNL A   1      31.820  27.515  25.240  1.00  0.00    -0.320 N 
ATOM     11  C   UNL A   1      31.300  25.499  26.596  1.00  0.00     0.182 C 
ATOM     12  C   UNL A   1      31.929  26.894  26.570  1.00  0.00     0.150 C 
BRANCH  10  13
ATOM     13  C   UNL A   1      31.557  28.848  25.200  1.00  0.00     0.317 C 
ATOM     14  O   UNL A   1      31.459  29.513  26.239  1.00  0.00    -0.249 OA
ATOM     15  N   UNL A   1      31.364  29.558  24.083  1.00  0.00    -0.338 N 
ATOM     16  H   UNL A   1      31.286  30.513  24.304  1.00  0.00     0.165 HD
BRANCH  15  17
ATOM     17  C   UNL A   1      31.231  29.374  22.651  1.00  0.00     0.121 C 
BRANCH  17  18
ATOM     18  C   UNL A   1      29.815  29.468  22.063  1.00  0.00     0.012 C 
ATOM     19  C   UNL A   1      28.673  28.882  22.909  1.00  0.00     0.009 C 
ATOM     20  C   UNL A   1      29.250  30.853  21.647  1.00  0.00    -0.006 C 
ATOM     21  C   UNL A   1      27.570  29.946  22.801  1.00  0.00    -0.011 C 
ATOM     22  C   UNL A   1      29.060  31.828  22.821  1.00  0.00     0.004 C 
ATOM     23  C   UNL A   1      27.780  30.481  21.386  1.00  0.00     0.007 C 
ATOM     24  C   UNL A   1      27.981  31.148  23.673  1.00  0.00     0.004 C 
ENDBRANCH  17  18
ENDBRANCH  15  17
ENDBRANCH  10  13
ENDBRANCH   6   7
ENDBRANCH   4   6
ENDBRANCH   1   2
BRANCH   1  25
ATOM     25  C   UNL A   1      35.950  21.855  24.408  1.00  0.00     0.042 C 
BRANCH  25  26
ATOM     26  C   UNL A   1      36.815  22.159  25.629  1.00  0.00     0.118 C 
BRANCH  26  27
ATOM     27  N   UNL A   1      37.899  21.208  25.826  1.00  0.00    -0.352 N 
ATOM     28  C   UNL A   1      39.196  21.403  26.234  1.00  0.00     0.251 C 
ATOM     29  H   UNL A   1      37.663  20.271  25.637  1.00  0.00     0.163 HD
ATOM     30  O   UNL A   1      39.974  20.450  26.215  1.00  0.00    -0.269 OA
BRANCH  28  31
ATOM     31  C   UNL A   1      39.679  22.735  26.669  1.00  0.00     0.039 A 
ATOM     32  C   UNL A   1      40.642  22.794  27.682  1.00  0.00     0.014 A 
ATOM     33  C   UNL A   1      39.175  23.921  26.127  1.00  0.00     0.014 A 
ATOM     34  C   UNL A   1      41.139  24.031  28.104  1.00  0.00     0.010 A 
ATOM     35  C   UNL A   1      39.727  25.149  26.496  1.00  0.00     0.010 A 
ATOM     36  C   UNL A   1      40.709  25.221  27.494  1.00  0.00    -0.014 A 
BRANCH  36  37
ATOM     37  C   UNL A   1      41.299  26.532  27.880  1.00  0.00     0.031 A 
ATOM     38  C   UNL A   1      42.730  26.867  27.547  1.00  0.00     0.074 A 
ATOM     39  C   UNL A   1      40.559  27.409  28.591  1.00  0.00     0.049 A 
ATOM     40  N   UNL A   1      43.397  27.966  27.793  1.00  0.00    -0.248 NA
ATOM     41  C   UNL A   1      43.522  25.826  26.872  1.00  0.00     0.031 C 
ATOM     42  C   UNL A   1      39.193  27.172  29.063  1.00  0.00     0.029 A 
ATOM     43  N   UNL A   1      40.857  28.665  29.055  1.00  0.00    -0.354 N 
ATOM     44  C   UNL A   1      44.689  27.740  27.334  1.00  0.00     0.074 A 
ATOM     45  C   UNL A   1      44.723  26.386  26.827  1.00  0.00     0.031 C 
ATOM     46  C   UNL A   1      38.767  28.252  29.736  1.00  0.00     0.029 A 
ATOM     47  C   UNL A   1      39.831  29.250  29.762  1.00  0.00     0.049 A 
ATOM     48  H   UNL A   1      41.723  29.106  28.898  1.00  0.00     0.167 HD
ATOM     49  C   UNL A   1      45.744  28.590  27.306  1.00  0.00     0.034 A 
ATOM     50  C   UNL A   1      39.752  30.457  30.357  1.00  0.00     0.034 A 
ATOM     51  C   UNL A   1      45.699  29.954  27.766  1.00  0.00     0.049 A 
ATOM     52  C   UNL A   1      40.913  31.408  30.248  1.00  0.00     0.074 A 
ATOM     53  C   UNL A   1      46.687  30.920  27.693  1.00  0.00     0.029 A 
ATOM     54  N   UNL A   1      44.610  30.543  28.388  1.00  0.00    -0.354 N 
ATOM     55  N   UNL A   1      42.068  31.235  29.652  1.00  0.00    -0.248 NA
ATOM     56  C   UNL A   1      40.744  32.735  30.856  1.00  0.00     0.031 C 
ATOM     57  C   UNL A   1      46.200  32.091  28.286  1.00  0.00     0.029 A 
ATOM     58  C   UNL A   1      44.901  31.859  28.708  1.00  0.00     0.049 A 
ATOM     59  H   UNL A   1      43.754  30.093  28.575  1.00  0.00     0.167 HD
ATOM     60  C   UNL A   1      42.748  32.442  29.781  1.00  0.00     0.074 A 
ATOM     61  C   UNL A   1      41.864  33.344  30.490  1.00  0.00     0.031 C 
ATOM     62  C   UNL A   1      43.997  32.767  29.366  1.00  0.00     0.034 A 
BRANCH  49  63
ATOM     63  C   UNL A   1      47.029  28.092  26.693  1.00  0.00     0.023 A 
ATOM     64  C   UNL A   1      48.064  27.635  27.535  1.00  0.00     0.012 A 
ATOM     65  C   UNL A   1      47.191  28.014  25.296  1.00  0.00     0.148 A 
ATOM     66  C   UNL A   1      49.253  27.142  26.998  1.00  0.00     0.002 A 
ATOM     67  C   UNL A   1      48.362  27.481  24.767  1.00  0.00     0.091 A 
ATOM     68  F   UNL A   1      46.205  28.470  24.511  1.00  0.00    -0.205 F 
ATOM     69  C   UNL A   1      49.397  27.055  25.617  1.00  0.00     0.022 A 
BRANCH  67  70
ATOM     70  S   UNL A   1      48.614  27.255  23.003  1.00  0.00     0.127 S 
ATOM     71  O   UNL A   1      50.031  27.587  22.863  1.00  0.00    -0.237 OA
ATOM     72  O   UNL A   1      48.301  25.835  22.825  1.00  0.00    -0.237 OA
ATOM     73  O   UNL A   1      47.689  28.166  22.346  1.00  0.00    -0.744 OA
ENDBRANCH  67  70
ENDBRANCH  49  63
BRANCH  50  74
ATOM     74  C   UNL A   1      38.489  30.870  31.033  1.00  0.00     0.023 A 
ATOM     75  C   UNL A   1      38.340  30.643  32.416  1.00  0.00     0.012 A 
ATOM     76  C   UNL A   1      37.451  31.506  30.326  1.00  0.00     0.148 A 
ATOM     77  C   UNL A   1      37.168  31.013  33.075  1.00  0.00     0.002 A 
ATOM     78  C   UNL A   1      36.310  31.922  31.001  1.00  0.00     0.091 A 
ATOM     79  F   UNL A   1      37.606  31.701  29.009  1.00  0.00    -0.205 F 
ATOM     80  C   UNL A   1      36.158  31.662  32.372  1.00  0.00     0.022 A 
BRANCH  78  81
ATOM     81  S   UNL A   1      35.019  32.882  30.200  1.00  0.00     0.127 S 
ATOM     82  O   UNL A   1      34.114  33.153  31.314  1.00  0.00    -0.237 OA
ATOM     83  O   UNL A   1      35.762  34.044  29.713  1.00  0.00    -0.237 OA
ATOM     84  O   UNL A   1      34.492  32.026  29.146  1.00  0.00    -0.744 OA
ENDBRANCH  78  81
ENDBRANCH  50  74
BRANCH  62  85
ATOM     85  C   UNL A   1      44.479  34.168  29.640  1.00  0.00     0.023 A 
ATOM     86  C   UNL A   1      45.085  34.470  30.875  1.00  0.00     0.012 A 
ATOM     87  C   UNL A   1      44.381  35.171  28.656  1.00  0.00     0.148 A 
ATOM     88  C   UNL A   1      45.552  35.758  31.142  1.00  0.00     0.002 A 
ATOM     89  C   UNL A   1      44.890  36.440  28.910  1.00  0.00     0.091 A 
ATOM     90  F   UNL A   1      43.782  34.873  27.493  1.00  0.00    -0.205 F 
ATOM     91  C   UNL A   1      45.464  36.738  30.156  1.00  0.00     0.022 A 
BRANCH  89  92
ATOM     92  S   UNL A   1      44.903  37.731  27.662  1.00  0.00     0.127 S 
ATOM     93  O   UNL A   1      45.515  38.842  28.388  1.00  0.00    -0.237 OA
ATOM     94  O   UNL A   1      45.746  37.150  26.616  1.00  0.00    -0.237 OA
ATOM     95  O   UNL A   1      43.513  37.922  27.274  1.00  0.00    -0.744 OA
ENDBRANCH  89  92
ENDBRANCH  62  85
ENDBRANCH  36  37
ENDBRANCH  28  31
ENDBRANCH  26  27
ENDBRANCH  25  26
ENDBRANCH   1  25
TORSDOF 17
ENDMDL
