MODEL 1
REMARK VINA RESULT:     -12.8      0.000      0.000
REMARK SMILES C[C@@H]1[C@H](C)CCC[C@H]1NC(=O)C[N@@H+]1CCC[C@@H]1C(=O)NCCCNC(=O)c1ccc(-c2c3nc(c(-c4cccc(S(=O)(=O)[O-])c4F)c4ccc([nH]4)c(-c4cccc(S(=O)(=O)[O-])c4F)c4nc(c(-c5cccc(S(=O)(=O)[O-])c5F)c5ccc2[nH]5)C=C4)C=C3)cc1
REMARK SMILES IDX 22 1 21 2 20 3 18 4 19 5 17 7 13 8 14 9 15 11 16 12 12 13
REMARK SMILES IDX 10 14 9 15 11 17 8 18 1 19 2 20 3 21 4 22 5 23 7 24 6 25
REMARK SMILES IDX 23 26 24 27 25 28 26 30 27 31 28 32 89 33 29 34 88 35 30 36
REMARK SMILES IDX 31 37 32 38 82 39 33 40 87 41 81 42 83 43 34 44 86 45 80 46
REMARK SMILES IDX 79 47 35 49 67 50 47 51 66 52 48 53 51 54 65 55 84 56 49 57
REMARK SMILES IDX 50 58 64 60 85 61 52 62 36 63 37 64 45 65 38 66 40 67 46 68
REMARK SMILES IDX 39 69 41 70 42 71 43 72 44 73 68 74 69 75 77 76 70 77 72 78
REMARK SMILES IDX 78 79 71 80 73 81 74 82 75 83 76 84 53 85 54 86 62 87 55 88
REMARK SMILES IDX 57 89 63 90 56 91 58 92 59 93 60 94 61 95
REMARK H PARENT 20 6 13 10 9 16 24 29 83 48 51 59
REMARK Flexibility Score: inf
ROOT
ATOM      1  C   UNL A   1      36.202  21.433  25.671  1.00  0.00     0.042 C 
ENDROOT
BRANCH   1   2
ATOM      2  C   UNL A   1      35.342  20.356  25.057  1.00  0.00     0.118 C 
BRANCH   2   3
ATOM      3  N   UNL A   1      33.997  20.245  25.553  1.00  0.00    -0.351 N 
ATOM      4  C   UNL A   1      32.883  20.677  24.893  1.00  0.00     0.278 C 
ATOM      5  O   UNL A   1      31.820  20.092  25.124  1.00  0.00    -0.268 OA
ATOM      6  H   UNL A   1      33.871  19.825  26.435  1.00  0.00     0.163 HD
BRANCH   4   7
ATOM      7  C   UNL A   1      32.925  21.903  23.978  1.00  0.00     0.274 C 
ATOM      8  N   UNL A   1      33.346  23.229  24.489  1.00  0.00    -0.317 N 
ATOM      9  C   UNL A   1      32.898  24.171  23.480  1.00  0.00     0.263 C 
ATOM     10  H   UNL A   1      34.351  23.138  24.634  1.00  0.00     0.349 HD
ATOM     11  C   UNL A   1      31.528  23.649  23.082  1.00  0.00     0.068 C 
ATOM     12  C   UNL A   1      31.719  22.140  23.059  1.00  0.00     0.081 C 
BRANCH   8  13
ATOM     13  C   UNL A   1      33.338  23.669  25.891  1.00  0.00     0.364 C 
BRANCH  13  14
ATOM     14  C   UNL A   1      32.189  24.544  26.434  1.00  0.00     0.275 C 
ATOM     15  N   UNL A   1      31.964  25.841  26.085  1.00  0.00    -0.348 N 
ATOM     16  H   UNL A   1      31.017  26.102  26.028  1.00  0.00     0.163 HD
ATOM     17  O   UNL A   1      31.431  24.106  27.307  1.00  0.00    -0.268 OA
BRANCH  15  18
ATOM     18  C   UNL A   1      32.924  26.899  25.784  1.00  0.00     0.085 C 
ATOM     19  C   UNL A   1      33.742  28.401  23.929  1.00  0.00     0.010 C 
ATOM     20  C   UNL A   1      32.515  27.692  24.518  1.00  0.00     0.011 C 
ATOM     21  C   UNL A   1      31.309  28.628  24.768  1.00  0.00    -0.009 C 
ATOM     22  C   UNL A   1      30.920  29.419  23.516  1.00  0.00     0.008 C 
ATOM     23  C   UNL A   1      31.547  29.560  25.958  1.00  0.00     0.004 C 
ATOM     24  C   UNL A   1      33.081  27.827  27.005  1.00  0.00     0.025 C 
ATOM     25  C   UNL A   1      31.891  28.768  27.216  1.00  0.00     0.002 C 
ENDBRANCH  15  18
ENDBRANCH  13  14
ENDBRANCH   8  13
ENDBRANCH   4   7
ENDBRANCH   2   3
ENDBRANCH   1   2
BRANCH   1  26
ATOM     26  C   UNL A   1      37.557  21.578  25.002  1.00  0.00     0.118 C 
BRANCH  26  27
ATOM     27  N   UNL A   1      38.528  20.555  25.393  1.00  0.00    -0.352 N 
ATOM     28  C   UNL A   1      39.667  20.644  26.161  1.00  0.00     0.251 C 
ATOM     29  H   UNL A   1      38.333  19.652  25.051  1.00  0.00     0.163 HD
ATOM     30  O   UNL A   1      40.389  19.668  26.315  1.00  0.00    -0.269 OA
BRANCH  28  31
ATOM     31  C   UNL A   1      40.043  21.942  26.758  1.00  0.00     0.039 A 
ATOM     32  C   UNL A   1      40.946  21.959  27.826  1.00  0.00     0.014 A 
ATOM     33  C   UNL A   1      39.565  23.135  26.221  1.00  0.00     0.014 A 
ATOM     34  C   UNL A   1      41.460  23.177  28.271  1.00  0.00     0.010 A 
ATOM     35  C   UNL A   1      40.165  24.331  26.583  1.00  0.00     0.010 A 
ATOM     36  C   UNL A   1      41.123  24.366  27.608  1.00  0.00    -0.014 A 
BRANCH  36  37
ATOM     37  C   UNL A   1      41.764  25.665  27.935  1.00  0.00     0.031 A 
ATOM     38  C   UNL A   1      40.970  26.724  28.649  1.00  0.00     0.074 A 
ATOM     39  C   UNL A   1      42.999  25.936  27.468  1.00  0.00     0.049 A 
ATOM     40  N   UNL A   1      41.279  27.973  28.876  1.00  0.00    -0.248 NA
ATOM     41  C   UNL A   1      39.632  26.340  29.132  1.00  0.00     0.031 C 
ATOM     42  C   UNL A   1      43.836  25.018  26.689  1.00  0.00     0.029 A 
ATOM     43  N   UNL A   1      43.755  27.079  27.549  1.00  0.00    -0.354 N 
ATOM     44  C   UNL A   1      40.161  28.535  29.478  1.00  0.00     0.074 A 
ATOM     45  C   UNL A   1      39.150  27.503  29.547  1.00  0.00     0.031 C 
ATOM     46  C   UNL A   1      44.987  25.631  26.370  1.00  0.00     0.029 A 
ATOM     47  C   UNL A   1      44.957  26.996  26.884  1.00  0.00     0.049 A 
ATOM     48  H   UNL A   1      43.464  27.883  28.037  1.00  0.00     0.167 HD
ATOM     49  C   UNL A   1      40.000  29.787  29.964  1.00  0.00     0.034 A 
ATOM     50  C   UNL A   1      45.920  27.920  26.698  1.00  0.00     0.034 A 
ATOM     51  C   UNL A   1      41.034  30.783  29.961  1.00  0.00     0.049 A 
ATOM     52  C   UNL A   1      45.736  29.289  27.294  1.00  0.00     0.074 A 
ATOM     53  C   UNL A   1      41.013  32.045  30.526  1.00  0.00     0.029 A 
ATOM     54  N   UNL A   1      42.277  30.629  29.368  1.00  0.00    -0.354 N 
ATOM     55  N   UNL A   1      44.732  29.753  27.999  1.00  0.00    -0.248 NA
ATOM     56  C   UNL A   1      46.826  30.255  27.091  1.00  0.00     0.031 C 
ATOM     57  C   UNL A   1      42.244  32.658  30.268  1.00  0.00     0.029 A 
ATOM     58  C   UNL A   1      43.031  31.774  29.547  1.00  0.00     0.049 A 
ATOM     59  H   UNL A   1      42.578  29.822  28.890  1.00  0.00     0.167 HD
ATOM     60  C   UNL A   1      45.079  31.054  28.346  1.00  0.00     0.074 A 
ATOM     61  C   UNL A   1      46.397  31.295  27.795  1.00  0.00     0.031 C 
ATOM     62  C   UNL A   1      44.364  31.973  29.039  1.00  0.00     0.034 A 
BRANCH  49  63
ATOM     63  C   UNL A   1      38.682  30.122  30.609  1.00  0.00     0.023 A 
ATOM     64  C   UNL A   1      38.422  29.672  31.919  1.00  0.00     0.012 A 
ATOM     65  C   UNL A   1      37.726  30.915  29.947  1.00  0.00     0.148 A 
ATOM     66  C   UNL A   1      37.217  29.976  32.549  1.00  0.00     0.002 A 
ATOM     67  C   UNL A   1      36.544  31.251  30.598  1.00  0.00     0.091 A 
ATOM     68  F   UNL A   1      37.981  31.313  28.692  1.00  0.00    -0.205 F 
ATOM     69  C   UNL A   1      36.284  30.774  31.894  1.00  0.00     0.022 A 
BRANCH  67  70
ATOM     70  S   UNL A   1      35.310  32.333  29.869  1.00  0.00     0.127 S 
ATOM     71  O   UNL A   1      34.335  32.440  30.953  1.00  0.00    -0.237 OA
ATOM     72  O   UNL A   1      36.078  33.552  29.618  1.00  0.00    -0.237 OA
ATOM     73  O   UNL A   1      34.841  31.654  28.669  1.00  0.00    -0.744 OA
ENDBRANCH  67  70
ENDBRANCH  49  63
BRANCH  50  74
ATOM     74  C   UNL A   1      47.174  27.560  25.975  1.00  0.00     0.023 A 
ATOM     75  C   UNL A   1      48.215  26.928  26.685  1.00  0.00     0.012 A 
ATOM     76  C   UNL A   1      47.335  27.805  24.598  1.00  0.00     0.148 A 
ATOM     77  C   UNL A   1      49.403  26.575  26.044  1.00  0.00     0.002 A 
ATOM     78  C   UNL A   1      48.500  27.403  23.954  1.00  0.00     0.091 A 
ATOM     79  F   UNL A   1      46.341  28.421  23.941  1.00  0.00    -0.205 F 
ATOM     80  C   UNL A   1      49.541  26.803  24.678  1.00  0.00     0.022 A 
BRANCH  78  81
ATOM     81  S   UNL A   1      48.705  27.536  22.173  1.00  0.00     0.127 S 
ATOM     82  O   UNL A   1      47.547  28.341  21.797  1.00  0.00    -0.237 OA
ATOM     83  O   UNL A   1      49.994  28.222  22.061  1.00  0.00    -0.237 OA
ATOM     84  O   UNL A   1      48.718  26.165  21.681  1.00  0.00    -0.744 OA
ENDBRANCH  78  81
ENDBRANCH  50  74
BRANCH  62  85
ATOM     85  C   UNL A   1      44.991  33.323  29.260  1.00  0.00     0.023 A 
ATOM     86  C   UNL A   1      45.739  33.553  30.430  1.00  0.00     0.012 A 
ATOM     87  C   UNL A   1      44.922  34.322  28.269  1.00  0.00     0.148 A 
ATOM     88  C   UNL A   1      46.393  34.769  30.622  1.00  0.00     0.002 A 
ATOM     89  C   UNL A   1      45.612  35.513  28.448  1.00  0.00     0.091 A 
ATOM     90  F   UNL A   1      44.190  34.084  27.172  1.00  0.00    -0.205 F 
ATOM     91  C   UNL A   1      46.340  35.743  29.627  1.00  0.00     0.022 A 
BRANCH  89  92
ATOM     92  S   UNL A   1      45.679  36.788  27.184  1.00  0.00     0.127 S 
ATOM     93  O   UNL A   1      44.278  37.199  27.102  1.00  0.00    -0.237 OA
ATOM     94  O   UNL A   1      46.571  37.778  27.789  1.00  0.00    -0.237 OA
ATOM     95  O   UNL A   1      46.211  36.144  25.991  1.00  0.00    -0.744 OA
ENDBRANCH  89  92
ENDBRANCH  62  85
ENDBRANCH  36  37
ENDBRANCH  28  31
ENDBRANCH  26  27
ENDBRANCH   1  26
TORSDOF 16
ENDMDL
MODEL 2
REMARK VINA RESULT:     -12.8      1.577      7.735
REMARK SMILES C[C@@H]1[C@H](C)CCC[C@H]1NC(=O)C[N@@H+]1CCC[C@@H]1C(=O)NCCCNC(=O)c1ccc(-c2c3nc(c(-c4cccc(S(=O)(=O)[O-])c4F)c4ccc([nH]4)c(-c4cccc(S(=O)(=O)[O-])c4F)c4nc(c(-c5cccc(S(=O)(=O)[O-])c5F)c5ccc2[nH]5)C=C4)C=C3)cc1
REMARK SMILES IDX 22 1 21 2 20 3 18 4 19 5 17 7 13 8 14 9 15 11 16 12 12 13
REMARK SMILES IDX 10 14 9 15 11 17 8 18 1 19 2 20 3 21 4 22 5 23 7 24 6 25
REMARK SMILES IDX 23 26 24 27 25 28 26 30 27 31 28 32 89 33 29 34 88 35 30 36
REMARK SMILES IDX 31 37 32 38 82 39 33 40 87 41 81 42 83 43 34 44 86 45 80 46
REMARK SMILES IDX 79 47 35 49 67 50 47 51 66 52 48 53 51 54 65 55 84 56 49 57
REMARK SMILES IDX 50 58 64 60 85 61 52 62 36 63 37 64 45 65 38 66 40 67 46 68
REMARK SMILES IDX 39 69 41 70 42 71 43 72 44 73 68 74 69 75 77 76 70 77 72 78
REMARK SMILES IDX 78 79 71 80 73 81 74 82 75 83 76 84 53 85 54 86 62 87 55 88
REMARK SMILES IDX 57 89 63 90 56 91 58 92 59 93 60 94 61 95
REMARK H PARENT 20 6 13 10 9 16 24 29 83 48 51 59
REMARK Flexibility Score: inf
ROOT
ATOM      1  C   UNL A   1      35.907  21.096  25.085  1.00  0.00     0.042 C 
ENDROOT
BRANCH   1   2
ATOM      2  C   UNL A   1      35.111  21.394  26.331  1.00  0.00     0.118 C 
BRANCH   2   3
ATOM      3  N   UNL A   1      33.906  20.634  26.523  1.00  0.00    -0.351 N 
ATOM      4  C   UNL A   1      33.057  20.252  25.524  1.00  0.00     0.278 C 
ATOM      5  O   UNL A   1      32.400  19.220  25.699  1.00  0.00    -0.268 OA
ATOM      6  H   UNL A   1      33.677  20.370  27.443  1.00  0.00     0.163 HD
BRANCH   4   7
ATOM      7  C   UNL A   1      32.850  21.117  24.280  1.00  0.00     0.274 C 
ATOM      8  N   UNL A   1      32.058  22.368  24.337  1.00  0.00    -0.317 N 
ATOM      9  C   UNL A   1      31.767  22.684  22.951  1.00  0.00     0.263 C 
ATOM     10  H   UNL A   1      32.648  23.019  24.854  1.00  0.00     0.349 HD
ATOM     11  C   UNL A   1      31.449  21.333  22.333  1.00  0.00     0.068 C 
ATOM     12  C   UNL A   1      32.464  20.402  22.979  1.00  0.00     0.081 C 
BRANCH   8  13
ATOM     13  C   UNL A   1      31.049  22.719  25.347  1.00  0.00     0.364 C 
BRANCH  13  14
ATOM     14  C   UNL A   1      31.412  23.631  26.537  1.00  0.00     0.275 C 
ATOM     15  N   UNL A   1      31.306  24.988  26.541  1.00  0.00    -0.348 N 
ATOM     16  H   UNL A   1      31.034  25.386  27.400  1.00  0.00     0.163 HD
ATOM     17  O   UNL A   1      31.910  23.150  27.562  1.00  0.00    -0.268 OA
BRANCH  15  18
ATOM     18  C   UNL A   1      31.535  25.938  25.457  1.00  0.00     0.085 C 
ATOM     19  C   UNL A   1      30.990  28.279  24.686  1.00  0.00     0.010 C 
ATOM     20  C   UNL A   1      31.262  27.394  25.911  1.00  0.00     0.011 C 
ATOM     21  C   UNL A   1      32.366  27.941  26.848  1.00  0.00    -0.009 C 
ATOM     22  C   UNL A   1      32.096  29.384  27.279  1.00  0.00     0.008 C 
ATOM     23  C   UNL A   1      33.759  27.800  26.230  1.00  0.00     0.004 C 
ATOM     24  C   UNL A   1      32.969  25.777  24.914  1.00  0.00     0.025 C 
ATOM     25  C   UNL A   1      34.044  26.353  25.840  1.00  0.00     0.002 C 
ENDBRANCH  15  18
ENDBRANCH  13  14
ENDBRANCH   8  13
ENDBRANCH   4   7
ENDBRANCH   2   3
ENDBRANCH   1   2
BRANCH   1  26
ATOM     26  C   UNL A   1      37.304  21.690  25.103  1.00  0.00     0.118 C 
BRANCH  26  27
ATOM     27  N   UNL A   1      38.352  20.738  25.477  1.00  0.00    -0.352 N 
ATOM     28  C   UNL A   1      39.518  20.918  26.187  1.00  0.00     0.251 C 
ATOM     29  H   UNL A   1      38.197  19.815  25.170  1.00  0.00     0.163 HD
ATOM     30  O   UNL A   1      40.303  19.992  26.335  1.00  0.00    -0.269 OA
BRANCH  28  31
ATOM     31  C   UNL A   1      39.841  22.254  26.729  1.00  0.00     0.039 A 
ATOM     32  C   UNL A   1      40.867  22.371  27.672  1.00  0.00     0.014 A 
ATOM     33  C   UNL A   1      39.186  23.390  26.256  1.00  0.00     0.014 A 
ATOM     34  C   UNL A   1      41.315  23.639  28.045  1.00  0.00     0.010 A 
ATOM     35  C   UNL A   1      39.711  24.642  26.535  1.00  0.00     0.010 A 
ATOM     36  C   UNL A   1      40.785  24.781  27.428  1.00  0.00    -0.014 A 
BRANCH  36  37
ATOM     37  C   UNL A   1      41.335  26.139  27.668  1.00  0.00     0.031 A 
ATOM     38  C   UNL A   1      42.749  26.449  27.261  1.00  0.00     0.074 A 
ATOM     39  C   UNL A   1      40.613  27.037  28.370  1.00  0.00     0.049 A 
ATOM     40  N   UNL A   1      43.471  27.505  27.529  1.00  0.00    -0.248 NA
ATOM     41  C   UNL A   1      43.461  25.416  26.489  1.00  0.00     0.031 C 
ATOM     42  C   UNL A   1      39.261  26.821  28.892  1.00  0.00     0.029 A 
ATOM     43  N   UNL A   1      40.933  28.301  28.800  1.00  0.00    -0.354 N 
ATOM     44  C   UNL A   1      44.731  27.242  27.007  1.00  0.00     0.074 A 
ATOM     45  C   UNL A   1      44.689  25.912  26.441  1.00  0.00     0.031 C 
ATOM     46  C   UNL A   1      38.866  27.914  29.564  1.00  0.00     0.029 A 
ATOM     47  C   UNL A   1      39.948  28.892  29.558  1.00  0.00     0.049 A 
ATOM     48  H   UNL A   1      41.786  28.742  28.586  1.00  0.00     0.167 HD
ATOM     49  C   UNL A   1      45.817  28.048  26.970  1.00  0.00     0.034 A 
ATOM     50  C   UNL A   1      39.926  30.083  30.189  1.00  0.00     0.034 A 
ATOM     51  C   UNL A   1      45.828  29.396  27.466  1.00  0.00     0.049 A 
ATOM     52  C   UNL A   1      41.130  30.980  30.086  1.00  0.00     0.074 A 
ATOM     53  C   UNL A   1      46.839  30.335  27.378  1.00  0.00     0.029 A 
ATOM     54  N   UNL A   1      44.777  29.998  28.138  1.00  0.00    -0.354 N 
ATOM     55  N   UNL A   1      42.259  30.775  29.452  1.00  0.00    -0.248 NA
ATOM     56  C   UNL A   1      41.049  32.282  30.765  1.00  0.00     0.031 C 
ATOM     57  C   UNL A   1      46.400  31.505  28.005  1.00  0.00     0.029 A 
ATOM     58  C   UNL A   1      45.114  31.295  28.478  1.00  0.00     0.049 A 
ATOM     59  H   UNL A   1      43.916  29.565  28.344  1.00  0.00     0.167 HD
ATOM     60  C   UNL A   1      43.012  31.930  29.632  1.00  0.00     0.074 A 
ATOM     61  C   UNL A   1      42.200  32.840  30.413  1.00  0.00     0.031 C 
ATOM     62  C   UNL A   1      44.269  32.205  29.207  1.00  0.00     0.034 A 
BRANCH  49  63
ATOM     63  C   UNL A   1      47.056  27.518  26.301  1.00  0.00     0.023 A 
ATOM     64  C   UNL A   1      47.279  27.802  24.939  1.00  0.00     0.012 A 
ATOM     65  C   UNL A   1      48.019  26.786  27.022  1.00  0.00     0.148 A 
ATOM     66  C   UNL A   1      48.424  27.338  24.294  1.00  0.00     0.002 A 
ATOM     67  C   UNL A   1      49.180  26.363  26.383  1.00  0.00     0.091 A 
ATOM     68  F   UNL A   1      47.778  26.506  28.311  1.00  0.00    -0.205 F 
ATOM     69  C   UNL A   1      49.378  26.629  25.018  1.00  0.00     0.022 A 
BRANCH  67  70
ATOM     70  S   UNL A   1      50.502  25.506  27.244  1.00  0.00     0.127 S 
ATOM     71  O   UNL A   1      49.809  24.318  27.741  1.00  0.00    -0.237 OA
ATOM     72  O   UNL A   1      51.456  25.247  26.165  1.00  0.00    -0.237 OA
ATOM     73  O   UNL A   1      50.978  26.427  28.266  1.00  0.00    -0.744 OA
ENDBRANCH  67  70
ENDBRANCH  49  63
BRANCH  50  74
ATOM     74  C   UNL A   1      38.698  30.525  30.911  1.00  0.00     0.023 A 
ATOM     75  C   UNL A   1      38.599  30.291  32.297  1.00  0.00     0.012 A 
ATOM     76  C   UNL A   1      37.650  31.197  30.253  1.00  0.00     0.148 A 
ATOM     77  C   UNL A   1      37.468  30.690  33.008  1.00  0.00     0.002 A 
ATOM     78  C   UNL A   1      36.548  31.639  30.978  1.00  0.00     0.091 A 
ATOM     79  F   UNL A   1      37.753  31.397  28.931  1.00  0.00    -0.205 F 
ATOM     80  C   UNL A   1      36.448  31.373  32.352  1.00  0.00     0.022 A 
BRANCH  78  81
ATOM     81  S   UNL A   1      35.254  32.642  30.236  1.00  0.00     0.127 S 
ATOM     82  O   UNL A   1      34.761  31.763  29.181  1.00  0.00    -0.237 OA
ATOM     83  O   UNL A   1      34.334  32.837  31.358  1.00  0.00    -0.237 OA
ATOM     84  O   UNL A   1      35.916  33.862  29.793  1.00  0.00    -0.744 OA
ENDBRANCH  78  81
ENDBRANCH  50  74
BRANCH  62  85
ATOM     85  C   UNL A   1      44.847  33.548  29.561  1.00  0.00     0.023 A 
ATOM     86  C   UNL A   1      45.659  33.671  30.705  1.00  0.00     0.012 A 
ATOM     87  C   UNL A   1      44.670  34.657  28.710  1.00  0.00     0.148 A 
ATOM     88  C   UNL A   1      46.269  34.886  31.011  1.00  0.00     0.002 A 
ATOM     89  C   UNL A   1      45.317  35.852  28.998  1.00  0.00     0.091 A 
ATOM     90  F   UNL A   1      43.881  34.519  27.636  1.00  0.00    -0.205 F 
ATOM     91  C   UNL A   1      46.109  35.971  30.152  1.00  0.00     0.022 A 
BRANCH  89  92
ATOM     92  S   UNL A   1      45.245  37.275  27.904  1.00  0.00     0.127 S 
ATOM     93  O   UNL A   1      46.028  38.262  28.648  1.00  0.00    -0.237 OA
ATOM     94  O   UNL A   1      45.892  36.769  26.694  1.00  0.00    -0.237 OA
ATOM     95  O   UNL A   1      43.832  37.591  27.747  1.00  0.00    -0.744 OA
ENDBRANCH  89  92
ENDBRANCH  62  85
ENDBRANCH  36  37
ENDBRANCH  28  31
ENDBRANCH  26  27
ENDBRANCH   1  26
TORSDOF 16
ENDMDL
MODEL 3
REMARK VINA RESULT:     -12.6      1.263      7.695
REMARK SMILES C[C@@H]1[C@H](C)CCC[C@H]1NC(=O)C[N@@H+]1CCC[C@@H]1C(=O)NCCCNC(=O)c1ccc(-c2c3nc(c(-c4cccc(S(=O)(=O)[O-])c4F)c4ccc([nH]4)c(-c4cccc(S(=O)(=O)[O-])c4F)c4nc(c(-c5cccc(S(=O)(=O)[O-])c5F)c5ccc2[nH]5)C=C4)C=C3)cc1
REMARK SMILES IDX 22 1 21 2 20 3 18 4 19 5 17 7 13 8 14 9 15 11 16 12 12 13
REMARK SMILES IDX 10 14 9 15 11 17 8 18 1 19 2 20 3 21 4 22 5 23 7 24 6 25
REMARK SMILES IDX 23 26 24 27 25 28 26 30 27 31 28 32 89 33 29 34 88 35 30 36
REMARK SMILES IDX 31 37 32 38 82 39 33 40 87 41 81 42 83 43 34 44 86 45 80 46
REMARK SMILES IDX 79 47 35 49 67 50 47 51 66 52 48 53 51 54 65 55 84 56 49 57
REMARK SMILES IDX 50 58 64 60 85 61 52 62 36 63 37 64 45 65 38 66 40 67 46 68
REMARK SMILES IDX 39 69 41 70 42 71 43 72 44 73 68 74 69 75 77 76 70 77 72 78
REMARK SMILES IDX 78 79 71 80 73 81 74 82 75 83 76 84 53 85 54 86 62 87 55 88
REMARK SMILES IDX 57 89 63 90 56 91 58 92 59 93 60 94 61 95
REMARK H PARENT 20 6 13 10 9 16 24 29 83 48 51 59
REMARK Flexibility Score: inf
ROOT
ATOM      1  C   UNL A   1      37.446  19.947  24.941  1.00  0.00     0.042 C 
ENDROOT
BRANCH   1   2
ATOM      2  C   UNL A   1      36.087  20.602  24.974  1.00  0.00     0.118 C 
BRANCH   2   3
ATOM      3  N   UNL A   1      36.031  21.945  25.483  1.00  0.00    -0.351 N 
ATOM      4  C   UNL A   1      34.890  22.684  25.612  1.00  0.00     0.278 C 
ATOM      5  O   UNL A   1      34.866  23.546  26.497  1.00  0.00    -0.268 OA
ATOM      6  H   UNL A   1      36.879  22.364  25.758  1.00  0.00     0.163 HD
BRANCH   4   7
ATOM      7  C   UNL A   1      33.721  22.522  24.638  1.00  0.00     0.274 C 
ATOM      8  N   UNL A   1      33.563  23.423  23.473  1.00  0.00    -0.317 N 
ATOM      9  C   UNL A   1      32.194  23.221  23.035  1.00  0.00     0.263 C 
ATOM     10  H   UNL A   1      34.307  23.146  22.833  1.00  0.00     0.349 HD
ATOM     11  C   UNL A   1      31.410  23.127  24.333  1.00  0.00     0.068 C 
ATOM     12  C   UNL A   1      32.325  22.316  25.239  1.00  0.00     0.081 C 
BRANCH   8  13
ATOM     13  C   UNL A   1      34.140  24.766  23.320  1.00  0.00     0.364 C 
BRANCH  13  14
ATOM     14  C   UNL A   1      33.414  25.845  22.490  1.00  0.00     0.275 C 
ATOM     15  N   UNL A   1      32.600  26.808  23.003  1.00  0.00    -0.348 N 
ATOM     16  H   UNL A   1      32.644  27.680  22.550  1.00  0.00     0.163 HD
ATOM     17  O   UNL A   1      33.486  25.835  21.256  1.00  0.00    -0.268 OA
BRANCH  15  18
ATOM     18  C   UNL A   1      31.672  26.733  24.128  1.00  0.00     0.085 C 
ATOM     19  C   UNL A   1      31.552  26.278  26.607  1.00  0.00     0.010 C 
ATOM     20  C   UNL A   1      32.411  26.873  25.483  1.00  0.00     0.011 C 
ATOM     21  C   UNL A   1      32.887  28.320  25.754  1.00  0.00    -0.009 C 
ATOM     22  C   UNL A   1      33.602  28.451  27.101  1.00  0.00     0.008 C 
ATOM     23  C   UNL A   1      31.741  29.328  25.637  1.00  0.00     0.004 C 
ATOM     24  C   UNL A   1      30.574  27.805  23.973  1.00  0.00     0.025 C 
ATOM     25  C   UNL A   1      31.056  29.226  24.277  1.00  0.00     0.002 C 
ENDBRANCH  15  18
ENDBRANCH  13  14
ENDBRANCH   8  13
ENDBRANCH   4   7
ENDBRANCH   2   3
ENDBRANCH   1   2
BRANCH   1  26
ATOM     26  C   UNL A   1      38.548  20.813  25.524  1.00  0.00     0.118 C 
BRANCH  26  27
ATOM     27  N   UNL A   1      39.676  20.055  26.069  1.00  0.00    -0.352 N 
ATOM     28  C   UNL A   1      40.752  20.463  26.825  1.00  0.00     0.251 C 
ATOM     29  H   UNL A   1      39.663  19.092  25.861  1.00  0.00     0.163 HD
ATOM     30  O   UNL A   1      41.635  19.671  27.126  1.00  0.00    -0.269 OA
BRANCH  28  31
ATOM     31  C   UNL A   1      40.862  21.880  27.230  1.00  0.00     0.039 A 
ATOM     32  C   UNL A   1      41.649  22.207  28.338  1.00  0.00     0.014 A 
ATOM     33  C   UNL A   1      40.253  22.882  26.477  1.00  0.00     0.014 A 
ATOM     34  C   UNL A   1      41.921  23.548  28.615  1.00  0.00     0.010 A 
ATOM     35  C   UNL A   1      40.621  24.203  26.681  1.00  0.00     0.010 A 
ATOM     36  C   UNL A   1      41.464  24.550  27.748  1.00  0.00    -0.014 A 
BRANCH  36  37
ATOM     37  C   UNL A   1      41.858  25.974  27.904  1.00  0.00     0.031 A 
ATOM     38  C   UNL A   1      43.240  26.409  27.500  1.00  0.00     0.074 A 
ATOM     39  C   UNL A   1      41.028  26.831  28.532  1.00  0.00     0.049 A 
ATOM     40  N   UNL A   1      43.837  27.553  27.707  1.00  0.00    -0.248 NA
ATOM     41  C   UNL A   1      44.077  25.411  26.811  1.00  0.00     0.031 C 
ATOM     42  C   UNL A   1      39.695  26.504  29.046  1.00  0.00     0.029 A 
ATOM     43  N   UNL A   1      41.199  28.148  28.880  1.00  0.00    -0.354 N 
ATOM     44  C   UNL A   1      45.130  27.395  27.224  1.00  0.00     0.074 A 
ATOM     45  C   UNL A   1      45.245  26.034  26.749  1.00  0.00     0.031 C 
ATOM     46  C   UNL A   1      39.169  27.589  29.636  1.00  0.00     0.029 A 
ATOM     47  C   UNL A   1      40.139  28.677  29.581  1.00  0.00     0.049 A 
ATOM     48  H   UNL A   1      42.005  28.665  28.651  1.00  0.00     0.167 HD
ATOM     49  C   UNL A   1      46.123  28.310  27.149  1.00  0.00     0.034 A 
ATOM     50  C   UNL A   1      39.974  29.897  30.129  1.00  0.00     0.034 A 
ATOM     51  C   UNL A   1      45.978  29.681  27.553  1.00  0.00     0.049 A 
ATOM     52  C   UNL A   1      41.076  30.911  29.985  1.00  0.00     0.074 A 
ATOM     53  C   UNL A   1      46.883  30.717  27.417  1.00  0.00     0.029 A 
ATOM     54  N   UNL A   1      44.852  30.207  28.166  1.00  0.00    -0.354 N 
ATOM     55  N   UNL A   1      42.235  30.790  29.384  1.00  0.00    -0.248 NA
ATOM     56  C   UNL A   1      40.839  32.238  30.572  1.00  0.00     0.031 C 
ATOM     57  C   UNL A   1      46.306  31.872  27.957  1.00  0.00     0.029 A 
ATOM     58  C   UNL A   1      45.040  31.553  28.423  1.00  0.00     0.049 A 
ATOM     59  H   UNL A   1      44.039  29.698  28.387  1.00  0.00     0.167 HD
ATOM     60  C   UNL A   1      42.854  32.029  29.497  1.00  0.00     0.074 A 
ATOM     61  C   UNL A   1      41.931  32.895  30.202  1.00  0.00     0.031 C 
ATOM     62  C   UNL A   1      44.084  32.411  29.075  1.00  0.00     0.034 A 
BRANCH  49  63
ATOM     63  C   UNL A   1      47.428  27.877  26.538  1.00  0.00     0.023 A 
ATOM     64  C   UNL A   1      48.484  27.475  27.380  1.00  0.00     0.012 A 
ATOM     65  C   UNL A   1      47.596  27.821  25.141  1.00  0.00     0.148 A 
ATOM     66  C   UNL A   1      49.700  27.055  26.844  1.00  0.00     0.002 A 
ATOM     67  C   UNL A   1      48.798  27.361  24.612  1.00  0.00     0.091 A 
ATOM     68  F   UNL A   1      46.589  28.230  24.357  1.00  0.00    -0.205 F 
ATOM     69  C   UNL A   1      49.853  26.988  25.462  1.00  0.00     0.022 A 
BRANCH  67  70
ATOM     70  S   UNL A   1      49.069  27.168  22.848  1.00  0.00     0.127 S 
ATOM     71  O   UNL A   1      50.521  27.010  22.789  1.00  0.00    -0.237 OA
ATOM     72  O   UNL A   1      48.313  25.951  22.550  1.00  0.00    -0.237 OA
ATOM     73  O   UNL A   1      48.544  28.375  22.227  1.00  0.00    -0.744 OA
ENDBRANCH  67  70
ENDBRANCH  49  63
BRANCH  50  74
ATOM     74  C   UNL A   1      38.690  30.249  30.800  1.00  0.00     0.023 A 
ATOM     75  C   UNL A   1      38.500  29.882  32.147  1.00  0.00     0.012 A 
ATOM     76  C   UNL A   1      37.675  30.964  30.135  1.00  0.00     0.148 A 
ATOM     77  C   UNL A   1      37.312  30.194  32.810  1.00  0.00     0.002 A 
ATOM     78  C   UNL A   1      36.516  31.318  30.817  1.00  0.00     0.091 A 
ATOM     79  F   UNL A   1      37.865  31.291  28.848  1.00  0.00    -0.205 F 
ATOM     80  C   UNL A   1      36.326  30.920  32.149  1.00  0.00     0.022 A 
BRANCH  78  81
ATOM     81  S   UNL A   1      35.255  32.367  30.083  1.00  0.00     0.127 S 
ATOM     82  O   UNL A   1      34.322  32.537  31.192  1.00  0.00    -0.237 OA
ATOM     83  O   UNL A   1      36.018  33.565  29.729  1.00  0.00    -0.237 OA
ATOM     84  O   UNL A   1      34.753  31.623  28.934  1.00  0.00    -0.744 OA
ENDBRANCH  78  81
ENDBRANCH  50  74
BRANCH  62  85
ATOM     85  C   UNL A   1      44.506  33.830  29.345  1.00  0.00     0.023 A 
ATOM     86  C   UNL A   1      45.206  34.128  30.530  1.00  0.00     0.012 A 
ATOM     87  C   UNL A   1      44.298  34.841  28.387  1.00  0.00     0.148 A 
ATOM     88  C   UNL A   1      45.676  35.419  30.768  1.00  0.00     0.002 A 
ATOM     89  C   UNL A   1      44.806  36.114  28.611  1.00  0.00     0.091 A 
ATOM     90  F   UNL A   1      43.614  34.536  27.275  1.00  0.00    -0.205 F 
ATOM     91  C   UNL A   1      45.487  36.407  29.804  1.00  0.00     0.022 A 
BRANCH  89  92
ATOM     92  S   UNL A   1      44.693  37.426  27.389  1.00  0.00     0.127 S 
ATOM     93  O   UNL A   1      43.374  37.180  26.809  1.00  0.00    -0.237 OA
ATOM     94  O   UNL A   1      44.782  38.629  28.217  1.00  0.00    -0.237 OA
ATOM     95  O   UNL A   1      45.818  37.230  26.484  1.00  0.00    -0.744 OA
ENDBRANCH  89  92
ENDBRANCH  62  85
ENDBRANCH  36  37
ENDBRANCH  28  31
ENDBRANCH  26  27
ENDBRANCH   1  26
TORSDOF 16
ENDMDL
