MODEL 1
REMARK VINA RESULT:      -8.9      0.000      0.000
REMARK SMILES COc1cc(C)cc2c1[C@@H](C)[C@@H](CC(=O)N[C@@H](Cc1c[nH]c3ccccc13)C(=O)NCCCNC(=O)c1ccc(-c3c4nc(c(-c5cccc(S(=O)(=O)[O-])c5F)c5ccc([nH]5)c(-c5cccc(S(=O)(=O)[O-])c5F)c5nc(c(-c6cccc(S(=O)(=O)[O-])c6F)c6ccc3[nH]6)C=C5)C=C4)cc1)C(=O)O2
REMARK SMILES IDX 31 1 30 2 28 3 29 4 17 6 16 7 14 8 15 9 13 11 12 12 3 13
REMARK SMILES IDX 4 14 9 15 5 16 8 17 10 18 6 19 7 20 102 21 11 22 100 23
REMARK SMILES IDX 101 24 2 25 1 26 18 27 19 28 20 29 27 30 21 31 22 32 26 33
REMARK SMILES IDX 23 35 25 36 24 37 32 38 33 39 34 40 35 41 36 43 37 44 38 45
REMARK SMILES IDX 99 46 39 47 98 48 40 49 41 50 42 51 92 52 43 53 97 54 91 55
REMARK SMILES IDX 93 56 44 57 96 58 90 59 89 60 45 62 77 63 57 64 76 65 58 66
REMARK SMILES IDX 61 67 75 68 94 69 59 70 60 71 74 73 95 74 62 75 46 76 47 77
REMARK SMILES IDX 55 78 48 79 50 80 56 81 49 82 51 83 52 84 53 85 54 86 78 87
REMARK SMILES IDX 79 88 87 89 80 90 82 91 88 92 81 93 83 94 84 95 85 96 86 97
REMARK SMILES IDX 63 98 64 99 72 100 65 101 67 102 73 103 66 104 68 105 69 106
REMARK SMILES IDX 70 107 71 108
REMARK H PARENT 30 5 16 10 21 34 34 42 93 61 61 72
REMARK Flexibility Score: inf
ROOT
ATOM      1  C   UNL A   1      44.195  21.714  25.527  1.00  0.00     0.117 C 
ENDROOT
BRANCH   1   2
ATOM      2  N   UNL A   1      44.207  23.116  25.176  1.00  0.00    -0.354 N 
ATOM      3  C   UNL A   1      44.248  24.209  25.974  1.00  0.00     0.242 C 
ATOM      4  O   UNL A   1      43.929  25.280  25.439  1.00  0.00    -0.273 OA
ATOM      5  H   UNL A   1      44.181  23.305  24.210  1.00  0.00     0.163 HD
BRANCH   3   6
ATOM      6  C   UNL A   1      44.748  24.209  27.437  1.00  0.00     0.175 C 
BRANCH   6   7
ATOM      7  N   UNL A   1      43.866  23.569  28.402  1.00  0.00    -0.344 N 
ATOM      8  C   UNL A   1      43.865  23.768  29.754  1.00  0.00     0.221 C 
ATOM      9  O   UNL A   1      43.540  22.851  30.504  1.00  0.00    -0.275 OA
ATOM     10  H   UNL A   1      43.206  22.930  28.046  1.00  0.00     0.164 HD
BRANCH   8  11
ATOM     11  C   UNL A   1      44.129  25.167  30.286  1.00  0.00     0.116 C 
BRANCH  11  12
ATOM     12  C   UNL A   1      45.347  25.376  31.217  1.00  0.00     0.116 C 
ATOM     13  C   UNL A   1      43.036  26.861  33.809  1.00  0.00     0.126 A 
ATOM     14  C   UNL A   1      42.162  27.961  33.756  1.00  0.00     0.050 A 
ATOM     15  C   UNL A   1      44.049  26.711  32.861  1.00  0.00     0.041 A 
ATOM     16  C   UNL A   1      42.273  28.929  32.748  1.00  0.00    -0.044 A 
ATOM     17  C   UNL A   1      44.216  27.766  31.945  1.00  0.00     0.138 A 
ATOM     18  C   UNL A   1      44.966  25.501  32.718  1.00  0.00     0.038 C 
ATOM     19  C   UNL A   1      41.305  30.071  32.669  1.00  0.00     0.044 C 
ATOM     20  C   UNL A   1      43.338  28.845  31.858  1.00  0.00     0.051 A 
ATOM     21  O   UNL A   1      45.311  27.808  31.065  1.00  0.00    -0.426 OA
ATOM     22  C   UNL A   1      44.458  24.153  33.238  1.00  0.00     0.014 C 
ATOM     23  C   UNL A   1      46.092  26.672  30.989  1.00  0.00     0.315 C 
ATOM     24  O   UNL A   1      47.294  26.742  30.764  1.00  0.00    -0.251 OA
BRANCH  13  25
ATOM     25  O   UNL A   1      42.984  25.981  34.856  1.00  0.00    -0.496 OA
ATOM     26  C   UNL A   1      43.104  26.617  36.125  1.00  0.00     0.278 C 
ENDBRANCH  13  25
ENDBRANCH  11  12
ENDBRANCH   8  11
ENDBRANCH   6   7
BRANCH   6  27
ATOM     27  C   UNL A   1      46.209  24.156  27.858  1.00  0.00     0.072 C 
BRANCH  27  28
ATOM     28  C   UNL A   1      47.361  24.997  27.376  1.00  0.00    -0.020 A 
ATOM     29  C   UNL A   1      48.591  24.842  28.004  1.00  0.00     0.087 A 
ATOM     30  C   UNL A   1      47.605  25.855  26.238  1.00  0.00     0.003 A 
ATOM     31  N   UNL A   1      49.558  25.415  27.242  1.00  0.00    -0.361 N 
ATOM     32  C   UNL A   1      48.989  26.076  26.186  1.00  0.00     0.046 A 
ATOM     33  C   UNL A   1      46.845  26.450  25.205  1.00  0.00     0.010 A 
ATOM     34  H   UNL A   1      50.525  25.363  27.422  1.00  0.00     0.166 HD
ATOM     35  C   UNL A   1      49.628  26.820  25.185  1.00  0.00     0.026 A 
ATOM     36  C   UNL A   1      47.463  27.231  24.214  1.00  0.00     0.001 A 
ATOM     37  C   UNL A   1      48.837  27.410  24.204  1.00  0.00     0.002 A 
ENDBRANCH  27  28
ENDBRANCH   6  27
ENDBRANCH   3   6
ENDBRANCH   1   2
BRANCH   1  38
ATOM     38  C   UNL A   1      42.782  21.162  25.448  1.00  0.00     0.042 C 
BRANCH  38  39
ATOM     39  C   UNL A   1      41.928  21.641  26.610  1.00  0.00     0.118 C 
BRANCH  39  40
ATOM     40  N   UNL A   1      40.525  21.765  26.233  1.00  0.00    -0.352 N 
ATOM     41  C   UNL A   1      39.661  22.819  26.439  1.00  0.00     0.251 C 
ATOM     42  H   UNL A   1      40.142  20.988  25.764  1.00  0.00     0.163 HD
ATOM     43  O   UNL A   1      38.462  22.668  26.299  1.00  0.00    -0.269 OA
BRANCH  41  44
ATOM     44  C   UNL A   1      40.228  24.122  26.850  1.00  0.00     0.039 A 
ATOM     45  C   UNL A   1      40.546  24.342  28.191  1.00  0.00     0.014 A 
ATOM     46  C   UNL A   1      40.387  25.136  25.906  1.00  0.00     0.014 A 
ATOM     47  C   UNL A   1      40.835  25.627  28.620  1.00  0.00     0.010 A 
ATOM     48  C   UNL A   1      40.792  26.406  26.328  1.00  0.00     0.010 A 
ATOM     49  C   UNL A   1      40.969  26.673  27.694  1.00  0.00    -0.014 A 
BRANCH  49  50
ATOM     50  C   UNL A   1      41.323  28.028  28.185  1.00  0.00     0.031 A 
ATOM     51  C   UNL A   1      40.276  28.943  28.758  1.00  0.00     0.074 A 
ATOM     52  C   UNL A   1      42.615  28.409  28.147  1.00  0.00     0.049 A 
ATOM     53  N   UNL A   1      40.418  30.159  29.216  1.00  0.00    -0.248 NA
ATOM     54  C   UNL A   1      38.892  28.439  28.822  1.00  0.00     0.031 C 
ATOM     55  C   UNL A   1      43.714  27.605  27.606  1.00  0.00     0.029 A 
ATOM     56  N   UNL A   1      43.228  29.555  28.583  1.00  0.00    -0.354 N 
ATOM     57  C   UNL A   1      39.145  30.585  29.575  1.00  0.00     0.074 A 
ATOM     58  C   UNL A   1      38.238  29.496  29.287  1.00  0.00     0.031 C 
ATOM     59  C   UNL A   1      44.871  28.258  27.789  1.00  0.00     0.029 A 
ATOM     60  C   UNL A   1      44.589  29.554  28.391  1.00  0.00     0.049 A 
ATOM     61  H   UNL A   1      42.740  30.305  28.994  1.00  0.00     0.167 HD
ATOM     62  C   UNL A   1      38.775  31.770  30.110  1.00  0.00     0.034 A 
ATOM     63  C   UNL A   1      45.512  30.498  28.650  1.00  0.00     0.034 A 
ATOM     64  C   UNL A   1      39.691  32.825  30.450  1.00  0.00     0.049 A 
ATOM     65  C   UNL A   1      45.074  31.795  29.257  1.00  0.00     0.074 A 
ATOM     66  C   UNL A   1      39.412  34.049  31.032  1.00  0.00     0.029 A 
ATOM     67  N   UNL A   1      41.062  32.779  30.249  1.00  0.00    -0.354 N 
ATOM     68  N   UNL A   1      43.870  32.159  29.628  1.00  0.00    -0.248 NA
ATOM     69  C   UNL A   1      46.112  32.807  29.492  1.00  0.00     0.031 C 
ATOM     70  C   UNL A   1      40.613  34.746  31.178  1.00  0.00     0.029 A 
ATOM     71  C   UNL A   1      41.642  33.951  30.700  1.00  0.00     0.049 A 
ATOM     72  H   UNL A   1      41.550  32.025  29.846  1.00  0.00     0.167 HD
ATOM     73  C   UNL A   1      44.007  33.435  30.155  1.00  0.00     0.074 A 
ATOM     74  C   UNL A   1      45.413  33.776  30.071  1.00  0.00     0.031 C 
ATOM     75  C   UNL A   1      43.049  34.253  30.651  1.00  0.00     0.034 A 
BRANCH  62  76
ATOM     76  C   UNL A   1      37.317  31.995  30.410  1.00  0.00     0.023 A 
ATOM     77  C   UNL A   1      36.801  31.601  31.660  1.00  0.00     0.012 A 
ATOM     78  C   UNL A   1      36.496  32.699  29.509  1.00  0.00     0.148 A 
ATOM     79  C   UNL A   1      35.485  31.902  32.008  1.00  0.00     0.002 A 
ATOM     80  C   UNL A   1      35.195  33.022  29.873  1.00  0.00     0.091 A 
ATOM     81  F   UNL A   1      37.008  33.052  28.321  1.00  0.00    -0.205 F 
ATOM     82  C   UNL A   1      34.687  32.620  31.121  1.00  0.00     0.022 A 
BRANCH  80  83
ATOM     83  S   UNL A   1      34.102  33.994  28.831  1.00  0.00     0.127 S 
ATOM     84  O   UNL A   1      33.611  32.982  27.895  1.00  0.00    -0.237 OA
ATOM     85  O   UNL A   1      33.106  34.470  29.790  1.00  0.00    -0.237 OA
ATOM     86  O   UNL A   1      34.928  35.035  28.236  1.00  0.00    -0.744 OA
ENDBRANCH  80  83
ENDBRANCH  62  76
BRANCH  63  87
ATOM     87  C   UNL A   1      46.942  30.209  28.361  1.00  0.00     0.023 A 
ATOM     88  C   UNL A   1      47.405  30.280  27.034  1.00  0.00     0.012 A 
ATOM     89  C   UNL A   1      47.859  29.970  29.403  1.00  0.00     0.148 A 
ATOM     90  C   UNL A   1      48.761  30.119  26.749  1.00  0.00     0.002 A 
ATOM     91  C   UNL A   1      49.212  29.856  29.117  1.00  0.00     0.091 A 
ATOM     92  F   UNL A   1      47.389  29.906  30.657  1.00  0.00    -0.205 F 
ATOM     93  C   UNL A   1      49.665  29.920  27.791  1.00  0.00     0.022 A 
BRANCH  91  94
ATOM     94  S   UNL A   1      50.464  29.721  30.399  1.00  0.00     0.127 S 
ATOM     95  O   UNL A   1      50.092  28.464  31.046  1.00  0.00    -0.237 OA
ATOM     96  O   UNL A   1      51.695  29.668  29.610  1.00  0.00    -0.237 OA
ATOM     97  O   UNL A   1      50.322  30.914  31.221  1.00  0.00    -0.744 OA
ENDBRANCH  91  94
ENDBRANCH  63  87
BRANCH  75  98
ATOM     98  C   UNL A   1      43.474  35.597  31.169  1.00  0.00     0.023 A 
ATOM     99  C   UNL A   1      43.709  36.645  30.260  1.00  0.00     0.012 A 
ATOM    100  C   UNL A   1      43.516  35.846  32.554  1.00  0.00     0.148 A 
ATOM    101  C   UNL A   1      43.989  37.929  30.725  1.00  0.00     0.002 A 
ATOM    102  C   UNL A   1      43.761  37.136  33.009  1.00  0.00     0.091 A 
ATOM    103  F   UNL A   1      43.298  34.825  33.394  1.00  0.00    -0.205 F 
ATOM    104  C   UNL A   1      44.002  38.177  32.096  1.00  0.00     0.022 A 
BRANCH 102 105
ATOM    105  S   UNL A   1      43.724  37.569  34.752  1.00  0.00     0.127 S 
ATOM    106  O   UNL A   1      42.371  37.161  35.130  1.00  0.00    -0.237 OA
ATOM    107  O   UNL A   1      44.790  36.731  35.300  1.00  0.00    -0.237 OA
ATOM    108  O   UNL A   1      43.979  39.001  34.819  1.00  0.00    -0.744 OA
ENDBRANCH 102 105
ENDBRANCH  75  98
ENDBRANCH  49  50
ENDBRANCH  41  44
ENDBRANCH  39  40
ENDBRANCH  38  39
ENDBRANCH   1  38
TORSDOF 19
ENDMDL
MODEL 2
REMARK VINA RESULT:      -8.8      1.293      7.375
REMARK SMILES COc1cc(C)cc2c1[C@@H](C)[C@@H](CC(=O)N[C@@H](Cc1c[nH]c3ccccc13)C(=O)NCCCNC(=O)c1ccc(-c3c4nc(c(-c5cccc(S(=O)(=O)[O-])c5F)c5ccc([nH]5)c(-c5cccc(S(=O)(=O)[O-])c5F)c5nc(c(-c6cccc(S(=O)(=O)[O-])c6F)c6ccc3[nH]6)C=C5)C=C4)cc1)C(=O)O2
REMARK SMILES IDX 31 1 30 2 28 3 29 4 17 6 16 7 14 8 15 9 13 11 12 12 3 13
REMARK SMILES IDX 4 14 9 15 5 16 8 17 10 18 6 19 7 20 102 21 11 22 100 23
REMARK SMILES IDX 101 24 2 25 1 26 18 27 19 28 20 29 27 30 21 31 22 32 26 33
REMARK SMILES IDX 23 35 25 36 24 37 32 38 33 39 34 40 35 41 36 43 37 44 38 45
REMARK SMILES IDX 99 46 39 47 98 48 40 49 41 50 42 51 92 52 43 53 97 54 91 55
REMARK SMILES IDX 93 56 44 57 96 58 90 59 89 60 45 62 77 63 57 64 76 65 58 66
REMARK SMILES IDX 61 67 75 68 94 69 59 70 60 71 74 73 95 74 62 75 46 76 47 77
REMARK SMILES IDX 55 78 48 79 50 80 56 81 49 82 51 83 52 84 53 85 54 86 78 87
REMARK SMILES IDX 79 88 87 89 80 90 82 91 88 92 81 93 83 94 84 95 85 96 86 97
REMARK SMILES IDX 63 98 64 99 72 100 65 101 67 102 73 103 66 104 68 105 69 106
REMARK SMILES IDX 70 107 71 108
REMARK H PARENT 30 5 16 10 21 34 34 42 93 61 61 72
REMARK Flexibility Score: inf
ROOT
ATOM      1  C   UNL A   1      44.352  21.770  25.450  1.00  0.00     0.117 C 
ENDROOT
BRANCH   1   2
ATOM      2  N   UNL A   1      44.321  23.186  25.163  1.00  0.00    -0.354 N 
ATOM      3  C   UNL A   1      44.370  24.242  26.008  1.00  0.00     0.242 C 
ATOM      4  O   UNL A   1      44.008  25.329  25.534  1.00  0.00    -0.273 OA
ATOM      5  H   UNL A   1      44.255  23.418  24.209  1.00  0.00     0.163 HD
BRANCH   3   6
ATOM      6  C   UNL A   1      44.924  24.188  27.450  1.00  0.00     0.175 C 
BRANCH   6   7
ATOM      7  N   UNL A   1      44.128  23.426  28.401  1.00  0.00    -0.344 N 
ATOM      8  C   UNL A   1      44.144  23.560  29.761  1.00  0.00     0.221 C 
ATOM      9  O   UNL A   1      43.921  22.584  30.472  1.00  0.00    -0.275 OA
ATOM     10  H   UNL A   1      43.519  22.748  28.028  1.00  0.00     0.164 HD
BRANCH   8  11
ATOM     11  C   UNL A   1      44.295  24.951  30.355  1.00  0.00     0.116 C 
BRANCH  11  12
ATOM     12  C   UNL A   1      45.433  25.189  31.376  1.00  0.00     0.116 C 
ATOM     13  C   UNL A   1      42.871  26.451  33.848  1.00  0.00     0.126 A 
ATOM     14  C   UNL A   1      41.944  27.506  33.771  1.00  0.00     0.050 A 
ATOM     15  C   UNL A   1      43.954  26.391  32.969  1.00  0.00     0.041 A 
ATOM     16  C   UNL A   1      42.070  28.515  32.806  1.00  0.00    -0.044 A 
ATOM     17  C   UNL A   1      44.125  27.487  32.104  1.00  0.00     0.138 A 
ATOM     18  C   UNL A   1      44.943  25.237  32.850  1.00  0.00     0.038 C 
ATOM     19  C   UNL A   1      41.049  29.608  32.698  1.00  0.00     0.044 C 
ATOM     20  C   UNL A   1      43.197  28.521  31.991  1.00  0.00     0.051 A 
ATOM     21  O   UNL A   1      45.274  27.619  31.305  1.00  0.00    -0.426 OA
ATOM     22  C   UNL A   1      44.475  23.845  33.287  1.00  0.00     0.014 C 
ATOM     23  C   UNL A   1      46.119  26.530  31.245  1.00  0.00     0.315 C 
ATOM     24  O   UNL A   1      47.329  26.670  31.109  1.00  0.00    -0.251 OA
BRANCH  13  25
ATOM     25  O   UNL A   1      42.796  25.532  34.858  1.00  0.00    -0.496 OA
ATOM     26  C   UNL A   1      43.369  25.995  36.077  1.00  0.00     0.278 C 
ENDBRANCH  13  25
ENDBRANCH  11  12
ENDBRANCH   8  11
ENDBRANCH   6   7
BRANCH   6  27
ATOM     27  C   UNL A   1      46.401  24.217  27.817  1.00  0.00     0.072 C 
BRANCH  27  28
ATOM     28  C   UNL A   1      47.457  25.206  27.402  1.00  0.00    -0.020 A 
ATOM     29  C   UNL A   1      48.367  25.631  28.362  1.00  0.00     0.087 A 
ATOM     30  C   UNL A   1      47.932  25.739  26.145  1.00  0.00     0.003 A 
ATOM     31  N   UNL A   1      49.414  26.241  27.748  1.00  0.00    -0.361 N 
ATOM     32  C   UNL A   1      49.161  26.361  26.407  1.00  0.00     0.046 A 
ATOM     33  C   UNL A   1      47.512  25.746  24.795  1.00  0.00     0.010 A 
ATOM     34  H   UNL A   1      50.232  26.550  28.199  1.00  0.00     0.166 HD
ATOM     35  C   UNL A   1      49.967  26.954  25.425  1.00  0.00     0.026 A 
ATOM     36  C   UNL A   1      48.287  26.369  23.802  1.00  0.00     0.001 A 
ATOM     37  C   UNL A   1      49.500  26.962  24.114  1.00  0.00     0.002 A 
ENDBRANCH  27  28
ENDBRANCH   6  27
ENDBRANCH   3   6
ENDBRANCH   1   2
BRANCH   1  38
ATOM     38  C   UNL A   1      42.951  21.186  25.379  1.00  0.00     0.042 C 
BRANCH  38  39
ATOM     39  C   UNL A   1      42.118  21.582  26.589  1.00  0.00     0.118 C 
BRANCH  39  40
ATOM     40  N   UNL A   1      40.704  21.700  26.253  1.00  0.00    -0.352 N 
ATOM     41  C   UNL A   1      39.837  22.740  26.507  1.00  0.00     0.251 C 
ATOM     42  H   UNL A   1      40.316  20.929  25.779  1.00  0.00     0.163 HD
ATOM     43  O   UNL A   1      38.636  22.581  26.397  1.00  0.00    -0.269 OA
BRANCH  41  44
ATOM     44  C   UNL A   1      40.403  24.040  26.930  1.00  0.00     0.039 A 
ATOM     45  C   UNL A   1      40.786  24.224  28.259  1.00  0.00     0.014 A 
ATOM     46  C   UNL A   1      40.496  25.085  26.012  1.00  0.00     0.014 A 
ATOM     47  C   UNL A   1      41.076  25.500  28.714  1.00  0.00     0.010 A 
ATOM     48  C   UNL A   1      40.901  26.348  26.452  1.00  0.00     0.010 A 
ATOM     49  C   UNL A   1      41.145  26.576  27.816  1.00  0.00    -0.014 A 
BRANCH  49  50
ATOM     50  C   UNL A   1      41.501  27.921  28.331  1.00  0.00     0.031 A 
ATOM     51  C   UNL A   1      42.917  28.425  28.272  1.00  0.00     0.074 A 
ATOM     52  C   UNL A   1      40.517  28.705  28.816  1.00  0.00     0.049 A 
ATOM     53  N   UNL A   1      43.394  29.568  28.690  1.00  0.00    -0.248 NA
ATOM     54  C   UNL A   1      43.931  27.538  27.675  1.00  0.00     0.031 C 
ATOM     55  C   UNL A   1      39.109  28.317  28.927  1.00  0.00     0.029 A 
ATOM     56  N   UNL A   1      40.543  29.991  29.289  1.00  0.00    -0.354 N 
ATOM     57  C   UNL A   1      44.762  29.521  28.457  1.00  0.00     0.074 A 
ATOM     58  C   UNL A   1      45.045  28.237  27.854  1.00  0.00     0.031 C 
ATOM     59  C   UNL A   1      38.398  29.356  29.386  1.00  0.00     0.029 A 
ATOM     60  C   UNL A   1      39.308  30.459  29.670  1.00  0.00     0.049 A 
ATOM     61  H   UNL A   1      41.366  30.528  29.349  1.00  0.00     0.167 HD
ATOM     62  C   UNL A   1      45.691  30.471  28.710  1.00  0.00     0.034 A 
ATOM     63  C   UNL A   1      38.943  31.636  30.209  1.00  0.00     0.034 A 
ATOM     64  C   UNL A   1      45.394  31.769  29.252  1.00  0.00     0.049 A 
ATOM     65  C   UNL A   1      39.992  32.674  30.463  1.00  0.00     0.074 A 
ATOM     66  C   UNL A   1      46.266  32.812  29.507  1.00  0.00     0.029 A 
ATOM     67  N   UNL A   1      44.128  32.206  29.615  1.00  0.00    -0.354 N 
ATOM     68  N   UNL A   1      41.274  32.624  30.194  1.00  0.00    -0.248 NA
ATOM     69  C   UNL A   1      39.552  33.932  31.081  1.00  0.00     0.031 C 
ATOM     70  C   UNL A   1      45.530  33.878  30.030  1.00  0.00     0.029 A 
ATOM     71  C   UNL A   1      44.197  33.503  30.086  1.00  0.00     0.049 A 
ATOM     72  H   UNL A   1      43.305  31.671  29.545  1.00  0.00     0.167 HD
ATOM     73  C   UNL A   1      41.793  33.847  30.595  1.00  0.00     0.074 A 
ATOM     74  C   UNL A   1      40.684  34.624  31.111  1.00  0.00     0.031 C 
ATOM     75  C   UNL A   1      43.076  34.278  30.551  1.00  0.00     0.034 A 
BRANCH  62  76
ATOM     76  C   UNL A   1      47.126  30.176  28.366  1.00  0.00     0.023 A 
ATOM     77  C   UNL A   1      47.597  30.456  27.068  1.00  0.00     0.012 A 
ATOM     78  C   UNL A   1      48.029  29.739  29.354  1.00  0.00     0.148 A 
ATOM     79  C   UNL A   1      48.948  30.302  26.758  1.00  0.00     0.002 A 
ATOM     80  C   UNL A   1      49.378  29.616  29.047  1.00  0.00     0.091 A 
ATOM     81  F   UNL A   1      47.553  29.468  30.578  1.00  0.00    -0.205 F 
ATOM     82  C   UNL A   1      49.838  29.893  27.748  1.00  0.00     0.022 A 
BRANCH  80  83
ATOM     83  S   UNL A   1      50.618  29.153  30.261  1.00  0.00     0.127 S 
ATOM     84  O   UNL A   1      51.852  29.569  29.595  1.00  0.00    -0.237 OA
ATOM     85  O   UNL A   1      50.241  29.973  31.412  1.00  0.00    -0.237 OA
ATOM     86  O   UNL A   1      50.477  27.718  30.459  1.00  0.00    -0.744 OA
ENDBRANCH  80  83
ENDBRANCH  62  76
BRANCH  63  87
ATOM     87  C   UNL A   1      37.506  31.884  30.500  1.00  0.00     0.023 A 
ATOM     88  C   UNL A   1      36.995  31.564  31.771  1.00  0.00     0.012 A 
ATOM     89  C   UNL A   1      36.677  32.529  29.562  1.00  0.00     0.148 A 
ATOM     90  C   UNL A   1      35.678  31.885  32.104  1.00  0.00     0.002 A 
ATOM     91  C   UNL A   1      35.383  32.886  29.915  1.00  0.00     0.091 A 
ATOM     92  F   UNL A   1      37.191  32.820  28.358  1.00  0.00    -0.205 F 
ATOM     93  C   UNL A   1      34.878  32.556  31.182  1.00  0.00     0.022 A 
BRANCH  91  94
ATOM     94  S   UNL A   1      34.320  33.859  28.843  1.00  0.00     0.127 S 
ATOM     95  O   UNL A   1      33.933  32.873  27.835  1.00  0.00    -0.237 OA
ATOM     96  O   UNL A   1      33.250  34.253  29.761  1.00  0.00    -0.237 OA
ATOM     97  O   UNL A   1      35.141  34.959  28.360  1.00  0.00    -0.744 OA
ENDBRANCH  91  94
ENDBRANCH  63  87
BRANCH  75  98
ATOM     98  C   UNL A   1      43.367  35.664  31.051  1.00  0.00     0.023 A 
ATOM     99  C   UNL A   1      43.740  35.850  32.394  1.00  0.00     0.012 A 
ATOM    100  C   UNL A   1      43.390  36.753  30.159  1.00  0.00     0.148 A 
ATOM    101  C   UNL A   1      44.129  37.109  32.849  1.00  0.00     0.002 A 
ATOM    102  C   UNL A   1      43.812  37.997  30.610  1.00  0.00     0.091 A 
ATOM    103  F   UNL A   1      43.020  36.545  28.888  1.00  0.00    -0.205 F 
ATOM    104  C   UNL A   1      44.177  38.178  31.955  1.00  0.00     0.022 A 
BRANCH 102 105
ATOM    105  S   UNL A   1      43.980  39.414  29.520  1.00  0.00     0.127 S 
ATOM    106  O   UNL A   1      44.966  40.223  30.235  1.00  0.00    -0.237 OA
ATOM    107  O   UNL A   1      44.473  38.798  28.288  1.00  0.00    -0.237 OA
ATOM    108  O   UNL A   1      42.653  40.005  29.416  1.00  0.00    -0.744 OA
ENDBRANCH 102 105
ENDBRANCH  75  98
ENDBRANCH  49  50
ENDBRANCH  41  44
ENDBRANCH  39  40
ENDBRANCH  38  39
ENDBRANCH   1  38
TORSDOF 19
ENDMDL
MODEL 3
REMARK VINA RESULT:      -8.6      2.610      8.369
REMARK SMILES COc1cc(C)cc2c1[C@@H](C)[C@@H](CC(=O)N[C@@H](Cc1c[nH]c3ccccc13)C(=O)NCCCNC(=O)c1ccc(-c3c4nc(c(-c5cccc(S(=O)(=O)[O-])c5F)c5ccc([nH]5)c(-c5cccc(S(=O)(=O)[O-])c5F)c5nc(c(-c6cccc(S(=O)(=O)[O-])c6F)c6ccc3[nH]6)C=C5)C=C4)cc1)C(=O)O2
REMARK SMILES IDX 31 1 30 2 28 3 29 4 17 6 16 7 14 8 15 9 13 11 12 12 3 13
REMARK SMILES IDX 4 14 9 15 5 16 8 17 10 18 6 19 7 20 102 21 11 22 100 23
REMARK SMILES IDX 101 24 2 25 1 26 18 27 19 28 20 29 27 30 21 31 22 32 26 33
REMARK SMILES IDX 23 35 25 36 24 37 32 38 33 39 34 40 35 41 36 43 37 44 38 45
REMARK SMILES IDX 99 46 39 47 98 48 40 49 41 50 42 51 92 52 43 53 97 54 91 55
REMARK SMILES IDX 93 56 44 57 96 58 90 59 89 60 45 62 77 63 57 64 76 65 58 66
REMARK SMILES IDX 61 67 75 68 94 69 59 70 60 71 74 73 95 74 62 75 46 76 47 77
REMARK SMILES IDX 55 78 48 79 50 80 56 81 49 82 51 83 52 84 53 85 54 86 78 87
REMARK SMILES IDX 79 88 87 89 80 90 82 91 88 92 81 93 83 94 84 95 85 96 86 97
REMARK SMILES IDX 63 98 64 99 72 100 65 101 67 102 73 103 66 104 68 105 69 106
REMARK SMILES IDX 70 107 71 108
REMARK H PARENT 30 5 16 10 21 34 34 42 93 61 61 72
REMARK Flexibility Score: inf
ROOT
ATOM      1  C   UNL A   1      43.696  22.066  26.212  1.00  0.00     0.117 C 
ENDROOT
BRANCH   1   2
ATOM      2  N   UNL A   1      44.371  22.754  27.289  1.00  0.00    -0.354 N 
ATOM      3  C   UNL A   1      45.254  23.779  27.243  1.00  0.00     0.242 C 
ATOM      4  O   UNL A   1      45.916  23.966  28.274  1.00  0.00    -0.273 OA
ATOM      5  H   UNL A   1      44.156  22.428  28.192  1.00  0.00     0.163 HD
BRANCH   3   6
ATOM      6  C   UNL A   1      45.406  24.755  26.054  1.00  0.00     0.175 C 
BRANCH   6   7
ATOM      7  N   UNL A   1      46.375  24.364  25.042  1.00  0.00    -0.344 N 
ATOM      8  C   UNL A   1      47.413  25.124  24.579  1.00  0.00     0.221 C 
ATOM      9  O   UNL A   1      47.796  24.991  23.420  1.00  0.00    -0.275 OA
ATOM     10  H   UNL A   1      46.273  23.466  24.651  1.00  0.00     0.164 HD
BRANCH   8  11
ATOM     11  C   UNL A   1      48.162  26.011  25.561  1.00  0.00     0.116 C 
BRANCH  11  12
ATOM     12  C   UNL A   1      49.708  25.970  25.550  1.00  0.00     0.116 C 
ATOM     13  C   UNL A   1      49.723  27.816  28.845  1.00  0.00     0.126 A 
ATOM     14  C   UNL A   1      49.188  29.063  29.215  1.00  0.00     0.050 A 
ATOM     15  C   UNL A   1      49.911  27.495  27.499  1.00  0.00     0.041 A 
ATOM     16  C   UNL A   1      48.817  30.011  28.251  1.00  0.00    -0.044 A 
ATOM     17  C   UNL A   1      49.655  28.517  26.566  1.00  0.00     0.138 A 
ATOM     18  C   UNL A   1      50.343  26.137  26.958  1.00  0.00     0.038 C 
ATOM     19  C   UNL A   1      48.201  31.317  28.654  1.00  0.00     0.044 C 
ATOM     20  C   UNL A   1      49.093  29.743  26.914  1.00  0.00     0.051 A 
ATOM     21  O   UNL A   1      49.979  28.367  25.207  1.00  0.00    -0.426 OA
ATOM     22  C   UNL A   1      50.046  24.899  27.811  1.00  0.00     0.014 C 
ATOM     23  C   UNL A   1      50.358  27.106  24.792  1.00  0.00     0.315 C 
ATOM     24  O   UNL A   1      51.168  26.951  23.886  1.00  0.00    -0.251 OA
BRANCH  13  25
ATOM     25  O   UNL A   1      50.176  26.944  29.795  1.00  0.00    -0.496 OA
ATOM     26  C   UNL A   1      51.466  27.284  30.294  1.00  0.00     0.278 C 
ENDBRANCH  13  25
ENDBRANCH  11  12
ENDBRANCH   8  11
ENDBRANCH   6   7
BRANCH   6  27
ATOM     27  C   UNL A   1      44.288  25.619  25.489  1.00  0.00     0.072 C 
BRANCH  27  28
ATOM     28  C   UNL A   1      43.979  27.065  25.772  1.00  0.00    -0.020 A 
ATOM     29  C   UNL A   1      42.964  27.672  25.041  1.00  0.00     0.087 A 
ATOM     30  C   UNL A   1      44.351  28.017  26.794  1.00  0.00     0.003 A 
ATOM     31  N   UNL A   1      42.611  28.836  25.645  1.00  0.00    -0.361 N 
ATOM     32  C   UNL A   1      43.462  29.097  26.686  1.00  0.00     0.046 A 
ATOM     33  C   UNL A   1      45.301  28.102  27.838  1.00  0.00     0.010 A 
ATOM     34  H   UNL A   1      41.856  29.407  25.374  1.00  0.00     0.166 HD
ATOM     35  C   UNL A   1      43.465  30.205  27.544  1.00  0.00     0.026 A 
ATOM     36  C   UNL A   1      45.344  29.223  28.684  1.00  0.00     0.001 A 
ATOM     37  C   UNL A   1      44.435  30.259  28.539  1.00  0.00     0.002 A 
ENDBRANCH  27  28
ENDBRANCH   6  27
ENDBRANCH   3   6
ENDBRANCH   1   2
BRANCH   1  38
ATOM     38  C   UNL A   1      42.305  21.641  26.647  1.00  0.00     0.042 C 
BRANCH  38  39
ATOM     39  C   UNL A   1      41.460  22.834  27.065  1.00  0.00     0.118 C 
BRANCH  39  40
ATOM     40  N   UNL A   1      40.238  22.932  26.275  1.00  0.00    -0.352 N 
ATOM     41  C   UNL A   1      39.196  23.826  26.398  1.00  0.00     0.251 C 
ATOM     42  H   UNL A   1      40.145  22.269  25.554  1.00  0.00     0.163 HD
ATOM     43  O   UNL A   1      38.138  23.617  25.836  1.00  0.00    -0.269 OA
BRANCH  41  44
ATOM     44  C   UNL A   1      39.396  25.027  27.238  1.00  0.00     0.039 A 
ATOM     45  C   UNL A   1      40.123  26.107  26.734  1.00  0.00     0.014 A 
ATOM     46  C   UNL A   1      38.905  25.048  28.543  1.00  0.00     0.014 A 
ATOM     47  C   UNL A   1      40.525  27.116  27.592  1.00  0.00     0.010 A 
ATOM     48  C   UNL A   1      39.218  26.127  29.374  1.00  0.00     0.010 A 
ATOM     49  C   UNL A   1      40.072  27.144  28.920  1.00  0.00    -0.014 A 
BRANCH  49  50
ATOM     50  C   UNL A   1      40.488  28.265  29.799  1.00  0.00     0.031 A 
ATOM     51  C   UNL A   1      41.814  28.243  30.508  1.00  0.00     0.074 A 
ATOM     52  C   UNL A   1      39.668  29.329  29.917  1.00  0.00     0.049 A 
ATOM     53  N   UNL A   1      42.319  29.135  31.320  1.00  0.00    -0.248 NA
ATOM     54  C   UNL A   1      42.685  27.076  30.289  1.00  0.00     0.031 C 
ATOM     55  C   UNL A   1      38.355  29.454  29.279  1.00  0.00     0.029 A 
ATOM     56  N   UNL A   1      39.820  30.510  30.595  1.00  0.00    -0.354 N 
ATOM     57  C   UNL A   1      43.536  28.620  31.746  1.00  0.00     0.074 A 
ATOM     58  C   UNL A   1      43.701  27.336  31.101  1.00  0.00     0.031 C 
ATOM     59  C   UNL A   1      37.844  30.662  29.552  1.00  0.00     0.029 A 
ATOM     60  C   UNL A   1      38.757  31.369  30.442  1.00  0.00     0.049 A 
ATOM     61  H   UNL A   1      40.613  30.723  31.137  1.00  0.00     0.167 HD
ATOM     62  C   UNL A   1      44.437  29.177  32.587  1.00  0.00     0.034 A 
ATOM     63  C   UNL A   1      38.526  32.583  30.973  1.00  0.00     0.034 A 
ATOM     64  C   UNL A   1      44.294  30.481  33.177  1.00  0.00     0.049 A 
ATOM     65  C   UNL A   1      39.550  33.181  31.888  1.00  0.00     0.074 A 
ATOM     66  C   UNL A   1      45.175  31.145  34.012  1.00  0.00     0.029 A 
ATOM     67  N   UNL A   1      43.207  31.321  32.988  1.00  0.00    -0.354 N 
ATOM     68  N   UNL A   1      40.714  32.694  32.243  1.00  0.00    -0.248 NA
ATOM     69  C   UNL A   1      39.241  34.494  32.468  1.00  0.00     0.031 C 
ATOM     70  C   UNL A   1      44.618  32.385  34.334  1.00  0.00     0.029 A 
ATOM     71  C   UNL A   1      43.398  32.499  33.686  1.00  0.00     0.049 A 
ATOM     72  H   UNL A   1      42.419  31.110  32.437  1.00  0.00     0.167 HD
ATOM     73  C   UNL A   1      41.284  33.646  33.075  1.00  0.00     0.074 A 
ATOM     74  C   UNL A   1      40.346  34.747  33.160  1.00  0.00     0.031 C 
ATOM     75  C   UNL A   1      42.474  33.602  33.721  1.00  0.00     0.034 A 
BRANCH  62  76
ATOM     76  C   UNL A   1      45.693  28.409  32.900  1.00  0.00     0.023 A 
ATOM     77  C   UNL A   1      46.857  28.654  32.146  1.00  0.00     0.012 A 
ATOM     78  C   UNL A   1      45.750  27.542  34.007  1.00  0.00     0.148 A 
ATOM     79  C   UNL A   1      48.063  28.043  32.489  1.00  0.00     0.002 A 
ATOM     80  C   UNL A   1      46.961  26.959  34.362  1.00  0.00     0.091 A 
ATOM     81  F   UNL A   1      44.625  27.317  34.701  1.00  0.00    -0.205 F 
ATOM     82  C   UNL A   1      48.117  27.206  33.602  1.00  0.00     0.022 A 
BRANCH  80  83
ATOM     83  S   UNL A   1      47.154  25.912  35.809  1.00  0.00     0.127 S 
ATOM     84  O   UNL A   1      46.803  26.835  36.888  1.00  0.00    -0.237 OA
ATOM     85  O   UNL A   1      46.168  24.861  35.561  1.00  0.00    -0.237 OA
ATOM     86  O   UNL A   1      48.540  25.466  35.805  1.00  0.00    -0.744 OA
ENDBRANCH  80  83
ENDBRANCH  62  76
BRANCH  63  87
ATOM     87  C   UNL A   1      37.282  33.309  30.604  1.00  0.00     0.023 A 
ATOM     88  C   UNL A   1      37.035  33.609  29.252  1.00  0.00     0.012 A 
ATOM     89  C   UNL A   1      36.302  33.605  31.570  1.00  0.00     0.148 A 
ATOM     90  C   UNL A   1      35.827  34.193  28.867  1.00  0.00     0.002 A 
ATOM     91  C   UNL A   1      35.085  34.144  31.176  1.00  0.00     0.091 A 
ATOM     92  F   UNL A   1      36.566  33.309  32.851  1.00  0.00    -0.205 F 
ATOM     93  C   UNL A   1      34.849  34.448  29.826  1.00  0.00     0.022 A 
BRANCH  91  94
ATOM     94  S   UNL A   1      33.720  34.393  32.318  1.00  0.00     0.127 S 
ATOM     95  O   UNL A   1      34.284  35.373  33.244  1.00  0.00    -0.237 OA
ATOM     96  O   UNL A   1      32.679  34.911  31.430  1.00  0.00    -0.237 OA
ATOM     97  O   UNL A   1      33.434  33.084  32.887  1.00  0.00    -0.744 OA
ENDBRANCH  91  94
ENDBRANCH  63  87
BRANCH  75  98
ATOM     98  C   UNL A   1      42.857  34.784  34.565  1.00  0.00     0.023 A 
ATOM     99  C   UNL A   1      43.698  35.774  34.028  1.00  0.00     0.012 A 
ATOM    100  C   UNL A   1      42.281  34.966  35.837  1.00  0.00     0.148 A 
ATOM    101  C   UNL A   1      43.969  36.936  34.751  1.00  0.00     0.002 A 
ATOM    102  C   UNL A   1      42.527  36.141  36.537  1.00  0.00     0.091 A 
ATOM    103  F   UNL A   1      41.491  34.000  36.326  1.00  0.00    -0.205 F 
ATOM    104  C   UNL A   1      43.374  37.124  35.998  1.00  0.00     0.022 A 
BRANCH 102 105
ATOM    105  S   UNL A   1      41.749  36.508  38.113  1.00  0.00     0.127 S 
ATOM    106  O   UNL A   1      40.363  36.747  37.711  1.00  0.00    -0.237 OA
ATOM    107  O   UNL A   1      41.963  35.268  38.859  1.00  0.00    -0.237 OA
ATOM    108  O   UNL A   1      42.446  37.669  38.649  1.00  0.00    -0.744 OA
ENDBRANCH 102 105
ENDBRANCH  75  98
ENDBRANCH  49  50
ENDBRANCH  41  44
ENDBRANCH  39  40
ENDBRANCH  38  39
ENDBRANCH   1  38
TORSDOF 19
ENDMDL
