MODEL 1
REMARK VINA RESULT:     -11.9      0.000      0.000
REMARK SMILES CC[C@](O)(C(=O)NCCCNC(=O)c1ccc(-c2c3nc(c(-c4cccc(S(=O)(=O)[O-])c4F)c4ccc([nH]4)c(-c4cccc(S(=O)(=O)[O-])c4F)c4nc(c(-c5cccc(S(=O)(=O)[O-])c5F)c5ccc2[nH]5)C=C4)C=C3)cc1)[C@H](C)c1ccc(F)cc1F
REMARK SMILES IDX 9 1 8 2 7 3 5 4 6 5 3 7 2 8 1 9 4 10 77 12 78 13 79 14 80 15
REMARK SMILES IDX 85 16 81 17 84 18 86 19 82 20 83 21 10 22 11 23 12 24 13 26
REMARK SMILES IDX 14 27 15 28 76 29 16 30 75 31 17 32 18 33 19 34 69 35 20 36
REMARK SMILES IDX 74 37 68 38 70 39 21 40 73 41 67 42 66 43 22 45 54 46 34 47
REMARK SMILES IDX 53 48 35 49 38 50 52 51 71 52 36 53 37 54 51 56 72 57 39 58
REMARK SMILES IDX 23 59 24 60 32 61 25 62 27 63 33 64 26 65 28 66 29 67 30 68
REMARK SMILES IDX 31 69 55 70 56 71 64 72 57 73 59 74 65 75 58 76 60 77 61 78
REMARK SMILES IDX 62 79 63 80 40 81 41 82 49 83 42 84 44 85 50 86 43 87 45 88
REMARK SMILES IDX 46 89 47 90 48 91
REMARK H PARENT 7 6 4 11 11 25 70 44 38 55
REMARK Flexibility Score: inf
ROOT
ATOM      1  C   UNL A   1      33.072  29.351  24.956  1.00  0.00     0.042 C 
ENDROOT
BRANCH   1   2
ATOM      2  C   UNL A   1      33.428  27.887  24.765  1.00  0.00     0.117 C 
BRANCH   2   3
ATOM      3  N   UNL A   1      33.833  27.561  23.409  1.00  0.00    -0.354 N 
ATOM      4  C   UNL A   1      33.156  26.990  22.373  1.00  0.00     0.252 C 
ATOM      5  O   UNL A   1      33.791  26.933  21.315  1.00  0.00    -0.272 OA
ATOM      6  H   UNL A   1      34.767  27.792  23.201  1.00  0.00     0.163 HD
BRANCH   4   7
ATOM      7  C   UNL A   1      31.694  26.422  22.508  1.00  0.00     0.149 C 
BRANCH   7   8
ATOM      8  C   UNL A   1      31.657  24.923  22.880  1.00  0.00     0.043 C 
ATOM      9  C   UNL A   1      32.913  24.167  23.264  1.00  0.00     0.007 C 
ENDBRANCH   7   8
BRANCH   7  10
ATOM     10  O   UNL A   1      31.033  26.576  21.237  1.00  0.00    -0.379 OA
ATOM     11  H   UNL A   1      30.244  26.013  21.213  1.00  0.00     0.212 HD
ENDBRANCH   7  10
BRANCH   7  12
ATOM     12  C   UNL A   1      30.866  27.307  23.563  1.00  0.00     0.060 C 
ATOM     13  C   UNL A   1      30.063  26.515  24.614  1.00  0.00     0.016 C 
BRANCH  12  14
ATOM     14  C   UNL A   1      29.935  28.408  23.019  1.00  0.00    -0.006 A 
ATOM     15  C   UNL A   1      28.541  28.229  23.126  1.00  0.00     0.010 A 
ATOM     16  C   UNL A   1      30.376  29.520  22.283  1.00  0.00     0.129 A 
ATOM     17  C   UNL A   1      27.648  29.150  22.563  1.00  0.00     0.040 A 
ATOM     18  C   UNL A   1      29.497  30.473  21.775  1.00  0.00     0.078 A 
ATOM     19  F   UNL A   1      31.662  29.667  21.950  1.00  0.00    -0.207 F 
ATOM     20  C   UNL A   1      28.137  30.277  21.915  1.00  0.00     0.126 A 
ATOM     21  F   UNL A   1      27.283  31.158  21.379  1.00  0.00    -0.207 F 
ENDBRANCH  12  14
ENDBRANCH   7  12
ENDBRANCH   4   7
ENDBRANCH   2   3
ENDBRANCH   1   2
BRANCH   1  22
ATOM     22  C   UNL A   1      32.419  29.662  26.298  1.00  0.00     0.118 C 
BRANCH  22  23
ATOM     23  N   UNL A   1      32.309  31.089  26.595  1.00  0.00    -0.352 N 
ATOM     24  C   UNL A   1      33.162  31.921  27.291  1.00  0.00     0.251 C 
ATOM     25  H   UNL A   1      31.499  31.526  26.244  1.00  0.00     0.163 HD
ATOM     26  O   UNL A   1      32.840  33.073  27.530  1.00  0.00    -0.269 OA
BRANCH  24  27
ATOM     27  C   UNL A   1      34.456  31.389  27.773  1.00  0.00     0.039 A 
ATOM     28  C   UNL A   1      35.510  32.271  28.018  1.00  0.00     0.014 A 
ATOM     29  C   UNL A   1      34.600  30.028  28.039  1.00  0.00     0.014 A 
ATOM     30  C   UNL A   1      36.672  31.798  28.633  1.00  0.00     0.010 A 
ATOM     31  C   UNL A   1      35.702  29.585  28.755  1.00  0.00     0.010 A 
ATOM     32  C   UNL A   1      36.754  30.462  29.059  1.00  0.00    -0.014 A 
BRANCH  32  33
ATOM     33  C   UNL A   1      37.913  29.949  29.833  1.00  0.00     0.031 A 
ATOM     34  C   UNL A   1      38.160  30.449  31.232  1.00  0.00     0.074 A 
ATOM     35  C   UNL A   1      38.812  29.138  29.237  1.00  0.00     0.049 A 
ATOM     36  N   UNL A   1      39.178  30.226  32.020  1.00  0.00    -0.248 NA
ATOM     37  C   UNL A   1      37.151  31.360  31.804  1.00  0.00     0.031 C 
ATOM     38  C   UNL A   1      38.741  28.664  27.852  1.00  0.00     0.029 A 
ATOM     39  N   UNL A   1      39.979  28.593  29.711  1.00  0.00    -0.354 N 
ATOM     40  C   UNL A   1      38.961  31.008  33.149  1.00  0.00     0.074 A 
ATOM     41  C   UNL A   1      37.737  31.744  32.927  1.00  0.00     0.031 C 
ATOM     42  C   UNL A   1      39.811  27.894  27.594  1.00  0.00     0.029 A 
ATOM     43  C   UNL A   1      40.658  27.841  28.780  1.00  0.00     0.049 A 
ATOM     44  H   UNL A   1      40.302  28.730  30.631  1.00  0.00     0.167 HD
ATOM     45  C   UNL A   1      39.692  31.080  34.286  1.00  0.00     0.034 A 
ATOM     46  C   UNL A   1      41.831  27.184  28.872  1.00  0.00     0.034 A 
ATOM     47  C   UNL A   1      40.862  30.284  34.535  1.00  0.00     0.049 A 
ATOM     48  C   UNL A   1      42.576  27.205  30.180  1.00  0.00     0.074 A 
ATOM     49  C   UNL A   1      41.610  30.194  35.695  1.00  0.00     0.029 A 
ATOM     50  N   UNL A   1      41.446  29.431  33.613  1.00  0.00    -0.354 N 
ATOM     51  N   UNL A   1      42.265  27.822  31.294  1.00  0.00    -0.248 NA
ATOM     52  C   UNL A   1      43.810  26.411  30.257  1.00  0.00     0.031 C 
ATOM     53  C   UNL A   1      42.653  29.290  35.472  1.00  0.00     0.029 A 
ATOM     54  C   UNL A   1      42.545  28.807  34.177  1.00  0.00     0.049 A 
ATOM     55  H   UNL A   1      41.126  29.288  32.693  1.00  0.00     0.167 HD
ATOM     56  C   UNL A   1      43.243  27.461  32.214  1.00  0.00     0.074 A 
ATOM     57  C   UNL A   1      44.144  26.556  31.532  1.00  0.00     0.031 C 
ATOM     58  C   UNL A   1      43.391  27.857  33.503  1.00  0.00     0.034 A 
BRANCH  45  59
ATOM     59  C   UNL A   1      39.202  31.995  35.376  1.00  0.00     0.023 A 
ATOM     60  C   UNL A   1      38.233  31.528  36.289  1.00  0.00     0.012 A 
ATOM     61  C   UNL A   1      39.729  33.291  35.533  1.00  0.00     0.148 A 
ATOM     62  C   UNL A   1      37.768  32.348  37.315  1.00  0.00     0.002 A 
ATOM     63  C   UNL A   1      39.294  34.087  36.587  1.00  0.00     0.091 A 
ATOM     64  F   UNL A   1      40.633  33.727  34.644  1.00  0.00    -0.205 F 
ATOM     65  C   UNL A   1      38.306  33.622  37.470  1.00  0.00     0.022 A 
BRANCH  63  66
ATOM     66  S   UNL A   1      39.981  35.713  36.920  1.00  0.00     0.127 S 
ATOM     67  O   UNL A   1      41.400  35.407  37.081  1.00  0.00    -0.237 OA
ATOM     68  O   UNL A   1      39.650  36.445  35.697  1.00  0.00    -0.237 OA
ATOM     69  O   UNL A   1      39.304  36.196  38.116  1.00  0.00    -0.744 OA
ENDBRANCH  63  66
ENDBRANCH  45  59
BRANCH  46  70
ATOM     70  C   UNL A   1      42.328  26.378  27.721  1.00  0.00     0.023 A 
ATOM     71  C   UNL A   1      43.243  26.959  26.822  1.00  0.00     0.012 A 
ATOM     72  C   UNL A   1      41.931  25.041  27.526  1.00  0.00     0.148 A 
ATOM     73  C   UNL A   1      43.730  26.237  25.731  1.00  0.00     0.002 A 
ATOM     74  C   UNL A   1      42.460  24.310  26.467  1.00  0.00     0.091 A 
ATOM     75  F   UNL A   1      41.051  24.508  28.383  1.00  0.00    -0.205 F 
ATOM     76  C   UNL A   1      43.346  24.910  25.559  1.00  0.00     0.022 A 
BRANCH  74  77
ATOM     77  S   UNL A   1      42.122  22.558  26.248  1.00  0.00     0.127 S 
ATOM     78  O   UNL A   1      42.833  22.269  25.006  1.00  0.00    -0.237 OA
ATOM     79  O   UNL A   1      42.720  21.979  27.450  1.00  0.00    -0.237 OA
ATOM     80  O   UNL A   1      40.670  22.448  26.191  1.00  0.00    -0.744 OA
ENDBRANCH  74  77
ENDBRANCH  46  70
BRANCH  58  81
ATOM     81  C   UNL A   1      44.547  27.288  34.281  1.00  0.00     0.023 A 
ATOM     82  C   UNL A   1      45.740  28.026  34.397  1.00  0.00     0.012 A 
ATOM     83  C   UNL A   1      44.415  26.067  34.970  1.00  0.00     0.148 A 
ATOM     84  C   UNL A   1      46.797  27.543  35.167  1.00  0.00     0.002 A 
ATOM     85  C   UNL A   1      45.456  25.614  35.772  1.00  0.00     0.091 A 
ATOM     86  F   UNL A   1      43.277  25.371  34.829  1.00  0.00    -0.205 F 
ATOM     87  C   UNL A   1      46.650  26.347  35.864  1.00  0.00     0.022 A 
BRANCH  85  88
ATOM     88  S   UNL A   1      45.314  24.134  36.780  1.00  0.00     0.127 S 
ATOM     89  O   UNL A   1      46.713  23.853  37.095  1.00  0.00    -0.237 OA
ATOM     90  O   UNL A   1      44.515  24.603  37.914  1.00  0.00    -0.237 OA
ATOM     91  O   UNL A   1      44.647  23.145  35.945  1.00  0.00    -0.744 OA
ENDBRANCH  85  88
ENDBRANCH  58  81
ENDBRANCH  32  33
ENDBRANCH  24  27
ENDBRANCH  22  23
ENDBRANCH   1  22
TORSDOF 17
ENDMDL
MODEL 2
REMARK VINA RESULT:     -11.8      2.185      3.432
REMARK SMILES CC[C@](O)(C(=O)NCCCNC(=O)c1ccc(-c2c3nc(c(-c4cccc(S(=O)(=O)[O-])c4F)c4ccc([nH]4)c(-c4cccc(S(=O)(=O)[O-])c4F)c4nc(c(-c5cccc(S(=O)(=O)[O-])c5F)c5ccc2[nH]5)C=C4)C=C3)cc1)[C@H](C)c1ccc(F)cc1F
REMARK SMILES IDX 9 1 8 2 7 3 5 4 6 5 3 7 2 8 1 9 4 10 77 12 78 13 79 14 80 15
REMARK SMILES IDX 85 16 81 17 84 18 86 19 82 20 83 21 10 22 11 23 12 24 13 26
REMARK SMILES IDX 14 27 15 28 76 29 16 30 75 31 17 32 18 33 19 34 69 35 20 36
REMARK SMILES IDX 74 37 68 38 70 39 21 40 73 41 67 42 66 43 22 45 54 46 34 47
REMARK SMILES IDX 53 48 35 49 38 50 52 51 71 52 36 53 37 54 51 56 72 57 39 58
REMARK SMILES IDX 23 59 24 60 32 61 25 62 27 63 33 64 26 65 28 66 29 67 30 68
REMARK SMILES IDX 31 69 55 70 56 71 64 72 57 73 59 74 65 75 58 76 60 77 61 78
REMARK SMILES IDX 62 79 63 80 40 81 41 82 49 83 42 84 44 85 50 86 43 87 45 88
REMARK SMILES IDX 46 89 47 90 48 91
REMARK H PARENT 7 6 4 11 11 25 70 44 38 55
REMARK Flexibility Score: inf
ROOT
ATOM      1  C   UNL A   1      31.931  29.073  27.024  1.00  0.00     0.042 C 
ENDROOT
BRANCH   1   2
ATOM      2  C   UNL A   1      32.251  27.607  26.797  1.00  0.00     0.117 C 
BRANCH   2   3
ATOM      3  N   UNL A   1      31.097  26.735  26.918  1.00  0.00    -0.354 N 
ATOM      4  C   UNL A   1      30.445  25.959  26.006  1.00  0.00     0.252 C 
ATOM      5  O   UNL A   1      29.536  25.269  26.476  1.00  0.00    -0.272 OA
ATOM      6  H   UNL A   1      30.713  26.698  27.825  1.00  0.00     0.163 HD
BRANCH   4   7
ATOM      7  C   UNL A   1      30.797  25.954  24.472  1.00  0.00     0.149 C 
BRANCH   7   8
ATOM      8  C   UNL A   1      30.719  27.357  23.827  1.00  0.00     0.043 C 
ATOM      9  C   UNL A   1      29.422  27.902  23.264  1.00  0.00     0.007 C 
ENDBRANCH   7   8
BRANCH   7  10
ATOM     10  O   UNL A   1      29.849  25.105  23.796  1.00  0.00    -0.379 OA
ATOM     11  H   UNL A   1      29.718  24.294  24.312  1.00  0.00     0.212 HD
ENDBRANCH   7  10
BRANCH   7  12
ATOM     12  C   UNL A   1      32.244  25.290  24.251  1.00  0.00     0.060 C 
ATOM     13  C   UNL A   1      33.053  25.834  23.056  1.00  0.00     0.016 C 
BRANCH  12  14
ATOM     14  C   UNL A   1      32.339  23.753  24.200  1.00  0.00    -0.006 A 
ATOM     15  C   UNL A   1      32.193  23.107  22.954  1.00  0.00     0.010 A 
ATOM     16  C   UNL A   1      32.413  22.929  25.335  1.00  0.00     0.129 A 
ATOM     17  C   UNL A   1      32.174  21.710  22.862  1.00  0.00     0.040 A 
ATOM     18  C   UNL A   1      32.459  21.540  25.245  1.00  0.00     0.078 A 
ATOM     19  F   UNL A   1      32.346  23.439  26.568  1.00  0.00    -0.207 F 
ATOM     20  C   UNL A   1      32.333  20.941  24.007  1.00  0.00     0.126 A 
ATOM     21  F   UNL A   1      32.317  19.605  23.918  1.00  0.00    -0.207 F 
ENDBRANCH  12  14
ENDBRANCH   7  12
ENDBRANCH   4   7
ENDBRANCH   2   3
ENDBRANCH   1   2
BRANCH   1  22
ATOM     22  C   UNL A   1      32.910  30.034  26.358  1.00  0.00     0.118 C 
BRANCH  22  23
ATOM     23  N   UNL A   1      32.829  31.409  26.848  1.00  0.00    -0.352 N 
ATOM     24  C   UNL A   1      33.700  32.123  27.644  1.00  0.00     0.251 C 
ATOM     25  H   UNL A   1      32.025  31.903  26.565  1.00  0.00     0.163 HD
ATOM     26  O   UNL A   1      33.401  33.238  28.040  1.00  0.00    -0.269 OA
BRANCH  24  27
ATOM     27  C   UNL A   1      34.986  31.508  28.039  1.00  0.00     0.039 A 
ATOM     28  C   UNL A   1      36.135  32.300  28.095  1.00  0.00     0.014 A 
ATOM     29  C   UNL A   1      35.037  30.165  28.412  1.00  0.00     0.014 A 
ATOM     30  C   UNL A   1      37.311  31.767  28.631  1.00  0.00     0.010 A 
ATOM     31  C   UNL A   1      36.167  29.676  29.050  1.00  0.00     0.010 A 
ATOM     32  C   UNL A   1      37.319  30.468  29.166  1.00  0.00    -0.014 A 
BRANCH  32  33
ATOM     33  C   UNL A   1      38.506  29.908  29.863  1.00  0.00     0.031 A 
ATOM     34  C   UNL A   1      38.893  30.432  31.221  1.00  0.00     0.074 A 
ATOM     35  C   UNL A   1      39.305  29.028  29.225  1.00  0.00     0.049 A 
ATOM     36  N   UNL A   1      39.957  30.171  31.933  1.00  0.00    -0.248 NA
ATOM     37  C   UNL A   1      37.987  31.417  31.840  1.00  0.00     0.031 C 
ATOM     38  C   UNL A   1      39.096  28.521  27.866  1.00  0.00     0.029 A 
ATOM     39  N   UNL A   1      40.474  28.429  29.623  1.00  0.00    -0.354 N 
ATOM     40  C   UNL A   1      39.877  30.996  33.050  1.00  0.00     0.074 A 
ATOM     41  C   UNL A   1      38.683  31.797  32.900  1.00  0.00     0.031 C 
ATOM     42  C   UNL A   1      40.095  27.681  27.549  1.00  0.00     0.029 A 
ATOM     43  C   UNL A   1      41.031  27.611  28.667  1.00  0.00     0.049 A 
ATOM     44  H   UNL A   1      40.877  28.572  30.509  1.00  0.00     0.167 HD
ATOM     45  C   UNL A   1      40.700  31.055  34.122  1.00  0.00     0.034 A 
ATOM     46  C   UNL A   1      42.168  26.888  28.687  1.00  0.00     0.034 A 
ATOM     47  C   UNL A   1      41.838  30.198  34.305  1.00  0.00     0.049 A 
ATOM     48  C   UNL A   1      43.016  26.901  29.931  1.00  0.00     0.074 A 
ATOM     49  C   UNL A   1      42.671  30.097  35.404  1.00  0.00     0.029 A 
ATOM     50  N   UNL A   1      42.296  29.286  33.368  1.00  0.00    -0.354 N 
ATOM     51  N   UNL A   1      42.832  27.567  31.046  1.00  0.00    -0.248 NA
ATOM     52  C   UNL A   1      44.205  26.037  29.937  1.00  0.00     0.031 C 
ATOM     53  C   UNL A   1      43.639  29.126  35.129  1.00  0.00     0.029 A 
ATOM     54  C   UNL A   1      43.399  28.613  33.863  1.00  0.00     0.049 A 
ATOM     55  H   UNL A   1      41.896  29.137  32.481  1.00  0.00     0.167 HD
ATOM     56  C   UNL A   1      43.858  27.174  31.897  1.00  0.00     0.074 A 
ATOM     57  C   UNL A   1      44.648  26.198  31.176  1.00  0.00     0.031 C 
ATOM     58  C   UNL A   1      44.132  27.596  33.157  1.00  0.00     0.034 A 
BRANCH  45  59
ATOM     59  C   UNL A   1      40.352  32.029  35.217  1.00  0.00     0.023 A 
ATOM     60  C   UNL A   1      41.040  33.258  35.295  1.00  0.00     0.012 A 
ATOM     61  C   UNL A   1      39.318  31.756  36.134  1.00  0.00     0.148 A 
ATOM     62  C   UNL A   1      40.731  34.183  36.290  1.00  0.00     0.002 A 
ATOM     63  C   UNL A   1      38.986  32.704  37.096  1.00  0.00     0.091 A 
ATOM     64  F   UNL A   1      38.690  30.574  36.060  1.00  0.00    -0.205 F 
ATOM     65  C   UNL A   1      39.699  33.911  37.183  1.00  0.00     0.022 A 
BRANCH  63  66
ATOM     66  S   UNL A   1      37.620  32.484  38.242  1.00  0.00     0.127 S 
ATOM     67  O   UNL A   1      37.999  33.384  39.329  1.00  0.00    -0.237 OA
ATOM     68  O   UNL A   1      36.476  32.935  37.448  1.00  0.00    -0.237 OA
ATOM     69  O   UNL A   1      37.604  31.067  38.577  1.00  0.00    -0.744 OA
ENDBRANCH  63  66
ENDBRANCH  45  59
BRANCH  46  70
ATOM     70  C   UNL A   1      42.524  26.021  27.527  1.00  0.00     0.023 A 
ATOM     71  C   UNL A   1      43.337  26.546  26.504  1.00  0.00     0.012 A 
ATOM     72  C   UNL A   1      42.094  24.683  27.443  1.00  0.00     0.148 A 
ATOM     73  C   UNL A   1      43.689  25.766  25.402  1.00  0.00     0.002 A 
ATOM     74  C   UNL A   1      42.493  23.895  26.368  1.00  0.00     0.091 A 
ATOM     75  F   UNL A   1      41.312  24.204  28.419  1.00  0.00    -0.205 F 
ATOM     76  C   UNL A   1      43.276  24.439  25.338  1.00  0.00     0.022 A 
BRANCH  74  77
ATOM     77  S   UNL A   1      42.116  22.140  26.273  1.00  0.00     0.127 S 
ATOM     78  O   UNL A   1      42.494  21.680  27.606  1.00  0.00    -0.237 OA
ATOM     79  O   UNL A   1      40.677  22.151  26.009  1.00  0.00    -0.237 OA
ATOM     80  O   UNL A   1      42.921  21.630  25.170  1.00  0.00    -0.744 OA
ENDBRANCH  74  77
ENDBRANCH  46  70
BRANCH  58  81
ATOM     81  C   UNL A   1      45.312  26.981  33.859  1.00  0.00     0.023 A 
ATOM     82  C   UNL A   1      46.571  27.609  33.789  1.00  0.00     0.012 A 
ATOM     83  C   UNL A   1      45.151  25.835  34.661  1.00  0.00     0.148 A 
ATOM     84  C   UNL A   1      47.659  27.088  34.487  1.00  0.00     0.002 A 
ATOM     85  C   UNL A   1      46.230  25.348  35.390  1.00  0.00     0.091 A 
ATOM     86  F   UNL A   1      43.949  25.242  34.697  1.00  0.00    -0.205 F 
ATOM     87  C   UNL A   1      47.487  25.968  35.296  1.00  0.00     0.022 A 
BRANCH  85  88
ATOM     88  S   UNL A   1      46.071  23.970  36.531  1.00  0.00     0.127 S 
ATOM     89  O   UNL A   1      45.738  22.872  35.626  1.00  0.00    -0.237 OA
ATOM     90  O   UNL A   1      47.411  23.894  37.117  1.00  0.00    -0.237 OA
ATOM     91  O   UNL A   1      45.026  24.348  37.471  1.00  0.00    -0.744 OA
ENDBRANCH  85  88
ENDBRANCH  58  81
ENDBRANCH  32  33
ENDBRANCH  24  27
ENDBRANCH  22  23
ENDBRANCH   1  22
TORSDOF 17
ENDMDL
MODEL 3
REMARK VINA RESULT:     -11.8      5.245     10.166
REMARK SMILES CC[C@](O)(C(=O)NCCCNC(=O)c1ccc(-c2c3nc(c(-c4cccc(S(=O)(=O)[O-])c4F)c4ccc([nH]4)c(-c4cccc(S(=O)(=O)[O-])c4F)c4nc(c(-c5cccc(S(=O)(=O)[O-])c5F)c5ccc2[nH]5)C=C4)C=C3)cc1)[C@H](C)c1ccc(F)cc1F
REMARK SMILES IDX 9 1 8 2 7 3 5 4 6 5 3 7 2 8 1 9 4 10 77 12 78 13 79 14 80 15
REMARK SMILES IDX 85 16 81 17 84 18 86 19 82 20 83 21 10 22 11 23 12 24 13 26
REMARK SMILES IDX 14 27 15 28 76 29 16 30 75 31 17 32 18 33 19 34 69 35 20 36
REMARK SMILES IDX 74 37 68 38 70 39 21 40 73 41 67 42 66 43 22 45 54 46 34 47
REMARK SMILES IDX 53 48 35 49 38 50 52 51 71 52 36 53 37 54 51 56 72 57 39 58
REMARK SMILES IDX 23 59 24 60 32 61 25 62 27 63 33 64 26 65 28 66 29 67 30 68
REMARK SMILES IDX 31 69 55 70 56 71 64 72 57 73 59 74 65 75 58 76 60 77 61 78
REMARK SMILES IDX 62 79 63 80 40 81 41 82 49 83 42 84 44 85 50 86 43 87 45 88
REMARK SMILES IDX 46 89 47 90 48 91
REMARK H PARENT 7 6 4 11 11 25 70 44 38 55
REMARK Flexibility Score: inf
ROOT
ATOM      1  C   UNL A   1      35.871  21.725  25.360  1.00  0.00     0.042 C 
ENDROOT
BRANCH   1   2
ATOM      2  C   UNL A   1      35.149  23.046  25.558  1.00  0.00     0.117 C 
BRANCH   2   3
ATOM      3  N   UNL A   1      34.098  22.989  26.558  1.00  0.00    -0.354 N 
ATOM      4  C   UNL A   1      32.876  23.589  26.625  1.00  0.00     0.252 C 
ATOM      5  O   UNL A   1      32.190  23.249  27.594  1.00  0.00    -0.272 OA
ATOM      6  H   UNL A   1      34.305  22.411  27.328  1.00  0.00     0.163 HD
BRANCH   4   7
ATOM      7  C   UNL A   1      32.380  24.652  25.575  1.00  0.00     0.149 C 
BRANCH   7   8
ATOM      8  C   UNL A   1      31.836  24.014  24.276  1.00  0.00     0.043 C 
ATOM      9  C   UNL A   1      32.169  24.581  22.912  1.00  0.00     0.007 C 
ENDBRANCH   7   8
BRANCH   7  10
ATOM     10  O   UNL A   1      33.498  25.489  25.220  1.00  0.00    -0.379 OA
ATOM     11  H   UNL A   1      33.599  26.190  25.883  1.00  0.00     0.212 HD
ENDBRANCH   7  10
BRANCH   7  12
ATOM     12  C   UNL A   1      31.287  25.614  26.255  1.00  0.00     0.060 C 
ATOM     13  C   UNL A   1      29.819  25.328  25.879  1.00  0.00     0.016 C 
BRANCH  12  14
ATOM     14  C   UNL A   1      31.492  27.138  26.149  1.00  0.00    -0.006 A 
ATOM     15  C   UNL A   1      31.810  27.860  27.318  1.00  0.00     0.010 A 
ATOM     16  C   UNL A   1      31.236  27.889  24.991  1.00  0.00     0.129 A 
ATOM     17  C   UNL A   1      31.911  29.256  27.299  1.00  0.00     0.040 A 
ATOM     18  C   UNL A   1      31.397  29.271  24.949  1.00  0.00     0.078 A 
ATOM     19  F   UNL A   1      30.730  27.320  23.892  1.00  0.00    -0.207 F 
ATOM     20  C   UNL A   1      31.728  29.946  26.108  1.00  0.00     0.126 A 
ATOM     21  F   UNL A   1      31.828  31.281  26.090  1.00  0.00    -0.207 F 
ENDBRANCH  12  14
ENDBRANCH   7  12
ENDBRANCH   4   7
ENDBRANCH   2   3
ENDBRANCH   1   2
BRANCH   1  22
ATOM     22  C   UNL A   1      37.297  21.867  24.839  1.00  0.00     0.118 C 
BRANCH  22  23
ATOM     23  N   UNL A   1      38.218  20.842  25.325  1.00  0.00    -0.352 N 
ATOM     24  C   UNL A   1      39.353  20.961  26.101  1.00  0.00     0.251 C 
ATOM     25  H   UNL A   1      37.994  19.921  25.056  1.00  0.00     0.163 HD
ATOM     26  O   UNL A   1      40.059  19.989  26.313  1.00  0.00    -0.269 OA
BRANCH  24  27
ATOM     27  C   UNL A   1      39.721  22.288  26.643  1.00  0.00     0.039 A 
ATOM     28  C   UNL A   1      40.728  22.377  27.606  1.00  0.00     0.014 A 
ATOM     29  C   UNL A   1      39.111  23.440  26.151  1.00  0.00     0.014 A 
ATOM     30  C   UNL A   1      41.196  23.636  27.994  1.00  0.00     0.010 A 
ATOM     31  C   UNL A   1      39.656  24.681  26.447  1.00  0.00     0.010 A 
ATOM     32  C   UNL A   1      40.704  24.796  27.374  1.00  0.00    -0.014 A 
BRANCH  32  33
ATOM     33  C   UNL A   1      41.264  26.142  27.658  1.00  0.00     0.031 A 
ATOM     34  C   UNL A   1      42.669  26.474  27.231  1.00  0.00     0.074 A 
ATOM     35  C   UNL A   1      40.561  27.016  28.409  1.00  0.00     0.049 A 
ATOM     36  N   UNL A   1      43.383  27.536  27.495  1.00  0.00    -0.248 NA
ATOM     37  C   UNL A   1      43.386  25.455  26.442  1.00  0.00     0.031 C 
ATOM     38  C   UNL A   1      39.230  26.774  28.972  1.00  0.00     0.029 A 
ATOM     39  N   UNL A   1      40.884  28.273  28.857  1.00  0.00    -0.354 N 
ATOM     40  C   UNL A   1      44.641  27.291  26.957  1.00  0.00     0.074 A 
ATOM     41  C   UNL A   1      44.608  25.962  26.388  1.00  0.00     0.031 C 
ATOM     42  C   UNL A   1      38.847  27.851  29.679  1.00  0.00     0.029 A 
ATOM     43  C   UNL A   1      39.914  28.846  29.646  1.00  0.00     0.049 A 
ATOM     44  H   UNL A   1      41.731  28.722  28.635  1.00  0.00     0.167 HD
ATOM     45  C   UNL A   1      45.717  28.110  26.904  1.00  0.00     0.034 A 
ATOM     46  C   UNL A   1      39.887  30.038  30.274  1.00  0.00     0.034 A 
ATOM     47  C   UNL A   1      45.718  29.460  27.395  1.00  0.00     0.049 A 
ATOM     48  C   UNL A   1      41.060  30.968  30.120  1.00  0.00     0.074 A 
ATOM     49  C   UNL A   1      46.715  30.413  27.290  1.00  0.00     0.029 A 
ATOM     50  N   UNL A   1      44.665  30.052  28.075  1.00  0.00    -0.354 N 
ATOM     51  N   UNL A   1      42.180  30.779  29.464  1.00  0.00    -0.248 NA
ATOM     52  C   UNL A   1      40.954  32.288  30.758  1.00  0.00     0.031 C 
ATOM     53  C   UNL A   1      46.267  31.582  27.914  1.00  0.00     0.029 A 
ATOM     54  C   UNL A   1      44.986  31.360  28.394  1.00  0.00     0.049 A 
ATOM     55  H   UNL A   1      43.815  29.609  28.298  1.00  0.00     0.167 HD
ATOM     56  C   UNL A   1      42.893  31.966  29.579  1.00  0.00     0.074 A 
ATOM     57  C   UNL A   1      42.070  32.875  30.349  1.00  0.00     0.031 C 
ATOM     58  C   UNL A   1      44.126  32.272  29.103  1.00  0.00     0.034 A 
BRANCH  45  59
ATOM     59  C   UNL A   1      46.956  27.594  26.223  1.00  0.00     0.023 A 
ATOM     60  C   UNL A   1      47.863  26.794  26.949  1.00  0.00     0.012 A 
ATOM     61  C   UNL A   1      47.201  27.853  24.860  1.00  0.00     0.148 A 
ATOM     62  C   UNL A   1      49.012  26.292  26.342  1.00  0.00     0.002 A 
ATOM     63  C   UNL A   1      48.327  27.311  24.250  1.00  0.00     0.091 A 
ATOM     64  F   UNL A   1      46.340  28.633  24.191  1.00  0.00    -0.205 F 
ATOM     65  C   UNL A   1      49.238  26.542  24.991  1.00  0.00     0.022 A 
BRANCH  63  66
ATOM     66  S   UNL A   1      48.667  27.507  22.497  1.00  0.00     0.127 S 
ATOM     67  O   UNL A   1      49.964  28.181  22.521  1.00  0.00    -0.237 OA
ATOM     68  O   UNL A   1      48.710  26.120  22.034  1.00  0.00    -0.237 OA
ATOM     69  O   UNL A   1      47.564  28.291  21.961  1.00  0.00    -0.744 OA
ENDBRANCH  63  66
ENDBRANCH  45  59
BRANCH  46  70
ATOM     70  C   UNL A   1      38.672  30.457  31.030  1.00  0.00     0.023 A 
ATOM     71  C   UNL A   1      38.594  30.179  32.409  1.00  0.00     0.012 A 
ATOM     72  C   UNL A   1      37.615  31.150  30.410  1.00  0.00     0.148 A 
ATOM     73  C   UNL A   1      37.472  30.555  33.150  1.00  0.00     0.002 A 
ATOM     74  C   UNL A   1      36.524  31.568  31.165  1.00  0.00     0.091 A 
ATOM     75  F   UNL A   1      37.701  31.396  29.096  1.00  0.00    -0.205 F 
ATOM     76  C   UNL A   1      36.442  31.257  32.531  1.00  0.00     0.022 A 
BRANCH  74  77
ATOM     77  S   UNL A   1      35.216  32.591  30.477  1.00  0.00     0.127 S 
ATOM     78  O   UNL A   1      34.262  32.641  31.581  1.00  0.00    -0.237 OA
ATOM     79  O   UNL A   1      35.918  33.846  30.211  1.00  0.00    -0.237 OA
ATOM     80  O   UNL A   1      34.768  31.893  29.279  1.00  0.00    -0.744 OA
ENDBRANCH  74  77
ENDBRANCH  46  70
BRANCH  58  81
ATOM     81  C   UNL A   1      44.653  33.656  29.364  1.00  0.00     0.023 A 
ATOM     82  C   UNL A   1      45.378  33.917  30.543  1.00  0.00     0.012 A 
ATOM     83  C   UNL A   1      44.508  34.672  28.399  1.00  0.00     0.148 A 
ATOM     84  C   UNL A   1      45.929  35.177  30.770  1.00  0.00     0.002 A 
ATOM     85  C   UNL A   1      45.099  35.912  28.612  1.00  0.00     0.091 A 
ATOM     86  F   UNL A   1      43.797  34.409  27.293  1.00  0.00    -0.205 F 
ATOM     87  C   UNL A   1      45.801  36.168  29.801  1.00  0.00     0.022 A 
BRANCH  85  88
ATOM     88  S   UNL A   1      45.066  37.214  27.374  1.00  0.00     0.127 S 
ATOM     89  O   UNL A   1      45.634  38.340  28.112  1.00  0.00    -0.237 OA
ATOM     90  O   UNL A   1      45.933  36.670  26.327  1.00  0.00    -0.237 OA
ATOM     91  O   UNL A   1      43.671  37.358  26.983  1.00  0.00    -0.744 OA
ENDBRANCH  85  88
ENDBRANCH  58  81
ENDBRANCH  32  33
ENDBRANCH  24  27
ENDBRANCH  22  23
ENDBRANCH   1  22
TORSDOF 17
ENDMDL
