MODEL 1
REMARK VINA RESULT:     -11.8      0.000      0.000
REMARK SMILES NC(=O)[C@@H]1CCCCN1c1cncc(C(=O)NCCCNC(=O)c2ccc(-c3c4nc(c(-c5cccc(S(=O)(=O)[O-])c5F)c5ccc([nH]5)c(-c5cccc(S(=O)(=O)[O-])c5F)c5nc(c(-c6cccc(S(=O)(=O)[O-])c6F)c6ccc3[nH]6)C=C5)C=C4)cc2)n1
REMARK SMILES IDX 19 1 18 2 17 3 15 4 16 5 14 7 10 8 11 9 87 10 12 11 13 12
REMARK SMILES IDX 9 13 4 14 5 15 6 16 8 17 7 18 2 19 1 20 3 23 20 24 21 25
REMARK SMILES IDX 22 26 23 28 24 29 25 30 86 31 26 32 85 33 27 34 28 35 29 36
REMARK SMILES IDX 79 37 30 38 84 39 78 40 80 41 31 42 83 43 77 44 76 45 32 47
REMARK SMILES IDX 64 48 44 49 63 50 45 51 48 52 62 53 81 54 46 55 47 56 61 58
REMARK SMILES IDX 82 59 49 60 33 61 34 62 42 63 35 64 37 65 43 66 36 67 38 68
REMARK SMILES IDX 39 69 40 70 41 71 65 72 66 73 74 74 67 75 69 76 75 77 68 78
REMARK SMILES IDX 70 79 71 80 72 81 73 82 50 83 51 84 59 85 52 86 54 87 60 88
REMARK SMILES IDX 53 89 55 90 56 91 57 92 58 93
REMARK H PARENT 17 6 1 21 1 22 21 27 80 46 48 57
REMARK Flexibility Score: inf
ROOT
ATOM      1  C   UNL A   1      32.695  28.109  26.911  1.00  0.00     0.042 C 
ENDROOT
BRANCH   1   2
ATOM      2  C   UNL A   1      32.261  26.956  26.021  1.00  0.00     0.118 C 
BRANCH   2   3
ATOM      3  N   UNL A   1      31.489  25.955  26.731  1.00  0.00    -0.351 N 
ATOM      4  C   UNL A   1      31.240  24.632  26.440  1.00  0.00     0.271 C 
ATOM      5  O   UNL A   1      30.560  23.997  27.252  1.00  0.00    -0.267 OA
ATOM      6  H   UNL A   1      31.072  26.276  27.562  1.00  0.00     0.163 HD
BRANCH   4   7
ATOM      7  C   UNL A   1      31.741  23.946  25.212  1.00  0.00     0.148 A 
ATOM      8  C   UNL A   1      33.386  22.806  24.058  1.00  0.00     0.148 A 
ATOM      9  C   UNL A   1      32.539  22.812  22.942  1.00  0.00     0.157 A 
ATOM     10  N   UNL A   1      32.974  23.374  25.207  1.00  0.00    -0.222 NA
ATOM     11  N   UNL A   1      31.297  23.358  22.924  1.00  0.00    -0.258 NA
ATOM     12  C   UNL A   1      30.921  23.928  24.092  1.00  0.00     0.145 A 
BRANCH   8  13
ATOM     13  N   UNL A   1      34.646  22.252  23.992  1.00  0.00    -0.343 N 
ATOM     14  C   UNL A   1      35.039  21.066  24.779  1.00  0.00     0.172 C 
ATOM     15  C   UNL A   1      36.056  21.456  25.859  1.00  0.00     0.035 C 
ATOM     16  C   UNL A   1      37.235  22.211  25.245  1.00  0.00     0.004 C 
ATOM     17  C   UNL A   1      35.716  23.061  23.413  1.00  0.00     0.119 C 
ATOM     18  C   UNL A   1      36.738  23.440  24.488  1.00  0.00     0.022 C 
BRANCH  14  19
ATOM     19  C   UNL A   1      33.856  20.195  25.272  1.00  0.00     0.240 C 
ATOM     20  N   UNL A   1      33.457  20.312  26.572  1.00  0.00    -0.368 N 
ATOM     21  H   UNL A   1      32.708  19.770  26.908  1.00  0.00     0.159 HD
ATOM     22  H   UNL A   1      33.919  20.941  27.173  1.00  0.00     0.159 HD
ATOM     23  O   UNL A   1      33.265  19.398  24.539  1.00  0.00    -0.273 OA
ENDBRANCH  14  19
ENDBRANCH   8  13
ENDBRANCH   4   7
ENDBRANCH   2   3
ENDBRANCH   1   2
BRANCH   1  24
ATOM     24  C   UNL A   1      33.774  28.978  26.280  1.00  0.00     0.118 C 
BRANCH  24  25
ATOM     25  N   UNL A   1      33.762  30.343  26.802  1.00  0.00    -0.352 N 
ATOM     26  C   UNL A   1      34.578  30.953  27.720  1.00  0.00     0.251 C 
ATOM     27  H   UNL A   1      33.053  30.920  26.433  1.00  0.00     0.163 HD
ATOM     28  O   UNL A   1      34.245  32.041  28.193  1.00  0.00    -0.269 OA
BRANCH  26  29
ATOM     29  C   UNL A   1      35.837  30.311  28.148  1.00  0.00     0.039 A 
ATOM     30  C   UNL A   1      36.970  30.423  27.339  1.00  0.00     0.014 A 
ATOM     31  C   UNL A   1      35.898  29.583  29.338  1.00  0.00     0.014 A 
ATOM     32  C   UNL A   1      38.180  29.866  27.761  1.00  0.00     0.010 A 
ATOM     33  C   UNL A   1      37.123  29.119  29.804  1.00  0.00     0.010 A 
ATOM     34  C   UNL A   1      38.274  29.244  29.017  1.00  0.00    -0.014 A 
BRANCH  34  35
ATOM     35  C   UNL A   1      39.567  28.723  29.531  1.00  0.00     0.031 A 
ATOM     36  C   UNL A   1      40.283  29.440  30.644  1.00  0.00     0.074 A 
ATOM     37  C   UNL A   1      40.140  27.661  28.930  1.00  0.00     0.049 A 
ATOM     38  N   UNL A   1      41.449  29.179  31.175  1.00  0.00    -0.248 NA
ATOM     39  C   UNL A   1      39.619  30.623  31.216  1.00  0.00     0.031 C 
ATOM     40  C   UNL A   1      39.585  26.933  27.787  1.00  0.00     0.029 A 
ATOM     41  N   UNL A   1      41.332  27.028  29.178  1.00  0.00    -0.354 N 
ATOM     42  C   UNL A   1      41.674  30.181  32.110  1.00  0.00     0.074 A 
ATOM     43  C   UNL A   1      40.542  31.078  32.049  1.00  0.00     0.031 C 
ATOM     44  C   UNL A   1      40.428  25.949  27.440  1.00  0.00     0.029 A 
ATOM     45  C   UNL A   1      41.601  25.998  28.306  1.00  0.00     0.049 A 
ATOM     46  H   UNL A   1      41.937  27.286  29.911  1.00  0.00     0.167 HD
ATOM     47  C   UNL A   1      42.714  30.327  32.966  1.00  0.00     0.034 A 
ATOM     48  C   UNL A   1      42.676  25.193  28.206  1.00  0.00     0.034 A 
ATOM     49  C   UNL A   1      43.818  29.411  33.049  1.00  0.00     0.049 A 
ATOM     50  C   UNL A   1      43.803  25.357  29.190  1.00  0.00     0.074 A 
ATOM     51  C   UNL A   1      44.876  29.419  33.942  1.00  0.00     0.029 A 
ATOM     52  N   UNL A   1      44.016  28.330  32.204  1.00  0.00    -0.354 N 
ATOM     53  N   UNL A   1      43.922  26.216  30.172  1.00  0.00    -0.248 NA
ATOM     54  C   UNL A   1      44.927  24.416  29.075  1.00  0.00     0.031 C 
ATOM     55  C   UNL A   1      45.732  28.363  33.614  1.00  0.00     0.029 A 
ATOM     56  C   UNL A   1      45.185  27.672  32.543  1.00  0.00     0.049 A 
ATOM     57  H   UNL A   1      43.414  28.070  31.470  1.00  0.00     0.167 HD
ATOM     58  C   UNL A   1      45.113  25.897  30.815  1.00  0.00     0.074 A 
ATOM     59  C   UNL A   1      45.666  24.752  30.123  1.00  0.00     0.031 C 
ATOM     60  C   UNL A   1      45.700  26.504  31.876  1.00  0.00     0.034 A 
BRANCH  47  61
ATOM     61  C   UNL A   1      42.686  31.501  33.911  1.00  0.00     0.023 A 
ATOM     62  C   UNL A   1      43.220  32.742  33.502  1.00  0.00     0.012 A 
ATOM     63  C   UNL A   1      42.081  31.395  35.179  1.00  0.00     0.148 A 
ATOM     64  C   UNL A   1      43.187  33.845  34.353  1.00  0.00     0.002 A 
ATOM     65  C   UNL A   1      42.008  32.512  36.001  1.00  0.00     0.091 A 
ATOM     66  F   UNL A   1      41.597  30.205  35.559  1.00  0.00    -0.205 F 
ATOM     67  C   UNL A   1      42.573  33.733  35.597  1.00  0.00     0.022 A 
BRANCH  65  68
ATOM     68  S   UNL A   1      41.164  32.497  37.587  1.00  0.00     0.127 S 
ATOM     69  O   UNL A   1      39.854  31.962  37.218  1.00  0.00    -0.237 OA
ATOM     70  O   UNL A   1      41.997  31.586  38.370  1.00  0.00    -0.237 OA
ATOM     71  O   UNL A   1      41.163  33.877  38.056  1.00  0.00    -0.744 OA
ENDBRANCH  65  68
ENDBRANCH  47  61
BRANCH  48  72
ATOM     72  C   UNL A   1      42.713  24.122  27.170  1.00  0.00     0.023 A 
ATOM     73  C   UNL A   1      43.425  24.338  25.973  1.00  0.00     0.012 A 
ATOM     74  C   UNL A   1      42.068  22.886  27.371  1.00  0.00     0.148 A 
ATOM     75  C   UNL A   1      43.463  23.357  24.982  1.00  0.00     0.002 A 
ATOM     76  C   UNL A   1      42.159  21.892  26.405  1.00  0.00     0.091 A 
ATOM     77  F   UNL A   1      41.390  22.703  28.513  1.00  0.00    -0.205 F 
ATOM     78  C   UNL A   1      42.839  22.132  25.200  1.00  0.00     0.022 A 
BRANCH  76  79
ATOM     79  S   UNL A   1      41.506  20.239  26.658  1.00  0.00     0.127 S 
ATOM     80  O   UNL A   1      42.208  19.819  27.867  1.00  0.00    -0.237 OA
ATOM     81  O   UNL A   1      40.077  20.503  26.834  1.00  0.00    -0.237 OA
ATOM     82  O   UNL A   1      41.832  19.496  25.447  1.00  0.00    -0.744 OA
ENDBRANCH  76  79
ENDBRANCH  48  72
BRANCH  60  83
ATOM     83  C   UNL A   1      46.989  25.919  32.391  1.00  0.00     0.023 A 
ATOM     84  C   UNL A   1      48.224  26.381  31.894  1.00  0.00     0.012 A 
ATOM     85  C   UNL A   1      46.975  24.960  33.423  1.00  0.00     0.148 A 
ATOM     86  C   UNL A   1      49.423  25.873  32.390  1.00  0.00     0.002 A 
ATOM     87  C   UNL A   1      48.174  24.498  33.951  1.00  0.00     0.091 A 
ATOM     88  F   UNL A   1      45.791  24.520  33.871  1.00  0.00    -0.205 F 
ATOM     89  C   UNL A   1      49.398  24.942  33.427  1.00  0.00     0.022 A 
BRANCH  87  90
ATOM     90  S   UNL A   1      48.242  23.375  35.351  1.00  0.00     0.127 S 
ATOM     91  O   UNL A   1      49.651  23.459  35.733  1.00  0.00    -0.237 OA
ATOM     92  O   UNL A   1      47.315  24.002  36.295  1.00  0.00    -0.237 OA
ATOM     93  O   UNL A   1      47.807  22.079  34.850  1.00  0.00    -0.744 OA
ENDBRANCH  87  90
ENDBRANCH  60  83
ENDBRANCH  34  35
ENDBRANCH  26  29
ENDBRANCH  24  25
ENDBRANCH   1  24
TORSDOF 15
ENDMDL
MODEL 2
REMARK VINA RESULT:     -11.7      1.383      1.703
REMARK SMILES NC(=O)[C@@H]1CCCCN1c1cncc(C(=O)NCCCNC(=O)c2ccc(-c3c4nc(c(-c5cccc(S(=O)(=O)[O-])c5F)c5ccc([nH]5)c(-c5cccc(S(=O)(=O)[O-])c5F)c5nc(c(-c6cccc(S(=O)(=O)[O-])c6F)c6ccc3[nH]6)C=C5)C=C4)cc2)n1
REMARK SMILES IDX 19 1 18 2 17 3 15 4 16 5 14 7 10 8 11 9 87 10 12 11 13 12
REMARK SMILES IDX 9 13 4 14 5 15 6 16 8 17 7 18 2 19 1 20 3 23 20 24 21 25
REMARK SMILES IDX 22 26 23 28 24 29 25 30 86 31 26 32 85 33 27 34 28 35 29 36
REMARK SMILES IDX 79 37 30 38 84 39 78 40 80 41 31 42 83 43 77 44 76 45 32 47
REMARK SMILES IDX 64 48 44 49 63 50 45 51 48 52 62 53 81 54 46 55 47 56 61 58
REMARK SMILES IDX 82 59 49 60 33 61 34 62 42 63 35 64 37 65 43 66 36 67 38 68
REMARK SMILES IDX 39 69 40 70 41 71 65 72 66 73 74 74 67 75 69 76 75 77 68 78
REMARK SMILES IDX 70 79 71 80 72 81 73 82 50 83 51 84 59 85 52 86 54 87 60 88
REMARK SMILES IDX 53 89 55 90 56 91 57 92 58 93
REMARK H PARENT 17 6 1 21 1 22 21 27 80 46 48 57
REMARK Flexibility Score: inf
ROOT
ATOM      1  C   UNL A   1      32.210  28.085  26.981  1.00  0.00     0.042 C 
ENDROOT
BRANCH   1   2
ATOM      2  C   UNL A   1      31.903  26.905  26.074  1.00  0.00     0.118 C 
BRANCH   2   3
ATOM      3  N   UNL A   1      31.273  25.803  26.775  1.00  0.00    -0.351 N 
ATOM      4  C   UNL A   1      31.192  24.464  26.467  1.00  0.00     0.271 C 
ATOM      5  O   UNL A   1      30.608  23.735  27.275  1.00  0.00    -0.267 OA
ATOM      6  H   UNL A   1      30.827  26.056  27.615  1.00  0.00     0.163 HD
BRANCH   4   7
ATOM      7  C   UNL A   1      31.764  23.864  25.224  1.00  0.00     0.148 A 
ATOM      8  C   UNL A   1      33.489  22.837  24.079  1.00  0.00     0.148 A 
ATOM      9  C   UNL A   1      32.689  22.887  22.929  1.00  0.00     0.157 A 
ATOM     10  N   UNL A   1      33.012  23.326  25.241  1.00  0.00    -0.222 NA
ATOM     11  N   UNL A   1      31.434  23.401  22.889  1.00  0.00    -0.258 NA
ATOM     12  C   UNL A   1      30.993  23.890  24.070  1.00  0.00     0.145 A 
BRANCH   8  13
ATOM     13  N   UNL A   1      34.765  22.321  24.036  1.00  0.00    -0.343 N 
ATOM     14  C   UNL A   1      35.155  21.093  24.758  1.00  0.00     0.172 C 
ATOM     15  C   UNL A   1      36.109  21.431  25.911  1.00  0.00     0.035 C 
ATOM     16  C   UNL A   1      37.293  22.258  25.409  1.00  0.00     0.004 C 
ATOM     17  C   UNL A   1      35.838  23.196  23.568  1.00  0.00     0.119 C 
ATOM     18  C   UNL A   1      36.797  23.524  24.715  1.00  0.00     0.022 C 
BRANCH  14  19
ATOM     19  C   UNL A   1      33.975  20.160  25.132  1.00  0.00     0.240 C 
ATOM     20  N   UNL A   1      33.458  20.235  26.392  1.00  0.00    -0.368 N 
ATOM     21  H   UNL A   1      32.709  19.652  26.653  1.00  0.00     0.159 HD
ATOM     22  H   UNL A   1      33.836  20.872  27.041  1.00  0.00     0.159 HD
ATOM     23  O   UNL A   1      33.489  19.351  24.338  1.00  0.00    -0.273 OA
ENDBRANCH  14  19
ENDBRANCH   8  13
ENDBRANCH   4   7
ENDBRANCH   2   3
ENDBRANCH   1   2
BRANCH   1  24
ATOM     24  C   UNL A   1      33.585  28.688  26.732  1.00  0.00     0.118 C 
BRANCH  24  25
ATOM     25  N   UNL A   1      33.640  30.107  27.077  1.00  0.00    -0.352 N 
ATOM     26  C   UNL A   1      34.538  30.804  27.843  1.00  0.00     0.251 C 
ATOM     27  H   UNL A   1      32.912  30.652  26.696  1.00  0.00     0.163 HD
ATOM     28  O   UNL A   1      34.264  31.951  28.200  1.00  0.00    -0.269 OA
BRANCH  26  29
ATOM     29  C   UNL A   1      35.818  30.187  28.247  1.00  0.00     0.039 A 
ATOM     30  C   UNL A   1      36.915  30.263  27.385  1.00  0.00     0.014 A 
ATOM     31  C   UNL A   1      35.933  29.517  29.466  1.00  0.00     0.014 A 
ATOM     32  C   UNL A   1      38.144  29.730  27.781  1.00  0.00     0.010 A 
ATOM     33  C   UNL A   1      37.178  29.078  29.901  1.00  0.00     0.010 A 
ATOM     34  C   UNL A   1      38.295  29.169  29.060  1.00  0.00    -0.014 A 
BRANCH  34  35
ATOM     35  C   UNL A   1      39.610  28.677  29.543  1.00  0.00     0.031 A 
ATOM     36  C   UNL A   1      40.337  29.408  30.640  1.00  0.00     0.074 A 
ATOM     37  C   UNL A   1      40.193  27.628  28.927  1.00  0.00     0.049 A 
ATOM     38  N   UNL A   1      41.520  29.173  31.142  1.00  0.00    -0.248 NA
ATOM     39  C   UNL A   1      39.660  30.576  31.229  1.00  0.00     0.031 C 
ATOM     40  C   UNL A   1      39.627  26.888  27.797  1.00  0.00     0.029 A 
ATOM     41  N   UNL A   1      41.404  27.021  29.146  1.00  0.00    -0.354 N 
ATOM     42  C   UNL A   1      41.746  30.179  32.073  1.00  0.00     0.074 A 
ATOM     43  C   UNL A   1      40.593  31.052  32.040  1.00  0.00     0.031 C 
ATOM     44  C   UNL A   1      40.483  25.924  27.428  1.00  0.00     0.029 A 
ATOM     45  C   UNL A   1      41.675  25.998  28.267  1.00  0.00     0.049 A 
ATOM     46  H   UNL A   1      42.021  27.292  29.865  1.00  0.00     0.167 HD
ATOM     47  C   UNL A   1      42.802  30.349  32.904  1.00  0.00     0.034 A 
ATOM     48  C   UNL A   1      42.765  25.218  28.140  1.00  0.00     0.034 A 
ATOM     49  C   UNL A   1      43.928  29.457  32.960  1.00  0.00     0.049 A 
ATOM     50  C   UNL A   1      43.911  25.406  29.098  1.00  0.00     0.074 A 
ATOM     51  C   UNL A   1      45.006  29.488  33.828  1.00  0.00     0.029 A 
ATOM     52  N   UNL A   1      44.129  28.382  32.109  1.00  0.00    -0.354 N 
ATOM     53  N   UNL A   1      44.034  26.267  30.077  1.00  0.00    -0.248 NA
ATOM     54  C   UNL A   1      45.053  24.491  28.955  1.00  0.00     0.031 C 
ATOM     55  C   UNL A   1      45.877  28.451  33.478  1.00  0.00     0.029 A 
ATOM     56  C   UNL A   1      45.321  27.749  32.420  1.00  0.00     0.049 A 
ATOM     57  H   UNL A   1      43.516  28.108  31.389  1.00  0.00     0.167 HD
ATOM     58  C   UNL A   1      45.247  25.974  30.691  1.00  0.00     0.074 A 
ATOM     59  C   UNL A   1      45.809  24.842  29.985  1.00  0.00     0.031 C 
ATOM     60  C   UNL A   1      45.845  26.593  31.739  1.00  0.00     0.034 A 
BRANCH  47  61
ATOM     61  C   UNL A   1      42.770  31.521  33.851  1.00  0.00     0.023 A 
ATOM     62  C   UNL A   1      43.254  32.776  33.427  1.00  0.00     0.012 A 
ATOM     63  C   UNL A   1      42.209  31.397  35.137  1.00  0.00     0.148 A 
ATOM     64  C   UNL A   1      43.217  33.878  34.280  1.00  0.00     0.002 A 
ATOM     65  C   UNL A   1      42.131  32.512  35.963  1.00  0.00     0.091 A 
ATOM     66  F   UNL A   1      41.772  30.193  35.531  1.00  0.00    -0.205 F 
ATOM     67  C   UNL A   1      42.646  33.748  35.543  1.00  0.00     0.022 A 
BRANCH  65  68
ATOM     68  S   UNL A   1      41.338  32.471  37.575  1.00  0.00     0.127 S 
ATOM     69  O   UNL A   1      41.372  33.884  37.955  1.00  0.00    -0.237 OA
ATOM     70  O   UNL A   1      40.008  31.959  37.250  1.00  0.00    -0.237 OA
ATOM     71  O   UNL A   1      42.148  31.585  38.400  1.00  0.00    -0.744 OA
ENDBRANCH  65  68
ENDBRANCH  47  61
BRANCH  48  72
ATOM     72  C   UNL A   1      42.801  24.148  27.102  1.00  0.00     0.023 A 
ATOM     73  C   UNL A   1      43.511  24.367  25.905  1.00  0.00     0.012 A 
ATOM     74  C   UNL A   1      42.158  22.911  27.303  1.00  0.00     0.148 A 
ATOM     75  C   UNL A   1      43.548  23.388  24.912  1.00  0.00     0.002 A 
ATOM     76  C   UNL A   1      42.248  21.919  26.335  1.00  0.00     0.091 A 
ATOM     77  F   UNL A   1      41.482  22.726  28.446  1.00  0.00    -0.205 F 
ATOM     78  C   UNL A   1      42.926  22.162  25.130  1.00  0.00     0.022 A 
BRANCH  76  79
ATOM     79  S   UNL A   1      41.596  20.265  26.586  1.00  0.00     0.127 S 
ATOM     80  O   UNL A   1      40.156  20.506  26.582  1.00  0.00    -0.237 OA
ATOM     81  O   UNL A   1      42.107  19.558  25.410  1.00  0.00    -0.237 OA
ATOM     82  O   UNL A   1      42.157  19.807  27.850  1.00  0.00    -0.744 OA
ENDBRANCH  76  79
ENDBRANCH  48  72
BRANCH  60  83
ATOM     83  C   UNL A   1      47.159  26.037  32.223  1.00  0.00     0.023 A 
ATOM     84  C   UNL A   1      47.192  25.153  33.320  1.00  0.00     0.012 A 
ATOM     85  C   UNL A   1      48.355  26.335  31.539  1.00  0.00     0.148 A 
ATOM     86  C   UNL A   1      48.398  24.604  33.751  1.00  0.00     0.002 A 
ATOM     87  C   UNL A   1      49.545  25.742  31.941  1.00  0.00     0.091 A 
ATOM     88  F   UNL A   1      48.306  27.191  30.509  1.00  0.00    -0.205 F 
ATOM     89  C   UNL A   1      49.571  24.888  33.055  1.00  0.00     0.022 A 
BRANCH  87  90
ATOM     90  S   UNL A   1      51.085  25.969  31.046  1.00  0.00     0.127 S 
ATOM     91  O   UNL A   1      51.349  27.391  31.262  1.00  0.00    -0.237 OA
ATOM     92  O   UNL A   1      51.991  25.065  31.756  1.00  0.00    -0.237 OA
ATOM     93  O   UNL A   1      50.810  25.588  29.667  1.00  0.00    -0.744 OA
ENDBRANCH  87  90
ENDBRANCH  60  83
ENDBRANCH  34  35
ENDBRANCH  26  29
ENDBRANCH  24  25
ENDBRANCH   1  24
TORSDOF 15
ENDMDL
MODEL 3
REMARK VINA RESULT:     -11.6      1.987      2.666
REMARK SMILES NC(=O)[C@@H]1CCCCN1c1cncc(C(=O)NCCCNC(=O)c2ccc(-c3c4nc(c(-c5cccc(S(=O)(=O)[O-])c5F)c5ccc([nH]5)c(-c5cccc(S(=O)(=O)[O-])c5F)c5nc(c(-c6cccc(S(=O)(=O)[O-])c6F)c6ccc3[nH]6)C=C5)C=C4)cc2)n1
REMARK SMILES IDX 19 1 18 2 17 3 15 4 16 5 14 7 10 8 11 9 87 10 12 11 13 12
REMARK SMILES IDX 9 13 4 14 5 15 6 16 8 17 7 18 2 19 1 20 3 23 20 24 21 25
REMARK SMILES IDX 22 26 23 28 24 29 25 30 86 31 26 32 85 33 27 34 28 35 29 36
REMARK SMILES IDX 79 37 30 38 84 39 78 40 80 41 31 42 83 43 77 44 76 45 32 47
REMARK SMILES IDX 64 48 44 49 63 50 45 51 48 52 62 53 81 54 46 55 47 56 61 58
REMARK SMILES IDX 82 59 49 60 33 61 34 62 42 63 35 64 37 65 43 66 36 67 38 68
REMARK SMILES IDX 39 69 40 70 41 71 65 72 66 73 74 74 67 75 69 76 75 77 68 78
REMARK SMILES IDX 70 79 71 80 72 81 73 82 50 83 51 84 59 85 52 86 54 87 60 88
REMARK SMILES IDX 53 89 55 90 56 91 57 92 58 93
REMARK H PARENT 17 6 1 21 1 22 21 27 80 46 48 57
REMARK Flexibility Score: inf
ROOT
ATOM      1  C   UNL A   1      31.915  28.401  26.350  1.00  0.00     0.042 C 
ENDROOT
BRANCH   1   2
ATOM      2  C   UNL A   1      32.405  26.975  26.161  1.00  0.00     0.118 C 
BRANCH   2   3
ATOM      3  N   UNL A   1      31.564  25.996  26.821  1.00  0.00    -0.351 N 
ATOM      4  C   UNL A   1      31.230  24.707  26.471  1.00  0.00     0.271 C 
ATOM      5  O   UNL A   1      30.505  24.083  27.250  1.00  0.00    -0.267 OA
ATOM      6  H   UNL A   1      31.162  26.307  27.664  1.00  0.00     0.163 HD
BRANCH   4   7
ATOM      7  C   UNL A   1      31.695  24.044  25.215  1.00  0.00     0.148 A 
ATOM      8  C   UNL A   1      33.279  22.868  24.013  1.00  0.00     0.148 A 
ATOM      9  C   UNL A   1      32.431  22.961  22.900  1.00  0.00     0.157 A 
ATOM     10  N   UNL A   1      32.897  23.412  25.185  1.00  0.00    -0.222 NA
ATOM     11  N   UNL A   1      31.219  23.569  22.907  1.00  0.00    -0.258 NA
ATOM     12  C   UNL A   1      30.874  24.111  24.098  1.00  0.00     0.145 A 
BRANCH   8  13
ATOM     13  N   UNL A   1      34.508  22.254  23.921  1.00  0.00    -0.343 N 
ATOM     14  C   UNL A   1      34.848  21.031  24.676  1.00  0.00     0.172 C 
ATOM     15  C   UNL A   1      35.893  21.343  25.755  1.00  0.00     0.035 C 
ATOM     16  C   UNL A   1      37.103  22.054  25.150  1.00  0.00     0.004 C 
ATOM     17  C   UNL A   1      35.613  23.023  23.353  1.00  0.00     0.119 C 
ATOM     18  C   UNL A   1      36.661  23.324  24.426  1.00  0.00     0.022 C 
BRANCH  14  19
ATOM     19  C   UNL A   1      33.627  20.208  25.159  1.00  0.00     0.240 C 
ATOM     20  N   UNL A   1      33.287  20.260  26.479  1.00  0.00    -0.368 N 
ATOM     21  H   UNL A   1      32.515  19.746  26.810  1.00  0.00     0.159 HD
ATOM     22  H   UNL A   1      33.814  20.812  27.101  1.00  0.00     0.159 HD
ATOM     23  O   UNL A   1      32.956  19.506  24.400  1.00  0.00    -0.273 OA
ENDBRANCH  14  19
ENDBRANCH   8  13
ENDBRANCH   4   7
ENDBRANCH   2   3
ENDBRANCH   1   2
BRANCH   1  24
ATOM     24  C   UNL A   1      32.737  29.424  25.579  1.00  0.00     0.118 C 
BRANCH  24  25
ATOM     25  N   UNL A   1      32.484  30.791  26.027  1.00  0.00    -0.352 N 
ATOM     26  C   UNL A   1      33.079  31.530  27.018  1.00  0.00     0.251 C 
ATOM     27  H   UNL A   1      31.769  31.260  25.537  1.00  0.00     0.163 HD
ATOM     28  O   UNL A   1      32.552  32.579  27.387  1.00  0.00    -0.269 OA
BRANCH  26  29
ATOM     29  C   UNL A   1      34.334  31.068  27.646  1.00  0.00     0.039 A 
ATOM     30  C   UNL A   1      35.333  32.000  27.941  1.00  0.00     0.014 A 
ATOM     31  C   UNL A   1      34.536  29.716  27.927  1.00  0.00     0.014 A 
ATOM     32  C   UNL A   1      36.500  31.583  28.584  1.00  0.00     0.010 A 
ATOM     33  C   UNL A   1      35.651  29.319  28.657  1.00  0.00     0.010 A 
ATOM     34  C   UNL A   1      36.650  30.244  28.984  1.00  0.00    -0.014 A 
BRANCH  34  35
ATOM     35  C   UNL A   1      37.840  29.790  29.749  1.00  0.00     0.031 A 
ATOM     36  C   UNL A   1      38.104  30.330  31.129  1.00  0.00     0.074 A 
ATOM     37  C   UNL A   1      38.731  28.966  29.162  1.00  0.00     0.049 A 
ATOM     38  N   UNL A   1      39.121  30.108  31.919  1.00  0.00    -0.248 NA
ATOM     39  C   UNL A   1      37.111  31.266  31.684  1.00  0.00     0.031 C 
ATOM     40  C   UNL A   1      38.629  28.441  27.798  1.00  0.00     0.029 A 
ATOM     41  N   UNL A   1      39.913  28.448  29.628  1.00  0.00    -0.354 N 
ATOM     42  C   UNL A   1      38.913  30.901  33.040  1.00  0.00     0.074 A 
ATOM     43  C   UNL A   1      37.692  31.641  32.813  1.00  0.00     0.031 C 
ATOM     44  C   UNL A   1      39.697  27.671  27.542  1.00  0.00     0.029 A 
ATOM     45  C   UNL A   1      40.579  27.676  28.704  1.00  0.00     0.049 A 
ATOM     46  H   UNL A   1      40.253  28.614  30.537  1.00  0.00     0.167 HD
ATOM     47  C   UNL A   1      39.654  30.986  34.171  1.00  0.00     0.034 A 
ATOM     48  C   UNL A   1      41.771  27.055  28.778  1.00  0.00     0.034 A 
ATOM     49  C   UNL A   1      40.847  30.220  34.407  1.00  0.00     0.049 A 
ATOM     50  C   UNL A   1      42.559  27.139  30.058  1.00  0.00     0.074 A 
ATOM     51  C   UNL A   1      41.620  30.164  35.554  1.00  0.00     0.029 A 
ATOM     52  N   UNL A   1      41.448  29.384  33.479  1.00  0.00    -0.354 N 
ATOM     53  N   UNL A   1      42.264  27.770  31.167  1.00  0.00    -0.248 NA
ATOM     54  C   UNL A   1      43.826  26.395  30.109  1.00  0.00     0.031 C 
ATOM     55  C   UNL A   1      42.708  29.322  35.306  1.00  0.00     0.029 A 
ATOM     56  C   UNL A   1      42.590  28.819  34.020  1.00  0.00     0.049 A 
ATOM     57  H   UNL A   1      41.112  29.217  32.568  1.00  0.00     0.167 HD
ATOM     58  C   UNL A   1      43.287  27.471  32.060  1.00  0.00     0.074 A 
ATOM     59  C   UNL A   1      44.197  26.583  31.367  1.00  0.00     0.031 C 
ATOM     60  C   UNL A   1      43.462  27.899  33.335  1.00  0.00     0.034 A 
BRANCH  47  61
ATOM     61  C   UNL A   1      39.171  31.912  35.259  1.00  0.00     0.023 A 
ATOM     62  C   UNL A   1      38.221  31.454  36.195  1.00  0.00     0.012 A 
ATOM     63  C   UNL A   1      39.699  33.211  35.389  1.00  0.00     0.148 A 
ATOM     64  C   UNL A   1      37.775  32.287  37.220  1.00  0.00     0.002 A 
ATOM     65  C   UNL A   1      39.286  34.017  36.443  1.00  0.00     0.091 A 
ATOM     66  F   UNL A   1      40.586  33.636  34.479  1.00  0.00    -0.205 F 
ATOM     67  C   UNL A   1      38.314  33.564  37.350  1.00  0.00     0.022 A 
BRANCH  65  68
ATOM     68  S   UNL A   1      39.981  35.646  36.749  1.00  0.00     0.127 S 
ATOM     69  O   UNL A   1      39.298  36.030  37.984  1.00  0.00    -0.237 OA
ATOM     70  O   UNL A   1      41.404  35.347  36.906  1.00  0.00    -0.237 OA
ATOM     71  O   UNL A   1      39.653  36.450  35.580  1.00  0.00    -0.744 OA
ENDBRANCH  65  68
ENDBRANCH  47  61
BRANCH  48  72
ATOM     72  C   UNL A   1      42.267  26.249  27.625  1.00  0.00     0.023 A 
ATOM     73  C   UNL A   1      43.126  26.845  26.681  1.00  0.00     0.012 A 
ATOM     74  C   UNL A   1      41.911  24.895  27.472  1.00  0.00     0.148 A 
ATOM     75  C   UNL A   1      43.592  26.118  25.586  1.00  0.00     0.002 A 
ATOM     76  C   UNL A   1      42.426  24.160  26.412  1.00  0.00     0.091 A 
ATOM     77  F   UNL A   1      41.087  24.349  28.378  1.00  0.00    -0.205 F 
ATOM     78  C   UNL A   1      43.251  24.774  25.455  1.00  0.00     0.022 A 
BRANCH  76  79
ATOM     79  S   UNL A   1      42.153  22.394  26.239  1.00  0.00     0.127 S 
ATOM     80  O   UNL A   1      40.700  22.326  26.111  1.00  0.00    -0.237 OA
ATOM     81  O   UNL A   1      42.895  22.092  25.015  1.00  0.00    -0.237 OA
ATOM     82  O   UNL A   1      42.710  21.789  27.442  1.00  0.00    -0.744 OA
ENDBRANCH  76  79
ENDBRANCH  48  72
BRANCH  60  83
ATOM     83  C   UNL A   1      44.659  27.383  34.088  1.00  0.00     0.023 A 
ATOM     84  C   UNL A   1      45.869  28.106  34.076  1.00  0.00     0.012 A 
ATOM     85  C   UNL A   1      44.560  26.215  34.870  1.00  0.00     0.148 A 
ATOM     86  C   UNL A   1      46.971  27.655  34.801  1.00  0.00     0.002 A 
ATOM     87  C   UNL A   1      45.645  25.801  35.632  1.00  0.00     0.091 A 
ATOM     88  F   UNL A   1      43.407  25.531  34.855  1.00  0.00    -0.205 F 
ATOM     89  C   UNL A   1      46.856  26.512  35.588  1.00  0.00     0.022 A 
BRANCH  87  90
ATOM     90  S   UNL A   1      45.559  24.399  36.751  1.00  0.00     0.127 S 
ATOM     91  O   UNL A   1      46.923  24.354  37.277  1.00  0.00    -0.237 OA
ATOM     92  O   UNL A   1      44.548  24.835  37.715  1.00  0.00    -0.237 OA
ATOM     93  O   UNL A   1      45.166  23.257  35.937  1.00  0.00    -0.744 OA
ENDBRANCH  87  90
ENDBRANCH  60  83
ENDBRANCH  34  35
ENDBRANCH  26  29
ENDBRANCH  24  25
ENDBRANCH   1  24
TORSDOF 15
ENDMDL
