MODEL 1
REMARK VINA RESULT:     -12.3      0.000      0.000
REMARK SMILES CCCOC(=O)c1c(NC(=O)[C@@H]2CC=CC[C@H]2C(=O)NCCCNC(=O)c2ccc(-c3c4nc(c(-c5cccc(S(=O)(=O)[O-])c5F)c5ccc([nH]5)c(-c5cccc(S(=O)(=O)[O-])c5F)c5nc(c(-c6cccc(S(=O)(=O)[O-])c6F)c6ccc3[nH]6)C=C5)C=C4)cc2)sc2c1CCCC2
REMARK SMILES IDX 18 1 19 2 20 3 17 5 12 6 13 7 14 8 16 9 15 10 10 11 9 12
REMARK SMILES IDX 11 14 8 15 7 16 92 17 90 18 91 19 93 20 96 21 94 22 95 23
REMARK SMILES IDX 5 24 6 25 4 26 3 27 2 28 1 29 21 30 22 31 23 32 24 33 25 34
REMARK SMILES IDX 26 36 27 37 28 38 89 39 29 40 88 41 30 42 31 43 32 44 82 45
REMARK SMILES IDX 33 46 87 47 81 48 83 49 34 50 86 51 80 52 79 53 35 55 67 56
REMARK SMILES IDX 47 57 66 58 48 59 51 60 65 61 84 62 49 63 50 64 64 66 85 67
REMARK SMILES IDX 52 68 36 69 37 70 45 71 38 72 40 73 46 74 39 75 41 76 42 77
REMARK SMILES IDX 43 78 44 79 68 80 69 81 77 82 70 83 72 84 78 85 71 86 73 87
REMARK SMILES IDX 74 88 75 89 76 90 53 91 54 92 62 93 55 94 57 95 63 96 56 97
REMARK SMILES IDX 58 98 59 99 60 100 61 101
REMARK H PARENT 20 4 9 13 24 35 83 54 51 65
REMARK Flexibility Score: inf
ROOT
ATOM      1  C   UNL A   1      34.221  24.757  25.350  1.00  0.00     0.224 C 
ATOM      2  O   UNL A   1      35.064  25.660  25.393  1.00  0.00    -0.275 OA
ATOM      3  N   UNL A   1      34.579  23.578  25.909  1.00  0.00    -0.356 N 
ATOM      4  H   UNL A   1      35.211  23.649  26.662  1.00  0.00     0.163 HD
ENDROOT
BRANCH   1   5
ATOM      5  C   UNL A   1      32.850  25.033  24.752  1.00  0.00     0.095 C 
ATOM      6  C   UNL A   1      32.554  24.291  23.465  1.00  0.00     0.095 C 
ATOM      7  C   UNL A   1      31.076  23.876  23.239  1.00  0.00     0.041 C 
ATOM      8  C   UNL A   1      30.107  24.875  23.789  1.00  0.00    -0.030 C 
ATOM      9  C   UNL A   1      31.649  25.070  25.670  1.00  0.00     0.041 C 
ATOM     10  C   UNL A   1      30.400  25.477  24.942  1.00  0.00    -0.030 C 
BRANCH   6  11
ATOM     11  C   UNL A   1      32.932  25.106  22.256  1.00  0.00     0.229 C 
ATOM     12  N   UNL A   1      32.541  26.368  21.983  1.00  0.00    -0.317 N 
ATOM     13  H   UNL A   1      32.358  26.425  21.017  1.00  0.00     0.170 HD
ATOM     14  O   UNL A   1      33.462  24.507  21.306  1.00  0.00    -0.274 OA
BRANCH  12  15
ATOM     15  C   UNL A   1      32.299  27.610  22.534  1.00  0.00     0.110 A 
ATOM     16  C   UNL A   1      31.377  28.631  22.827  1.00  0.00     0.098 A 
ATOM     17  C   UNL A   1      31.825  29.246  24.100  1.00  0.00    -0.017 A 
ATOM     18  S   UNL A   1      33.841  27.985  23.249  1.00  0.00    -0.122 S 
ATOM     19  C   UNL A   1      33.099  28.867  24.465  1.00  0.00     0.011 A 
ATOM     20  C   UNL A   1      30.971  30.047  25.050  1.00  0.00     0.038 C 
ATOM     21  C   UNL A   1      33.790  29.154  25.755  1.00  0.00     0.047 C 
ATOM     22  C   UNL A   1      31.788  30.622  26.224  1.00  0.00     0.005 C 
ATOM     23  C   UNL A   1      32.766  29.593  26.806  1.00  0.00     0.006 C 
BRANCH  16  24
ATOM     24  C   UNL A   1      29.981  28.891  22.396  1.00  0.00     0.341 C 
ATOM     25  O   UNL A   1      29.037  28.324  22.936  1.00  0.00    -0.246 OA
BRANCH  24  26
ATOM     26  O   UNL A   1      29.796  29.944  21.499  1.00  0.00    -0.462 OA
BRANCH  26  27
ATOM     27  C   UNL A   1      28.444  30.485  21.478  1.00  0.00     0.233 C 
BRANCH  27  28
ATOM     28  C   UNL A   1      28.265  32.023  21.597  1.00  0.00     0.038 C 
ATOM     29  C   UNL A   1      28.874  32.783  22.774  1.00  0.00     0.007 C 
ENDBRANCH  27  28
ENDBRANCH  26  27
ENDBRANCH  24  26
ENDBRANCH  16  24
ENDBRANCH  12  15
ENDBRANCH   6  11
ENDBRANCH   1   5
BRANCH   3  30
ATOM     30  C   UNL A   1      34.178  22.228  25.575  1.00  0.00     0.117 C 
BRANCH  30  31
ATOM     31  C   UNL A   1      35.387  21.419  25.132  1.00  0.00     0.042 C 
BRANCH  31  32
ATOM     32  C   UNL A   1      36.652  21.938  25.804  1.00  0.00     0.118 C 
BRANCH  32  33
ATOM     33  N   UNL A   1      37.630  20.863  25.966  1.00  0.00    -0.352 N 
ATOM     34  C   UNL A   1      38.996  20.965  26.070  1.00  0.00     0.251 C 
ATOM     35  H   UNL A   1      37.263  19.951  26.006  1.00  0.00     0.163 HD
ATOM     36  O   UNL A   1      39.713  20.005  25.811  1.00  0.00    -0.269 OA
BRANCH  34  37
ATOM     37  C   UNL A   1      39.570  22.249  26.506  1.00  0.00     0.039 A 
ATOM     38  C   UNL A   1      40.552  22.283  27.497  1.00  0.00     0.014 A 
ATOM     39  C   UNL A   1      39.128  23.427  25.901  1.00  0.00     0.014 A 
ATOM     40  C   UNL A   1      41.124  23.508  27.844  1.00  0.00     0.010 A 
ATOM     41  C   UNL A   1      39.788  24.614  26.150  1.00  0.00     0.010 A 
ATOM     42  C   UNL A   1      40.762  24.677  27.155  1.00  0.00    -0.014 A 
BRANCH  42  43
ATOM     43  C   UNL A   1      41.333  26.003  27.489  1.00  0.00     0.031 A 
ATOM     44  C   UNL A   1      42.757  26.308  27.098  1.00  0.00     0.074 A 
ATOM     45  C   UNL A   1      40.623  26.869  28.235  1.00  0.00     0.049 A 
ATOM     46  N   UNL A   1      43.488  27.349  27.392  1.00  0.00    -0.248 NA
ATOM     47  C   UNL A   1      43.473  25.280  26.318  1.00  0.00     0.031 C 
ATOM     48  C   UNL A   1      39.274  26.634  28.758  1.00  0.00     0.029 A 
ATOM     49  N   UNL A   1      40.949  28.113  28.709  1.00  0.00    -0.354 N 
ATOM     50  C   UNL A   1      44.755  27.075  26.889  1.00  0.00     0.074 A 
ATOM     51  C   UNL A   1      44.711  25.749  26.319  1.00  0.00     0.031 C 
ATOM     52  C   UNL A   1      38.885  27.706  29.467  1.00  0.00     0.029 A 
ATOM     53  C   UNL A   1      39.962  28.690  29.472  1.00  0.00     0.049 A 
ATOM     54  H   UNL A   1      41.810  28.553  28.520  1.00  0.00     0.167 HD
ATOM     55  C   UNL A   1      45.848  27.872  26.864  1.00  0.00     0.034 A 
ATOM     56  C   UNL A   1      39.933  29.880  30.101  1.00  0.00     0.034 A 
ATOM     57  C   UNL A   1      45.852  29.221  27.356  1.00  0.00     0.049 A 
ATOM     58  C   UNL A   1      41.125  30.789  29.971  1.00  0.00     0.074 A 
ATOM     59  C   UNL A   1      46.858  30.164  27.276  1.00  0.00     0.029 A 
ATOM     60  N   UNL A   1      44.786  29.820  28.011  1.00  0.00    -0.354 N 
ATOM     61  N   UNL A   1      42.259  30.580  29.345  1.00  0.00    -0.248 NA
ATOM     62  C   UNL A   1      41.021  32.115  30.596  1.00  0.00     0.031 C 
ATOM     63  C   UNL A   1      46.404  31.335  27.894  1.00  0.00     0.029 A 
ATOM     64  C   UNL A   1      45.108  31.123  28.340  1.00  0.00     0.049 A 
ATOM     65  H   UNL A   1      43.927  29.383  28.210  1.00  0.00     0.167 HD
ATOM     66  C   UNL A   1      42.988  31.756  29.470  1.00  0.00     0.074 A 
ATOM     67  C   UNL A   1      42.157  32.682  30.212  1.00  0.00     0.031 C 
ATOM     68  C   UNL A   1      44.238  32.042  29.028  1.00  0.00     0.034 A 
BRANCH  55  69
ATOM     69  C   UNL A   1      47.096  27.331  26.216  1.00  0.00     0.023 A 
ATOM     70  C   UNL A   1      47.327  27.568  24.845  1.00  0.00     0.012 A 
ATOM     71  C   UNL A   1      48.057  26.624  26.964  1.00  0.00     0.148 A 
ATOM     72  C   UNL A   1      48.470  27.074  24.218  1.00  0.00     0.002 A 
ATOM     73  C   UNL A   1      49.218  26.176  26.344  1.00  0.00     0.091 A 
ATOM     74  F   UNL A   1      47.813  26.387  28.261  1.00  0.00    -0.205 F 
ATOM     75  C   UNL A   1      49.420  26.388  24.969  1.00  0.00     0.022 A 
BRANCH  73  76
ATOM     76  S   UNL A   1      50.542  25.356  27.238  1.00  0.00     0.127 S 
ATOM     77  O   UNL A   1      50.947  26.394  28.185  1.00  0.00    -0.237 OA
ATOM     78  O   UNL A   1      49.846  24.219  27.842  1.00  0.00    -0.237 OA
ATOM     79  O   UNL A   1      51.539  24.995  26.240  1.00  0.00    -0.744 OA
ENDBRANCH  73  76
ENDBRANCH  55  69
BRANCH  56  80
ATOM     80  C   UNL A   1      38.701  30.315  30.819  1.00  0.00     0.023 A 
ATOM     81  C   UNL A   1      38.584  30.057  32.198  1.00  0.00     0.012 A 
ATOM     82  C   UNL A   1      37.670  31.014  30.162  1.00  0.00     0.148 A 
ATOM     83  C   UNL A   1      37.450  30.457  32.905  1.00  0.00     0.002 A 
ATOM     84  C   UNL A   1      36.567  31.458  30.884  1.00  0.00     0.091 A 
ATOM     85  F   UNL A   1      37.796  31.245  28.847  1.00  0.00    -0.205 F 
ATOM     86  C   UNL A   1      36.447  31.166  32.251  1.00  0.00     0.022 A 
BRANCH  84  87
ATOM     87  S   UNL A   1      35.292  32.493  30.155  1.00  0.00     0.127 S 
ATOM     88  O   UNL A   1      36.048  33.683  29.781  1.00  0.00    -0.237 OA
ATOM     89  O   UNL A   1      34.838  31.672  29.033  1.00  0.00    -0.237 OA
ATOM     90  O   UNL A   1      34.293  32.676  31.203  1.00  0.00    -0.744 OA
ENDBRANCH  84  87
ENDBRANCH  56  80
BRANCH  68  91
ATOM     91  C   UNL A   1      44.772  33.421  29.300  1.00  0.00     0.023 A 
ATOM     92  C   UNL A   1      45.514  33.662  30.474  1.00  0.00     0.012 A 
ATOM     93  C   UNL A   1      44.616  34.451  28.352  1.00  0.00     0.148 A 
ATOM     94  C   UNL A   1      46.065  34.920  30.715  1.00  0.00     0.002 A 
ATOM     95  C   UNL A   1      45.209  35.686  28.577  1.00  0.00     0.091 A 
ATOM     96  F   UNL A   1      43.891  34.204  27.252  1.00  0.00    -0.205 F 
ATOM     97  C   UNL A   1      45.924  35.925  29.761  1.00  0.00     0.022 A 
BRANCH  95  98
ATOM     98  S   UNL A   1      45.163  37.005  27.359  1.00  0.00     0.127 S 
ATOM     99  O   UNL A   1      45.692  38.134  28.122  1.00  0.00    -0.237 OA
ATOM    100  O   UNL A   1      46.059  36.499  26.317  1.00  0.00    -0.237 OA
ATOM    101  O   UNL A   1      43.770  37.123  26.949  1.00  0.00    -0.744 OA
ENDBRANCH  95  98
ENDBRANCH  68  91
ENDBRANCH  42  43
ENDBRANCH  34  37
ENDBRANCH  32  33
ENDBRANCH  31  32
ENDBRANCH  30  31
ENDBRANCH   3  30
TORSDOF 19
ENDMDL
MODEL 2
REMARK VINA RESULT:     -12.1      2.026      2.699
REMARK SMILES CCCOC(=O)c1c(NC(=O)[C@@H]2CC=CC[C@H]2C(=O)NCCCNC(=O)c2ccc(-c3c4nc(c(-c5cccc(S(=O)(=O)[O-])c5F)c5ccc([nH]5)c(-c5cccc(S(=O)(=O)[O-])c5F)c5nc(c(-c6cccc(S(=O)(=O)[O-])c6F)c6ccc3[nH]6)C=C5)C=C4)cc2)sc2c1CCCC2
REMARK SMILES IDX 18 1 19 2 20 3 17 5 12 6 13 7 14 8 16 9 15 10 10 11 9 12
REMARK SMILES IDX 11 14 8 15 7 16 92 17 90 18 91 19 93 20 96 21 94 22 95 23
REMARK SMILES IDX 5 24 6 25 4 26 3 27 2 28 1 29 21 30 22 31 23 32 24 33 25 34
REMARK SMILES IDX 26 36 27 37 28 38 89 39 29 40 88 41 30 42 31 43 32 44 82 45
REMARK SMILES IDX 33 46 87 47 81 48 83 49 34 50 86 51 80 52 79 53 35 55 67 56
REMARK SMILES IDX 47 57 66 58 48 59 51 60 65 61 84 62 49 63 50 64 64 66 85 67
REMARK SMILES IDX 52 68 36 69 37 70 45 71 38 72 40 73 46 74 39 75 41 76 42 77
REMARK SMILES IDX 43 78 44 79 68 80 69 81 77 82 70 83 72 84 78 85 71 86 73 87
REMARK SMILES IDX 74 88 75 89 76 90 53 91 54 92 62 93 55 94 57 95 63 96 56 97
REMARK SMILES IDX 58 98 59 99 60 100 61 101
REMARK H PARENT 20 4 9 13 24 35 83 54 51 65
REMARK Flexibility Score: inf
ROOT
ATOM      1  C   UNL A   1      33.349  22.961  24.927  1.00  0.00     0.224 C 
ATOM      2  O   UNL A   1      32.985  22.019  25.639  1.00  0.00    -0.275 OA
ATOM      3  N   UNL A   1      34.569  22.842  24.356  1.00  0.00    -0.356 N 
ATOM      4  H   UNL A   1      34.848  21.918  24.159  1.00  0.00     0.163 HD
ENDROOT
BRANCH   1   5
ATOM      5  C   UNL A   1      32.407  24.131  24.685  1.00  0.00     0.095 C 
ATOM      6  C   UNL A   1      31.713  24.124  23.340  1.00  0.00     0.095 C 
ATOM      7  C   UNL A   1      30.276  24.711  23.307  1.00  0.00     0.041 C 
ATOM      8  C   UNL A   1      30.101  25.856  24.254  1.00  0.00    -0.030 C 
ATOM      9  C   UNL A   1      31.475  24.558  25.797  1.00  0.00     0.041 C 
ATOM     10  C   UNL A   1      30.708  25.799  25.440  1.00  0.00    -0.030 C 
BRANCH   6  11
ATOM     11  C   UNL A   1      32.489  24.904  22.311  1.00  0.00     0.229 C 
ATOM     12  N   UNL A   1      32.424  26.234  22.093  1.00  0.00    -0.317 N 
ATOM     13  H   UNL A   1      32.461  26.382  21.120  1.00  0.00     0.170 HD
ATOM     14  O   UNL A   1      33.074  24.259  21.426  1.00  0.00    -0.274 OA
BRANCH  12  15
ATOM     15  C   UNL A   1      32.326  27.466  22.707  1.00  0.00     0.110 A 
ATOM     16  C   UNL A   1      31.563  28.621  22.959  1.00  0.00     0.098 A 
ATOM     17  C   UNL A   1      31.927  29.070  24.325  1.00  0.00    -0.017 A 
ATOM     18  S   UNL A   1      33.793  27.511  23.643  1.00  0.00    -0.122 S 
ATOM     19  C   UNL A   1      33.051  28.445  24.819  1.00  0.00     0.011 A 
ATOM     20  C   UNL A   1      31.100  29.960  25.218  1.00  0.00     0.038 C 
ATOM     21  C   UNL A   1      33.591  28.527  26.208  1.00  0.00     0.047 C 
ATOM     22  C   UNL A   1      31.830  30.309  26.530  1.00  0.00     0.005 C 
ATOM     23  C   UNL A   1      32.521  29.087  27.149  1.00  0.00     0.006 C 
BRANCH  16  24
ATOM     24  C   UNL A   1      30.310  29.155  22.374  1.00  0.00     0.341 C 
ATOM     25  O   UNL A   1      30.331  29.860  21.370  1.00  0.00    -0.246 OA
BRANCH  24  26
ATOM     26  O   UNL A   1      29.118  28.653  22.899  1.00  0.00    -0.462 OA
BRANCH  26  27
ATOM     27  C   UNL A   1      27.953  29.493  22.656  1.00  0.00     0.233 C 
BRANCH  27  28
ATOM     28  C   UNL A   1      27.742  30.737  23.562  1.00  0.00     0.038 C 
ATOM     29  C   UNL A   1      28.220  32.115  23.108  1.00  0.00     0.007 C 
ENDBRANCH  27  28
ENDBRANCH  26  27
ENDBRANCH  24  26
ENDBRANCH  16  24
ENDBRANCH  12  15
ENDBRANCH   6  11
ENDBRANCH   1   5
BRANCH   3  30
ATOM     30  C   UNL A   1      35.529  23.860  23.988  1.00  0.00     0.117 C 
BRANCH  30  31
ATOM     31  C   UNL A   1      36.942  23.369  24.261  1.00  0.00     0.042 C 
BRANCH  31  32
ATOM     32  C   UNL A   1      37.253  23.440  25.750  1.00  0.00     0.118 C 
BRANCH  32  33
ATOM     33  N   UNL A   1      38.240  22.428  26.122  1.00  0.00    -0.352 N 
ATOM     34  C   UNL A   1      39.565  22.607  26.437  1.00  0.00     0.251 C 
ATOM     35  H   UNL A   1      37.914  21.499  26.149  1.00  0.00     0.163 HD
ATOM     36  O   UNL A   1      40.359  21.677  26.345  1.00  0.00    -0.269 OA
BRANCH  34  37
ATOM     37  C   UNL A   1      40.001  23.938  26.892  1.00  0.00     0.039 A 
ATOM     38  C   UNL A   1      40.185  24.974  25.976  1.00  0.00     0.014 A 
ATOM     39  C   UNL A   1      40.212  24.149  28.257  1.00  0.00     0.014 A 
ATOM     40  C   UNL A   1      40.536  26.241  26.444  1.00  0.00     0.010 A 
ATOM     41  C   UNL A   1      40.427  25.430  28.726  1.00  0.00     0.010 A 
ATOM     42  C   UNL A   1      40.635  26.481  27.824  1.00  0.00    -0.014 A 
BRANCH  42  43
ATOM     43  C   UNL A   1      41.012  27.805  28.372  1.00  0.00     0.031 A 
ATOM     44  C   UNL A   1      42.473  28.145  28.528  1.00  0.00     0.074 A 
ATOM     45  C   UNL A   1      40.058  28.637  28.831  1.00  0.00     0.049 A 
ATOM     46  N   UNL A   1      43.021  29.189  29.090  1.00  0.00    -0.248 NA
ATOM     47  C   UNL A   1      43.449  27.154  28.037  1.00  0.00     0.031 C 
ATOM     48  C   UNL A   1      38.619  28.364  28.826  1.00  0.00     0.029 A 
ATOM     49  N   UNL A   1      40.159  29.871  29.418  1.00  0.00    -0.354 N 
ATOM     50  C   UNL A   1      44.391  28.951  29.072  1.00  0.00     0.074 A 
ATOM     51  C   UNL A   1      44.590  27.643  28.494  1.00  0.00     0.031 C 
ATOM     52  C   UNL A   1      37.972  29.406  29.370  1.00  0.00     0.029 A 
ATOM     53  C   UNL A   1      38.949  30.407  29.786  1.00  0.00     0.049 A 
ATOM     54  H   UNL A   1      41.018  30.330  29.562  1.00  0.00     0.167 HD
ATOM     55  C   UNL A   1      45.398  29.767  29.460  1.00  0.00     0.034 A 
ATOM     56  C   UNL A   1      38.664  31.578  30.389  1.00  0.00     0.034 A 
ATOM     57  C   UNL A   1      45.189  31.100  29.950  1.00  0.00     0.049 A 
ATOM     58  C   UNL A   1      39.798  32.510  30.718  1.00  0.00     0.074 A 
ATOM     59  C   UNL A   1      46.131  32.062  30.261  1.00  0.00     0.029 A 
ATOM     60  N   UNL A   1      43.943  31.661  30.190  1.00  0.00    -0.354 N 
ATOM     61  N   UNL A   1      41.086  32.338  30.539  1.00  0.00    -0.248 NA
ATOM     62  C   UNL A   1      39.440  33.814  31.293  1.00  0.00     0.031 C 
ATOM     63  C   UNL A   1      45.454  33.205  30.699  1.00  0.00     0.029 A 
ATOM     64  C   UNL A   1      44.090  32.959  30.643  1.00  0.00     0.049 A 
ATOM     65  H   UNL A   1      43.083  31.204  30.056  1.00  0.00     0.167 HD
ATOM     66  C   UNL A   1      41.690  33.522  30.945  1.00  0.00     0.074 A 
ATOM     67  C   UNL A   1      40.623  34.411  31.358  1.00  0.00     0.031 C 
ATOM     68  C   UNL A   1      43.007  33.842  30.990  1.00  0.00     0.034 A 
BRANCH  55  69
ATOM     69  C   UNL A   1      46.810  29.266  29.295  1.00  0.00     0.023 A 
ATOM     70  C   UNL A   1      47.428  28.569  30.354  1.00  0.00     0.012 A 
ATOM     71  C   UNL A   1      47.511  29.448  28.087  1.00  0.00     0.148 A 
ATOM     72  C   UNL A   1      48.735  28.100  30.232  1.00  0.00     0.002 A 
ATOM     73  C   UNL A   1      48.796  28.934  27.955  1.00  0.00     0.091 A 
ATOM     74  F   UNL A   1      46.918  30.132  27.099  1.00  0.00    -0.205 F 
ATOM     75  C   UNL A   1      49.415  28.273  29.029  1.00  0.00     0.022 A 
BRANCH  73  76
ATOM     76  S   UNL A   1      49.726  29.029  26.421  1.00  0.00     0.127 S 
ATOM     77  O   UNL A   1      49.930  30.471  26.288  1.00  0.00    -0.237 OA
ATOM     78  O   UNL A   1      50.934  28.271  26.746  1.00  0.00    -0.237 OA
ATOM     79  O   UNL A   1      48.883  28.420  25.402  1.00  0.00    -0.744 OA
ENDBRANCH  73  76
ENDBRANCH  55  69
BRANCH  56  80
ATOM     80  C   UNL A   1      37.245  31.970  30.623  1.00  0.00     0.023 A 
ATOM     81  C   UNL A   1      36.667  31.732  31.885  1.00  0.00     0.012 A 
ATOM     82  C   UNL A   1      36.480  32.611  29.629  1.00  0.00     0.148 A 
ATOM     83  C   UNL A   1      35.345  32.094  32.144  1.00  0.00     0.002 A 
ATOM     84  C   UNL A   1      35.181  33.018  29.911  1.00  0.00     0.091 A 
ATOM     85  F   UNL A   1      37.045  32.823  28.431  1.00  0.00    -0.205 F 
ATOM     86  C   UNL A   1      34.606  32.745  31.161  1.00  0.00     0.022 A 
BRANCH  84  87
ATOM     87  S   UNL A   1      34.200  33.981  28.754  1.00  0.00     0.127 S 
ATOM     88  O   UNL A   1      33.836  32.978  27.760  1.00  0.00    -0.237 OA
ATOM     89  O   UNL A   1      33.098  34.441  29.599  1.00  0.00    -0.237 OA
ATOM     90  O   UNL A   1      35.081  35.048  28.290  1.00  0.00    -0.744 OA
ENDBRANCH  84  87
ENDBRANCH  56  80
BRANCH  68  91
ATOM     91  C   UNL A   1      43.371  35.220  31.468  1.00  0.00     0.023 A 
ATOM     92  C   UNL A   1      43.634  35.438  32.835  1.00  0.00     0.012 A 
ATOM     93  C   UNL A   1      43.538  36.277  30.551  1.00  0.00     0.148 A 
ATOM     94  C   UNL A   1      44.028  36.697  33.286  1.00  0.00     0.002 A 
ATOM     95  C   UNL A   1      43.978  37.514  31.002  1.00  0.00     0.091 A 
ATOM     96  F   UNL A   1      43.264  36.051  29.258  1.00  0.00    -0.205 F 
ATOM     97  C   UNL A   1      44.213  37.729  32.369  1.00  0.00     0.022 A 
BRANCH  95  98
ATOM     98  S   UNL A   1      44.338  38.869  29.879  1.00  0.00     0.127 S 
ATOM     99  O   UNL A   1      44.590  39.967  30.809  1.00  0.00    -0.237 OA
ATOM    100  O   UNL A   1      45.524  38.382  29.173  1.00  0.00    -0.237 OA
ATOM    101  O   UNL A   1      43.157  39.016  29.039  1.00  0.00    -0.744 OA
ENDBRANCH  95  98
ENDBRANCH  68  91
ENDBRANCH  42  43
ENDBRANCH  34  37
ENDBRANCH  32  33
ENDBRANCH  31  32
ENDBRANCH  30  31
ENDBRANCH   3  30
TORSDOF 19
ENDMDL
MODEL 3
REMARK VINA RESULT:     -12.0      4.567      9.948
REMARK SMILES CCCOC(=O)c1c(NC(=O)[C@@H]2CC=CC[C@H]2C(=O)NCCCNC(=O)c2ccc(-c3c4nc(c(-c5cccc(S(=O)(=O)[O-])c5F)c5ccc([nH]5)c(-c5cccc(S(=O)(=O)[O-])c5F)c5nc(c(-c6cccc(S(=O)(=O)[O-])c6F)c6ccc3[nH]6)C=C5)C=C4)cc2)sc2c1CCCC2
REMARK SMILES IDX 18 1 19 2 20 3 17 5 12 6 13 7 14 8 16 9 15 10 10 11 9 12
REMARK SMILES IDX 11 14 8 15 7 16 92 17 90 18 91 19 93 20 96 21 94 22 95 23
REMARK SMILES IDX 5 24 6 25 4 26 3 27 2 28 1 29 21 30 22 31 23 32 24 33 25 34
REMARK SMILES IDX 26 36 27 37 28 38 89 39 29 40 88 41 30 42 31 43 32 44 82 45
REMARK SMILES IDX 33 46 87 47 81 48 83 49 34 50 86 51 80 52 79 53 35 55 67 56
REMARK SMILES IDX 47 57 66 58 48 59 51 60 65 61 84 62 49 63 50 64 64 66 85 67
REMARK SMILES IDX 52 68 36 69 37 70 45 71 38 72 40 73 46 74 39 75 41 76 42 77
REMARK SMILES IDX 43 78 44 79 68 80 69 81 77 82 70 83 72 84 78 85 71 86 73 87
REMARK SMILES IDX 74 88 75 89 76 90 53 91 54 92 62 93 55 94 57 95 63 96 56 97
REMARK SMILES IDX 58 98 59 99 60 100 61 101
REMARK H PARENT 20 4 9 13 24 35 83 54 51 65
REMARK Flexibility Score: inf
ROOT
ATOM      1  C   UNL A   1      30.505  26.643  24.034  1.00  0.00     0.224 C 
ATOM      2  O   UNL A   1      29.456  26.442  23.413  1.00  0.00    -0.275 OA
ATOM      3  N   UNL A   1      30.577  27.803  24.725  1.00  0.00    -0.356 N 
ATOM      4  H   UNL A   1      29.715  28.144  25.059  1.00  0.00     0.163 HD
ENDROOT
BRANCH   1   5
ATOM      5  C   UNL A   1      31.591  25.579  24.043  1.00  0.00     0.095 C 
ATOM      6  C   UNL A   1      31.113  24.181  24.376  1.00  0.00     0.095 C 
ATOM      7  C   UNL A   1      31.862  23.016  23.675  1.00  0.00     0.041 C 
ATOM      8  C   UNL A   1      33.318  23.302  23.481  1.00  0.00    -0.030 C 
ATOM      9  C   UNL A   1      32.615  25.573  22.930  1.00  0.00     0.041 C 
ATOM     10  C   UNL A   1      33.684  24.543  23.157  1.00  0.00    -0.030 C 
BRANCH   6  11
ATOM     11  C   UNL A   1      31.217  23.895  25.851  1.00  0.00     0.229 C 
ATOM     12  N   UNL A   1      31.806  22.824  26.423  1.00  0.00    -0.317 N 
ATOM     13  H   UNL A   1      31.248  22.544  27.184  1.00  0.00     0.170 HD
ATOM     14  O   UNL A   1      30.510  24.571  26.616  1.00  0.00    -0.274 OA
BRANCH  12  15
ATOM     15  C   UNL A   1      32.889  21.971  26.353  1.00  0.00     0.110 A 
ATOM     16  C   UNL A   1      33.425  20.751  25.903  1.00  0.00     0.098 A 
ATOM     17  C   UNL A   1      34.859  21.004  25.623  1.00  0.00    -0.017 A 
ATOM     18  S   UNL A   1      34.141  22.929  27.091  1.00  0.00    -0.122 S 
ATOM     19  C   UNL A   1      35.305  22.206  26.129  1.00  0.00     0.011 A 
ATOM     20  C   UNL A   1      35.748  20.183  24.724  1.00  0.00     0.038 C 
ATOM     21  C   UNL A   1      36.629  22.849  25.886  1.00  0.00     0.047 C 
ATOM     22  C   UNL A   1      37.210  20.671  24.745  1.00  0.00     0.005 C 
ATOM     23  C   UNL A   1      37.308  22.201  24.676  1.00  0.00     0.006 C 
BRANCH  16  24
ATOM     24  C   UNL A   1      32.817  19.533  25.314  1.00  0.00     0.341 C 
ATOM     25  O   UNL A   1      32.362  18.645  26.027  1.00  0.00    -0.246 OA
BRANCH  24  26
ATOM     26  O   UNL A   1      32.614  19.549  23.933  1.00  0.00    -0.462 OA
BRANCH  26  27
ATOM     27  C   UNL A   1      32.508  18.229  23.325  1.00  0.00     0.233 C 
BRANCH  27  28
ATOM     28  C   UNL A   1      33.799  17.376  23.194  1.00  0.00     0.038 C 
ATOM     29  C   UNL A   1      34.033  16.178  24.113  1.00  0.00     0.007 C 
ENDBRANCH  27  28
ENDBRANCH  26  27
ENDBRANCH  24  26
ENDBRANCH  16  24
ENDBRANCH  12  15
ENDBRANCH   6  11
ENDBRANCH   1   5
BRANCH   3  30
ATOM     30  C   UNL A   1      31.724  28.623  25.052  1.00  0.00     0.117 C 
BRANCH  30  31
ATOM     31  C   UNL A   1      32.261  28.249  26.424  1.00  0.00     0.042 C 
BRANCH  31  32
ATOM     32  C   UNL A   1      33.705  28.709  26.576  1.00  0.00     0.118 C 
BRANCH  32  33
ATOM     33  N   UNL A   1      33.769  30.158  26.761  1.00  0.00    -0.352 N 
ATOM     34  C   UNL A   1      34.587  30.874  27.601  1.00  0.00     0.251 C 
ATOM     35  H   UNL A   1      33.145  30.689  26.215  1.00  0.00     0.163 HD
ATOM     36  O   UNL A   1      34.284  32.010  27.947  1.00  0.00    -0.269 OA
BRANCH  34  37
ATOM     37  C   UNL A   1      35.836  30.244  28.063  1.00  0.00     0.039 A 
ATOM     38  C   UNL A   1      36.998  30.331  27.296  1.00  0.00     0.014 A 
ATOM     39  C   UNL A   1      35.840  29.574  29.288  1.00  0.00     0.014 A 
ATOM     40  C   UNL A   1      38.181  29.780  27.790  1.00  0.00     0.010 A 
ATOM     41  C   UNL A   1      37.037  29.150  29.832  1.00  0.00     0.010 A 
ATOM     42  C   UNL A   1      38.212  29.208  29.072  1.00  0.00    -0.014 A 
BRANCH  42  43
ATOM     43  C   UNL A   1      39.440  28.603  29.640  1.00  0.00     0.031 A 
ATOM     44  C   UNL A   1      40.056  29.214  30.873  1.00  0.00     0.074 A 
ATOM     45  C   UNL A   1      40.053  27.597  28.989  1.00  0.00     0.049 A 
ATOM     46  N   UNL A   1      41.184  28.921  31.463  1.00  0.00    -0.248 NA
ATOM     47  C   UNL A   1      39.336  30.341  31.494  1.00  0.00     0.031 C 
ATOM     48  C   UNL A   1      39.601  26.998  27.730  1.00  0.00     0.029 A 
ATOM     49  N   UNL A   1      41.208  26.919  29.282  1.00  0.00    -0.354 N 
ATOM     50  C   UNL A   1      41.334  29.859  32.477  1.00  0.00     0.074 A 
ATOM     51  C   UNL A   1      40.212  30.764  32.392  1.00  0.00     0.031 C 
ATOM     52  C   UNL A   1      40.461  26.033  27.369  1.00  0.00     0.029 A 
ATOM     53  C   UNL A   1      41.537  25.962  28.352  1.00  0.00     0.049 A 
ATOM     54  H   UNL A   1      41.749  27.100  30.084  1.00  0.00     0.167 HD
ATOM     55  C   UNL A   1      42.296  29.936  33.426  1.00  0.00     0.034 A 
ATOM     56  C   UNL A   1      42.589  25.122  28.303  1.00  0.00     0.034 A 
ATOM     57  C   UNL A   1      43.357  28.977  33.552  1.00  0.00     0.049 A 
ATOM     58  C   UNL A   1      43.591  25.162  29.425  1.00  0.00     0.074 A 
ATOM     59  C   UNL A   1      44.318  28.881  34.540  1.00  0.00     0.029 A 
ATOM     60  N   UNL A   1      43.586  27.938  32.662  1.00  0.00    -0.354 N 
ATOM     61  N   UNL A   1      43.625  25.950  30.474  1.00  0.00    -0.248 NA
ATOM     62  C   UNL A   1      44.675  24.171  29.384  1.00  0.00     0.031 C 
ATOM     63  C   UNL A   1      45.137  27.787  34.241  1.00  0.00     0.029 A 
ATOM     64  C   UNL A   1      44.673  27.192  33.077  1.00  0.00     0.049 A 
ATOM     65  H   UNL A   1      43.053  27.758  31.855  1.00  0.00     0.167 HD
ATOM     66  C   UNL A   1      44.710  25.529  31.233  1.00  0.00     0.074 A 
ATOM     67  C   UNL A   1      45.292  24.401  30.535  1.00  0.00     0.031 C 
ATOM     68  C   UNL A   1      45.194  26.038  32.393  1.00  0.00     0.034 A 
BRANCH  55  69
ATOM     69  C   UNL A   1      42.195  31.047  34.439  1.00  0.00     0.023 A 
ATOM     70  C   UNL A   1      41.540  30.811  35.666  1.00  0.00     0.012 A 
ATOM     71  C   UNL A   1      42.776  32.307  34.199  1.00  0.00     0.148 A 
ATOM     72  C   UNL A   1      41.426  31.822  36.619  1.00  0.00     0.002 A 
ATOM     73  C   UNL A   1      42.701  33.295  35.174  1.00  0.00     0.091 A 
ATOM     74  F   UNL A   1      43.374  32.523  33.019  1.00  0.00    -0.205 F 
ATOM     75  C   UNL A   1      42.016  33.059  36.378  1.00  0.00     0.022 A 
BRANCH  73  76
ATOM     76  S   UNL A   1      43.498  34.895  34.997  1.00  0.00     0.127 S 
ATOM     77  O   UNL A   1      42.750  35.476  33.884  1.00  0.00    -0.237 OA
ATOM     78  O   UNL A   1      43.234  35.515  36.296  1.00  0.00    -0.237 OA
ATOM     79  O   UNL A   1      44.902  34.618  34.732  1.00  0.00    -0.744 OA
ENDBRANCH  73  76
ENDBRANCH  55  69
BRANCH  56  80
ATOM     80  C   UNL A   1      42.688  24.113  27.211  1.00  0.00     0.023 A 
ATOM     81  C   UNL A   1      43.426  24.426  26.053  1.00  0.00     0.012 A 
ATOM     82  C   UNL A   1      42.098  22.839  27.325  1.00  0.00     0.148 A 
ATOM     83  C   UNL A   1      43.549  23.504  25.014  1.00  0.00     0.002 A 
ATOM     84  C   UNL A   1      42.270  21.905  26.309  1.00  0.00     0.091 A 
ATOM     85  F   UNL A   1      41.394  22.561  28.431  1.00  0.00    -0.205 F 
ATOM     86  C   UNL A   1      42.980  22.240  25.146  1.00  0.00     0.022 A 
BRANCH  84  87
ATOM     87  S   UNL A   1      41.688  20.210  26.450  1.00  0.00     0.127 S 
ATOM     88  O   UNL A   1      40.241  20.384  26.385  1.00  0.00    -0.237 OA
ATOM     89  O   UNL A   1      42.287  19.584  25.271  1.00  0.00    -0.237 OA
ATOM     90  O   UNL A   1      42.215  19.721  27.719  1.00  0.00    -0.744 OA
ENDBRANCH  84  87
ENDBRANCH  56  80
BRANCH  68  91
ATOM     91  C   UNL A   1      46.390  25.360  33.003  1.00  0.00     0.023 A 
ATOM     92  C   UNL A   1      47.685  25.837  32.714  1.00  0.00     0.012 A 
ATOM     93  C   UNL A   1      46.226  24.311  33.929  1.00  0.00     0.148 A 
ATOM     94  C   UNL A   1      48.800  25.257  33.315  1.00  0.00     0.002 A 
ATOM     95  C   UNL A   1      47.339  23.772  34.560  1.00  0.00     0.091 A 
ATOM     96  F   UNL A   1      44.986  23.862  34.174  1.00  0.00    -0.205 F 
ATOM     97  C   UNL A   1      48.627  24.236  34.246  1.00  0.00     0.022 A 
BRANCH  95  98
ATOM     98  S   UNL A   1      47.200  22.524  35.844  1.00  0.00     0.127 S 
ATOM     99  O   UNL A   1      48.603  22.262  36.157  1.00  0.00    -0.237 OA
ATOM    100  O   UNL A   1      46.462  23.234  36.890  1.00  0.00    -0.237 OA
ATOM    101  O   UNL A   1      46.473  21.413  35.245  1.00  0.00    -0.744 OA
ENDBRANCH  95  98
ENDBRANCH  68  91
ENDBRANCH  42  43
ENDBRANCH  34  37
ENDBRANCH  32  33
ENDBRANCH  31  32
ENDBRANCH  30  31
ENDBRANCH   3  30
TORSDOF 19
ENDMDL
