MODEL 1
REMARK VINA RESULT:     -13.3      0.000      0.000
REMARK SMILES O=C(NCCCNC(=O)[C@@H]1Nc2ccc(NC(=O)c3ccccc3)cc2[C@@H]2C=CC[C@H]12)c1ccc(-c2c3nc(c(-c4cccc(S(=O)(=O)[O-])c4F)c4ccc([nH]4)c(-c4cccc(S(=O)(=O)[O-])c4F)c4nc(c(-c5cccc(S(=O)(=O)[O-])c5F)c5ccc2[nH]5)C=C4)C=C3)cc1
REMARK SMILES IDX 4 1 3 2 1 3 2 4 32 6 33 7 94 8 34 9 93 10 35 11 36 12 37 13
REMARK SMILES IDX 87 14 38 15 92 16 86 17 88 18 39 19 91 20 85 21 84 22 40 24
REMARK SMILES IDX 72 25 52 26 71 27 53 28 56 29 70 30 89 31 54 32 55 33 69 35
REMARK SMILES IDX 90 36 57 37 41 38 42 39 50 40 43 41 45 42 51 43 44 44 46 45
REMARK SMILES IDX 47 46 48 47 49 48 73 49 74 50 82 51 75 52 77 53 83 54 76 55
REMARK SMILES IDX 78 56 79 57 80 58 81 59 58 60 59 61 67 62 60 63 62 64 68 65
REMARK SMILES IDX 61 66 63 67 64 68 65 69 66 70 5 71 6 72 7 73 8 74 9 76 10 77
REMARK SMILES IDX 11 78 31 79 12 80 27 82 30 83 13 84 26 85 28 86 29 87 14 88
REMARK SMILES IDX 25 89 15 90 16 91 17 92 18 94 19 95 20 96 24 97 21 98 23 99
REMARK SMILES IDX 22 100
REMARK H PARENT 3 5 88 23 56 34 7 75 11 81 16 93
REMARK Flexibility Score: inf
ROOT
ATOM      1  C   UNL A   1      32.865  32.634  27.096  1.00  0.00     0.118 C 
ENDROOT
BRANCH   1   2
ATOM      2  N   UNL A   1      32.608  33.954  27.655  1.00  0.00    -0.352 N 
ATOM      3  O   UNL A   1      32.623  35.564  29.226  1.00  0.00    -0.269 OA
ATOM      4  C   UNL A   1      33.144  34.548  28.773  1.00  0.00     0.251 C 
ATOM      5  H   UNL A   1      31.954  34.500  27.162  1.00  0.00     0.163 HD
BRANCH   4   6
ATOM      6  C   UNL A   1      34.326  33.948  29.430  1.00  0.00     0.039 A 
ATOM      7  C   UNL A   1      34.166  32.951  30.393  1.00  0.00     0.014 A 
ATOM      8  C   UNL A   1      35.607  34.381  29.081  1.00  0.00     0.014 A 
ATOM      9  C   UNL A   1      35.255  32.528  31.139  1.00  0.00     0.010 A 
ATOM     10  C   UNL A   1      36.720  33.850  29.740  1.00  0.00     0.010 A 
ATOM     11  C   UNL A   1      36.550  32.943  30.797  1.00  0.00    -0.014 A 
BRANCH  11  12
ATOM     12  C   UNL A   1      37.706  32.330  31.497  1.00  0.00     0.031 A 
ATOM     13  C   UNL A   1      38.142  32.799  32.856  1.00  0.00     0.074 A 
ATOM     14  C   UNL A   1      38.365  31.329  30.880  1.00  0.00     0.049 A 
ATOM     15  N   UNL A   1      39.123  32.356  33.599  1.00  0.00    -0.248 NA
ATOM     16  C   UNL A   1      37.392  33.913  33.457  1.00  0.00     0.031 C 
ATOM     17  C   UNL A   1      38.051  30.815  29.543  1.00  0.00     0.029 A 
ATOM     18  N   UNL A   1      39.425  30.562  31.286  1.00  0.00    -0.354 N 
ATOM     19  C   UNL A   1      39.144  33.165  34.729  1.00  0.00     0.074 A 
ATOM     20  C   UNL A   1      38.077  34.131  34.571  1.00  0.00     0.031 C 
ATOM     21  C   UNL A   1      38.870  29.795  29.257  1.00  0.00     0.029 A 
ATOM     22  C   UNL A   1      39.815  29.630  30.353  1.00  0.00     0.049 A 
ATOM     23  H   UNL A   1      39.865  30.667  32.161  1.00  0.00     0.167 HD
ATOM     24  C   UNL A   1      39.969  33.100  35.802  1.00  0.00     0.034 A 
ATOM     25  C   UNL A   1      40.837  28.756  30.360  1.00  0.00     0.034 A 
ATOM     26  C   UNL A   1      41.012  32.119  35.956  1.00  0.00     0.049 A 
ATOM     27  C   UNL A   1      41.731  28.705  31.561  1.00  0.00     0.074 A 
ATOM     28  C   UNL A   1      41.862  31.927  37.031  1.00  0.00     0.029 A 
ATOM     29  N   UNL A   1      41.364  31.176  35.000  1.00  0.00    -0.354 N 
ATOM     30  N   UNL A   1      41.661  29.399  32.671  1.00  0.00    -0.248 NA
ATOM     31  C   UNL A   1      42.832  27.735  31.523  1.00  0.00     0.031 C 
ATOM     32  C   UNL A   1      42.751  30.895  36.710  1.00  0.00     0.029 A 
ATOM     33  C   UNL A   1      42.429  30.413  35.451  1.00  0.00     0.049 A 
ATOM     34  H   UNL A   1      40.921  31.066  34.127  1.00  0.00     0.167 HD
ATOM     35  C   UNL A   1      42.689  28.930  33.478  1.00  0.00     0.074 A 
ATOM     36  C   UNL A   1      43.352  27.877  32.736  1.00  0.00     0.031 C 
ATOM     37  C   UNL A   1      43.055  29.341  34.717  1.00  0.00     0.034 A 
BRANCH  24  38
ATOM     38  C   UNL A   1      39.773  34.117  36.899  1.00  0.00     0.023 A 
ATOM     39  C   UNL A   1      40.111  35.467  36.677  1.00  0.00     0.012 A 
ATOM     40  C   UNL A   1      39.214  33.742  38.138  1.00  0.00     0.148 A 
ATOM     41  C   UNL A   1      39.939  36.419  37.683  1.00  0.00     0.002 A 
ATOM     42  C   UNL A   1      39.003  34.705  39.118  1.00  0.00     0.091 A 
ATOM     43  F   UNL A   1      38.917  32.451  38.342  1.00  0.00    -0.205 F 
ATOM     44  C   UNL A   1      39.378  36.039  38.899  1.00  0.00     0.022 A 
BRANCH  42  45
ATOM     45  S   UNL A   1      38.210  34.329  40.687  1.00  0.00     0.127 S 
ATOM     46  O   UNL A   1      37.056  33.541  40.253  1.00  0.00    -0.237 OA
ATOM     47  O   UNL A   1      39.245  33.562  41.380  1.00  0.00    -0.237 OA
ATOM     48  O   UNL A   1      37.899  35.615  41.296  1.00  0.00    -0.744 OA
ENDBRANCH  42  45
ENDBRANCH  24  38
BRANCH  25  49
ATOM     49  C   UNL A   1      41.027  27.838  29.203  1.00  0.00     0.023 A 
ATOM     50  C   UNL A   1      40.330  26.615  29.169  1.00  0.00     0.012 A 
ATOM     51  C   UNL A   1      41.841  28.199  28.112  1.00  0.00     0.148 A 
ATOM     52  C   UNL A   1      40.459  25.758  28.076  1.00  0.00     0.002 A 
ATOM     53  C   UNL A   1      41.918  27.369  27.002  1.00  0.00     0.091 A 
ATOM     54  F   UNL A   1      42.498  29.367  28.170  1.00  0.00    -0.205 F 
ATOM     55  C   UNL A   1      41.241  26.140  26.989  1.00  0.00     0.022 A 
BRANCH  53  56
ATOM     56  S   UNL A   1      42.785  27.840  25.502  1.00  0.00     0.127 S 
ATOM     57  O   UNL A   1      42.651  26.634  24.690  1.00  0.00    -0.237 OA
ATOM     58  O   UNL A   1      41.992  28.983  25.044  1.00  0.00    -0.237 OA
ATOM     59  O   UNL A   1      44.140  28.174  25.916  1.00  0.00    -0.744 OA
ENDBRANCH  53  56
ENDBRANCH  25  49
BRANCH  37  60
ATOM     60  C   UNL A   1      44.205  28.621  35.370  1.00  0.00     0.023 A 
ATOM     61  C   UNL A   1      45.530  29.018  35.103  1.00  0.00     0.012 A 
ATOM     62  C   UNL A   1      43.965  27.587  36.296  1.00  0.00     0.148 A 
ATOM     63  C   UNL A   1      46.601  28.371  35.720  1.00  0.00     0.002 A 
ATOM     64  C   UNL A   1      45.034  26.984  36.947  1.00  0.00     0.091 A 
ATOM     65  F   UNL A   1      42.697  27.210  36.521  1.00  0.00    -0.205 F 
ATOM     66  C   UNL A   1      46.352  27.364  36.649  1.00  0.00     0.022 A 
BRANCH  64  67
ATOM     67  S   UNL A   1      44.805  25.749  38.231  1.00  0.00     0.127 S 
ATOM     68  O   UNL A   1      46.186  25.450  38.606  1.00  0.00    -0.237 OA
ATOM     69  O   UNL A   1      44.044  26.489  39.240  1.00  0.00    -0.237 OA
ATOM     70  O   UNL A   1      44.075  24.653  37.609  1.00  0.00    -0.744 OA
ENDBRANCH  64  67
ENDBRANCH  37  60
ENDBRANCH  11  12
ENDBRANCH   4   6
ENDBRANCH   1   2
BRANCH   1  71
ATOM     71  C   UNL A   1      31.584  31.912  26.738  1.00  0.00     0.042 C 
BRANCH  71  72
ATOM     72  C   UNL A   1      31.811  30.444  26.424  1.00  0.00     0.117 C 
BRANCH  72  73
ATOM     73  N   UNL A   1      31.802  30.197  24.986  1.00  0.00    -0.354 N 
ATOM     74  C   UNL A   1      32.183  29.107  24.254  1.00  0.00     0.242 C 
ATOM     75  H   UNL A   1      31.462  30.948  24.447  1.00  0.00     0.163 HD
ATOM     76  O   UNL A   1      32.187  29.222  23.024  1.00  0.00    -0.273 OA
BRANCH  74  77
ATOM     77  C   UNL A   1      32.582  27.772  24.918  1.00  0.00     0.173 C 
ATOM     78  N   UNL A   1      33.369  26.969  24.002  1.00  0.00    -0.373 N 
ATOM     79  C   UNL A   1      31.414  27.019  25.542  1.00  0.00     0.036 C 
ATOM     80  C   UNL A   1      33.385  25.599  24.042  1.00  0.00     0.039 A 
ATOM     81  H   UNL A   1      33.915  27.427  23.322  1.00  0.00     0.161 HD
ATOM     82  C   UNL A   1      31.786  25.585  25.991  1.00  0.00     0.050 C 
ATOM     83  C   UNL A   1      30.145  26.844  24.698  1.00  0.00     0.034 C 
ATOM     84  C   UNL A   1      34.014  24.916  23.006  1.00  0.00     0.028 A 
ATOM     85  C   UNL A   1      32.706  24.869  25.020  1.00  0.00    -0.015 A 
ATOM     86  C   UNL A   1      30.407  24.964  26.053  1.00  0.00    -0.023 C 
ATOM     87  C   UNL A   1      29.508  25.662  25.349  1.00  0.00    -0.030 C 
ATOM     88  C   UNL A   1      34.116  23.533  23.028  1.00  0.00     0.028 A 
ATOM     89  C   UNL A   1      32.919  23.478  25.098  1.00  0.00     0.032 A 
ATOM     90  C   UNL A   1      33.697  22.816  24.140  1.00  0.00     0.041 A 
BRANCH  90  91
ATOM     91  N   UNL A   1      34.023  21.465  24.366  1.00  0.00    -0.322 N 
ATOM     92  C   UNL A   1      35.167  20.867  24.860  1.00  0.00     0.255 C 
ATOM     93  H   UNL A   1      33.306  20.832  24.130  1.00  0.00     0.170 HD
ATOM     94  O   UNL A   1      35.261  19.640  24.884  1.00  0.00    -0.269 OA
BRANCH  92  95
ATOM     95  C   UNL A   1      36.290  21.663  25.399  1.00  0.00     0.040 A 
ATOM     96  C   UNL A   1      37.579  21.127  25.320  1.00  0.00     0.014 A 
ATOM     97  C   UNL A   1      36.089  22.953  25.912  1.00  0.00     0.014 A 
ATOM     98  C   UNL A   1      38.676  21.914  25.670  1.00  0.00     0.001 A 
ATOM     99  C   UNL A   1      37.194  23.741  26.246  1.00  0.00     0.001 A 
ATOM    100  C   UNL A   1      38.484  23.225  26.112  1.00  0.00     0.000 A 
ENDBRANCH  92  95
ENDBRANCH  90  91
ENDBRANCH  74  77
ENDBRANCH  72  73
ENDBRANCH  71  72
ENDBRANCH   1  71
TORSDOF 15
ENDMDL
MODEL 2
REMARK VINA RESULT:     -13.2      5.585     11.691
REMARK SMILES O=C(NCCCNC(=O)[C@@H]1Nc2ccc(NC(=O)c3ccccc3)cc2[C@@H]2C=CC[C@H]12)c1ccc(-c2c3nc(c(-c4cccc(S(=O)(=O)[O-])c4F)c4ccc([nH]4)c(-c4cccc(S(=O)(=O)[O-])c4F)c4nc(c(-c5cccc(S(=O)(=O)[O-])c5F)c5ccc2[nH]5)C=C4)C=C3)cc1
REMARK SMILES IDX 4 1 3 2 1 3 2 4 32 6 33 7 94 8 34 9 93 10 35 11 36 12 37 13
REMARK SMILES IDX 87 14 38 15 92 16 86 17 88 18 39 19 91 20 85 21 84 22 40 24
REMARK SMILES IDX 72 25 52 26 71 27 53 28 56 29 70 30 89 31 54 32 55 33 69 35
REMARK SMILES IDX 90 36 57 37 41 38 42 39 50 40 43 41 45 42 51 43 44 44 46 45
REMARK SMILES IDX 47 46 48 47 49 48 73 49 74 50 82 51 75 52 77 53 83 54 76 55
REMARK SMILES IDX 78 56 79 57 80 58 81 59 58 60 59 61 67 62 60 63 62 64 68 65
REMARK SMILES IDX 61 66 63 67 64 68 65 69 66 70 5 71 6 72 7 73 8 74 9 76 10 77
REMARK SMILES IDX 11 78 31 79 12 80 27 82 30 83 13 84 26 85 28 86 29 87 14 88
REMARK SMILES IDX 25 89 15 90 16 91 17 92 18 94 19 95 20 96 24 97 21 98 23 99
REMARK SMILES IDX 22 100
REMARK H PARENT 3 5 88 23 56 34 7 75 11 81 16 93
REMARK Flexibility Score: inf
ROOT
ATOM      1  C   UNL A   1      40.846  21.345  27.257  1.00  0.00     0.118 C 
ENDROOT
BRANCH   1   2
ATOM      2  N   UNL A   1      39.602  21.539  26.524  1.00  0.00    -0.352 N 
ATOM      3  O   UNL A   1      37.686  22.571  25.957  1.00  0.00    -0.269 OA
ATOM      4  C   UNL A   1      38.825  22.667  26.410  1.00  0.00     0.251 C 
ATOM      5  H   UNL A   1      39.270  20.748  26.042  1.00  0.00     0.163 HD
BRANCH   4   6
ATOM      6  C   UNL A   1      39.355  23.975  26.851  1.00  0.00     0.039 A 
ATOM      7  C   UNL A   1      39.272  24.353  28.192  1.00  0.00     0.014 A 
ATOM      8  C   UNL A   1      39.943  24.834  25.920  1.00  0.00     0.014 A 
ATOM      9  C   UNL A   1      39.594  25.647  28.568  1.00  0.00     0.010 A 
ATOM     10  C   UNL A   1      40.397  26.091  26.330  1.00  0.00     0.010 A 
ATOM     11  C   UNL A   1      40.196  26.520  27.651  1.00  0.00    -0.014 A 
BRANCH  11  12
ATOM     12  C   UNL A   1      40.694  27.832  28.133  1.00  0.00     0.031 A 
ATOM     13  C   UNL A   1      42.154  28.183  28.094  1.00  0.00     0.074 A 
ATOM     14  C   UNL A   1      39.796  28.716  28.613  1.00  0.00     0.049 A 
ATOM     15  N   UNL A   1      42.741  29.291  28.466  1.00  0.00    -0.248 NA
ATOM     16  C   UNL A   1      43.079  27.159  27.581  1.00  0.00     0.031 C 
ATOM     17  C   UNL A   1      38.355  28.470  28.731  1.00  0.00     0.029 A 
ATOM     18  N   UNL A   1      39.951  29.993  29.085  1.00  0.00    -0.354 N 
ATOM     19  C   UNL A   1      44.103  29.084  28.285  1.00  0.00     0.074 A 
ATOM     20  C   UNL A   1      44.256  27.740  27.771  1.00  0.00     0.031 C 
ATOM     21  C   UNL A   1      37.755  29.569  29.202  1.00  0.00     0.029 A 
ATOM     22  C   UNL A   1      38.772  30.572  29.491  1.00  0.00     0.049 A 
ATOM     23  H   UNL A   1      40.821  30.452  29.128  1.00  0.00     0.167 HD
ATOM     24  C   UNL A   1      45.128  29.940  28.516  1.00  0.00     0.034 A 
ATOM     25  C   UNL A   1      38.531  31.767  30.060  1.00  0.00     0.034 A 
ATOM     26  C   UNL A   1      44.958  31.284  29.006  1.00  0.00     0.049 A 
ATOM     27  C   UNL A   1      39.684  32.694  30.301  1.00  0.00     0.074 A 
ATOM     28  C   UNL A   1      45.924  32.252  29.214  1.00  0.00     0.029 A 
ATOM     29  N   UNL A   1      43.747  31.844  29.386  1.00  0.00    -0.354 N 
ATOM     30  N   UNL A   1      40.951  32.525  30.012  1.00  0.00    -0.248 NA
ATOM     31  C   UNL A   1      39.372  33.985  30.924  1.00  0.00     0.031 C 
ATOM     32  C   UNL A   1      45.302  33.384  29.754  1.00  0.00     0.029 A 
ATOM     33  C   UNL A   1      43.942  33.137  29.844  1.00  0.00     0.049 A 
ATOM     34  H   UNL A   1      42.875  31.389  29.338  1.00  0.00     0.167 HD
ATOM     35  C   UNL A   1      41.586  33.700  30.389  1.00  0.00     0.074 A 
ATOM     36  C   UNL A   1      40.558  34.580  30.907  1.00  0.00     0.031 C 
ATOM     37  C   UNL A   1      42.903  34.017  30.321  1.00  0.00     0.034 A 
BRANCH  24  38
ATOM     38  C   UNL A   1      46.526  29.451  28.233  1.00  0.00     0.023 A 
ATOM     39  C   UNL A   1      47.077  29.599  26.943  1.00  0.00     0.012 A 
ATOM     40  C   UNL A   1      47.312  28.881  29.255  1.00  0.00     0.148 A 
ATOM     41  C   UNL A   1      48.368  29.148  26.664  1.00  0.00     0.002 A 
ATOM     42  C   UNL A   1      48.614  28.477  28.980  1.00  0.00     0.091 A 
ATOM     43  F   UNL A   1      46.768  28.729  30.470  1.00  0.00    -0.205 F 
ATOM     44  C   UNL A   1      49.138  28.595  27.684  1.00  0.00     0.022 A 
BRANCH  42  45
ATOM     45  S   UNL A   1      49.712  27.830  30.247  1.00  0.00     0.127 S 
ATOM     46  O   UNL A   1      50.925  27.558  29.475  1.00  0.00    -0.237 OA
ATOM     47  O   UNL A   1      49.818  28.959  31.171  1.00  0.00    -0.237 OA
ATOM     48  O   UNL A   1      49.042  26.659  30.797  1.00  0.00    -0.744 OA
ENDBRANCH  42  45
ENDBRANCH  24  38
BRANCH  25  49
ATOM     49  C   UNL A   1      37.133  32.153  30.395  1.00  0.00     0.023 A 
ATOM     50  C   UNL A   1      36.654  31.952  31.703  1.00  0.00     0.012 A 
ATOM     51  C   UNL A   1      36.301  32.776  29.444  1.00  0.00     0.148 A 
ATOM     52  C   UNL A   1      35.363  32.345  32.053  1.00  0.00     0.002 A 
ATOM     53  C   UNL A   1      35.039  33.219  29.815  1.00  0.00     0.091 A 
ATOM     54  F   UNL A   1      36.778  32.954  28.204  1.00  0.00    -0.205 F 
ATOM     55  C   UNL A   1      34.560  32.989  31.114  1.00  0.00     0.022 A 
BRANCH  53  56
ATOM     56  S   UNL A   1      33.991  34.180  28.718  1.00  0.00     0.127 S 
ATOM     57  O   UNL A   1      34.889  35.261  28.321  1.00  0.00    -0.237 OA
ATOM     58  O   UNL A   1      33.690  33.209  27.664  1.00  0.00    -0.237 OA
ATOM     59  O   UNL A   1      32.840  34.578  29.517  1.00  0.00    -0.744 OA
ENDBRANCH  53  56
ENDBRANCH  25  49
BRANCH  37  60
ATOM     60  C   UNL A   1      43.306  35.392  30.782  1.00  0.00     0.023 A 
ATOM     61  C   UNL A   1      43.693  35.604  32.120  1.00  0.00     0.012 A 
ATOM     62  C   UNL A   1      43.355  36.464  29.869  1.00  0.00     0.148 A 
ATOM     63  C   UNL A   1      44.087  36.871  32.551  1.00  0.00     0.002 A 
ATOM     64  C   UNL A   1      43.801  37.710  30.293  1.00  0.00     0.091 A 
ATOM     65  F   UNL A   1      42.962  36.246  28.605  1.00  0.00    -0.205 F 
ATOM     66  C   UNL A   1      44.153  37.918  31.636  1.00  0.00     0.022 A 
BRANCH  64  67
ATOM     67  S   UNL A   1      44.013  39.090  29.163  1.00  0.00     0.127 S 
ATOM     68  O   UNL A   1      42.635  39.350  28.749  1.00  0.00    -0.237 OA
ATOM     69  O   UNL A   1      44.593  40.115  30.033  1.00  0.00    -0.237 OA
ATOM     70  O   UNL A   1      44.902  38.617  28.112  1.00  0.00    -0.744 OA
ENDBRANCH  64  67
ENDBRANCH  37  60
ENDBRANCH  11  12
ENDBRANCH   4   6
ENDBRANCH   1   2
BRANCH   1  71
ATOM     71  C   UNL A   1      41.383  19.938  27.096  1.00  0.00     0.042 C 
BRANCH  71  72
ATOM     72  C   UNL A   1      42.767  19.911  26.472  1.00  0.00     0.117 C 
BRANCH  72  73
ATOM     73  N   UNL A   1      42.879  20.868  25.377  1.00  0.00    -0.354 N 
ATOM     74  C   UNL A   1      43.607  22.020  25.254  1.00  0.00     0.242 C 
ATOM     75  H   UNL A   1      42.334  20.647  24.587  1.00  0.00     0.163 HD
ATOM     76  O   UNL A   1      43.409  22.711  24.249  1.00  0.00    -0.273 OA
BRANCH  74  77
ATOM     77  C   UNL A   1      44.648  22.447  26.310  1.00  0.00     0.173 C 
ATOM     78  N   UNL A   1      43.999  22.704  27.582  1.00  0.00    -0.373 N 
ATOM     79  C   UNL A   1      45.563  23.576  25.853  1.00  0.00     0.036 C 
ATOM     80  C   UNL A   1      44.490  23.597  28.499  1.00  0.00     0.039 A 
ATOM     81  H   UNL A   1      43.170  22.216  27.796  1.00  0.00     0.161 HD
ATOM     82  C   UNL A   1      46.437  24.150  26.995  1.00  0.00     0.050 C 
ATOM     83  C   UNL A   1      44.913  24.805  25.206  1.00  0.00     0.034 C 
ATOM     84  C   UNL A   1      43.700  23.915  29.598  1.00  0.00     0.028 A 
ATOM     85  C   UNL A   1      45.699  24.272  28.315  1.00  0.00    -0.015 A 
ATOM     86  C   UNL A   1      46.794  25.495  26.400  1.00  0.00    -0.023 C 
ATOM     87  C   UNL A   1      45.961  25.847  25.414  1.00  0.00    -0.030 C 
ATOM     88  C   UNL A   1      44.172  24.763  30.589  1.00  0.00     0.028 A 
ATOM     89  C   UNL A   1      46.219  25.033  29.381  1.00  0.00     0.032 A 
ATOM     90  C   UNL A   1      45.485  25.213  30.560  1.00  0.00     0.041 A 
BRANCH  90  91
ATOM     91  N   UNL A   1      46.124  25.827  31.654  1.00  0.00    -0.322 N 
ATOM     92  C   UNL A   1      45.678  26.759  32.573  1.00  0.00     0.255 C 
ATOM     93  H   UNL A   1      47.057  25.542  31.788  1.00  0.00     0.170 HD
ATOM     94  O   UNL A   1      46.456  27.228  33.403  1.00  0.00    -0.269 OA
BRANCH  92  95
ATOM     95  C   UNL A   1      44.266  27.194  32.616  1.00  0.00     0.040 A 
ATOM     96  C   UNL A   1      43.453  26.699  33.639  1.00  0.00     0.014 A 
ATOM     97  C   UNL A   1      43.764  28.134  31.704  1.00  0.00     0.014 A 
ATOM     98  C   UNL A   1      42.165  27.211  33.805  1.00  0.00     0.001 A 
ATOM     99  C   UNL A   1      42.480  28.653  31.886  1.00  0.00     0.001 A 
ATOM    100  C   UNL A   1      41.689  28.200  32.943  1.00  0.00     0.000 A 
ENDBRANCH  92  95
ENDBRANCH  90  91
ENDBRANCH  74  77
ENDBRANCH  72  73
ENDBRANCH  71  72
ENDBRANCH   1  71
TORSDOF 15
ENDMDL
MODEL 3
REMARK VINA RESULT:     -13.2      5.369     11.600
REMARK SMILES O=C(NCCCNC(=O)[C@@H]1Nc2ccc(NC(=O)c3ccccc3)cc2[C@@H]2C=CC[C@H]12)c1ccc(-c2c3nc(c(-c4cccc(S(=O)(=O)[O-])c4F)c4ccc([nH]4)c(-c4cccc(S(=O)(=O)[O-])c4F)c4nc(c(-c5cccc(S(=O)(=O)[O-])c5F)c5ccc2[nH]5)C=C4)C=C3)cc1
REMARK SMILES IDX 4 1 3 2 1 3 2 4 32 6 33 7 94 8 34 9 93 10 35 11 36 12 37 13
REMARK SMILES IDX 87 14 38 15 92 16 86 17 88 18 39 19 91 20 85 21 84 22 40 24
REMARK SMILES IDX 72 25 52 26 71 27 53 28 56 29 70 30 89 31 54 32 55 33 69 35
REMARK SMILES IDX 90 36 57 37 41 38 42 39 50 40 43 41 45 42 51 43 44 44 46 45
REMARK SMILES IDX 47 46 48 47 49 48 73 49 74 50 82 51 75 52 77 53 83 54 76 55
REMARK SMILES IDX 78 56 79 57 80 58 81 59 58 60 59 61 67 62 60 63 62 64 68 65
REMARK SMILES IDX 61 66 63 67 64 68 65 69 66 70 5 71 6 72 7 73 8 74 9 76 10 77
REMARK SMILES IDX 11 78 31 79 12 80 27 82 30 83 13 84 26 85 28 86 29 87 14 88
REMARK SMILES IDX 25 89 15 90 16 91 17 92 18 94 19 95 20 96 24 97 21 98 23 99
REMARK SMILES IDX 22 100
REMARK H PARENT 3 5 88 23 56 34 7 75 11 81 16 93
REMARK Flexibility Score: inf
ROOT
ATOM      1  C   UNL A   1      39.248  20.332  25.885  1.00  0.00     0.118 C 
ENDROOT
BRANCH   1   2
ATOM      2  N   UNL A   1      40.339  19.373  25.986  1.00  0.00    -0.352 N 
ATOM      3  O   UNL A   1      42.471  18.662  25.898  1.00  0.00    -0.269 OA
ATOM      4  C   UNL A   1      41.692  19.597  26.071  1.00  0.00     0.251 C 
ATOM      5  H   UNL A   1      40.067  18.427  25.994  1.00  0.00     0.163 HD
BRANCH   4   6
ATOM      6  C   UNL A   1      42.198  20.959  26.346  1.00  0.00     0.039 A 
ATOM      7  C   UNL A   1      42.500  21.349  27.652  1.00  0.00     0.014 A 
ATOM      8  C   UNL A   1      42.378  21.858  25.292  1.00  0.00     0.014 A 
ATOM      9  C   UNL A   1      42.790  22.675  27.929  1.00  0.00     0.010 A 
ATOM     10  C   UNL A   1      42.808  23.161  25.560  1.00  0.00     0.010 A 
ATOM     11  C   UNL A   1      42.985  23.589  26.884  1.00  0.00    -0.014 A 
BRANCH  11  12
ATOM     12  C   UNL A   1      43.474  24.952  27.208  1.00  0.00     0.031 A 
ATOM     13  C   UNL A   1      44.913  25.337  27.023  1.00  0.00     0.074 A 
ATOM     14  C   UNL A   1      42.585  25.851  27.678  1.00  0.00     0.049 A 
ATOM     15  N   UNL A   1      45.488  26.490  27.249  1.00  0.00    -0.248 NA
ATOM     16  C   UNL A   1      45.831  24.298  26.531  1.00  0.00     0.031 C 
ATOM     17  C   UNL A   1      41.167  25.577  27.932  1.00  0.00     0.029 A 
ATOM     18  N   UNL A   1      42.732  27.169  28.023  1.00  0.00    -0.354 N 
ATOM     19  C   UNL A   1      46.839  26.306  26.979  1.00  0.00     0.074 A 
ATOM     20  C   UNL A   1      46.998  24.925  26.574  1.00  0.00     0.031 C 
ATOM     21  C   UNL A   1      40.567  26.698  28.351  1.00  0.00     0.029 A 
ATOM     22  C   UNL A   1      41.568  27.750  28.469  1.00  0.00     0.049 A 
ATOM     23  H   UNL A   1      43.586  27.653  27.956  1.00  0.00     0.167 HD
ATOM     24  C   UNL A   1      47.848  27.207  27.051  1.00  0.00     0.034 A 
ATOM     25  C   UNL A   1      41.331  28.984  28.948  1.00  0.00     0.034 A 
ATOM     26  C   UNL A   1      47.671  28.584  27.434  1.00  0.00     0.049 A 
ATOM     27  C   UNL A   1      42.466  29.960  29.014  1.00  0.00     0.074 A 
ATOM     28  C   UNL A   1      48.616  29.593  27.478  1.00  0.00     0.029 A 
ATOM     29  N   UNL A   1      46.474  29.143  27.858  1.00  0.00    -0.354 N 
ATOM     30  N   UNL A   1      43.713  29.800  28.642  1.00  0.00    -0.248 NA
ATOM     31  C   UNL A   1      42.159  31.294  29.544  1.00  0.00     0.031 C 
ATOM     32  C   UNL A   1      47.999  30.752  27.965  1.00  0.00     0.029 A 
ATOM     33  C   UNL A   1      46.659  30.477  28.184  1.00  0.00     0.049 A 
ATOM     34  H   UNL A   1      45.617  28.661  27.919  1.00  0.00     0.167 HD
ATOM     35  C   UNL A   1      44.334  31.021  28.863  1.00  0.00     0.074 A 
ATOM     36  C   UNL A   1      43.319  31.916  29.382  1.00  0.00     0.031 C 
ATOM     37  C   UNL A   1      45.630  31.367  28.663  1.00  0.00     0.034 A 
BRANCH  24  38
ATOM     38  C   UNL A   1      49.237  26.732  26.702  1.00  0.00     0.023 A 
ATOM     39  C   UNL A   1      49.927  25.868  27.577  1.00  0.00     0.012 A 
ATOM     40  C   UNL A   1      49.844  27.109  25.487  1.00  0.00     0.148 A 
ATOM     41  C   UNL A   1      51.214  25.423  27.271  1.00  0.00     0.002 A 
ATOM     42  C   UNL A   1      51.107  26.624  25.168  1.00  0.00     0.091 A 
ATOM     43  F   UNL A   1      49.185  27.947  24.675  1.00  0.00    -0.205 F 
ATOM     44  C   UNL A   1      51.800  25.795  26.064  1.00  0.00     0.022 A 
BRANCH  42  45
ATOM     45  S   UNL A   1      51.911  26.979  23.600  1.00  0.00     0.127 S 
ATOM     46  O   UNL A   1      52.327  28.369  23.789  1.00  0.00    -0.237 OA
ATOM     47  O   UNL A   1      53.009  26.012  23.589  1.00  0.00    -0.237 OA
ATOM     48  O   UNL A   1      50.901  26.760  22.574  1.00  0.00    -0.744 OA
ENDBRANCH  42  45
ENDBRANCH  24  38
BRANCH  25  49
ATOM     49  C   UNL A   1      39.950  29.361  29.358  1.00  0.00     0.023 A 
ATOM     50  C   UNL A   1      38.990  29.649  28.370  1.00  0.00     0.012 A 
ATOM     51  C   UNL A   1      39.569  29.371  30.715  1.00  0.00     0.148 A 
ATOM     52  C   UNL A   1      37.679  29.963  28.728  1.00  0.00     0.002 A 
ATOM     53  C   UNL A   1      38.249  29.625  31.060  1.00  0.00     0.091 A 
ATOM     54  F   UNL A   1      40.503  29.096  31.637  1.00  0.00    -0.205 F 
ATOM     55  C   UNL A   1      37.305  29.939  30.070  1.00  0.00     0.022 A 
BRANCH  53  56
ATOM     56  S   UNL A   1      37.646  29.479  32.745  1.00  0.00     0.127 S 
ATOM     57  O   UNL A   1      36.311  30.060  32.635  1.00  0.00    -0.237 OA
ATOM     58  O   UNL A   1      37.673  28.029  32.948  1.00  0.00    -0.237 OA
ATOM     59  O   UNL A   1      38.590  30.220  33.570  1.00  0.00    -0.744 OA
ENDBRANCH  53  56
ENDBRANCH  25  49
BRANCH  37  60
ATOM     60  C   UNL A   1      46.019  32.789  28.968  1.00  0.00     0.023 A 
ATOM     61  C   UNL A   1      46.567  33.118  30.223  1.00  0.00     0.012 A 
ATOM     62  C   UNL A   1      45.895  33.789  27.983  1.00  0.00     0.148 A 
ATOM     63  C   UNL A   1      46.949  34.429  30.507  1.00  0.00     0.002 A 
ATOM     64  C   UNL A   1      46.328  35.080  28.255  1.00  0.00     0.091 A 
ATOM     65  F   UNL A   1      45.351  33.460  26.802  1.00  0.00    -0.205 F 
ATOM     66  C   UNL A   1      46.842  35.405  29.520  1.00  0.00     0.022 A 
BRANCH  64  67
ATOM     67  S   UNL A   1      46.320  36.378  27.013  1.00  0.00     0.127 S 
ATOM     68  O   UNL A   1      44.888  36.620  26.844  1.00  0.00    -0.237 OA
ATOM     69  O   UNL A   1      47.047  37.455  27.687  1.00  0.00    -0.237 OA
ATOM     70  O   UNL A   1      47.001  35.826  25.849  1.00  0.00    -0.744 OA
ENDBRANCH  64  67
ENDBRANCH  37  60
ENDBRANCH  11  12
ENDBRANCH   4   6
ENDBRANCH   1   2
BRANCH   1  71
ATOM     71  C   UNL A   1      38.127  19.824  25.004  1.00  0.00     0.042 C 
BRANCH  71  72
ATOM     72  C   UNL A   1      37.041  20.862  24.785  1.00  0.00     0.117 C 
BRANCH  72  73
ATOM     73  N   UNL A   1      35.893  20.627  25.653  1.00  0.00    -0.354 N 
ATOM     74  C   UNL A   1      34.846  21.433  26.006  1.00  0.00     0.242 C 
ATOM     75  H   UNL A   1      35.867  19.729  26.057  1.00  0.00     0.163 HD
ATOM     76  O   UNL A   1      34.072  21.012  26.872  1.00  0.00    -0.273 OA
BRANCH  74  77
ATOM     77  C   UNL A   1      34.616  22.811  25.349  1.00  0.00     0.173 C 
ATOM     78  N   UNL A   1      33.724  23.615  26.165  1.00  0.00    -0.373 N 
ATOM     79  C   UNL A   1      34.202  22.736  23.885  1.00  0.00     0.036 C 
ATOM     80  C   UNL A   1      32.903  24.578  25.638  1.00  0.00     0.039 A 
ATOM     81  H   UNL A   1      33.708  23.462  27.137  1.00  0.00     0.161 HD
ATOM     82  C   UNL A   1      33.749  24.101  23.311  1.00  0.00     0.050 C 
ATOM     83  C   UNL A   1      33.077  21.764  23.509  1.00  0.00     0.034 C 
ATOM     84  C   UNL A   1      31.951  25.158  26.469  1.00  0.00     0.028 A 
ATOM     85  C   UNL A   1      32.917  24.917  24.283  1.00  0.00    -0.015 A 
ATOM     86  C   UNL A   1      32.951  23.629  22.115  1.00  0.00    -0.023 C 
ATOM     87  C   UNL A   1      32.591  22.344  22.223  1.00  0.00    -0.030 C 
ATOM     88  C   UNL A   1      31.137  26.182  26.007  1.00  0.00     0.028 A 
ATOM     89  C   UNL A   1      32.174  26.036  23.857  1.00  0.00     0.032 A 
ATOM     90  C   UNL A   1      31.340  26.725  24.745  1.00  0.00     0.041 A 
BRANCH  90  91
ATOM     91  N   UNL A   1      30.764  27.935  24.314  1.00  0.00    -0.322 N 
ATOM     92  C   UNL A   1      31.044  29.250  24.636  1.00  0.00     0.255 C 
ATOM     93  H   UNL A   1      30.030  27.825  23.668  1.00  0.00     0.170 HD
ATOM     94  O   UNL A   1      30.337  30.157  24.198  1.00  0.00    -0.269 OA
BRANCH  92  95
ATOM     95  C   UNL A   1      32.203  29.615  25.478  1.00  0.00     0.040 A 
ATOM     96  C   UNL A   1      32.018  30.575  26.477  1.00  0.00     0.014 A 
ATOM     97  C   UNL A   1      33.440  28.969  25.336  1.00  0.00     0.014 A 
ATOM     98  C   UNL A   1      33.043  30.825  27.391  1.00  0.00     0.001 A 
ATOM     99  C   UNL A   1      34.455  29.213  26.264  1.00  0.00     0.001 A 
ATOM    100  C   UNL A   1      34.250  30.131  27.296  1.00  0.00     0.000 A 
ENDBRANCH  92  95
ENDBRANCH  90  91
ENDBRANCH  74  77
ENDBRANCH  72  73
ENDBRANCH  71  72
ENDBRANCH   1  71
TORSDOF 15
ENDMDL
