MODEL 1
REMARK VINA RESULT:     -13.3      0.000      0.000
REMARK SMILES O=C(NCCCNC(=O)c1ccccc1C(=O)Nc1ccc(N2C(=O)[C@H]3[C@@H]4CC[C@@H](C4)[C@@H]3C2=O)cc1)c1ccc(-c2c3nc(c(-c4cccc(S(=O)(=O)[O-])c4F)c4ccc([nH]4)c(-c4cccc(S(=O)(=O)[O-])c4F)c4nc(c(-c5cccc(S(=O)(=O)[O-])c5F)c5ccc2[nH]5)C=C4)C=C3)cc1
REMARK SMILES IDX 5 1 4 2 3 3 1 4 2 5 37 7 38 8 99 9 39 10 98 11 40 12 41 13
REMARK SMILES IDX 42 14 92 15 43 16 97 17 91 18 93 19 44 20 96 21 90 22 89 23
REMARK SMILES IDX 45 25 77 26 57 27 76 28 58 29 61 30 75 31 94 32 59 33 60 34
REMARK SMILES IDX 74 36 95 37 62 38 46 39 47 40 55 41 48 42 50 43 56 44 49 45
REMARK SMILES IDX 51 46 52 47 53 48 54 49 78 50 79 51 87 52 80 53 82 54 88 55
REMARK SMILES IDX 81 56 83 57 84 58 85 59 86 60 63 61 64 62 72 63 65 64 67 65
REMARK SMILES IDX 73 66 66 67 68 68 69 69 70 70 71 71 6 72 7 73 8 74 9 76
REMARK SMILES IDX 10 77 11 78 15 79 12 80 14 81 13 82 16 83 17 84 18 85 19 87
REMARK SMILES IDX 20 88 36 89 21 90 35 91 22 92 23 93 24 94 33 95 25 96 26 97
REMARK SMILES IDX 32 98 34 99 27 100 30 101 28 102 31 103 29 104
REMARK H PARENT 3 6 93 24 61 35 7 75 18 86
REMARK Flexibility Score: inf
ROOT
ATOM      1  C   UNL A   1      33.794  27.047  25.307  1.00  0.00     0.042 C 
ENDROOT
BRANCH   1   2
ATOM      2  C   UNL A   1      34.488  27.858  26.394  1.00  0.00     0.118 C 
BRANCH   2   3
ATOM      3  N   UNL A   1      33.853  29.141  26.674  1.00  0.00    -0.352 N 
ATOM      4  O   UNL A   1      33.675  31.219  27.552  1.00  0.00    -0.269 OA
ATOM      5  C   UNL A   1      34.350  30.208  27.392  1.00  0.00     0.251 C 
ATOM      6  H   UNL A   1      32.950  29.263  26.299  1.00  0.00     0.163 HD
BRANCH   5   7
ATOM      7  C   UNL A   1      35.676  30.071  28.024  1.00  0.00     0.039 A 
ATOM      8  C   UNL A   1      36.835  30.267  27.269  1.00  0.00     0.014 A 
ATOM      9  C   UNL A   1      35.748  29.593  29.333  1.00  0.00     0.014 A 
ATOM     10  C   UNL A   1      38.045  29.783  27.749  1.00  0.00     0.010 A 
ATOM     11  C   UNL A   1      36.986  29.210  29.852  1.00  0.00     0.010 A 
ATOM     12  C   UNL A   1      38.133  29.247  29.045  1.00  0.00    -0.014 A 
BRANCH  12  13
ATOM     13  C   UNL A   1      39.440  28.764  29.558  1.00  0.00     0.031 A 
ATOM     14  C   UNL A   1      40.152  29.478  30.675  1.00  0.00     0.074 A 
ATOM     15  C   UNL A   1      39.997  27.682  28.981  1.00  0.00     0.049 A 
ATOM     16  N   UNL A   1      41.330  29.232  31.190  1.00  0.00    -0.248 NA
ATOM     17  C   UNL A   1      39.461  30.623  31.289  1.00  0.00     0.031 C 
ATOM     18  C   UNL A   1      39.408  26.924  27.875  1.00  0.00     0.029 A 
ATOM     19  N   UNL A   1      41.185  27.046  29.225  1.00  0.00    -0.354 N 
ATOM     20  C   UNL A   1      41.547  30.218  32.147  1.00  0.00     0.074 A 
ATOM     21  C   UNL A   1      40.375  31.068  32.142  1.00  0.00     0.031 C 
ATOM     22  C   UNL A   1      40.232  25.924  27.539  1.00  0.00     0.029 A 
ATOM     23  C   UNL A   1      41.436  26.014  28.353  1.00  0.00     0.049 A 
ATOM     24  H   UNL A   1      41.799  27.303  29.951  1.00  0.00     0.167 HD
ATOM     25  C   UNL A   1      42.620  30.393  32.956  1.00  0.00     0.034 A 
ATOM     26  C   UNL A   1      42.531  25.249  28.192  1.00  0.00     0.034 A 
ATOM     27  C   UNL A   1      43.768  29.524  32.966  1.00  0.00     0.049 A 
ATOM     28  C   UNL A   1      43.706  25.464  29.098  1.00  0.00     0.074 A 
ATOM     29  C   UNL A   1      44.880  29.576  33.789  1.00  0.00     0.029 A 
ATOM     30  N   UNL A   1      43.964  28.457  32.101  1.00  0.00    -0.354 N 
ATOM     31  N   UNL A   1      43.850  26.335  30.067  1.00  0.00    -0.248 NA
ATOM     32  C   UNL A   1      44.859  24.574  28.910  1.00  0.00     0.031 C 
ATOM     33  C   UNL A   1      45.764  28.567  33.395  1.00  0.00     0.029 A 
ATOM     34  C   UNL A   1      45.183  27.854  32.359  1.00  0.00     0.049 A 
ATOM     35  H   UNL A   1      43.328  28.172  31.404  1.00  0.00     0.167 HD
ATOM     36  C   UNL A   1      45.091  26.076  30.630  1.00  0.00     0.074 A 
ATOM     37  C   UNL A   1      45.654  24.957  29.899  1.00  0.00     0.031 C 
ATOM     38  C   UNL A   1      45.711  26.711  31.654  1.00  0.00     0.034 A 
BRANCH  25  39
ATOM     39  C   UNL A   1      42.604  31.565  33.909  1.00  0.00     0.023 A 
ATOM     40  C   UNL A   1      43.102  32.817  33.495  1.00  0.00     0.012 A 
ATOM     41  C   UNL A   1      42.045  31.439  35.197  1.00  0.00     0.148 A 
ATOM     42  C   UNL A   1      43.086  33.912  34.361  1.00  0.00     0.002 A 
ATOM     43  C   UNL A   1      41.989  32.546  36.037  1.00  0.00     0.091 A 
ATOM     44  F   UNL A   1      41.589  30.240  35.582  1.00  0.00    -0.205 F 
ATOM     45  C   UNL A   1      42.522  33.778  35.627  1.00  0.00     0.022 A 
BRANCH  43  46
ATOM     46  S   UNL A   1      41.208  32.497  37.655  1.00  0.00     0.127 S 
ATOM     47  O   UNL A   1      42.098  31.596  38.385  1.00  0.00    -0.237 OA
ATOM     48  O   UNL A   1      41.279  33.896  38.075  1.00  0.00    -0.237 OA
ATOM     49  O   UNL A   1      39.857  32.000  37.432  1.00  0.00    -0.744 OA
ENDBRANCH  43  46
ENDBRANCH  25  39
BRANCH  26  50
ATOM     50  C   UNL A   1      42.536  24.198  27.139  1.00  0.00     0.023 A 
ATOM     51  C   UNL A   1      43.189  24.442  25.916  1.00  0.00     0.012 A 
ATOM     52  C   UNL A   1      41.961  22.932  27.374  1.00  0.00     0.148 A 
ATOM     53  C   UNL A   1      43.251  23.451  24.936  1.00  0.00     0.002 A 
ATOM     54  C   UNL A   1      42.079  21.933  26.419  1.00  0.00     0.091 A 
ATOM     55  F   UNL A   1      41.344  22.725  28.546  1.00  0.00    -0.205 F 
ATOM     56  C   UNL A   1      42.708  22.194  25.192  1.00  0.00     0.022 A 
BRANCH  54  57
ATOM     57  S   UNL A   1      41.538  20.246  26.716  1.00  0.00     0.127 S 
ATOM     58  O   UNL A   1      41.872  19.599  25.449  1.00  0.00    -0.237 OA
ATOM     59  O   UNL A   1      42.379  19.857  27.848  1.00  0.00    -0.237 OA
ATOM     60  O   UNL A   1      40.117  20.333  27.023  1.00  0.00    -0.744 OA
ENDBRANCH  54  57
ENDBRANCH  26  50
BRANCH  38  61
ATOM     61  C   UNL A   1      47.049  26.180  32.095  1.00  0.00     0.023 A 
ATOM     62  C   UNL A   1      47.139  25.302  33.191  1.00  0.00     0.012 A 
ATOM     63  C   UNL A   1      48.213  26.502  31.367  1.00  0.00     0.148 A 
ATOM     64  C   UNL A   1      48.371  24.772  33.574  1.00  0.00     0.002 A 
ATOM     65  C   UNL A   1      49.427  25.929  31.721  1.00  0.00     0.091 A 
ATOM     66  F   UNL A   1      48.109  27.358  30.340  1.00  0.00    -0.205 F 
ATOM     67  C   UNL A   1      49.511  25.074  32.833  1.00  0.00     0.022 A 
BRANCH  65  68
ATOM     68  S   UNL A   1      50.927  26.180  30.765  1.00  0.00     0.127 S 
ATOM     69  O   UNL A   1      51.901  25.402  31.529  1.00  0.00    -0.237 OA
ATOM     70  O   UNL A   1      50.566  25.604  29.469  1.00  0.00    -0.237 OA
ATOM     71  O   UNL A   1      51.156  27.618  30.745  1.00  0.00    -0.744 OA
ENDBRANCH  65  68
ENDBRANCH  38  61
ENDBRANCH  12  13
ENDBRANCH   5   7
ENDBRANCH   2   3
ENDBRANCH   1   2
BRANCH   1  72
ATOM     72  C   UNL A   1      34.058  25.558  25.409  1.00  0.00     0.118 C 
BRANCH  72  73
ATOM     73  N   UNL A   1      34.733  25.033  24.237  1.00  0.00    -0.352 N 
ATOM     74  C   UNL A   1      34.892  23.735  23.840  1.00  0.00     0.252 C 
ATOM     75  H   UNL A   1      35.135  25.708  23.643  1.00  0.00     0.163 HD
ATOM     76  O   UNL A   1      35.593  23.470  22.864  1.00  0.00    -0.269 OA
BRANCH  74  77
ATOM     77  C   UNL A   1      34.361  22.623  24.646  1.00  0.00     0.052 A 
ATOM     78  C   UNL A   1      35.105  22.447  25.839  1.00  0.00     0.014 A 
ATOM     79  C   UNL A   1      33.230  21.831  24.396  1.00  0.00     0.052 A 
ATOM     80  C   UNL A   1      34.684  21.579  26.837  1.00  0.00     0.001 A 
ATOM     81  C   UNL A   1      32.806  20.985  25.450  1.00  0.00     0.014 A 
ATOM     82  C   UNL A   1      33.509  20.870  26.656  1.00  0.00     0.001 A 
BRANCH  79  83
ATOM     83  C   UNL A   1      32.298  21.828  23.219  1.00  0.00     0.256 C 
ATOM     84  O   UNL A   1      32.205  20.771  22.582  1.00  0.00    -0.269 OA
ATOM     85  N   UNL A   1      31.455  22.837  22.812  1.00  0.00    -0.322 N 
ATOM     86  H   UNL A   1      30.842  22.574  22.088  1.00  0.00     0.170 HD
BRANCH  85  87
ATOM     87  C   UNL A   1      31.303  24.157  23.226  1.00  0.00     0.041 A 
ATOM     88  C   UNL A   1      31.736  25.148  22.339  1.00  0.00     0.028 A 
ATOM     89  C   UNL A   1      30.684  24.507  24.419  1.00  0.00     0.028 A 
ATOM     90  C   UNL A   1      31.296  26.460  22.504  1.00  0.00     0.029 A 
ATOM     91  C   UNL A   1      30.365  25.847  24.652  1.00  0.00     0.029 A 
ATOM     92  C   UNL A   1      30.570  26.804  23.644  1.00  0.00     0.052 A 
BRANCH  92  93
ATOM     93  N   UNL A   1      29.883  28.029  23.716  1.00  0.00    -0.250 N 
ATOM     94  C   UNL A   1      28.536  28.177  23.366  1.00  0.00     0.237 C 
ATOM     95  C   UNL A   1      30.544  29.270  23.844  1.00  0.00     0.237 C 
ATOM     96  O   UNL A   1      27.639  27.360  23.321  1.00  0.00    -0.274 OA
ATOM     97  C   UNL A   1      28.486  29.575  22.859  1.00  0.00     0.095 C 
ATOM     98  C   UNL A   1      29.413  30.256  23.851  1.00  0.00     0.095 C 
ATOM     99  O   UNL A   1      31.724  29.525  24.010  1.00  0.00    -0.274 OA
ATOM    100  C   UNL A   1      27.378  30.611  22.672  1.00  0.00     0.002 C 
ATOM    101  C   UNL A   1      29.183  31.717  23.482  1.00  0.00     0.002 C 
ATOM    102  C   UNL A   1      27.841  31.424  21.444  1.00  0.00     0.005 C 
ATOM    103  C   UNL A   1      27.654  31.694  23.741  1.00  0.00     0.009 C 
ATOM    104  C   UNL A   1      29.183  32.025  21.956  1.00  0.00     0.005 C 
ENDBRANCH  92  93
ENDBRANCH  85  87
ENDBRANCH  79  83
ENDBRANCH  74  77
ENDBRANCH  72  73
ENDBRANCH   1  72
TORSDOF 16
ENDMDL
MODEL 2
REMARK VINA RESULT:     -13.3      1.756      2.050
REMARK SMILES O=C(NCCCNC(=O)c1ccccc1C(=O)Nc1ccc(N2C(=O)[C@H]3[C@@H]4CC[C@@H](C4)[C@@H]3C2=O)cc1)c1ccc(-c2c3nc(c(-c4cccc(S(=O)(=O)[O-])c4F)c4ccc([nH]4)c(-c4cccc(S(=O)(=O)[O-])c4F)c4nc(c(-c5cccc(S(=O)(=O)[O-])c5F)c5ccc2[nH]5)C=C4)C=C3)cc1
REMARK SMILES IDX 5 1 4 2 3 3 1 4 2 5 37 7 38 8 99 9 39 10 98 11 40 12 41 13
REMARK SMILES IDX 42 14 92 15 43 16 97 17 91 18 93 19 44 20 96 21 90 22 89 23
REMARK SMILES IDX 45 25 77 26 57 27 76 28 58 29 61 30 75 31 94 32 59 33 60 34
REMARK SMILES IDX 74 36 95 37 62 38 46 39 47 40 55 41 48 42 50 43 56 44 49 45
REMARK SMILES IDX 51 46 52 47 53 48 54 49 78 50 79 51 87 52 80 53 82 54 88 55
REMARK SMILES IDX 81 56 83 57 84 58 85 59 86 60 63 61 64 62 72 63 65 64 67 65
REMARK SMILES IDX 73 66 66 67 68 68 69 69 70 70 71 71 6 72 7 73 8 74 9 76
REMARK SMILES IDX 10 77 11 78 15 79 12 80 14 81 13 82 16 83 17 84 18 85 19 87
REMARK SMILES IDX 20 88 36 89 21 90 35 91 22 92 23 93 24 94 33 95 25 96 26 97
REMARK SMILES IDX 32 98 34 99 27 100 30 101 28 102 31 103 29 104
REMARK H PARENT 3 6 93 24 61 35 7 75 18 86
REMARK Flexibility Score: inf
ROOT
ATOM      1  C   UNL A   1      33.838  27.100  25.213  1.00  0.00     0.042 C 
ENDROOT
BRANCH   1   2
ATOM      2  C   UNL A   1      34.145  27.791  26.535  1.00  0.00     0.118 C 
BRANCH   2   3
ATOM      3  N   UNL A   1      33.623  29.150  26.630  1.00  0.00    -0.352 N 
ATOM      4  O   UNL A   1      33.617  31.333  27.229  1.00  0.00    -0.269 OA
ATOM      5  C   UNL A   1      34.201  30.255  27.219  1.00  0.00     0.251 C 
ATOM      6  H   UNL A   1      32.741  29.300  26.218  1.00  0.00     0.163 HD
BRANCH   5   7
ATOM      7  C   UNL A   1      35.499  30.086  27.901  1.00  0.00     0.039 A 
ATOM      8  C   UNL A   1      36.687  30.149  27.169  1.00  0.00     0.014 A 
ATOM      9  C   UNL A   1      35.507  29.710  29.244  1.00  0.00     0.014 A 
ATOM     10  C   UNL A   1      37.851  29.632  27.723  1.00  0.00     0.010 A 
ATOM     11  C   UNL A   1      36.703  29.294  29.830  1.00  0.00     0.010 A 
ATOM     12  C   UNL A   1      37.871  29.196  29.058  1.00  0.00    -0.014 A 
BRANCH  12  13
ATOM     13  C   UNL A   1      39.130  28.675  29.648  1.00  0.00     0.031 A 
ATOM     14  C   UNL A   1      39.743  29.311  30.867  1.00  0.00     0.074 A 
ATOM     15  C   UNL A   1      39.737  27.633  29.049  1.00  0.00     0.049 A 
ATOM     16  N   UNL A   1      40.873  29.027  31.463  1.00  0.00    -0.248 NA
ATOM     17  C   UNL A   1      38.999  30.414  31.495  1.00  0.00     0.031 C 
ATOM     18  C   UNL A   1      39.247  26.952  27.848  1.00  0.00     0.029 A 
ATOM     19  N   UNL A   1      40.902  26.978  29.350  1.00  0.00    -0.354 N 
ATOM     20  C   UNL A   1      41.004  29.946  32.499  1.00  0.00     0.074 A 
ATOM     21  C   UNL A   1      39.835  30.798  32.451  1.00  0.00     0.031 C 
ATOM     22  C   UNL A   1      40.099  25.974  27.518  1.00  0.00     0.029 A 
ATOM     23  C   UNL A   1      41.229  26.005  28.437  1.00  0.00     0.049 A 
ATOM     24  H   UNL A   1      41.450  27.183  30.142  1.00  0.00     0.167 HD
ATOM     25  C   UNL A   1      42.004  30.062  33.407  1.00  0.00     0.034 A 
ATOM     26  C   UNL A   1      42.336  25.249  28.319  1.00  0.00     0.034 A 
ATOM     27  C   UNL A   1      43.150  29.191  33.456  1.00  0.00     0.049 A 
ATOM     28  C   UNL A   1      43.428  25.399  29.334  1.00  0.00     0.074 A 
ATOM     29  C   UNL A   1      44.187  29.184  34.373  1.00  0.00     0.029 A 
ATOM     30  N   UNL A   1      43.421  28.184  32.542  1.00  0.00    -0.354 N 
ATOM     31  N   UNL A   1      43.486  26.204  30.368  1.00  0.00    -0.248 NA
ATOM     32  C   UNL A   1      44.595  24.520  29.186  1.00  0.00     0.031 C 
ATOM     33  C   UNL A   1      45.103  28.201  33.990  1.00  0.00     0.029 A 
ATOM     34  C   UNL A   1      44.615  27.560  32.862  1.00  0.00     0.049 A 
ATOM     35  H   UNL A   1      42.848  27.948  31.776  1.00  0.00     0.167 HD
ATOM     36  C   UNL A   1      44.676  25.903  31.016  1.00  0.00     0.074 A 
ATOM     37  C   UNL A   1      45.302  24.834  30.263  1.00  0.00     0.031 C 
ATOM     38  C   UNL A   1      45.205  26.466  32.130  1.00  0.00     0.034 A 
BRANCH  25  39
ATOM     39  C   UNL A   1      41.903  31.168  34.431  1.00  0.00     0.023 A 
ATOM     40  C   UNL A   1      41.286  30.924  35.675  1.00  0.00     0.012 A 
ATOM     41  C   UNL A   1      42.469  32.435  34.182  1.00  0.00     0.148 A 
ATOM     42  C   UNL A   1      41.193  31.933  36.635  1.00  0.00     0.002 A 
ATOM     43  C   UNL A   1      42.415  33.421  35.161  1.00  0.00     0.091 A 
ATOM     44  F   UNL A   1      43.039  32.658  32.990  1.00  0.00    -0.205 F 
ATOM     45  C   UNL A   1      41.765  33.177  36.381  1.00  0.00     0.022 A 
BRANCH  43  46
ATOM     46  S   UNL A   1      43.194  35.028  34.963  1.00  0.00     0.127 S 
ATOM     47  O   UNL A   1      42.538  35.527  33.755  1.00  0.00    -0.237 OA
ATOM     48  O   UNL A   1      42.805  35.714  36.195  1.00  0.00    -0.237 OA
ATOM     49  O   UNL A   1      44.622  34.768  34.840  1.00  0.00    -0.744 OA
ENDBRANCH  43  46
ENDBRANCH  25  39
BRANCH  26  50
ATOM     50  C   UNL A   1      42.433  24.271  27.202  1.00  0.00     0.023 A 
ATOM     51  C   UNL A   1      43.179  24.599  26.054  1.00  0.00     0.012 A 
ATOM     52  C   UNL A   1      41.852  22.991  27.306  1.00  0.00     0.148 A 
ATOM     53  C   UNL A   1      43.327  23.676  25.019  1.00  0.00     0.002 A 
ATOM     54  C   UNL A   1      42.054  22.058  26.299  1.00  0.00     0.091 A 
ATOM     55  F   UNL A   1      41.146  22.704  28.408  1.00  0.00    -0.205 F 
ATOM     56  C   UNL A   1      42.776  22.403  25.146  1.00  0.00     0.022 A 
BRANCH  54  57
ATOM     57  S   UNL A   1      41.505  20.353  26.438  1.00  0.00     0.127 S 
ATOM     58  O   UNL A   1      42.271  19.706  25.376  1.00  0.00    -0.237 OA
ATOM     59  O   UNL A   1      41.927  20.014  27.798  1.00  0.00    -0.237 OA
ATOM     60  O   UNL A   1      40.062  20.384  26.245  1.00  0.00    -0.744 OA
ENDBRANCH  54  57
ENDBRANCH  26  50
BRANCH  38  61
ATOM     61  C   UNL A   1      46.501  25.903  32.647  1.00  0.00     0.023 A 
ATOM     62  C   UNL A   1      47.727  26.495  32.287  1.00  0.00     0.012 A 
ATOM     63  C   UNL A   1      46.493  24.823  33.553  1.00  0.00     0.148 A 
ATOM     64  C   UNL A   1      48.928  26.004  32.800  1.00  0.00     0.002 A 
ATOM     65  C   UNL A   1      47.687  24.374  34.100  1.00  0.00     0.091 A 
ATOM     66  F   UNL A   1      45.317  24.260  33.864  1.00  0.00    -0.205 F 
ATOM     67  C   UNL A   1      48.907  24.954  33.715  1.00  0.00     0.022 A 
BRANCH  65  68
ATOM     68  S   UNL A   1      47.749  23.096  35.362  1.00  0.00     0.127 S 
ATOM     69  O   UNL A   1      49.180  23.033  35.651  1.00  0.00    -0.237 OA
ATOM     70  O   UNL A   1      46.934  23.678  36.429  1.00  0.00    -0.237 OA
ATOM     71  O   UNL A   1      47.183  21.900  34.751  1.00  0.00    -0.744 OA
ENDBRANCH  65  68
ENDBRANCH  38  61
ENDBRANCH  12  13
ENDBRANCH   5   7
ENDBRANCH   2   3
ENDBRANCH   1   2
BRANCH   1  72
ATOM     72  C   UNL A   1      34.004  25.594  25.270  1.00  0.00     0.118 C 
BRANCH  72  73
ATOM     73  N   UNL A   1      34.693  25.068  24.106  1.00  0.00    -0.352 N 
ATOM     74  C   UNL A   1      34.869  23.769  23.722  1.00  0.00     0.252 C 
ATOM     75  H   UNL A   1      35.091  25.743  23.509  1.00  0.00     0.163 HD
ATOM     76  O   UNL A   1      35.579  23.505  22.752  1.00  0.00    -0.269 OA
BRANCH  74  77
ATOM     77  C   UNL A   1      34.347  22.657  24.533  1.00  0.00     0.052 A 
ATOM     78  C   UNL A   1      35.109  22.475  25.713  1.00  0.00     0.014 A 
ATOM     79  C   UNL A   1      33.207  21.872  24.299  1.00  0.00     0.052 A 
ATOM     80  C   UNL A   1      34.700  21.607  26.717  1.00  0.00     0.001 A 
ATOM     81  C   UNL A   1      32.797  21.024  25.359  1.00  0.00     0.014 A 
ATOM     82  C   UNL A   1      33.519  20.904  26.552  1.00  0.00     0.001 A 
BRANCH  79  83
ATOM     83  C   UNL A   1      32.257  21.876  23.137  1.00  0.00     0.256 C 
ATOM     84  O   UNL A   1      32.155  20.824  22.495  1.00  0.00    -0.269 OA
ATOM     85  N   UNL A   1      31.406  22.887  22.752  1.00  0.00    -0.322 N 
ATOM     86  H   UNL A   1      30.782  22.628  22.036  1.00  0.00     0.170 HD
BRANCH  85  87
ATOM     87  C   UNL A   1      31.259  24.203  23.178  1.00  0.00     0.041 A 
ATOM     88  C   UNL A   1      31.684  25.201  22.294  1.00  0.00     0.028 A 
ATOM     89  C   UNL A   1      30.653  24.545  24.379  1.00  0.00     0.028 A 
ATOM     90  C   UNL A   1      31.247  26.512  22.474  1.00  0.00     0.029 A 
ATOM     91  C   UNL A   1      30.338  25.883  24.626  1.00  0.00     0.029 A 
ATOM     92  C   UNL A   1      30.533  26.847  23.624  1.00  0.00     0.052 A 
BRANCH  92  93
ATOM     93  N   UNL A   1      29.848  28.072  23.713  1.00  0.00    -0.250 N 
ATOM     94  C   UNL A   1      28.501  28.227  23.366  1.00  0.00     0.237 C 
ATOM     95  C   UNL A   1      30.511  29.311  23.856  1.00  0.00     0.237 C 
ATOM     96  O   UNL A   1      27.602  27.412  23.311  1.00  0.00    -0.274 OA
ATOM     97  C   UNL A   1      28.452  29.631  22.877  1.00  0.00     0.095 C 
ATOM     98  C   UNL A   1      29.381  30.299  23.876  1.00  0.00     0.095 C 
ATOM     99  O   UNL A   1      31.692  29.562  24.022  1.00  0.00    -0.274 OA
ATOM    100  C   UNL A   1      27.346  30.671  22.704  1.00  0.00     0.002 C 
ATOM    101  C   UNL A   1      29.153  31.765  23.526  1.00  0.00     0.002 C 
ATOM    102  C   UNL A   1      27.809  31.500  21.486  1.00  0.00     0.005 C 
ATOM    103  C   UNL A   1      27.624  31.740  23.787  1.00  0.00     0.009 C 
ATOM    104  C   UNL A   1      29.152  32.092  22.004  1.00  0.00     0.005 C 
ENDBRANCH  92  93
ENDBRANCH  85  87
ENDBRANCH  79  83
ENDBRANCH  74  77
ENDBRANCH  72  73
ENDBRANCH   1  72
TORSDOF 16
ENDMDL
MODEL 3
REMARK VINA RESULT:     -13.0      4.421      8.743
REMARK SMILES O=C(NCCCNC(=O)c1ccccc1C(=O)Nc1ccc(N2C(=O)[C@H]3[C@@H]4CC[C@@H](C4)[C@@H]3C2=O)cc1)c1ccc(-c2c3nc(c(-c4cccc(S(=O)(=O)[O-])c4F)c4ccc([nH]4)c(-c4cccc(S(=O)(=O)[O-])c4F)c4nc(c(-c5cccc(S(=O)(=O)[O-])c5F)c5ccc2[nH]5)C=C4)C=C3)cc1
REMARK SMILES IDX 5 1 4 2 3 3 1 4 2 5 37 7 38 8 99 9 39 10 98 11 40 12 41 13
REMARK SMILES IDX 42 14 92 15 43 16 97 17 91 18 93 19 44 20 96 21 90 22 89 23
REMARK SMILES IDX 45 25 77 26 57 27 76 28 58 29 61 30 75 31 94 32 59 33 60 34
REMARK SMILES IDX 74 36 95 37 62 38 46 39 47 40 55 41 48 42 50 43 56 44 49 45
REMARK SMILES IDX 51 46 52 47 53 48 54 49 78 50 79 51 87 52 80 53 82 54 88 55
REMARK SMILES IDX 81 56 83 57 84 58 85 59 86 60 63 61 64 62 72 63 65 64 67 65
REMARK SMILES IDX 73 66 66 67 68 68 69 69 70 70 71 71 6 72 7 73 8 74 9 76
REMARK SMILES IDX 10 77 11 78 15 79 12 80 14 81 13 82 16 83 17 84 18 85 19 87
REMARK SMILES IDX 20 88 36 89 21 90 35 91 22 92 23 93 24 94 33 95 25 96 26 97
REMARK SMILES IDX 32 98 34 99 27 100 30 101 28 102 31 103 29 104
REMARK H PARENT 3 6 93 24 61 35 7 75 18 86
REMARK Flexibility Score: inf
ROOT
ATOM      1  C   UNL A   1      38.044  20.165  25.333  1.00  0.00     0.042 C 
ENDROOT
BRANCH   1   2
ATOM      2  C   UNL A   1      39.323  20.357  26.137  1.00  0.00     0.118 C 
BRANCH   2   3
ATOM      3  N   UNL A   1      40.268  19.252  26.023  1.00  0.00    -0.352 N 
ATOM      4  O   UNL A   1      42.298  18.252  26.001  1.00  0.00    -0.269 OA
ATOM      5  C   UNL A   1      41.641  19.277  26.145  1.00  0.00     0.251 C 
ATOM      6  H   UNL A   1      39.874  18.369  25.834  1.00  0.00     0.163 HD
BRANCH   5   7
ATOM      7  C   UNL A   1      42.300  20.577  26.377  1.00  0.00     0.039 A 
ATOM      8  C   UNL A   1      42.493  21.042  27.679  1.00  0.00     0.014 A 
ATOM      9  C   UNL A   1      42.578  21.392  25.278  1.00  0.00     0.014 A 
ATOM     10  C   UNL A   1      42.760  22.390  27.884  1.00  0.00     0.010 A 
ATOM     11  C   UNL A   1      42.955  22.719  25.491  1.00  0.00     0.010 A 
ATOM     12  C   UNL A   1      42.991  23.243  26.793  1.00  0.00    -0.014 A 
BRANCH  12  13
ATOM     13  C   UNL A   1      43.308  24.675  27.027  1.00  0.00     0.031 A 
ATOM     14  C   UNL A   1      44.665  25.238  26.699  1.00  0.00     0.074 A 
ATOM     15  C   UNL A   1      42.360  25.462  27.571  1.00  0.00     0.049 A 
ATOM     16  N   UNL A   1      45.128  26.443  26.909  1.00  0.00    -0.248 NA
ATOM     17  C   UNL A   1      45.633  24.330  26.063  1.00  0.00     0.031 C 
ATOM     18  C   UNL A   1      41.017  25.019  27.951  1.00  0.00     0.029 A 
ATOM     19  N   UNL A   1      42.385  26.787  27.919  1.00  0.00    -0.354 N 
ATOM     20  C   UNL A   1      46.452  26.428  26.485  1.00  0.00     0.074 A 
ATOM     21  C   UNL A   1      46.719  25.089  26.002  1.00  0.00     0.031 C 
ATOM     22  C   UNL A   1      40.344  26.052  28.473  1.00  0.00     0.029 A 
ATOM     23  C   UNL A   1      41.230  27.207  28.533  1.00  0.00     0.049 A 
ATOM     24  H   UNL A   1      43.153  27.379  27.747  1.00  0.00     0.167 HD
ATOM     25  C   UNL A   1      47.357  27.437  26.491  1.00  0.00     0.034 A 
ATOM     26  C   UNL A   1      40.925  28.378  29.121  1.00  0.00     0.034 A 
ATOM     27  C   UNL A   1      47.068  28.771  26.953  1.00  0.00     0.049 A 
ATOM     28  C   UNL A   1      41.944  29.478  29.118  1.00  0.00     0.074 A 
ATOM     29  C   UNL A   1      47.894  29.882  26.944  1.00  0.00     0.029 A 
ATOM     30  N   UNL A   1      45.869  29.172  27.523  1.00  0.00    -0.354 N 
ATOM     31  N   UNL A   1      43.156  29.476  28.617  1.00  0.00    -0.248 NA
ATOM     32  C   UNL A   1      41.547  30.750  29.733  1.00  0.00     0.031 C 
ATOM     33  C   UNL A   1      47.208  30.942  27.544  1.00  0.00     0.029 A 
ATOM     34  C   UNL A   1      45.937  30.507  27.883  1.00  0.00     0.049 A 
ATOM     35  H   UNL A   1      45.084  28.591  27.652  1.00  0.00     0.167 HD
ATOM     36  C   UNL A   1      43.653  30.755  28.823  1.00  0.00     0.074 A 
ATOM     37  C   UNL A   1      42.606  31.508  29.484  1.00  0.00     0.031 C 
ATOM     38  C   UNL A   1      44.870  31.257  28.500  1.00  0.00     0.034 A 
BRANCH  25  39
ATOM     39  C   UNL A   1      48.746  27.145  25.977  1.00  0.00     0.023 A 
ATOM     40  C   UNL A   1      49.699  26.540  26.822  1.00  0.00     0.012 A 
ATOM     41  C   UNL A   1      49.093  27.421  24.639  1.00  0.00     0.148 A 
ATOM     42  C   UNL A   1      50.985  26.256  26.359  1.00  0.00     0.002 A 
ATOM     43  C   UNL A   1      50.360  27.092  24.170  1.00  0.00     0.091 A 
ATOM     44  F   UNL A   1      48.183  28.010  23.851  1.00  0.00    -0.205 F 
ATOM     45  C   UNL A   1      51.311  26.524  25.032  1.00  0.00     0.022 A 
BRANCH  43  46
ATOM     46  S   UNL A   1      50.850  27.320  22.457  1.00  0.00     0.127 S 
ATOM     47  O   UNL A   1      50.886  28.778  22.352  1.00  0.00    -0.237 OA
ATOM     48  O   UNL A   1      52.162  26.675  22.422  1.00  0.00    -0.237 OA
ATOM     49  O   UNL A   1      49.829  26.659  21.657  1.00  0.00    -0.744 OA
ENDBRANCH  43  46
ENDBRANCH  25  39
BRANCH  26  50
ATOM     50  C   UNL A   1      39.582  28.557  29.735  1.00  0.00     0.023 A 
ATOM     51  C   UNL A   1      39.365  28.148  31.064  1.00  0.00     0.012 A 
ATOM     52  C   UNL A   1      38.542  29.198  29.031  1.00  0.00     0.148 A 
ATOM     53  C   UNL A   1      38.128  28.354  31.675  1.00  0.00     0.002 A 
ATOM     54  C   UNL A   1      37.335  29.454  29.665  1.00  0.00     0.091 A 
ATOM     55  F   UNL A   1      38.774  29.578  27.766  1.00  0.00    -0.205 F 
ATOM     56  C   UNL A   1      37.118  29.018  30.981  1.00  0.00     0.022 A 
BRANCH  54  57
ATOM     57  S   UNL A   1      36.030  30.425  28.903  1.00  0.00     0.127 S 
ATOM     58  O   UNL A   1      36.789  31.279  27.991  1.00  0.00    -0.237 OA
ATOM     59  O   UNL A   1      35.226  29.389  28.254  1.00  0.00    -0.237 OA
ATOM     60  O   UNL A   1      35.358  31.113  29.996  1.00  0.00    -0.744 OA
ENDBRANCH  54  57
ENDBRANCH  26  50
BRANCH  38  61
ATOM     61  C   UNL A   1      45.125  32.710  28.799  1.00  0.00     0.023 A 
ATOM     62  C   UNL A   1      45.763  33.087  29.997  1.00  0.00     0.012 A 
ATOM     63  C   UNL A   1      44.794  33.698  27.849  1.00  0.00     0.148 A 
ATOM     64  C   UNL A   1      46.042  34.429  30.257  1.00  0.00     0.002 A 
ATOM     65  C   UNL A   1      45.122  35.025  28.092  1.00  0.00     0.091 A 
ATOM     66  F   UNL A   1      44.167  33.319  26.726  1.00  0.00    -0.205 F 
ATOM     67  C   UNL A   1      45.735  35.394  29.301  1.00  0.00     0.022 A 
BRANCH  65  68
ATOM     68  S   UNL A   1      44.857  36.321  26.877  1.00  0.00     0.127 S 
ATOM     69  O   UNL A   1      45.080  37.526  27.674  1.00  0.00    -0.237 OA
ATOM     70  O   UNL A   1      45.900  36.038  25.892  1.00  0.00    -0.237 OA
ATOM     71  O   UNL A   1      43.497  36.141  26.387  1.00  0.00    -0.744 OA
ENDBRANCH  65  68
ENDBRANCH  38  61
ENDBRANCH  12  13
ENDBRANCH   5   7
ENDBRANCH   2   3
ENDBRANCH   1   2
BRANCH   1  72
ATOM     72  C   UNL A   1      37.354  21.468  24.982  1.00  0.00     0.118 C 
BRANCH  72  73
ATOM     73  N   UNL A   1      36.594  22.010  26.093  1.00  0.00    -0.352 N 
ATOM     74  C   UNL A   1      35.240  22.092  26.255  1.00  0.00     0.252 C 
ATOM     75  H   UNL A   1      37.130  22.372  26.836  1.00  0.00     0.163 HD
ATOM     76  O   UNL A   1      34.770  22.685  27.225  1.00  0.00    -0.269 OA
BRANCH  74  77
ATOM     77  C   UNL A   1      34.318  21.610  25.212  1.00  0.00     0.052 A 
ATOM     78  C   UNL A   1      33.507  20.551  25.688  1.00  0.00     0.014 A 
ATOM     79  C   UNL A   1      34.133  22.115  23.916  1.00  0.00     0.052 A 
ATOM     80  C   UNL A   1      32.443  20.059  24.944  1.00  0.00     0.001 A 
ATOM     81  C   UNL A   1      33.017  21.617  23.199  1.00  0.00     0.014 A 
ATOM     82  C   UNL A   1      32.176  20.620  23.707  1.00  0.00     0.001 A 
BRANCH  79  83
ATOM     83  C   UNL A   1      34.863  23.212  23.196  1.00  0.00     0.256 C 
ATOM     84  O   UNL A   1      36.021  22.969  22.834  1.00  0.00    -0.269 OA
ATOM     85  N   UNL A   1      34.366  24.434  22.802  1.00  0.00    -0.322 N 
ATOM     86  H   UNL A   1      34.984  24.949  22.235  1.00  0.00     0.170 HD
BRANCH  85  87
ATOM     87  C   UNL A   1      33.161  25.081  23.054  1.00  0.00     0.041 A 
ATOM     88  C   UNL A   1      32.961  25.555  24.355  1.00  0.00     0.028 A 
ATOM     89  C   UNL A   1      32.218  25.331  22.065  1.00  0.00     0.028 A 
ATOM     90  C   UNL A   1      31.976  26.511  24.595  1.00  0.00     0.029 A 
ATOM     91  C   UNL A   1      31.147  26.183  22.346  1.00  0.00     0.029 A 
ATOM     92  C   UNL A   1      31.092  26.861  23.575  1.00  0.00     0.052 A 
BRANCH  92  93
ATOM     93  N   UNL A   1      30.276  28.000  23.690  1.00  0.00    -0.250 N 
ATOM     94  C   UNL A   1      28.896  27.985  23.451  1.00  0.00     0.237 C 
ATOM     95  C   UNL A   1      30.796  29.311  23.749  1.00  0.00     0.237 C 
ATOM     96  O   UNL A   1      28.100  27.069  23.490  1.00  0.00    -0.274 OA
ATOM     97  C   UNL A   1      28.643  29.356  22.934  1.00  0.00     0.095 C 
ATOM     98  C   UNL A   1      29.561  30.161  23.838  1.00  0.00     0.095 C 
ATOM     99  O   UNL A   1      31.948  29.704  23.812  1.00  0.00    -0.274 OA
ATOM    100  C   UNL A   1      27.411  30.254  22.827  1.00  0.00     0.002 C 
ATOM    101  C   UNL A   1      29.134  31.578  23.472  1.00  0.00     0.002 C 
ATOM    102  C   UNL A   1      27.675  31.089  21.555  1.00  0.00     0.005 C 
ATOM    103  C   UNL A   1      27.644  31.384  23.857  1.00  0.00     0.009 C 
ATOM    104  C   UNL A   1      28.974  31.851  21.948  1.00  0.00     0.005 C 
ENDBRANCH  92  93
ENDBRANCH  85  87
ENDBRANCH  79  83
ENDBRANCH  74  77
ENDBRANCH  72  73
ENDBRANCH   1  72
TORSDOF 16
ENDMDL
