MODEL 1
REMARK VINA RESULT:     -12.5      0.000      0.000
REMARK SMILES O=C(NCCCNC(=O)[C@H]1CCCCN1C(=O)c1cn2ccccc2n1)c1ccc(-c2c3nc(c(-c4cccc(S(=O)(=O)[O-])c4F)c4ccc([nH]4)c(-c4cccc(S(=O)(=O)[O-])c4F)c4nc(c(-c5cccc(S(=O)(=O)[O-])c5F)c5ccc2[nH]5)C=C4)C=C3)cc1
REMARK SMILES IDX 4 1 3 2 1 3 2 4 27 6 28 7 89 8 29 9 88 10 30 11 31 12 32 13
REMARK SMILES IDX 82 14 33 15 87 16 81 17 83 18 34 19 86 20 80 21 79 22 35 24
REMARK SMILES IDX 67 25 47 26 66 27 48 28 51 29 65 30 84 31 49 32 50 33 64 35
REMARK SMILES IDX 85 36 52 37 36 38 37 39 45 40 38 41 40 42 46 43 39 44 41 45
REMARK SMILES IDX 42 46 43 47 44 48 68 49 69 50 77 51 70 52 72 53 78 54 71 55
REMARK SMILES IDX 73 56 74 57 75 58 76 59 53 60 54 61 62 62 55 63 57 64 63 65
REMARK SMILES IDX 56 66 58 67 59 68 60 69 61 70 5 71 6 72 7 73 8 74 9 76 10 77
REMARK SMILES IDX 11 78 15 79 12 80 14 81 13 82 16 83 17 84 18 85 19 86 26 87
REMARK SMILES IDX 20 88 25 89 21 90 24 91 22 92 23 93
REMARK H PARENT 3 5 83 23 51 34 7 75
REMARK Flexibility Score: inf
ROOT
ATOM      1  C   UNL A   1      38.571  20.445  25.484  1.00  0.00     0.118 C 
ENDROOT
BRANCH   1   2
ATOM      2  N   UNL A   1      39.587  19.448  25.783  1.00  0.00    -0.352 N 
ATOM      3  O   UNL A   1      41.654  18.631  26.096  1.00  0.00    -0.269 OA
ATOM      4  C   UNL A   1      40.912  19.611  26.103  1.00  0.00     0.251 C 
ATOM      5  H   UNL A   1      39.278  18.515  25.750  1.00  0.00     0.163 HD
BRANCH   4   6
ATOM      6  C   UNL A   1      41.443  20.948  26.447  1.00  0.00     0.039 A 
ATOM      7  C   UNL A   1      41.721  21.887  25.450  1.00  0.00     0.014 A 
ATOM      8  C   UNL A   1      41.603  21.289  27.794  1.00  0.00     0.014 A 
ATOM      9  C   UNL A   1      42.263  23.123  25.789  1.00  0.00     0.010 A 
ATOM     10  C   UNL A   1      42.070  22.561  28.136  1.00  0.00     0.010 A 
ATOM     11  C   UNL A   1      42.416  23.484  27.138  1.00  0.00    -0.014 A 
BRANCH  11  12
ATOM     12  C   UNL A   1      42.810  24.872  27.484  1.00  0.00     0.031 A 
ATOM     13  C   UNL A   1      41.834  25.835  28.095  1.00  0.00     0.074 A 
ATOM     14  C   UNL A   1      44.066  25.267  27.191  1.00  0.00     0.049 A 
ATOM     15  N   UNL A   1      42.022  27.084  28.435  1.00  0.00    -0.248 NA
ATOM     16  C   UNL A   1      40.471  25.344  28.354  1.00  0.00     0.031 C 
ATOM     17  C   UNL A   1      45.080  24.431  26.542  1.00  0.00     0.029 A 
ATOM     18  N   UNL A   1      44.698  26.471  27.371  1.00  0.00    -0.354 N 
ATOM     19  C   UNL A   1      40.797  27.544  28.900  1.00  0.00     0.074 A 
ATOM     20  C   UNL A   1      39.870  26.435  28.811  1.00  0.00     0.031 C 
ATOM     21  C   UNL A   1      46.202  25.146  26.376  1.00  0.00     0.029 A 
ATOM     22  C   UNL A   1      45.972  26.503  26.854  1.00  0.00     0.049 A 
ATOM     23  H   UNL A   1      44.280  27.238  27.827  1.00  0.00     0.167 HD
ATOM     24  C   UNL A   1      40.482  28.776  29.365  1.00  0.00     0.034 A 
ATOM     25  C   UNL A   1      46.848  27.519  26.739  1.00  0.00     0.034 A 
ATOM     26  C   UNL A   1      41.423  29.860  29.484  1.00  0.00     0.049 A 
ATOM     27  C   UNL A   1      46.467  28.868  27.276  1.00  0.00     0.074 A 
ATOM     28  C   UNL A   1      41.227  31.105  30.056  1.00  0.00     0.029 A 
ATOM     29  N   UNL A   1      42.720  29.841  28.999  1.00  0.00    -0.354 N 
ATOM     30  N   UNL A   1      45.366  29.228  27.888  1.00  0.00    -0.248 NA
ATOM     31  C   UNL A   1      47.454  29.946  27.126  1.00  0.00     0.031 C 
ATOM     32  C   UNL A   1      42.397  31.853  29.883  1.00  0.00     0.029 A 
ATOM     33  C   UNL A   1      43.327  31.065  29.226  1.00  0.00     0.049 A 
ATOM     34  H   UNL A   1      43.148  29.072  28.558  1.00  0.00     0.167 HD
ATOM     35  C   UNL A   1      45.532  30.569  28.210  1.00  0.00     0.074 A 
ATOM     36  C   UNL A   1      46.855  30.948  27.756  1.00  0.00     0.031 C 
ATOM     37  C   UNL A   1      44.659  31.416  28.806  1.00  0.00     0.034 A 
BRANCH  24  38
ATOM     38  C   UNL A   1      39.068  29.033  29.815  1.00  0.00     0.023 A 
ATOM     39  C   UNL A   1      38.681  28.693  31.127  1.00  0.00     0.012 A 
ATOM     40  C   UNL A   1      38.162  29.717  28.980  1.00  0.00     0.148 A 
ATOM     41  C   UNL A   1      37.408  29.019  31.596  1.00  0.00     0.002 A 
ATOM     42  C   UNL A   1      36.909  30.071  29.467  1.00  0.00     0.091 A 
ATOM     43  F   UNL A   1      38.547  30.015  27.730  1.00  0.00    -0.205 F 
ATOM     44  C   UNL A   1      36.528  29.716  30.772  1.00  0.00     0.022 A 
BRANCH  42  45
ATOM     45  S   UNL A   1      35.734  31.037  28.513  1.00  0.00     0.127 S 
ATOM     46  O   UNL A   1      35.172  30.023  27.623  1.00  0.00    -0.237 OA
ATOM     47  O   UNL A   1      34.817  31.516  29.549  1.00  0.00    -0.237 OA
ATOM     48  O   UNL A   1      36.508  32.081  27.857  1.00  0.00    -0.744 OA
ENDBRANCH  42  45
ENDBRANCH  24  38
BRANCH  25  49
ATOM     49  C   UNL A   1      48.170  27.289  26.094  1.00  0.00     0.023 A 
ATOM     50  C   UNL A   1      49.251  26.823  26.865  1.00  0.00     0.012 A 
ATOM     51  C   UNL A   1      48.350  27.495  24.712  1.00  0.00     0.148 A 
ATOM     52  C   UNL A   1      50.497  26.596  26.277  1.00  0.00     0.002 A 
ATOM     53  C   UNL A   1      49.574  27.208  24.121  1.00  0.00     0.091 A 
ATOM     54  F   UNL A   1      47.315  27.959  23.996  1.00  0.00    -0.205 F 
ATOM     55  C   UNL A   1      50.655  26.775  24.905  1.00  0.00     0.022 A 
BRANCH  53  56
ATOM     56  S   UNL A   1      49.809  27.272  22.341  1.00  0.00     0.127 S 
ATOM     57  O   UNL A   1      48.789  26.340  21.871  1.00  0.00    -0.237 OA
ATOM     58  O   UNL A   1      49.541  28.681  22.046  1.00  0.00    -0.237 OA
ATOM     59  O   UNL A   1      51.194  26.873  22.122  1.00  0.00    -0.744 OA
ENDBRANCH  53  56
ENDBRANCH  25  49
BRANCH  37  60
ATOM     60  C   UNL A   1      45.103  32.839  29.013  1.00  0.00     0.023 A 
ATOM     61  C   UNL A   1      45.879  33.166  30.142  1.00  0.00     0.012 A 
ATOM     62  C   UNL A   1      44.819  33.831  28.055  1.00  0.00     0.148 A 
ATOM     63  C   UNL A   1      46.345  34.467  30.328  1.00  0.00     0.002 A 
ATOM     64  C   UNL A   1      45.327  35.113  28.222  1.00  0.00     0.091 A 
ATOM     65  F   UNL A   1      44.064  33.500  26.996  1.00  0.00    -0.205 F 
ATOM     66  C   UNL A   1      46.080  35.436  29.363  1.00  0.00     0.022 A 
BRANCH  64  67
ATOM     67  S   UNL A   1      45.118  36.403  26.990  1.00  0.00     0.127 S 
ATOM     68  O   UNL A   1      45.522  37.596  27.736  1.00  0.00    -0.237 OA
ATOM     69  O   UNL A   1      46.054  35.990  25.946  1.00  0.00    -0.237 OA
ATOM     70  O   UNL A   1      43.715  36.363  26.598  1.00  0.00    -0.744 OA
ENDBRANCH  64  67
ENDBRANCH  37  60
ENDBRANCH  11  12
ENDBRANCH   4   6
ENDBRANCH   1   2
BRANCH   1  71
ATOM     71  C   UNL A   1      37.266  19.823  24.999  1.00  0.00     0.042 C 
BRANCH  71  72
ATOM     72  C   UNL A   1      36.057  20.742  25.137  1.00  0.00     0.117 C 
BRANCH  72  73
ATOM     73  N   UNL A   1      36.056  21.790  24.133  1.00  0.00    -0.354 N 
ATOM     74  C   UNL A   1      35.247  22.883  24.013  1.00  0.00     0.242 C 
ATOM     75  H   UNL A   1      36.743  21.700  23.433  1.00  0.00     0.163 HD
ATOM     76  O   UNL A   1      35.400  23.587  23.012  1.00  0.00    -0.273 OA
BRANCH  74  77
ATOM     77  C   UNL A   1      34.144  23.152  25.062  1.00  0.00     0.174 C 
ATOM     78  C   UNL A   1      34.279  24.554  25.686  1.00  0.00     0.035 C 
ATOM     79  N   UNL A   1      32.798  22.980  24.486  1.00  0.00    -0.325 N 
ATOM     80  C   UNL A   1      33.798  25.683  24.773  1.00  0.00     0.004 C 
ATOM     81  C   UNL A   1      32.382  24.009  23.530  1.00  0.00     0.121 C 
ATOM     82  C   UNL A   1      32.422  25.386  24.187  1.00  0.00     0.022 C 
BRANCH  79  83
ATOM     83  C   UNL A   1      31.964  21.990  25.015  1.00  0.00     0.274 C 
ATOM     84  O   UNL A   1      30.968  22.281  25.682  1.00  0.00    -0.267 OA
BRANCH  83  85
ATOM     85  C   UNL A   1      32.303  20.586  24.772  1.00  0.00     0.147 A 
ATOM     86  C   UNL A   1      32.595  19.994  23.554  1.00  0.00     0.127 A 
ATOM     87  N   UNL A   1      32.434  19.661  25.794  1.00  0.00    -0.223 NA
ATOM     88  N   UNL A   1      32.881  18.682  23.834  1.00  0.00    -0.306 N 
ATOM     89  C   UNL A   1      32.783  18.533  25.212  1.00  0.00     0.137 A 
ATOM     90  C   UNL A   1      33.206  17.641  22.968  1.00  0.00     0.093 A 
ATOM     91  C   UNL A   1      33.059  17.244  25.747  1.00  0.00     0.048 A 
ATOM     92  C   UNL A   1      33.448  16.420  23.475  1.00  0.00     0.018 A 
ATOM     93  C   UNL A   1      33.375  16.230  24.918  1.00  0.00     0.005 A 
ENDBRANCH  83  85
ENDBRANCH  79  83
ENDBRANCH  74  77
ENDBRANCH  72  73
ENDBRANCH  71  72
ENDBRANCH   1  71
TORSDOF 15
ENDMDL
MODEL 2
REMARK VINA RESULT:     -12.5      5.538      9.162
REMARK SMILES O=C(NCCCNC(=O)[C@H]1CCCCN1C(=O)c1cn2ccccc2n1)c1ccc(-c2c3nc(c(-c4cccc(S(=O)(=O)[O-])c4F)c4ccc([nH]4)c(-c4cccc(S(=O)(=O)[O-])c4F)c4nc(c(-c5cccc(S(=O)(=O)[O-])c5F)c5ccc2[nH]5)C=C4)C=C3)cc1
REMARK SMILES IDX 4 1 3 2 1 3 2 4 27 6 28 7 89 8 29 9 88 10 30 11 31 12 32 13
REMARK SMILES IDX 82 14 33 15 87 16 81 17 83 18 34 19 86 20 80 21 79 22 35 24
REMARK SMILES IDX 67 25 47 26 66 27 48 28 51 29 65 30 84 31 49 32 50 33 64 35
REMARK SMILES IDX 85 36 52 37 36 38 37 39 45 40 38 41 40 42 46 43 39 44 41 45
REMARK SMILES IDX 42 46 43 47 44 48 68 49 69 50 77 51 70 52 72 53 78 54 71 55
REMARK SMILES IDX 73 56 74 57 75 58 76 59 53 60 54 61 62 62 55 63 57 64 63 65
REMARK SMILES IDX 56 66 58 67 59 68 60 69 61 70 5 71 6 72 7 73 8 74 9 76 10 77
REMARK SMILES IDX 11 78 15 79 12 80 14 81 13 82 16 83 17 84 18 85 19 86 26 87
REMARK SMILES IDX 20 88 25 89 21 90 24 91 22 92 23 93
REMARK H PARENT 3 5 83 23 51 34 7 75
REMARK Flexibility Score: inf
ROOT
ATOM      1  C   UNL A   1      34.033  29.072  26.144  1.00  0.00     0.118 C 
ENDROOT
BRANCH   1   2
ATOM      2  N   UNL A   1      33.934  30.408  26.709  1.00  0.00    -0.352 N 
ATOM      3  O   UNL A   1      34.296  32.063  28.181  1.00  0.00    -0.269 OA
ATOM      4  C   UNL A   1      34.687  31.007  27.688  1.00  0.00     0.251 C 
ATOM      5  H   UNL A   1      33.217  30.968  26.333  1.00  0.00     0.163 HD
BRANCH   4   6
ATOM      6  C   UNL A   1      35.949  30.389  28.148  1.00  0.00     0.039 A 
ATOM      7  C   UNL A   1      37.129  30.536  27.414  1.00  0.00     0.014 A 
ATOM      8  C   UNL A   1      35.965  29.703  29.367  1.00  0.00     0.014 A 
ATOM      9  C   UNL A   1      38.296  29.909  27.838  1.00  0.00     0.010 A 
ATOM     10  C   UNL A   1      37.157  29.143  29.833  1.00  0.00     0.010 A 
ATOM     11  C   UNL A   1      38.329  29.230  29.067  1.00  0.00    -0.014 A 
BRANCH  11  12
ATOM     12  C   UNL A   1      39.625  28.736  29.594  1.00  0.00     0.031 A 
ATOM     13  C   UNL A   1      40.334  29.437  30.716  1.00  0.00     0.074 A 
ATOM     14  C   UNL A   1      40.181  27.657  29.006  1.00  0.00     0.049 A 
ATOM     15  N   UNL A   1      41.480  29.140  31.274  1.00  0.00    -0.248 NA
ATOM     16  C   UNL A   1      39.685  30.629  31.287  1.00  0.00     0.031 C 
ATOM     17  C   UNL A   1      39.607  26.932  27.868  1.00  0.00     0.029 A 
ATOM     18  N   UNL A   1      41.357  26.998  29.258  1.00  0.00    -0.354 N 
ATOM     19  C   UNL A   1      41.714  30.126  32.221  1.00  0.00     0.074 A 
ATOM     20  C   UNL A   1      40.585  31.031  32.175  1.00  0.00     0.031 C 
ATOM     21  C   UNL A   1      40.431  25.934  27.519  1.00  0.00     0.029 A 
ATOM     22  C   UNL A   1      41.615  25.980  28.368  1.00  0.00     0.049 A 
ATOM     23  H   UNL A   1      41.958  27.230  30.002  1.00  0.00     0.167 HD
ATOM     24  C   UNL A   1      42.773  30.257  33.056  1.00  0.00     0.034 A 
ATOM     25  C   UNL A   1      42.698  25.193  28.223  1.00  0.00     0.034 A 
ATOM     26  C   UNL A   1      43.872  29.330  33.119  1.00  0.00     0.049 A 
ATOM     27  C   UNL A   1      43.847  25.361  29.174  1.00  0.00     0.074 A 
ATOM     28  C   UNL A   1      44.928  29.311  34.013  1.00  0.00     0.029 A 
ATOM     29  N   UNL A   1      44.075  28.279  32.238  1.00  0.00    -0.354 N 
ATOM     30  N   UNL A   1      43.961  26.182  30.189  1.00  0.00    -0.248 NA
ATOM     31  C   UNL A   1      45.008  24.483  28.975  1.00  0.00     0.031 C 
ATOM     32  C   UNL A   1      45.790  28.271  33.650  1.00  0.00     0.029 A 
ATOM     33  C   UNL A   1      45.257  27.628  32.546  1.00  0.00     0.049 A 
ATOM     34  H   UNL A   1      43.469  28.033  31.503  1.00  0.00     0.167 HD
ATOM     35  C   UNL A   1      45.198  25.910  30.760  1.00  0.00     0.074 A 
ATOM     36  C   UNL A   1      45.780  24.824  29.999  1.00  0.00     0.031 C 
ATOM     37  C   UNL A   1      45.807  26.521  31.805  1.00  0.00     0.034 A 
BRANCH  24  38
ATOM     38  C   UNL A   1      42.799  31.429  34.003  1.00  0.00     0.023 A 
ATOM     39  C   UNL A   1      43.355  32.653  33.584  1.00  0.00     0.012 A 
ATOM     40  C   UNL A   1      42.167  31.348  35.260  1.00  0.00     0.148 A 
ATOM     41  C   UNL A   1      43.295  33.778  34.407  1.00  0.00     0.002 A 
ATOM     42  C   UNL A   1      42.077  32.482  36.059  1.00  0.00     0.091 A 
ATOM     43  F   UNL A   1      41.659  30.168  35.645  1.00  0.00    -0.205 F 
ATOM     44  C   UNL A   1      42.646  33.695  35.637  1.00  0.00     0.022 A 
BRANCH  42  45
ATOM     45  S   UNL A   1      41.195  32.501  37.624  1.00  0.00     0.127 S 
ATOM     46  O   UNL A   1      42.030  31.623  38.442  1.00  0.00    -0.237 OA
ATOM     47  O   UNL A   1      41.255  33.917  37.992  1.00  0.00    -0.237 OA
ATOM     48  O   UNL A   1      39.858  32.002  37.339  1.00  0.00    -0.744 OA
ENDBRANCH  42  45
ENDBRANCH  24  38
BRANCH  25  49
ATOM     49  C   UNL A   1      42.736  24.177  27.136  1.00  0.00     0.023 A 
ATOM     50  C   UNL A   1      43.427  24.456  25.943  1.00  0.00     0.012 A 
ATOM     51  C   UNL A   1      42.118  22.920  27.295  1.00  0.00     0.148 A 
ATOM     52  C   UNL A   1      43.478  23.513  24.915  1.00  0.00     0.002 A 
ATOM     53  C   UNL A   1      42.225  21.963  26.294  1.00  0.00     0.091 A 
ATOM     54  F   UNL A   1      41.446  22.678  28.430  1.00  0.00    -0.205 F 
ATOM     55  C   UNL A   1      42.890  22.263  25.095  1.00  0.00     0.022 A 
BRANCH  53  56
ATOM     56  S   UNL A   1      41.623  20.285  26.513  1.00  0.00     0.127 S 
ATOM     57  O   UNL A   1      42.185  19.934  27.813  1.00  0.00    -0.237 OA
ATOM     58  O   UNL A   1      40.171  20.475  26.500  1.00  0.00    -0.237 OA
ATOM     59  O   UNL A   1      42.135  19.540  25.370  1.00  0.00    -0.744 OA
ENDBRANCH  53  56
ENDBRANCH  25  49
BRANCH  37  60
ATOM     60  C   UNL A   1      47.173  26.028  32.198  1.00  0.00     0.023 A 
ATOM     61  C   UNL A   1      48.312  26.576  31.578  1.00  0.00     0.012 A 
ATOM     62  C   UNL A   1      47.330  25.082  33.229  1.00  0.00     0.148 A 
ATOM     63  C   UNL A   1      49.590  26.172  31.962  1.00  0.00     0.002 A 
ATOM     64  C   UNL A   1      48.607  24.720  33.640  1.00  0.00     0.091 A 
ATOM     65  F   UNL A   1      46.230  24.561  33.793  1.00  0.00    -0.205 F 
ATOM     66  C   UNL A   1      49.737  25.255  33.001  1.00  0.00     0.022 A 
BRANCH  64  67
ATOM     67  S   UNL A   1      48.899  23.618  35.028  1.00  0.00     0.127 S 
ATOM     68  O   UNL A   1      48.318  24.375  36.137  1.00  0.00    -0.237 OA
ATOM     69  O   UNL A   1      48.145  22.426  34.641  1.00  0.00    -0.237 OA
ATOM     70  O   UNL A   1      50.342  23.427  35.095  1.00  0.00    -0.744 OA
ENDBRANCH  64  67
ENDBRANCH  37  60
ENDBRANCH  11  12
ENDBRANCH   4   6
ENDBRANCH   1   2
BRANCH   1  71
ATOM     71  C   UNL A   1      33.341  28.019  27.003  1.00  0.00     0.042 C 
BRANCH  71  72
ATOM     72  C   UNL A   1      31.819  28.063  26.924  1.00  0.00     0.117 C 
BRANCH  72  73
ATOM     73  N   UNL A   1      31.226  26.762  27.176  1.00  0.00    -0.354 N 
ATOM     74  C   UNL A   1      31.263  25.626  26.421  1.00  0.00     0.242 C 
ATOM     75  H   UNL A   1      30.722  26.689  28.018  1.00  0.00     0.163 HD
ATOM     76  O   UNL A   1      30.602  24.664  26.823  1.00  0.00    -0.273 OA
BRANCH  74  77
ATOM     77  C   UNL A   1      32.042  25.603  25.086  1.00  0.00     0.174 C 
ATOM     78  C   UNL A   1      32.544  24.188  24.742  1.00  0.00     0.035 C 
ATOM     79  N   UNL A   1      31.232  26.138  23.978  1.00  0.00    -0.325 N 
ATOM     80  C   UNL A   1      31.450  23.260  24.210  1.00  0.00     0.004 C 
ATOM     81  C   UNL A   1      30.118  25.292  23.542  1.00  0.00     0.121 C 
ATOM     82  C   UNL A   1      30.636  23.924  23.106  1.00  0.00     0.022 C 
BRANCH  79  83
ATOM     83  C   UNL A   1      31.678  27.285  23.314  1.00  0.00     0.274 C 
ATOM     84  O   UNL A   1      32.830  27.368  22.882  1.00  0.00    -0.267 OA
BRANCH  83  85
ATOM     85  C   UNL A   1      30.747  28.404  23.148  1.00  0.00     0.147 A 
ATOM     86  C   UNL A   1      30.528  29.450  24.030  1.00  0.00     0.127 A 
ATOM     87  N   UNL A   1      29.988  28.580  22.004  1.00  0.00    -0.223 NA
ATOM     88  N   UNL A   1      29.602  30.261  23.427  1.00  0.00    -0.306 N 
ATOM     89  C   UNL A   1      29.315  29.696  22.190  1.00  0.00     0.137 A 
ATOM     90  C   UNL A   1      29.008  31.431  23.895  1.00  0.00     0.093 A 
ATOM     91  C   UNL A   1      28.380  30.382  21.364  1.00  0.00     0.048 A 
ATOM     92  C   UNL A   1      28.111  32.065  23.120  1.00  0.00     0.018 A 
ATOM     93  C   UNL A   1      27.800  31.514  21.808  1.00  0.00     0.005 A 
ENDBRANCH  83  85
ENDBRANCH  79  83
ENDBRANCH  74  77
ENDBRANCH  72  73
ENDBRANCH  71  72
ENDBRANCH   1  71
TORSDOF 15
ENDMDL
MODEL 3
REMARK VINA RESULT:     -12.3      6.132     11.461
REMARK SMILES O=C(NCCCNC(=O)[C@H]1CCCCN1C(=O)c1cn2ccccc2n1)c1ccc(-c2c3nc(c(-c4cccc(S(=O)(=O)[O-])c4F)c4ccc([nH]4)c(-c4cccc(S(=O)(=O)[O-])c4F)c4nc(c(-c5cccc(S(=O)(=O)[O-])c5F)c5ccc2[nH]5)C=C4)C=C3)cc1
REMARK SMILES IDX 4 1 3 2 1 3 2 4 27 6 28 7 89 8 29 9 88 10 30 11 31 12 32 13
REMARK SMILES IDX 82 14 33 15 87 16 81 17 83 18 34 19 86 20 80 21 79 22 35 24
REMARK SMILES IDX 67 25 47 26 66 27 48 28 51 29 65 30 84 31 49 32 50 33 64 35
REMARK SMILES IDX 85 36 52 37 36 38 37 39 45 40 38 41 40 42 46 43 39 44 41 45
REMARK SMILES IDX 42 46 43 47 44 48 68 49 69 50 77 51 70 52 72 53 78 54 71 55
REMARK SMILES IDX 73 56 74 57 75 58 76 59 53 60 54 61 62 62 55 63 57 64 63 65
REMARK SMILES IDX 56 66 58 67 59 68 60 69 61 70 5 71 6 72 7 73 8 74 9 76 10 77
REMARK SMILES IDX 11 78 15 79 12 80 14 81 13 82 16 83 17 84 18 85 19 86 26 87
REMARK SMILES IDX 20 88 25 89 21 90 24 91 22 92 23 93
REMARK H PARENT 3 5 83 23 51 34 7 75
REMARK Flexibility Score: inf
ROOT
ATOM      1  C   UNL A   1      32.347  31.323  27.244  1.00  0.00     0.118 C 
ENDROOT
BRANCH   1   2
ATOM      2  N   UNL A   1      32.388  32.777  27.252  1.00  0.00    -0.352 N 
ATOM      3  O   UNL A   1      32.937  34.827  27.984  1.00  0.00    -0.269 OA
ATOM      4  C   UNL A   1      33.215  33.630  27.940  1.00  0.00     0.251 C 
ATOM      5  H   UNL A   1      31.721  33.216  26.678  1.00  0.00     0.163 HD
BRANCH   4   6
ATOM      6  C   UNL A   1      34.421  33.117  28.625  1.00  0.00     0.039 A 
ATOM      7  C   UNL A   1      34.317  32.392  29.815  1.00  0.00     0.014 A 
ATOM      8  C   UNL A   1      35.673  33.311  28.031  1.00  0.00     0.014 A 
ATOM      9  C   UNL A   1      35.465  31.957  30.468  1.00  0.00     0.010 A 
ATOM     10  C   UNL A   1      36.819  32.802  28.648  1.00  0.00     0.010 A 
ATOM     11  C   UNL A   1      36.727  32.132  29.877  1.00  0.00    -0.014 A 
BRANCH  11  12
ATOM     12  C   UNL A   1      37.918  31.494  30.490  1.00  0.00     0.031 A 
ATOM     13  C   UNL A   1      38.692  30.427  29.772  1.00  0.00     0.074 A 
ATOM     14  C   UNL A   1      38.264  31.864  31.740  1.00  0.00     0.049 A 
ATOM     15  N   UNL A   1      39.741  29.761  30.182  1.00  0.00    -0.248 NA
ATOM     16  C   UNL A   1      38.234  30.049  28.425  1.00  0.00     0.031 C 
ATOM     17  C   UNL A   1      37.546  32.849  32.553  1.00  0.00     0.029 A 
ATOM     18  N   UNL A   1      39.284  31.442  32.555  1.00  0.00    -0.354 N 
ATOM     19  C   UNL A   1      40.041  28.856  29.173  1.00  0.00     0.074 A 
ATOM     20  C   UNL A   1      39.068  29.063  28.120  1.00  0.00     0.031 C 
ATOM     21  C   UNL A   1      38.143  32.953  33.749  1.00  0.00     0.029 A 
ATOM     22  C   UNL A   1      39.249  32.006  33.809  1.00  0.00     0.049 A 
ATOM     23  H   UNL A   1      39.973  30.799  32.271  1.00  0.00     0.167 HD
ATOM     24  C   UNL A   1      41.040  27.943  29.130  1.00  0.00     0.034 A 
ATOM     25  C   UNL A   1      39.998  31.765  34.902  1.00  0.00     0.034 A 
ATOM     26  C   UNL A   1      42.024  27.773  30.168  1.00  0.00     0.049 A 
ATOM     27  C   UNL A   1      41.104  30.754  34.813  1.00  0.00     0.074 A 
ATOM     28  C   UNL A   1      43.144  26.960  30.162  1.00  0.00     0.029 A 
ATOM     29  N   UNL A   1      41.990  28.399  31.404  1.00  0.00    -0.354 N 
ATOM     30  N   UNL A   1      41.488  30.045  33.780  1.00  0.00    -0.248 NA
ATOM     31  C   UNL A   1      41.892  30.521  36.031  1.00  0.00     0.031 C 
ATOM     32  C   UNL A   1      43.768  27.067  31.409  1.00  0.00     0.029 A 
ATOM     33  C   UNL A   1      43.050  27.964  32.182  1.00  0.00     0.049 A 
ATOM     34  H   UNL A   1      41.313  29.055  31.686  1.00  0.00     0.167 HD
ATOM     35  C   UNL A   1      42.572  29.295  34.217  1.00  0.00     0.074 A 
ATOM     36  C   UNL A   1      42.805  29.661  35.599  1.00  0.00     0.031 C 
ATOM     37  C   UNL A   1      43.294  28.368  33.543  1.00  0.00     0.034 A 
BRANCH  24  38
ATOM     38  C   UNL A   1      41.157  27.064  27.913  1.00  0.00     0.023 A 
ATOM     39  C   UNL A   1      41.827  27.541  26.770  1.00  0.00     0.012 A 
ATOM     40  C   UNL A   1      40.708  25.729  27.947  1.00  0.00     0.148 A 
ATOM     41  C   UNL A   1      42.038  26.706  25.672  1.00  0.00     0.002 A 
ATOM     42  C   UNL A   1      40.954  24.891  26.865  1.00  0.00     0.091 A 
ATOM     43  F   UNL A   1      40.058  25.301  29.040  1.00  0.00    -0.205 F 
ATOM     44  C   UNL A   1      41.613  25.381  25.724  1.00  0.00     0.022 A 
BRANCH  42  45
ATOM     45  S   UNL A   1      40.518  23.149  26.865  1.00  0.00     0.127 S 
ATOM     46  O   UNL A   1      39.085  23.205  26.581  1.00  0.00    -0.237 OA
ATOM     47  O   UNL A   1      41.337  22.628  25.769  1.00  0.00    -0.237 OA
ATOM     48  O   UNL A   1      40.873  22.644  28.183  1.00  0.00    -0.744 OA
ENDBRANCH  42  45
ENDBRANCH  24  38
BRANCH  25  49
ATOM     49  C   UNL A   1      39.724  32.502  36.166  1.00  0.00     0.023 A 
ATOM     50  C   UNL A   1      40.424  33.690  36.448  1.00  0.00     0.012 A 
ATOM     51  C   UNL A   1      38.746  32.048  37.074  1.00  0.00     0.148 A 
ATOM     52  C   UNL A   1      40.177  34.397  37.626  1.00  0.00     0.002 A 
ATOM     53  C   UNL A   1      38.461  32.790  38.214  1.00  0.00     0.091 A 
ATOM     54  F   UNL A   1      38.103  30.904  36.801  1.00  0.00    -0.205 F 
ATOM     55  C   UNL A   1      39.187  33.956  38.501  1.00  0.00     0.022 A 
BRANCH  53  56
ATOM     56  S   UNL A   1      37.102  32.365  39.309  1.00  0.00     0.127 S 
ATOM     57  O   UNL A   1      35.942  32.646  38.469  1.00  0.00    -0.237 OA
ATOM     58  O   UNL A   1      37.347  30.945  39.568  1.00  0.00    -0.237 OA
ATOM     59  O   UNL A   1      37.270  33.219  40.478  1.00  0.00    -0.744 OA
ENDBRANCH  53  56
ENDBRANCH  25  49
BRANCH  37  60
ATOM     60  C   UNL A   1      44.413  27.686  34.282  1.00  0.00     0.023 A 
ATOM     61  C   UNL A   1      45.684  28.291  34.327  1.00  0.00     0.012 A 
ATOM     62  C   UNL A   1      44.187  26.491  34.992  1.00  0.00     0.148 A 
ATOM     63  C   UNL A   1      46.722  27.703  35.049  1.00  0.00     0.002 A 
ATOM     64  C   UNL A   1      45.212  25.937  35.748  1.00  0.00     0.091 A 
ATOM     65  F   UNL A   1      42.973  25.924  34.920  1.00  0.00    -0.205 F 
ATOM     66  C   UNL A   1      46.483  26.535  35.769  1.00  0.00     0.022 A 
BRANCH  64  67
ATOM     67  S   UNL A   1      44.975  24.487  36.781  1.00  0.00     0.127 S 
ATOM     68  O   UNL A   1      44.094  25.006  37.827  1.00  0.00    -0.237 OA
ATOM     69  O   UNL A   1      44.340  23.549  35.857  1.00  0.00    -0.237 OA
ATOM     70  O   UNL A   1      46.304  24.089  37.230  1.00  0.00    -0.744 OA
ENDBRANCH  64  67
ENDBRANCH  37  60
ENDBRANCH  11  12
ENDBRANCH   4   6
ENDBRANCH   1   2
BRANCH   1  71
ATOM     71  C   UNL A   1      33.598  30.707  26.628  1.00  0.00     0.042 C 
BRANCH  71  72
ATOM     72  C   UNL A   1      33.923  29.314  27.157  1.00  0.00     0.117 C 
BRANCH  72  73
ATOM     73  N   UNL A   1      32.722  28.572  27.500  1.00  0.00    -0.354 N 
ATOM     74  C   UNL A   1      32.120  27.537  26.846  1.00  0.00     0.242 C 
ATOM     75  H   UNL A   1      32.277  28.859  28.329  1.00  0.00     0.163 HD
ATOM     76  O   UNL A   1      31.051  27.129  27.307  1.00  0.00    -0.273 OA
BRANCH  74  77
ATOM     77  C   UNL A   1      32.734  26.978  25.542  1.00  0.00     0.174 C 
ATOM     78  C   UNL A   1      33.629  25.754  25.813  1.00  0.00     0.035 C 
ATOM     79  N   UNL A   1      31.693  26.638  24.557  1.00  0.00    -0.325 N 
ATOM     80  C   UNL A   1      32.846  24.468  26.089  1.00  0.00     0.004 C 
ATOM     81  C   UNL A   1      30.874  25.466  24.878  1.00  0.00     0.121 C 
ATOM     82  C   UNL A   1      31.761  24.235  25.045  1.00  0.00     0.022 C 
BRANCH  79  83
ATOM     83  C   UNL A   1      31.682  27.316  23.333  1.00  0.00     0.274 C 
ATOM     84  O   UNL A   1      32.437  26.991  22.414  1.00  0.00    -0.267 OA
BRANCH  83  85
ATOM     85  C   UNL A   1      30.756  28.438  23.164  1.00  0.00     0.147 A 
ATOM     86  C   UNL A   1      30.511  29.465  24.060  1.00  0.00     0.127 A 
ATOM     87  N   UNL A   1      30.028  28.637  22.002  1.00  0.00    -0.223 NA
ATOM     88  N   UNL A   1      29.601  30.288  23.448  1.00  0.00    -0.306 N 
ATOM     89  C   UNL A   1      29.350  29.748  22.192  1.00  0.00     0.137 A 
ATOM     90  C   UNL A   1      28.993  31.448  23.923  1.00  0.00     0.093 A 
ATOM     91  C   UNL A   1      28.438  30.450  21.354  1.00  0.00     0.048 A 
ATOM     92  C   UNL A   1      28.119  32.098  23.135  1.00  0.00     0.018 A 
ATOM     93  C   UNL A   1      27.845  31.573  21.804  1.00  0.00     0.005 A 
ENDBRANCH  83  85
ENDBRANCH  79  83
ENDBRANCH  74  77
ENDBRANCH  72  73
ENDBRANCH  71  72
ENDBRANCH   1  71
TORSDOF 15
ENDMDL
