MODEL 1
REMARK VINA RESULT:     -11.1      0.000      0.000
REMARK SMILES C[C@H](NC(=O)c1ccc(C(C)(C)C)cc1)C(=O)N[C@@H](C(=O)NCCCNC(=O)c1ccc(-c2c3nc(c(-c4cccc(S(=O)(=O)[O-])c4F)c4ccc([nH]4)c(-c4cccc(S(=O)(=O)[O-])c4F)c4nc(c(-c5cccc(S(=O)(=O)[O-])c5F)c5ccc2[nH]5)C=C4)C=C3)cc1)[C@H](C)O
REMARK SMILES IDX 23 1 22 2 20 3 21 4 19 6 18 7 16 8 17 9 2 11 1 12 3 13 4 14
REMARK SMILES IDX 5 16 6 17 7 18 15 19 8 20 14 21 9 22 10 23 11 24 12 25 13 26
REMARK SMILES IDX 92 27 93 28 94 29 24 31 25 32 26 33 27 34 28 36 29 37 30 38
REMARK SMILES IDX 91 39 31 40 90 41 32 42 33 43 34 44 84 45 35 46 89 47 83 48
REMARK SMILES IDX 85 49 36 50 88 51 82 52 81 53 37 55 69 56 49 57 68 58 50 59
REMARK SMILES IDX 53 60 67 61 86 62 51 63 52 64 66 66 87 67 54 68 38 69 39 70
REMARK SMILES IDX 47 71 40 72 42 73 48 74 41 75 43 76 44 77 45 78 46 79 70 80
REMARK SMILES IDX 71 81 79 82 72 83 74 84 80 85 73 86 75 87 76 88 77 89 78 90
REMARK SMILES IDX 55 91 56 92 64 93 57 94 59 95 65 96 58 97 60 98 61 99 62 100
REMARK SMILES IDX 63 101
REMARK H PARENT 22 5 18 10 3 15 94 30 26 35 85 54 53 65
REMARK Flexibility Score: inf
ROOT
ATOM      1  C   UNL A   1      37.203  20.751  25.056  1.00  0.00     0.117 C 
ENDROOT
BRANCH   1   2
ATOM      2  N   UNL A   1      37.128  21.459  23.805  1.00  0.00    -0.354 N 
ATOM      3  C   UNL A   1      36.385  22.567  23.526  1.00  0.00     0.245 C 
ATOM      4  O   UNL A   1      36.808  23.284  22.609  1.00  0.00    -0.273 OA
ATOM      5  H   UNL A   1      37.675  21.104  23.069  1.00  0.00     0.163 HD
BRANCH   3   6
ATOM      6  C   UNL A   1      35.173  23.016  24.414  1.00  0.00     0.200 C 
BRANCH   6   7
ATOM      7  N   UNL A   1      34.029  22.093  24.362  1.00  0.00    -0.340 N 
ATOM      8  C   UNL A   1      32.953  21.885  25.176  1.00  0.00     0.243 C 
ATOM      9  O   UNL A   1      32.151  21.021  24.803  1.00  0.00    -0.273 OA
ATOM     10  H   UNL A   1      34.042  21.500  23.576  1.00  0.00     0.164 HD
BRANCH   8  11
ATOM     11  C   UNL A   1      32.760  22.536  26.578  1.00  0.00     0.168 C 
ATOM     12  C   UNL A   1      33.670  21.982  27.662  1.00  0.00     0.041 C 
BRANCH  11  13
ATOM     13  N   UNL A   1      31.327  22.525  26.880  1.00  0.00    -0.341 N 
ATOM     14  C   UNL A   1      30.371  23.502  26.881  1.00  0.00     0.251 C 
ATOM     15  H   UNL A   1      30.984  21.637  27.134  1.00  0.00     0.164 HD
ATOM     16  O   UNL A   1      29.296  23.321  27.433  1.00  0.00    -0.269 OA
BRANCH  14  17
ATOM     17  C   UNL A   1      30.636  24.762  26.175  1.00  0.00     0.039 A 
ATOM     18  C   UNL A   1      31.027  25.895  26.882  1.00  0.00     0.014 A 
ATOM     19  C   UNL A   1      30.456  24.811  24.795  1.00  0.00     0.014 A 
ATOM     20  C   UNL A   1      31.328  27.064  26.178  1.00  0.00     0.005 A 
ATOM     21  C   UNL A   1      30.756  25.980  24.101  1.00  0.00     0.005 A 
ATOM     22  C   UNL A   1      31.232  27.121  24.770  1.00  0.00    -0.043 A 
BRANCH  22  23
ATOM     23  C   UNL A   1      31.634  28.396  24.011  1.00  0.00    -0.013 C 
ATOM     24  C   UNL A   1      32.392  28.005  22.729  1.00  0.00     0.016 C 
ATOM     25  C   UNL A   1      30.375  29.210  23.636  1.00  0.00     0.016 C 
ATOM     26  C   UNL A   1      32.544  29.339  24.832  1.00  0.00     0.016 C 
ENDBRANCH  22  23
ENDBRANCH  14  17
ENDBRANCH  11  13
ENDBRANCH   8  11
ENDBRANCH   6   7
BRANCH   6  27
ATOM     27  C   UNL A   1      34.775  24.479  23.992  1.00  0.00     0.143 C 
ATOM     28  C   UNL A   1      34.398  25.418  25.131  1.00  0.00     0.041 C 
BRANCH  27  29
ATOM     29  O   UNL A   1      33.632  24.520  23.122  1.00  0.00    -0.391 OA
ATOM     30  H   UNL A   1      33.860  24.114  22.271  1.00  0.00     0.211 HD
ENDBRANCH  27  29
ENDBRANCH   6  27
ENDBRANCH   3   6
ENDBRANCH   1   2
BRANCH   1  31
ATOM     31  C   UNL A   1      38.326  19.725  25.110  1.00  0.00     0.042 C 
BRANCH  31  32
ATOM     32  C   UNL A   1      39.377  20.047  26.165  1.00  0.00     0.118 C 
BRANCH  32  33
ATOM     33  N   UNL A   1      40.561  19.201  26.053  1.00  0.00    -0.352 N 
ATOM     34  C   UNL A   1      41.891  19.535  26.094  1.00  0.00     0.251 C 
ATOM     35  H   UNL A   1      40.376  18.241  25.929  1.00  0.00     0.163 HD
ATOM     36  O   UNL A   1      42.739  18.680  25.852  1.00  0.00    -0.269 OA
BRANCH  34  37
ATOM     37  C   UNL A   1      42.304  20.919  26.406  1.00  0.00     0.039 A 
ATOM     38  C   UNL A   1      42.419  21.839  25.358  1.00  0.00     0.014 A 
ATOM     39  C   UNL A   1      42.577  21.311  27.717  1.00  0.00     0.014 A 
ATOM     40  C   UNL A   1      42.746  23.167  25.637  1.00  0.00     0.010 A 
ATOM     41  C   UNL A   1      42.819  22.649  28.001  1.00  0.00     0.010 A 
ATOM     42  C   UNL A   1      42.914  23.589  26.965  1.00  0.00    -0.014 A 
BRANCH  42  43
ATOM     43  C   UNL A   1      43.192  25.007  27.304  1.00  0.00     0.031 A 
ATOM     44  C   UNL A   1      44.582  25.559  27.146  1.00  0.00     0.074 A 
ATOM     45  C   UNL A   1      42.220  25.761  27.853  1.00  0.00     0.049 A 
ATOM     46  N   UNL A   1      45.043  26.738  27.471  1.00  0.00    -0.248 NA
ATOM     47  C   UNL A   1      45.597  24.653  26.584  1.00  0.00     0.031 C 
ATOM     48  C   UNL A   1      40.853  25.313  28.129  1.00  0.00     0.029 A 
ATOM     49  N   UNL A   1      42.239  27.057  28.300  1.00  0.00    -0.354 N 
ATOM     50  C   UNL A   1      46.406  26.699  27.202  1.00  0.00     0.074 A 
ATOM     51  C   UNL A   1      46.704  25.368  26.720  1.00  0.00     0.031 C 
ATOM     52  C   UNL A   1      40.160  26.323  28.679  1.00  0.00     0.029 A 
ATOM     53  C   UNL A   1      41.040  27.479  28.824  1.00  0.00     0.049 A 
ATOM     54  H   UNL A   1      43.037  27.633  28.252  1.00  0.00     0.167 HD
ATOM     55  C   UNL A   1      47.322  27.691  27.312  1.00  0.00     0.034 A 
ATOM     56  C   UNL A   1      40.687  28.665  29.355  1.00  0.00     0.034 A 
ATOM     57  C   UNL A   1      47.004  29.031  27.722  1.00  0.00     0.049 A 
ATOM     58  C   UNL A   1      41.709  29.768  29.414  1.00  0.00     0.074 A 
ATOM     59  C   UNL A   1      47.830  30.140  27.758  1.00  0.00     0.029 A 
ATOM     60  N   UNL A   1      45.757  29.444  28.164  1.00  0.00    -0.354 N 
ATOM     61  N   UNL A   1      42.954  29.762  29.002  1.00  0.00    -0.248 NA
ATOM     62  C   UNL A   1      41.268  31.051  29.981  1.00  0.00     0.031 C 
ATOM     63  C   UNL A   1      47.082  31.224  28.232  1.00  0.00     0.029 A 
ATOM     64  C   UNL A   1      45.790  30.791  28.483  1.00  0.00     0.049 A 
ATOM     65  H   UNL A   1      44.965  28.867  28.242  1.00  0.00     0.167 HD
ATOM     66  C   UNL A   1      43.436  31.047  29.226  1.00  0.00     0.074 A 
ATOM     67  C   UNL A   1      42.342  31.808  29.795  1.00  0.00     0.031 C 
ATOM     68  C   UNL A   1      44.675  31.546  28.995  1.00  0.00     0.034 A 
BRANCH  55  69
ATOM     69  C   UNL A   1      48.739  27.371  26.915  1.00  0.00     0.023 A 
ATOM     70  C   UNL A   1      49.605  26.779  27.857  1.00  0.00     0.012 A 
ATOM     71  C   UNL A   1      49.211  27.630  25.614  1.00  0.00     0.148 A 
ATOM     72  C   UNL A   1      50.929  26.493  27.528  1.00  0.00     0.002 A 
ATOM     73  C   UNL A   1      50.520  27.303  25.279  1.00  0.00     0.091 A 
ATOM     74  F   UNL A   1      48.385  28.218  24.736  1.00  0.00    -0.205 F 
ATOM     75  C   UNL A   1      51.384  26.747  26.236  1.00  0.00     0.022 A 
BRANCH  73  76
ATOM     76  S   UNL A   1      51.165  27.527  23.616  1.00  0.00     0.127 S 
ATOM     77  O   UNL A   1      50.211  26.756  22.822  1.00  0.00    -0.237 OA
ATOM     78  O   UNL A   1      51.076  28.977  23.437  1.00  0.00    -0.237 OA
ATOM     79  O   UNL A   1      52.526  27.011  23.653  1.00  0.00    -0.744 OA
ENDBRANCH  73  76
ENDBRANCH  55  69
BRANCH  56  80
ATOM     80  C   UNL A   1      39.276  28.902  29.770  1.00  0.00     0.023 A 
ATOM     81  C   UNL A   1      38.891  28.562  31.082  1.00  0.00     0.012 A 
ATOM     82  C   UNL A   1      38.334  29.499  28.910  1.00  0.00     0.148 A 
ATOM     83  C   UNL A   1      37.589  28.791  31.525  1.00  0.00     0.002 A 
ATOM     84  C   UNL A   1      37.050  29.768  29.373  1.00  0.00     0.091 A 
ATOM     85  F   UNL A   1      38.718  29.806  27.663  1.00  0.00    -0.205 F 
ATOM     86  C   UNL A   1      36.672  29.403  30.675  1.00  0.00     0.022 A 
BRANCH  84  87
ATOM     87  S   UNL A   1      35.835  30.659  28.394  1.00  0.00     0.127 S 
ATOM     88  O   UNL A   1      34.947  31.186  29.427  1.00  0.00    -0.237 OA
ATOM     89  O   UNL A   1      36.664  31.661  27.723  1.00  0.00    -0.237 OA
ATOM     90  O   UNL A   1      35.248  29.669  27.502  1.00  0.00    -0.744 OA
ENDBRANCH  84  87
ENDBRANCH  56  80
BRANCH  68  91
ATOM     91  C   UNL A   1      44.915  32.994  29.332  1.00  0.00     0.023 A 
ATOM     92  C   UNL A   1      45.363  33.342  30.621  1.00  0.00     0.012 A 
ATOM     93  C   UNL A   1      44.778  33.996  28.351  1.00  0.00     0.148 A 
ATOM     94  C   UNL A   1      45.647  34.669  30.937  1.00  0.00     0.002 A 
ATOM     95  C   UNL A   1      45.105  35.310  28.661  1.00  0.00     0.091 A 
ATOM     96  F   UNL A   1      44.329  33.647  27.137  1.00  0.00    -0.205 F 
ATOM     97  C   UNL A   1      45.531  35.650  29.955  1.00  0.00     0.022 A 
BRANCH  95  98
ATOM     98  S   UNL A   1      45.075  36.620  27.431  1.00  0.00     0.127 S 
ATOM     99  O   UNL A   1      46.028  36.122  26.441  1.00  0.00    -0.237 OA
ATOM    100  O   UNL A   1      43.678  36.609  26.994  1.00  0.00    -0.237 OA
ATOM    101  O   UNL A   1      45.475  37.833  28.132  1.00  0.00    -0.744 OA
ENDBRANCH  95  98
ENDBRANCH  68  91
ENDBRANCH  42  43
ENDBRANCH  34  37
ENDBRANCH  32  33
ENDBRANCH  31  32
ENDBRANCH   1  31
TORSDOF 20
ENDMDL
MODEL 2
REMARK VINA RESULT:     -10.7      5.338     10.170
REMARK SMILES C[C@H](NC(=O)c1ccc(C(C)(C)C)cc1)C(=O)N[C@@H](C(=O)NCCCNC(=O)c1ccc(-c2c3nc(c(-c4cccc(S(=O)(=O)[O-])c4F)c4ccc([nH]4)c(-c4cccc(S(=O)(=O)[O-])c4F)c4nc(c(-c5cccc(S(=O)(=O)[O-])c5F)c5ccc2[nH]5)C=C4)C=C3)cc1)[C@H](C)O
REMARK SMILES IDX 23 1 22 2 20 3 21 4 19 6 18 7 16 8 17 9 2 11 1 12 3 13 4 14
REMARK SMILES IDX 5 16 6 17 7 18 15 19 8 20 14 21 9 22 10 23 11 24 12 25 13 26
REMARK SMILES IDX 92 27 93 28 94 29 24 31 25 32 26 33 27 34 28 36 29 37 30 38
REMARK SMILES IDX 91 39 31 40 90 41 32 42 33 43 34 44 84 45 35 46 89 47 83 48
REMARK SMILES IDX 85 49 36 50 88 51 82 52 81 53 37 55 69 56 49 57 68 58 50 59
REMARK SMILES IDX 53 60 67 61 86 62 51 63 52 64 66 66 87 67 54 68 38 69 39 70
REMARK SMILES IDX 47 71 40 72 42 73 48 74 41 75 43 76 44 77 45 78 46 79 70 80
REMARK SMILES IDX 71 81 79 82 72 83 74 84 80 85 73 86 75 87 76 88 77 89 78 90
REMARK SMILES IDX 55 91 56 92 64 93 57 94 59 95 65 96 58 97 60 98 61 99 62 100
REMARK SMILES IDX 63 101
REMARK H PARENT 22 5 18 10 3 15 94 30 26 35 85 54 53 65
REMARK Flexibility Score: inf
ROOT
ATOM      1  C   UNL A   1      31.821  27.598  27.434  1.00  0.00     0.117 C 
ENDROOT
BRANCH   1   2
ATOM      2  N   UNL A   1      31.156  26.983  26.316  1.00  0.00    -0.354 N 
ATOM      3  C   UNL A   1      30.981  25.650  26.090  1.00  0.00     0.245 C 
ATOM      4  O   UNL A   1      30.011  25.346  25.382  1.00  0.00    -0.273 OA
ATOM      5  H   UNL A   1      30.787  27.592  25.637  1.00  0.00     0.163 HD
BRANCH   3   6
ATOM      6  C   UNL A   1      31.831  24.552  26.817  1.00  0.00     0.200 C 
BRANCH   6   7
ATOM      7  N   UNL A   1      33.167  24.356  26.232  1.00  0.00    -0.340 N 
ATOM      8  C   UNL A   1      33.771  24.813  25.096  1.00  0.00     0.243 C 
ATOM      9  O   UNL A   1      34.944  24.460  24.927  1.00  0.00    -0.273 OA
ATOM     10  H   UNL A   1      33.747  23.772  26.773  1.00  0.00     0.164 HD
BRANCH   8  11
ATOM     11  C   UNL A   1      33.049  25.596  23.959  1.00  0.00     0.168 C 
ATOM     12  C   UNL A   1      32.618  24.741  22.779  1.00  0.00     0.041 C 
BRANCH  11  13
ATOM     13  N   UNL A   1      33.869  26.765  23.635  1.00  0.00    -0.341 N 
ATOM     14  C   UNL A   1      33.574  27.982  23.085  1.00  0.00     0.251 C 
ATOM     15  H   UNL A   1      34.823  26.653  23.856  1.00  0.00     0.164 HD
ATOM     16  O   UNL A   1      34.462  28.701  22.652  1.00  0.00    -0.269 OA
BRANCH  14  17
ATOM     17  C   UNL A   1      32.178  28.434  23.056  1.00  0.00     0.039 A 
ATOM     18  C   UNL A   1      31.713  29.343  24.002  1.00  0.00     0.014 A 
ATOM     19  C   UNL A   1      31.323  27.914  22.089  1.00  0.00     0.014 A 
ATOM     20  C   UNL A   1      30.395  29.799  23.916  1.00  0.00     0.005 A 
ATOM     21  C   UNL A   1      30.010  28.372  22.010  1.00  0.00     0.005 A 
ATOM     22  C   UNL A   1      29.526  29.350  22.897  1.00  0.00    -0.043 A 
BRANCH  22  23
ATOM     23  C   UNL A   1      28.102  29.917  22.779  1.00  0.00    -0.013 C 
ATOM     24  C   UNL A   1      27.841  30.331  21.319  1.00  0.00     0.016 C 
ATOM     25  C   UNL A   1      27.069  28.849  23.204  1.00  0.00     0.016 C 
ATOM     26  C   UNL A   1      27.857  31.153  23.674  1.00  0.00     0.016 C 
ENDBRANCH  22  23
ENDBRANCH  14  17
ENDBRANCH  11  13
ENDBRANCH   8  11
ENDBRANCH   6   7
BRANCH   6  27
ATOM     27  C   UNL A   1      30.993  23.220  26.840  1.00  0.00     0.143 C 
ATOM     28  C   UNL A   1      30.918  22.461  25.522  1.00  0.00     0.041 C 
BRANCH  27  29
ATOM     29  O   UNL A   1      29.616  23.430  27.194  1.00  0.00    -0.391 OA
ATOM     30  H   UNL A   1      29.468  23.133  28.104  1.00  0.00     0.211 HD
ENDBRANCH  27  29
ENDBRANCH   6  27
ENDBRANCH   3   6
ENDBRANCH   1   2
BRANCH   1  31
ATOM     31  C   UNL A   1      31.715  29.117  27.446  1.00  0.00     0.042 C 
BRANCH  31  32
ATOM     32  C   UNL A   1      32.882  29.801  26.747  1.00  0.00     0.118 C 
BRANCH  32  33
ATOM     33  N   UNL A   1      32.901  31.244  26.969  1.00  0.00    -0.352 N 
ATOM     34  C   UNL A   1      33.808  32.022  27.643  1.00  0.00     0.251 C 
ATOM     35  H   UNL A   1      32.144  31.735  26.573  1.00  0.00     0.163 HD
ATOM     36  O   UNL A   1      33.570  33.214  27.823  1.00  0.00    -0.269 OA
BRANCH  34  37
ATOM     37  C   UNL A   1      35.053  31.428  28.171  1.00  0.00     0.039 A 
ATOM     38  C   UNL A   1      36.215  32.207  28.191  1.00  0.00     0.014 A 
ATOM     39  C   UNL A   1      35.081  30.114  28.641  1.00  0.00     0.014 A 
ATOM     40  C   UNL A   1      37.387  31.687  28.743  1.00  0.00     0.010 A 
ATOM     41  C   UNL A   1      36.223  29.629  29.267  1.00  0.00     0.010 A 
ATOM     42  C   UNL A   1      37.390  30.406  29.317  1.00  0.00    -0.014 A 
BRANCH  42  43
ATOM     43  C   UNL A   1      38.597  29.849  29.976  1.00  0.00     0.031 A 
ATOM     44  C   UNL A   1      38.996  30.330  31.344  1.00  0.00     0.074 A 
ATOM     45  C   UNL A   1      39.389  28.995  29.298  1.00  0.00     0.049 A 
ATOM     46  N   UNL A   1      40.058  30.034  32.045  1.00  0.00    -0.248 NA
ATOM     47  C   UNL A   1      38.100  31.300  31.995  1.00  0.00     0.031 C 
ATOM     48  C   UNL A   1      39.150  28.517  27.934  1.00  0.00     0.029 A 
ATOM     49  N   UNL A   1      40.570  28.396  29.656  1.00  0.00    -0.354 N 
ATOM     50  C   UNL A   1      39.986  30.817  33.191  1.00  0.00     0.074 A 
ATOM     51  C   UNL A   1      38.793  31.626  33.075  1.00  0.00     0.031 C 
ATOM     52  C   UNL A   1      40.141  27.684  27.579  1.00  0.00     0.029 A 
ATOM     53  C   UNL A   1      41.101  27.592  28.675  1.00  0.00     0.049 A 
ATOM     54  H   UNL A   1      40.998  28.529  30.533  1.00  0.00     0.167 HD
ATOM     55  C   UNL A   1      40.817  30.836  34.260  1.00  0.00     0.034 A 
ATOM     56  C   UNL A   1      42.230  26.859  28.663  1.00  0.00     0.034 A 
ATOM     57  C   UNL A   1      41.960  29.975  34.401  1.00  0.00     0.049 A 
ATOM     58  C   UNL A   1      43.108  26.854  29.885  1.00  0.00     0.074 A 
ATOM     59  C   UNL A   1      42.801  29.831  35.489  1.00  0.00     0.029 A 
ATOM     60  N   UNL A   1      42.419  29.110  33.419  1.00  0.00    -0.354 N 
ATOM     61  N   UNL A   1      42.936  27.478  31.026  1.00  0.00    -0.248 NA
ATOM     62  C   UNL A   1      44.317  26.021  29.830  1.00  0.00     0.031 C 
ATOM     63  C   UNL A   1      43.777  28.882  35.160  1.00  0.00     0.029 A 
ATOM     64  C   UNL A   1      43.537  28.431  33.872  1.00  0.00     0.049 A 
ATOM     65  H   UNL A   1      42.011  28.995  32.531  1.00  0.00     0.167 HD
ATOM     66  C   UNL A   1      43.994  27.085  31.838  1.00  0.00     0.074 A 
ATOM     67  C   UNL A   1      44.792  26.157  31.062  1.00  0.00     0.031 C 
ATOM     68  C   UNL A   1      44.286  27.469  33.105  1.00  0.00     0.034 A 
BRANCH  55  69
ATOM     69  C   UNL A   1      40.473  31.773  35.388  1.00  0.00     0.023 A 
ATOM     70  C   UNL A   1      41.240  32.940  35.577  1.00  0.00     0.012 A 
ATOM     71  C   UNL A   1      39.384  31.518  36.244  1.00  0.00     0.148 A 
ATOM     72  C   UNL A   1      40.961  33.815  36.627  1.00  0.00     0.002 A 
ATOM     73  C   UNL A   1      39.084  32.416  37.262  1.00  0.00     0.091 A 
ATOM     74  F   UNL A   1      38.679  30.390  36.069  1.00  0.00    -0.205 F 
ATOM     75  C   UNL A   1      39.878  33.557  37.464  1.00  0.00     0.022 A 
BRANCH  73  76
ATOM     76  S   UNL A   1      37.662  32.200  38.339  1.00  0.00     0.127 S 
ATOM     77  O   UNL A   1      38.205  32.606  39.633  1.00  0.00    -0.237 OA
ATOM     78  O   UNL A   1      36.689  33.133  37.767  1.00  0.00    -0.237 OA
ATOM     79  O   UNL A   1      37.290  30.798  38.218  1.00  0.00    -0.744 OA
ENDBRANCH  73  76
ENDBRANCH  55  69
BRANCH  56  80
ATOM     80  C   UNL A   1      42.535  25.986  27.494  1.00  0.00     0.023 A 
ATOM     81  C   UNL A   1      43.292  26.519  26.432  1.00  0.00     0.012 A 
ATOM     82  C   UNL A   1      42.135  24.637  27.445  1.00  0.00     0.148 A 
ATOM     83  C   UNL A   1      43.626  25.732  25.330  1.00  0.00     0.002 A 
ATOM     84  C   UNL A   1      42.512  23.845  26.365  1.00  0.00     0.091 A 
ATOM     85  F   UNL A   1      41.408  24.153  28.461  1.00  0.00    -0.205 F 
ATOM     86  C   UNL A   1      43.245  24.394  25.301  1.00  0.00     0.022 A 
BRANCH  84  87
ATOM     87  S   UNL A   1      42.171  22.082  26.292  1.00  0.00     0.127 S 
ATOM     88  O   UNL A   1      42.509  21.655  27.647  1.00  0.00    -0.237 OA
ATOM     89  O   UNL A   1      40.741  22.064  25.980  1.00  0.00    -0.237 OA
ATOM     90  O   UNL A   1      43.024  21.561  25.234  1.00  0.00    -0.744 OA
ENDBRANCH  84  87
ENDBRANCH  56  80
BRANCH  68  91
ATOM     91  C   UNL A   1      45.507  26.868  33.750  1.00  0.00     0.023 A 
ATOM     92  C   UNL A   1      46.739  27.547  33.670  1.00  0.00     0.012 A 
ATOM     93  C   UNL A   1      45.417  25.680  34.501  1.00  0.00     0.148 A 
ATOM     94  C   UNL A   1      47.869  27.039  34.308  1.00  0.00     0.002 A 
ATOM     95  C   UNL A   1      46.537  25.204  35.171  1.00  0.00     0.091 A 
ATOM     96  F   UNL A   1      44.240  25.038  34.545  1.00  0.00    -0.205 F 
ATOM     97  C   UNL A   1      47.765  25.876  35.068  1.00  0.00     0.022 A 
BRANCH  95  98
ATOM     98  S   UNL A   1      46.470  23.766  36.247  1.00  0.00     0.127 S 
ATOM     99  O   UNL A   1      47.847  23.280  36.182  1.00  0.00    -0.237 OA
ATOM    100  O   UNL A   1      46.089  24.353  37.532  1.00  0.00    -0.237 OA
ATOM    101  O   UNL A   1      45.465  22.883  35.669  1.00  0.00    -0.744 OA
ENDBRANCH  95  98
ENDBRANCH  68  91
ENDBRANCH  42  43
ENDBRANCH  34  37
ENDBRANCH  32  33
ENDBRANCH  31  32
ENDBRANCH   1  31
TORSDOF 20
ENDMDL
MODEL 3
REMARK VINA RESULT:     -10.7      4.842      9.430
REMARK SMILES C[C@H](NC(=O)c1ccc(C(C)(C)C)cc1)C(=O)N[C@@H](C(=O)NCCCNC(=O)c1ccc(-c2c3nc(c(-c4cccc(S(=O)(=O)[O-])c4F)c4ccc([nH]4)c(-c4cccc(S(=O)(=O)[O-])c4F)c4nc(c(-c5cccc(S(=O)(=O)[O-])c5F)c5ccc2[nH]5)C=C4)C=C3)cc1)[C@H](C)O
REMARK SMILES IDX 23 1 22 2 20 3 21 4 19 6 18 7 16 8 17 9 2 11 1 12 3 13 4 14
REMARK SMILES IDX 5 16 6 17 7 18 15 19 8 20 14 21 9 22 10 23 11 24 12 25 13 26
REMARK SMILES IDX 92 27 93 28 94 29 24 31 25 32 26 33 27 34 28 36 29 37 30 38
REMARK SMILES IDX 91 39 31 40 90 41 32 42 33 43 34 44 84 45 35 46 89 47 83 48
REMARK SMILES IDX 85 49 36 50 88 51 82 52 81 53 37 55 69 56 49 57 68 58 50 59
REMARK SMILES IDX 53 60 67 61 86 62 51 63 52 64 66 66 87 67 54 68 38 69 39 70
REMARK SMILES IDX 47 71 40 72 42 73 48 74 41 75 43 76 44 77 45 78 46 79 70 80
REMARK SMILES IDX 71 81 79 82 72 83 74 84 80 85 73 86 75 87 76 88 77 89 78 90
REMARK SMILES IDX 55 91 56 92 64 93 57 94 59 95 65 96 58 97 60 98 61 99 62 100
REMARK SMILES IDX 63 101
REMARK H PARENT 22 5 18 10 3 15 94 30 26 35 85 54 53 65
REMARK Flexibility Score: inf
ROOT
ATOM      1  C   UNL A   1      33.780  27.139  26.469  1.00  0.00     0.117 C 
ENDROOT
BRANCH   1   2
ATOM      2  N   UNL A   1      32.776  26.138  26.217  1.00  0.00    -0.354 N 
ATOM      3  C   UNL A   1      32.969  24.877  25.738  1.00  0.00     0.245 C 
ATOM      4  O   UNL A   1      32.104  24.046  26.044  1.00  0.00    -0.273 OA
ATOM      5  H   UNL A   1      31.847  26.393  26.413  1.00  0.00     0.163 HD
BRANCH   3   6
ATOM      6  C   UNL A   1      34.283  24.446  25.000  1.00  0.00     0.200 C 
BRANCH   6   7
ATOM      7  N   UNL A   1      34.044  23.742  23.730  1.00  0.00    -0.340 N 
ATOM      8  C   UNL A   1      33.510  24.120  22.532  1.00  0.00     0.243 C 
ATOM      9  O   UNL A   1      33.486  23.253  21.652  1.00  0.00    -0.273 OA
ATOM     10  H   UNL A   1      34.329  22.799  23.749  1.00  0.00     0.164 HD
BRANCH   8  11
ATOM     11  C   UNL A   1      32.808  25.484  22.264  1.00  0.00     0.168 C 
ATOM     12  C   UNL A   1      32.313  25.670  20.840  1.00  0.00     0.041 C 
BRANCH  11  13
ATOM     13  N   UNL A   1      33.680  26.542  22.779  1.00  0.00    -0.341 N 
ATOM     14  C   UNL A   1      33.510  27.889  22.939  1.00  0.00     0.251 C 
ATOM     15  H   UNL A   1      34.565  26.219  23.068  1.00  0.00     0.164 HD
ATOM     16  O   UNL A   1      34.471  28.619  23.132  1.00  0.00    -0.269 OA
BRANCH  14  17
ATOM     17  C   UNL A   1      32.153  28.447  22.915  1.00  0.00     0.039 A 
ATOM     18  C   UNL A   1      31.793  29.381  21.949  1.00  0.00     0.014 A 
ATOM     19  C   UNL A   1      31.245  28.050  23.894  1.00  0.00     0.014 A 
ATOM     20  C   UNL A   1      30.478  29.852  21.914  1.00  0.00     0.005 A 
ATOM     21  C   UNL A   1      29.937  28.525  23.854  1.00  0.00     0.005 A 
ATOM     22  C   UNL A   1      29.513  29.407  22.845  1.00  0.00    -0.043 A 
BRANCH  22  23
ATOM     23  C   UNL A   1      28.055  29.885  22.747  1.00  0.00    -0.013 C 
ATOM     24  C   UNL A   1      27.842  31.065  23.713  1.00  0.00     0.016 C 
ATOM     25  C   UNL A   1      27.740  30.337  21.304  1.00  0.00     0.016 C 
ATOM     26  C   UNL A   1      27.025  28.788  23.104  1.00  0.00     0.016 C 
ENDBRANCH  22  23
ENDBRANCH  14  17
ENDBRANCH  11  13
ENDBRANCH   8  11
ENDBRANCH   6   7
BRANCH   6  27
ATOM     27  C   UNL A   1      35.148  23.592  25.999  1.00  0.00     0.143 C 
ATOM     28  C   UNL A   1      36.656  23.765  25.887  1.00  0.00     0.041 C 
BRANCH  27  29
ATOM     29  O   UNL A   1      34.953  22.177  25.841  1.00  0.00    -0.391 OA
ATOM     30  H   UNL A   1      34.287  21.870  26.475  1.00  0.00     0.211 HD
ENDBRANCH  27  29
ENDBRANCH   6  27
ENDBRANCH   3   6
ENDBRANCH   1   2
BRANCH   1  31
ATOM     31  C   UNL A   1      33.212  28.461  26.966  1.00  0.00     0.042 C 
BRANCH  31  32
ATOM     32  C   UNL A   1      33.908  29.673  26.362  1.00  0.00     0.118 C 
BRANCH  32  33
ATOM     33  N   UNL A   1      33.732  30.879  27.164  1.00  0.00    -0.352 N 
ATOM     34  C   UNL A   1      34.472  31.355  28.218  1.00  0.00     0.251 C 
ATOM     35  H   UNL A   1      32.961  31.438  26.911  1.00  0.00     0.163 HD
ATOM     36  O   UNL A   1      34.076  32.335  28.843  1.00  0.00    -0.269 OA
BRANCH  34  37
ATOM     37  C   UNL A   1      35.726  30.681  28.612  1.00  0.00     0.039 A 
ATOM     38  C   UNL A   1      36.921  31.071  27.999  1.00  0.00     0.014 A 
ATOM     39  C   UNL A   1      35.728  29.672  29.577  1.00  0.00     0.014 A 
ATOM     40  C   UNL A   1      38.126  30.492  28.402  1.00  0.00     0.010 A 
ATOM     41  C   UNL A   1      36.935  29.159  30.035  1.00  0.00     0.010 A 
ATOM     42  C   UNL A   1      38.145  29.556  29.448  1.00  0.00    -0.014 A 
BRANCH  42  43
ATOM     43  C   UNL A   1      39.413  28.973  29.950  1.00  0.00     0.031 A 
ATOM     44  C   UNL A   1      40.072  29.547  31.175  1.00  0.00     0.074 A 
ATOM     45  C   UNL A   1      40.025  28.003  29.243  1.00  0.00     0.049 A 
ATOM     46  N   UNL A   1      41.221  29.238  31.716  1.00  0.00    -0.248 NA
ATOM     47  C   UNL A   1      39.361  30.639  31.862  1.00  0.00     0.031 C 
ATOM     48  C   UNL A   1      39.524  27.420  27.996  1.00  0.00     0.029 A 
ATOM     49  N   UNL A   1      41.212  27.352  29.459  1.00  0.00    -0.354 N 
ATOM     50  C   UNL A   1      41.395  30.128  32.769  1.00  0.00     0.074 A 
ATOM     51  C   UNL A   1      40.249  31.010  32.771  1.00  0.00     0.031 C 
ATOM     52  C   UNL A   1      40.388  26.485  27.568  1.00  0.00     0.029 A 
ATOM     53  C   UNL A   1      41.517  26.423  28.492  1.00  0.00     0.049 A 
ATOM     54  H   UNL A   1      41.794  27.533  30.233  1.00  0.00     0.167 HD
ATOM     55  C   UNL A   1      42.399  30.182  33.677  1.00  0.00     0.034 A 
ATOM     56  C   UNL A   1      42.583  25.609  28.367  1.00  0.00     0.034 A 
ATOM     57  C   UNL A   1      43.496  29.255  33.713  1.00  0.00     0.049 A 
ATOM     58  C   UNL A   1      43.657  25.652  29.420  1.00  0.00     0.074 A 
ATOM     59  C   UNL A   1      44.504  29.150  34.654  1.00  0.00     0.029 A 
ATOM     60  N   UNL A   1      43.726  28.271  32.765  1.00  0.00    -0.354 N 
ATOM     61  N   UNL A   1      43.723  26.389  30.502  1.00  0.00    -0.248 NA
ATOM     62  C   UNL A   1      44.788  24.727  29.251  1.00  0.00     0.031 C 
ATOM     63  C   UNL A   1      45.351  28.103  34.268  1.00  0.00     0.029 A 
ATOM     64  C   UNL A   1      44.865  27.554  33.093  1.00  0.00     0.049 A 
ATOM     65  H   UNL A   1      43.165  28.105  31.974  1.00  0.00     0.167 HD
ATOM     66  C   UNL A   1      44.881  25.994  31.162  1.00  0.00     0.074 A 
ATOM     67  C   UNL A   1      45.476  24.941  30.365  1.00  0.00     0.031 C 
ATOM     68  C   UNL A   1      45.411  26.471  32.316  1.00  0.00     0.034 A 
BRANCH  55  69
ATOM     69  C   UNL A   1      42.311  31.244  34.743  1.00  0.00     0.023 A 
ATOM     70  C   UNL A   1      41.686  30.942  35.970  1.00  0.00     0.012 A 
ATOM     71  C   UNL A   1      42.860  32.525  34.546  1.00  0.00     0.148 A 
ATOM     72  C   UNL A   1      41.568  31.910  36.966  1.00  0.00     0.002 A 
ATOM     73  C   UNL A   1      42.776  33.473  35.560  1.00  0.00     0.091 A 
ATOM     74  F   UNL A   1      43.427  32.807  33.363  1.00  0.00    -0.205 F 
ATOM     75  C   UNL A   1      42.120  33.172  36.765  1.00  0.00     0.022 A 
BRANCH  73  76
ATOM     76  S   UNL A   1      43.526  35.099  35.413  1.00  0.00     0.127 S 
ATOM     77  O   UNL A   1      44.937  34.760  35.242  1.00  0.00    -0.237 OA
ATOM     78  O   UNL A   1      42.880  35.636  34.214  1.00  0.00    -0.237 OA
ATOM     79  O   UNL A   1      43.185  35.800  36.642  1.00  0.00    -0.744 OA
ENDBRANCH  73  76
ENDBRANCH  55  69
BRANCH  56  80
ATOM     80  C   UNL A   1      42.628  24.611  27.262  1.00  0.00     0.023 A 
ATOM     81  C   UNL A   1      43.277  24.962  26.061  1.00  0.00     0.012 A 
ATOM     82  C   UNL A   1      42.089  23.318  27.400  1.00  0.00     0.148 A 
ATOM     83  C   UNL A   1      43.370  24.051  25.010  1.00  0.00     0.002 A 
ATOM     84  C   UNL A   1      42.227  22.399  26.365  1.00  0.00     0.091 A 
ATOM     85  F   UNL A   1      41.468  23.008  28.547  1.00  0.00    -0.205 F 
ATOM     86  C   UNL A   1      42.854  22.768  25.165  1.00  0.00     0.022 A 
BRANCH  84  87
ATOM     87  S   UNL A   1      41.701  20.687  26.514  1.00  0.00     0.127 S 
ATOM     88  O   UNL A   1      42.384  20.064  25.383  1.00  0.00    -0.237 OA
ATOM     89  O   UNL A   1      42.228  20.322  27.830  1.00  0.00    -0.237 OA
ATOM     90  O   UNL A   1      40.247  20.715  26.436  1.00  0.00    -0.744 OA
ENDBRANCH  84  87
ENDBRANCH  56  80
BRANCH  68  91
ATOM     91  C   UNL A   1      46.688  25.843  32.806  1.00  0.00     0.023 A 
ATOM     92  C   UNL A   1      47.925  26.410  32.442  1.00  0.00     0.012 A 
ATOM     93  C   UNL A   1      46.661  24.746  33.691  1.00  0.00     0.148 A 
ATOM     94  C   UNL A   1      49.118  25.879  32.931  1.00  0.00     0.002 A 
ATOM     95  C   UNL A   1      47.851  24.252  34.209  1.00  0.00     0.091 A 
ATOM     96  F   UNL A   1      45.474  24.209  34.007  1.00  0.00    -0.205 F 
ATOM     97  C   UNL A   1      49.081  24.810  33.823  1.00  0.00     0.022 A 
BRANCH  95  98
ATOM     98  S   UNL A   1      47.889  22.940  35.436  1.00  0.00     0.127 S 
ATOM     99  O   UNL A   1      47.343  21.811  34.684  1.00  0.00    -0.237 OA
ATOM    100  O   UNL A   1      49.316  22.835  35.742  1.00  0.00    -0.237 OA
ATOM    101  O   UNL A   1      47.070  23.409  36.546  1.00  0.00    -0.744 OA
ENDBRANCH  95  98
ENDBRANCH  68  91
ENDBRANCH  42  43
ENDBRANCH  34  37
ENDBRANCH  32  33
ENDBRANCH  31  32
ENDBRANCH   1  31
TORSDOF 20
ENDMDL
