MODEL 1
REMARK VINA RESULT:     -13.1      0.000      0.000
REMARK SMILES Cc1cc(Cl)c(C)c2c1O[C@H](C(F)(F)F)C(C(=O)NCCCNC(=O)c1ccc(-c3c4nc(c(-c5cccc(S(=O)(=O)[O-])c5F)c5ccc([nH]5)c(-c5cccc(S(=O)(=O)[O-])c5F)c5nc(c(-c6cccc(S(=O)(=O)[O-])c6F)c6ccc3[nH]6)C=C5)C=C4)cc1)=C2
REMARK SMILES IDX 22 1 21 2 20 3 19 4 17 5 18 6 16 8 1 9 2 10 3 11 9 12 4 13
REMARK SMILES IDX 8 14 10 15 5 16 6 17 89 18 11 19 7 20 12 21 13 22 14 23
REMARK SMILES IDX 15 24 23 25 24 26 25 28 26 29 27 30 88 31 28 32 87 33 29 34
REMARK SMILES IDX 30 35 31 36 81 37 32 38 86 39 80 40 82 41 33 42 85 43 79 44
REMARK SMILES IDX 78 45 34 47 66 48 46 49 65 50 47 51 50 52 64 53 83 54 48 55
REMARK SMILES IDX 49 56 63 58 84 59 51 60 35 61 36 62 44 63 37 64 39 65 45 66
REMARK SMILES IDX 38 67 40 68 41 69 42 70 43 71 67 72 68 73 76 74 69 75 71 76
REMARK SMILES IDX 77 77 70 78 72 79 73 80 74 81 75 82 52 83 53 84 61 85 54 86
REMARK SMILES IDX 56 87 62 88 55 89 57 90 58 91 59 92 60 93
REMARK H PARENT 19 7 23 27 82 46 50 57
REMARK Flexibility Score: inf
ROOT
ATOM      1  C   UNL A   1      33.229  29.005  25.124  1.00  0.00     0.118 C 
ENDROOT
BRANCH   1   2
ATOM      2  C   UNL A   1      33.242  28.949  23.603  1.00  0.00     0.042 C 
BRANCH   2   3
ATOM      3  C   UNL A   1      32.018  28.239  23.047  1.00  0.00     0.118 C 
BRANCH   3   4
ATOM      4  N   UNL A   1      32.364  27.294  21.995  1.00  0.00    -0.352 N 
ATOM      5  C   UNL A   1      32.794  26.014  21.913  1.00  0.00     0.251 C 
ATOM      6  O   UNL A   1      32.948  25.580  20.767  1.00  0.00    -0.270 OA
ATOM      7  H   UNL A   1      32.256  27.694  21.103  1.00  0.00     0.163 HD
BRANCH   5   8
ATOM      8  C   UNL A   1      33.066  25.126  23.082  1.00  0.00     0.067 C 
ATOM      9  C   UNL A   1      33.060  22.646  27.578  1.00  0.00     0.048 C 
ATOM     10  C   UNL A   1      34.004  22.750  26.412  1.00  0.00    -0.007 A 
ATOM     11  C   UNL A   1      35.162  21.970  26.400  1.00  0.00     0.028 A 
ATOM     12  C   UNL A   1      33.748  23.575  25.313  1.00  0.00     0.131 A 
ATOM     13  C   UNL A   1      36.051  22.020  25.321  1.00  0.00     0.045 A 
ATOM     14  C   UNL A   1      34.627  23.642  24.218  1.00  0.00     0.022 A 
ATOM     15  O   UNL A   1      32.624  24.350  25.390  1.00  0.00    -0.475 OA
ATOM     16  Cl  UNL A   1      37.452  21.010  25.434  1.00  0.00    -0.084 Cl
ATOM     17  C   UNL A   1      35.802  22.850  24.211  1.00  0.00    -0.021 A 
ATOM     18  C   UNL A   1      34.288  24.565  23.129  1.00  0.00     0.026 C 
ATOM     19  C   UNL A   1      32.062  24.822  24.147  1.00  0.00     0.314 C 
ATOM     20  C   UNL A   1      36.747  22.909  23.037  1.00  0.00     0.047 C 
BRANCH  19  21
ATOM     21  C   UNL A   1      30.969  23.842  23.676  1.00  0.00     0.429 C 
ATOM     22  F   UNL A   1      30.493  23.122  24.722  1.00  0.00    -0.167 F 
ATOM     23  F   UNL A   1      29.903  24.471  23.126  1.00  0.00    -0.167 F 
ATOM     24  F   UNL A   1      31.419  22.963  22.752  1.00  0.00    -0.167 F 
ENDBRANCH  19  21
ENDBRANCH   5   8
ENDBRANCH   3   4
ENDBRANCH   2   3
ENDBRANCH   1   2
BRANCH   1  25
ATOM     25  N   UNL A   1      32.675  30.267  25.614  1.00  0.00    -0.352 N 
ATOM     26  C   UNL A   1      32.997  30.997  26.730  1.00  0.00     0.251 C 
ATOM     27  H   UNL A   1      31.962  30.652  25.056  1.00  0.00     0.163 HD
ATOM     28  O   UNL A   1      32.227  31.870  27.129  1.00  0.00    -0.269 OA
BRANCH  26  29
ATOM     29  C   UNL A   1      34.261  30.735  27.442  1.00  0.00     0.039 A 
ATOM     30  C   UNL A   1      35.179  31.772  27.626  1.00  0.00     0.014 A 
ATOM     31  C   UNL A   1      34.547  29.450  27.908  1.00  0.00     0.014 A 
ATOM     32  C   UNL A   1      36.358  31.528  28.331  1.00  0.00     0.010 A 
ATOM     33  C   UNL A   1      35.665  29.237  28.701  1.00  0.00     0.010 A 
ATOM     34  C   UNL A   1      36.594  30.265  28.899  1.00  0.00    -0.014 A 
BRANCH  34  35
ATOM     35  C   UNL A   1      37.822  29.981  29.678  1.00  0.00     0.031 A 
ATOM     36  C   UNL A   1      38.868  29.060  29.111  1.00  0.00     0.074 A 
ATOM     37  C   UNL A   1      37.956  30.485  30.920  1.00  0.00     0.049 A 
ATOM     38  N   UNL A   1      39.980  28.642  29.656  1.00  0.00    -0.248 NA
ATOM     39  C   UNL A   1      38.620  28.510  27.766  1.00  0.00     0.031 C 
ATOM     40  C   UNL A   1      36.970  31.330  31.599  1.00  0.00     0.029 A 
ATOM     41  N   UNL A   1      38.965  30.349  31.837  1.00  0.00    -0.354 N 
ATOM     42  C   UNL A   1      40.545  27.765  28.739  1.00  0.00     0.074 A 
ATOM     43  C   UNL A   1      39.629  27.663  27.627  1.00  0.00     0.031 C 
ATOM     44  C   UNL A   1      37.434  31.656  32.814  1.00  0.00     0.029 A 
ATOM     45  C   UNL A   1      38.733  31.019  33.016  1.00  0.00     0.049 A 
ATOM     46  H   UNL A   1      39.779  29.823  31.669  1.00  0.00     0.167 HD
ATOM     47  C   UNL A   1      41.741  27.136  28.796  1.00  0.00     0.034 A 
ATOM     48  C   UNL A   1      39.484  31.112  34.130  1.00  0.00     0.034 A 
ATOM     49  C   UNL A   1      42.667  27.286  29.884  1.00  0.00     0.049 A 
ATOM     50  C   UNL A   1      40.821  30.420  34.162  1.00  0.00     0.074 A 
ATOM     51  C   UNL A   1      43.937  26.754  30.007  1.00  0.00     0.029 A 
ATOM     52  N   UNL A   1      42.424  28.020  31.034  1.00  0.00    -0.354 N 
ATOM     53  N   UNL A   1      41.404  29.710  33.225  1.00  0.00    -0.248 NA
ATOM     54  C   UNL A   1      41.618  30.565  35.388  1.00  0.00     0.031 C 
ATOM     55  C   UNL A   1      44.453  27.147  31.245  1.00  0.00     0.029 A 
ATOM     56  C   UNL A   1      43.516  27.947  31.881  1.00  0.00     0.049 A 
ATOM     57  H   UNL A   1      41.596  28.519  31.221  1.00  0.00     0.167 HD
ATOM     58  C   UNL A   1      42.644  29.347  33.736  1.00  0.00     0.074 A 
ATOM     59  C   UNL A   1      42.738  29.937  35.056  1.00  0.00     0.031 C 
ATOM     60  C   UNL A   1      43.609  28.578  33.172  1.00  0.00     0.034 A 
BRANCH  47  61
ATOM     61  C   UNL A   1      42.148  26.291  27.617  1.00  0.00     0.023 A 
ATOM     62  C   UNL A   1      42.935  26.862  26.595  1.00  0.00     0.012 A 
ATOM     63  C   UNL A   1      41.818  24.923  27.550  1.00  0.00     0.148 A 
ATOM     64  C   UNL A   1      43.358  26.097  25.509  1.00  0.00     0.002 A 
ATOM     65  C   UNL A   1      42.286  24.154  26.490  1.00  0.00     0.091 A 
ATOM     66  F   UNL A   1      41.052  24.402  28.519  1.00  0.00    -0.205 F 
ATOM     67  C   UNL A   1      43.045  24.741  25.464  1.00  0.00     0.022 A 
BRANCH  65  68
ATOM     68  S   UNL A   1      42.013  22.383  26.380  1.00  0.00     0.127 S 
ATOM     69  O   UNL A   1      42.726  22.051  25.147  1.00  0.00    -0.237 OA
ATOM     70  O   UNL A   1      42.654  21.899  27.603  1.00  0.00    -0.237 OA
ATOM     71  O   UNL A   1      40.571  22.198  26.334  1.00  0.00    -0.744 OA
ENDBRANCH  65  68
ENDBRANCH  47  61
BRANCH  48  72
ATOM     72  C   UNL A   1      39.025  31.967  35.261  1.00  0.00     0.023 A 
ATOM     73  C   UNL A   1      39.100  33.368  35.137  1.00  0.00     0.012 A 
ATOM     74  C   UNL A   1      38.453  31.412  36.423  1.00  0.00     0.148 A 
ATOM     75  C   UNL A   1      38.634  34.201  36.155  1.00  0.00     0.002 A 
ATOM     76  C   UNL A   1      37.936  32.248  37.409  1.00  0.00     0.091 A 
ATOM     77  F   UNL A   1      38.396  30.078  36.527  1.00  0.00    -0.205 F 
ATOM     78  C   UNL A   1      38.041  33.643  37.283  1.00  0.00     0.022 A 
BRANCH  76  79
ATOM     79  S   UNL A   1      37.027  31.627  38.828  1.00  0.00     0.127 S 
ATOM     80  O   UNL A   1      36.874  30.214  38.491  1.00  0.00    -0.237 OA
ATOM     81  O   UNL A   1      37.956  31.903  39.923  1.00  0.00    -0.237 OA
ATOM     82  O   UNL A   1      35.793  32.399  38.876  1.00  0.00    -0.744 OA
ENDBRANCH  76  79
ENDBRANCH  48  72
BRANCH  60  83
ATOM     83  C   UNL A   1      44.864  28.325  33.967  1.00  0.00     0.023 A 
ATOM     84  C   UNL A   1      45.919  29.256  33.912  1.00  0.00     0.012 A 
ATOM     85  C   UNL A   1      44.943  27.239  34.862  1.00  0.00     0.148 A 
ATOM     86  C   UNL A   1      47.044  29.100  34.721  1.00  0.00     0.002 A 
ATOM     87  C   UNL A   1      46.043  27.119  35.703  1.00  0.00     0.091 A 
ATOM     88  F   UNL A   1      43.933  26.357  34.888  1.00  0.00    -0.205 F 
ATOM     89  C   UNL A   1      47.098  28.042  35.626  1.00  0.00     0.022 A 
BRANCH  87  90
ATOM     90  S   UNL A   1      46.154  25.859  36.978  1.00  0.00     0.127 S 
ATOM     91  O   UNL A   1      46.202  24.633  36.181  1.00  0.00    -0.237 OA
ATOM     92  O   UNL A   1      47.409  26.203  37.644  1.00  0.00    -0.237 OA
ATOM     93  O   UNL A   1      44.965  26.015  37.805  1.00  0.00    -0.744 OA
ENDBRANCH  87  90
ENDBRANCH  60  83
ENDBRANCH  34  35
ENDBRANCH  26  29
ENDBRANCH   1  25
TORSDOF 14
ENDMDL
MODEL 2
REMARK VINA RESULT:     -13.0      1.377      7.669
REMARK SMILES Cc1cc(Cl)c(C)c2c1O[C@H](C(F)(F)F)C(C(=O)NCCCNC(=O)c1ccc(-c3c4nc(c(-c5cccc(S(=O)(=O)[O-])c5F)c5ccc([nH]5)c(-c5cccc(S(=O)(=O)[O-])c5F)c5nc(c(-c6cccc(S(=O)(=O)[O-])c6F)c6ccc3[nH]6)C=C5)C=C4)cc1)=C2
REMARK SMILES IDX 22 1 21 2 20 3 19 4 17 5 18 6 16 8 1 9 2 10 3 11 9 12 4 13
REMARK SMILES IDX 8 14 10 15 5 16 6 17 89 18 11 19 7 20 12 21 13 22 14 23
REMARK SMILES IDX 15 24 23 25 24 26 25 28 26 29 27 30 88 31 28 32 87 33 29 34
REMARK SMILES IDX 30 35 31 36 81 37 32 38 86 39 80 40 82 41 33 42 85 43 79 44
REMARK SMILES IDX 78 45 34 47 66 48 46 49 65 50 47 51 50 52 64 53 83 54 48 55
REMARK SMILES IDX 49 56 63 58 84 59 51 60 35 61 36 62 44 63 37 64 39 65 45 66
REMARK SMILES IDX 38 67 40 68 41 69 42 70 43 71 67 72 68 73 76 74 69 75 71 76
REMARK SMILES IDX 77 77 70 78 72 79 73 80 74 81 75 82 52 83 53 84 61 85 54 86
REMARK SMILES IDX 56 87 62 88 55 89 57 90 58 91 59 92 60 93
REMARK H PARENT 19 7 23 27 82 46 50 57
REMARK Flexibility Score: inf
ROOT
ATOM      1  C   UNL A   1      32.899  29.127  25.685  1.00  0.00     0.118 C 
ENDROOT
BRANCH   1   2
ATOM      2  C   UNL A   1      33.230  28.971  24.207  1.00  0.00     0.042 C 
BRANCH   2   3
ATOM      3  C   UNL A   1      32.058  28.414  23.415  1.00  0.00     0.118 C 
BRANCH   3   4
ATOM      4  N   UNL A   1      32.495  27.565  22.316  1.00  0.00    -0.352 N 
ATOM      5  C   UNL A   1      32.966  26.307  22.160  1.00  0.00     0.251 C 
ATOM      6  O   UNL A   1      33.201  25.971  20.995  1.00  0.00    -0.270 OA
ATOM      7  H   UNL A   1      32.428  28.034  21.453  1.00  0.00     0.163 HD
BRANCH   5   8
ATOM      8  C   UNL A   1      33.193  25.335  23.270  1.00  0.00     0.067 C 
ATOM      9  C   UNL A   1      33.092  22.609  27.619  1.00  0.00     0.048 C 
ATOM     10  C   UNL A   1      34.015  22.706  26.437  1.00  0.00    -0.007 A 
ATOM     11  C   UNL A   1      35.107  21.841  26.350  1.00  0.00     0.028 A 
ATOM     12  C   UNL A   1      33.800  23.611  25.392  1.00  0.00     0.131 A 
ATOM     13  C   UNL A   1      35.973  21.883  25.252  1.00  0.00     0.045 A 
ATOM     14  C   UNL A   1      34.657  23.671  24.280  1.00  0.00     0.022 A 
ATOM     15  O   UNL A   1      32.743  24.464  25.542  1.00  0.00    -0.475 OA
ATOM     16  Cl  UNL A   1      37.292  20.763  25.271  1.00  0.00    -0.084 Cl
ATOM     17  C   UNL A   1      35.765  22.793  24.197  1.00  0.00    -0.021 A 
ATOM     18  C   UNL A   1      34.368  24.680  23.252  1.00  0.00     0.026 C 
ATOM     19  C   UNL A   1      32.192  25.049  24.343  1.00  0.00     0.314 C 
ATOM     20  C   UNL A   1      36.686  22.845  23.003  1.00  0.00     0.047 C 
BRANCH  19  21
ATOM     21  C   UNL A   1      31.015  24.186  23.848  1.00  0.00     0.429 C 
ATOM     22  F   UNL A   1      30.520  23.431  24.859  1.00  0.00    -0.167 F 
ATOM     23  F   UNL A   1      29.982  24.926  23.381  1.00  0.00    -0.167 F 
ATOM     24  F   UNL A   1      31.369  23.343  22.850  1.00  0.00    -0.167 F 
ENDBRANCH  19  21
ENDBRANCH   5   8
ENDBRANCH   3   4
ENDBRANCH   2   3
ENDBRANCH   1   2
BRANCH   1  25
ATOM     25  N   UNL A   1      32.606  30.517  26.030  1.00  0.00    -0.352 N 
ATOM     26  C   UNL A   1      33.146  31.317  27.005  1.00  0.00     0.251 C 
ATOM     27  H   UNL A   1      31.915  30.946  25.476  1.00  0.00     0.163 HD
ATOM     28  O   UNL A   1      32.570  32.354  27.331  1.00  0.00    -0.269 OA
BRANCH  26  29
ATOM     29  C   UNL A   1      34.414  30.933  27.654  1.00  0.00     0.039 A 
ATOM     30  C   UNL A   1      35.448  31.865  27.757  1.00  0.00     0.014 A 
ATOM     31  C   UNL A   1      34.583  29.634  28.141  1.00  0.00     0.014 A 
ATOM     32  C   UNL A   1      36.632  31.507  28.404  1.00  0.00     0.010 A 
ATOM     33  C   UNL A   1      35.715  29.316  28.877  1.00  0.00     0.010 A 
ATOM     34  C   UNL A   1      36.761  30.239  28.994  1.00  0.00    -0.014 A 
BRANCH  34  35
ATOM     35  C   UNL A   1      37.994  29.838  29.712  1.00  0.00     0.031 A 
ATOM     36  C   UNL A   1      38.272  30.394  31.082  1.00  0.00     0.074 A 
ATOM     37  C   UNL A   1      38.893  29.043  29.100  1.00  0.00     0.049 A 
ATOM     38  N   UNL A   1      39.317  30.211  31.847  1.00  0.00    -0.248 NA
ATOM     39  C   UNL A   1      37.261  31.297  31.658  1.00  0.00     0.031 C 
ATOM     40  C   UNL A   1      38.760  28.507  27.743  1.00  0.00     0.029 A 
ATOM     41  N   UNL A   1      40.101  28.562  29.531  1.00  0.00    -0.354 N 
ATOM     42  C   UNL A   1      39.101  30.995  32.974  1.00  0.00     0.074 A 
ATOM     43  C   UNL A   1      37.856  31.700  32.771  1.00  0.00     0.031 C 
ATOM     44  C   UNL A   1      39.832  27.751  27.463  1.00  0.00     0.029 A 
ATOM     45  C   UNL A   1      40.744  27.774  28.604  1.00  0.00     0.049 A 
ATOM     46  H   UNL A   1      40.474  28.759  30.420  1.00  0.00     0.167 HD
ATOM     47  C   UNL A   1      39.849  31.084  34.097  1.00  0.00     0.034 A 
ATOM     48  C   UNL A   1      41.931  27.140  28.670  1.00  0.00     0.034 A 
ATOM     49  C   UNL A   1      41.058  30.339  34.310  1.00  0.00     0.049 A 
ATOM     50  C   UNL A   1      42.735  27.238  29.938  1.00  0.00     0.074 A 
ATOM     51  C   UNL A   1      41.852  30.298  35.441  1.00  0.00     0.029 A 
ATOM     52  N   UNL A   1      41.648  29.506  33.372  1.00  0.00    -0.354 N 
ATOM     53  N   UNL A   1      42.445  27.870  31.051  1.00  0.00    -0.248 NA
ATOM     54  C   UNL A   1      44.013  26.514  29.975  1.00  0.00     0.031 C 
ATOM     55  C   UNL A   1      42.937  29.458  35.178  1.00  0.00     0.029 A 
ATOM     56  C   UNL A   1      42.804  28.953  33.893  1.00  0.00     0.049 A 
ATOM     57  H   UNL A   1      41.296  29.333  32.469  1.00  0.00     0.167 HD
ATOM     58  C   UNL A   1      43.489  27.598  31.928  1.00  0.00     0.074 A 
ATOM     59  C   UNL A   1      44.405  26.724  31.225  1.00  0.00     0.031 C 
ATOM     60  C   UNL A   1      43.680  28.048  33.193  1.00  0.00     0.034 A 
BRANCH  47  61
ATOM     61  C   UNL A   1      39.340  31.962  35.212  1.00  0.00     0.023 A 
ATOM     62  C   UNL A   1      38.414  31.437  36.138  1.00  0.00     0.012 A 
ATOM     63  C   UNL A   1      39.825  33.272  35.390  1.00  0.00     0.148 A 
ATOM     64  C   UNL A   1      37.952  32.211  37.201  1.00  0.00     0.002 A 
ATOM     65  C   UNL A   1      39.399  34.021  36.481  1.00  0.00     0.091 A 
ATOM     66  F   UNL A   1      40.689  33.762  34.488  1.00  0.00    -0.205 F 
ATOM     67  C   UNL A   1      38.455  33.497  37.380  1.00  0.00     0.022 A 
BRANCH  65  68
ATOM     68  S   UNL A   1      40.048  35.653  36.852  1.00  0.00     0.127 S 
ATOM     69  O   UNL A   1      39.605  36.418  35.687  1.00  0.00    -0.237 OA
ATOM     70  O   UNL A   1      39.354  35.982  38.097  1.00  0.00    -0.237 OA
ATOM     71  O   UNL A   1      41.489  35.495  36.981  1.00  0.00    -0.744 OA
ENDBRANCH  65  68
ENDBRANCH  47  61
BRANCH  48  72
ATOM     72  C   UNL A   1      42.375  26.285  27.532  1.00  0.00     0.023 A 
ATOM     73  C   UNL A   1      43.276  26.814  26.588  1.00  0.00     0.012 A 
ATOM     74  C   UNL A   1      41.970  24.940  27.416  1.00  0.00     0.148 A 
ATOM     75  C   UNL A   1      43.752  26.027  25.538  1.00  0.00     0.002 A 
ATOM     76  C   UNL A   1      42.494  24.145  26.401  1.00  0.00     0.091 A 
ATOM     77  F   UNL A   1      41.107  24.457  28.319  1.00  0.00    -0.205 F 
ATOM     78  C   UNL A   1      43.372  24.691  25.452  1.00  0.00     0.022 A 
BRANCH  76  79
ATOM     79  S   UNL A   1      42.177  22.380  26.294  1.00  0.00     0.127 S 
ATOM     80  O   UNL A   1      42.957  22.006  25.117  1.00  0.00    -0.237 OA
ATOM     81  O   UNL A   1      42.713  21.901  27.568  1.00  0.00    -0.237 OA
ATOM     82  O   UNL A   1      40.733  22.245  26.160  1.00  0.00    -0.744 OA
ENDBRANCH  76  79
ENDBRANCH  48  72
BRANCH  60  83
ATOM     83  C   UNL A   1      44.925  27.606  33.919  1.00  0.00     0.023 A 
ATOM     84  C   UNL A   1      46.069  28.426  33.896  1.00  0.00     0.012 A 
ATOM     85  C   UNL A   1      44.917  26.449  34.725  1.00  0.00     0.148 A 
ATOM     86  C   UNL A   1      47.195  28.093  34.647  1.00  0.00     0.002 A 
ATOM     87  C   UNL A   1      46.022  26.152  35.513  1.00  0.00     0.091 A 
ATOM     88  F   UNL A   1      43.822  25.676  34.722  1.00  0.00    -0.205 F 
ATOM     89  C   UNL A   1      47.165  26.967  35.467  1.00  0.00     0.022 A 
BRANCH  87  90
ATOM     90  S   UNL A   1      46.039  24.790  36.683  1.00  0.00     0.127 S 
ATOM     91  O   UNL A   1      47.343  24.962  37.322  1.00  0.00    -0.237 OA
ATOM     92  O   UNL A   1      44.895  25.103  37.538  1.00  0.00    -0.237 OA
ATOM     93  O   UNL A   1      45.891  23.576  35.891  1.00  0.00    -0.744 OA
ENDBRANCH  87  90
ENDBRANCH  60  83
ENDBRANCH  34  35
ENDBRANCH  26  29
ENDBRANCH   1  25
TORSDOF 14
ENDMDL
MODEL 3
REMARK VINA RESULT:     -12.9      1.289      1.584
REMARK SMILES Cc1cc(Cl)c(C)c2c1O[C@H](C(F)(F)F)C(C(=O)NCCCNC(=O)c1ccc(-c3c4nc(c(-c5cccc(S(=O)(=O)[O-])c5F)c5ccc([nH]5)c(-c5cccc(S(=O)(=O)[O-])c5F)c5nc(c(-c6cccc(S(=O)(=O)[O-])c6F)c6ccc3[nH]6)C=C5)C=C4)cc1)=C2
REMARK SMILES IDX 22 1 21 2 20 3 19 4 17 5 18 6 16 8 1 9 2 10 3 11 9 12 4 13
REMARK SMILES IDX 8 14 10 15 5 16 6 17 89 18 11 19 7 20 12 21 13 22 14 23
REMARK SMILES IDX 15 24 23 25 24 26 25 28 26 29 27 30 88 31 28 32 87 33 29 34
REMARK SMILES IDX 30 35 31 36 81 37 32 38 86 39 80 40 82 41 33 42 85 43 79 44
REMARK SMILES IDX 78 45 34 47 66 48 46 49 65 50 47 51 50 52 64 53 83 54 48 55
REMARK SMILES IDX 49 56 63 58 84 59 51 60 35 61 36 62 44 63 37 64 39 65 45 66
REMARK SMILES IDX 38 67 40 68 41 69 42 70 43 71 67 72 68 73 76 74 69 75 71 76
REMARK SMILES IDX 77 77 70 78 72 79 73 80 74 81 75 82 52 83 53 84 61 85 54 86
REMARK SMILES IDX 56 87 62 88 55 89 57 90 58 91 59 92 60 93
REMARK H PARENT 19 7 23 27 82 46 50 57
REMARK Flexibility Score: inf
ROOT
ATOM      1  C   UNL A   1      33.084  28.995  25.473  1.00  0.00     0.118 C 
ENDROOT
BRANCH   1   2
ATOM      2  C   UNL A   1      33.341  28.861  23.979  1.00  0.00     0.042 C 
BRANCH   2   3
ATOM      3  C   UNL A   1      32.136  28.300  23.240  1.00  0.00     0.118 C 
BRANCH   3   4
ATOM      4  N   UNL A   1      32.525  27.396  22.167  1.00  0.00    -0.352 N 
ATOM      5  C   UNL A   1      32.953  26.117  22.053  1.00  0.00     0.251 C 
ATOM      6  O   UNL A   1      33.155  25.729  20.898  1.00  0.00    -0.270 OA
ATOM      7  H   UNL A   1      32.457  27.832  21.288  1.00  0.00     0.163 HD
BRANCH   5   8
ATOM      8  C   UNL A   1      33.170  25.183  23.196  1.00  0.00     0.067 C 
ATOM      9  C   UNL A   1      33.000  22.572  27.614  1.00  0.00     0.048 C 
ATOM     10  C   UNL A   1      33.959  22.663  26.459  1.00  0.00    -0.007 A 
ATOM     11  C   UNL A   1      35.076  21.827  26.432  1.00  0.00     0.028 A 
ATOM     12  C   UNL A   1      33.753  23.533  25.384  1.00  0.00     0.131 A 
ATOM     13  C   UNL A   1      35.977  21.865  25.361  1.00  0.00     0.045 A 
ATOM     14  C   UNL A   1      34.645  23.589  24.298  1.00  0.00     0.022 A 
ATOM     15  O   UNL A   1      32.668  24.360  25.476  1.00  0.00    -0.475 OA
ATOM     16  Cl  UNL A   1      37.325  20.784  25.454  1.00  0.00    -0.084 Cl
ATOM     17  C   UNL A   1      35.779  22.740  24.276  1.00  0.00    -0.021 A 
ATOM     18  C   UNL A   1      34.362  24.561  23.235  1.00  0.00     0.026 C 
ATOM     19  C   UNL A   1      32.142  24.897  24.243  1.00  0.00     0.314 C 
ATOM     20  C   UNL A   1      36.737  22.787  23.111  1.00  0.00     0.047 C 
BRANCH  19  21
ATOM     21  C   UNL A   1      31.007  23.987  23.734  1.00  0.00     0.429 C 
ATOM     22  F   UNL A   1      29.998  24.729  23.214  1.00  0.00    -0.167 F 
ATOM     23  F   UNL A   1      31.409  23.146  22.752  1.00  0.00    -0.167 F 
ATOM     24  F   UNL A   1      30.478  23.215  24.711  1.00  0.00    -0.167 F 
ENDBRANCH  19  21
ENDBRANCH   5   8
ENDBRANCH   3   4
ENDBRANCH   2   3
ENDBRANCH   1   2
BRANCH   1  25
ATOM     25  N   UNL A   1      32.645  30.344  25.827  1.00  0.00    -0.352 N 
ATOM     26  C   UNL A   1      33.049  31.162  26.852  1.00  0.00     0.251 C 
ATOM     27  H   UNL A   1      31.954  30.724  25.239  1.00  0.00     0.163 HD
ATOM     28  O   UNL A   1      32.362  32.135  27.161  1.00  0.00    -0.269 OA
BRANCH  26  29
ATOM     29  C   UNL A   1      34.302  30.875  27.573  1.00  0.00     0.039 A 
ATOM     30  C   UNL A   1      35.209  31.908  27.821  1.00  0.00     0.014 A 
ATOM     31  C   UNL A   1      34.589  29.572  27.984  1.00  0.00     0.014 A 
ATOM     32  C   UNL A   1      36.378  31.638  28.535  1.00  0.00     0.010 A 
ATOM     33  C   UNL A   1      35.694  29.328  28.786  1.00  0.00     0.010 A 
ATOM     34  C   UNL A   1      36.613  30.352  29.048  1.00  0.00    -0.014 A 
BRANCH  34  35
ATOM     35  C   UNL A   1      37.829  30.039  29.834  1.00  0.00     0.031 A 
ATOM     36  C   UNL A   1      38.852  29.086  29.278  1.00  0.00     0.074 A 
ATOM     37  C   UNL A   1      37.971  30.548  31.074  1.00  0.00     0.049 A 
ATOM     38  N   UNL A   1      39.949  28.642  29.832  1.00  0.00    -0.248 NA
ATOM     39  C   UNL A   1      38.594  28.534  27.936  1.00  0.00     0.031 C 
ATOM     40  C   UNL A   1      37.005  31.423  31.742  1.00  0.00     0.029 A 
ATOM     41  N   UNL A   1      38.971  30.390  31.996  1.00  0.00    -0.354 N 
ATOM     42  C   UNL A   1      40.494  27.743  28.923  1.00  0.00     0.074 A 
ATOM     43  C   UNL A   1      39.580  27.659  27.807  1.00  0.00     0.031 C 
ATOM     44  C   UNL A   1      37.473  31.745  32.958  1.00  0.00     0.029 A 
ATOM     45  C   UNL A   1      38.753  31.074  33.170  1.00  0.00     0.049 A 
ATOM     46  H   UNL A   1      39.772  29.840  31.836  1.00  0.00     0.167 HD
ATOM     47  C   UNL A   1      41.672  27.081  28.990  1.00  0.00     0.034 A 
ATOM     48  C   UNL A   1      39.502  31.153  34.287  1.00  0.00     0.034 A 
ATOM     49  C   UNL A   1      42.597  27.213  30.080  1.00  0.00     0.049 A 
ATOM     50  C   UNL A   1      40.818  30.425  34.330  1.00  0.00     0.074 A 
ATOM     51  C   UNL A   1      43.851  26.647  30.213  1.00  0.00     0.029 A 
ATOM     52  N   UNL A   1      42.369  27.961  31.225  1.00  0.00    -0.354 N 
ATOM     53  N   UNL A   1      41.385  29.694  33.400  1.00  0.00    -0.248 NA
ATOM     54  C   UNL A   1      41.614  30.556  35.558  1.00  0.00     0.031 C 
ATOM     55  C   UNL A   1      44.372  27.034  31.451  1.00  0.00     0.029 A 
ATOM     56  C   UNL A   1      43.454  27.863  32.077  1.00  0.00     0.049 A 
ATOM     57  H   UNL A   1      41.554  28.484  31.405  1.00  0.00     0.167 HD
ATOM     58  C   UNL A   1      42.613  29.299  33.919  1.00  0.00     0.074 A 
ATOM     59  C   UNL A   1      42.718  29.895  35.236  1.00  0.00     0.031 C 
ATOM     60  C   UNL A   1      43.559  28.501  33.365  1.00  0.00     0.034 A 
BRANCH  47  61
ATOM     61  C   UNL A   1      42.061  26.217  27.818  1.00  0.00     0.023 A 
ATOM     62  C   UNL A   1      42.897  26.748  26.814  1.00  0.00     0.012 A 
ATOM     63  C   UNL A   1      41.663  24.869  27.741  1.00  0.00     0.148 A 
ATOM     64  C   UNL A   1      43.304  25.964  25.736  1.00  0.00     0.002 A 
ATOM     65  C   UNL A   1      42.114  24.078  26.690  1.00  0.00     0.091 A 
ATOM     66  F   UNL A   1      40.851  24.386  28.693  1.00  0.00    -0.205 F 
ATOM     67  C   UNL A   1      42.924  24.626  25.682  1.00  0.00     0.022 A 
BRANCH  65  68
ATOM     68  S   UNL A   1      41.754  22.322  26.572  1.00  0.00     0.127 S 
ATOM     69  O   UNL A   1      42.480  21.955  25.356  1.00  0.00    -0.237 OA
ATOM     70  O   UNL A   1      42.339  21.806  27.810  1.00  0.00    -0.237 OA
ATOM     71  O   UNL A   1      40.306  22.212  26.488  1.00  0.00    -0.744 OA
ENDBRANCH  65  68
ENDBRANCH  47  61
BRANCH  48  72
ATOM     72  C   UNL A   1      39.061  32.029  35.410  1.00  0.00     0.023 A 
ATOM     73  C   UNL A   1      38.170  31.514  36.372  1.00  0.00     0.012 A 
ATOM     74  C   UNL A   1      39.567  33.334  35.573  1.00  0.00     0.148 A 
ATOM     75  C   UNL A   1      37.774  32.288  37.464  1.00  0.00     0.002 A 
ATOM     76  C   UNL A   1      39.215  34.079  36.695  1.00  0.00     0.091 A 
ATOM     77  F   UNL A   1      40.408  33.809  34.645  1.00  0.00    -0.205 F 
ATOM     78  C   UNL A   1      38.306  33.563  37.632  1.00  0.00     0.022 A 
BRANCH  76  79
ATOM     79  S   UNL A   1      39.958  35.670  37.073  1.00  0.00     0.127 S 
ATOM     80  O   UNL A   1      41.364  35.314  37.239  1.00  0.00    -0.237 OA
ATOM     81  O   UNL A   1      39.653  36.437  35.865  1.00  0.00    -0.237 OA
ATOM     82  O   UNL A   1      39.283  36.146  38.273  1.00  0.00    -0.744 OA
ENDBRANCH  76  79
ENDBRANCH  48  72
BRANCH  60  83
ATOM     83  C   UNL A   1      44.803  28.218  34.167  1.00  0.00     0.023 A 
ATOM     84  C   UNL A   1      45.889  29.112  34.099  1.00  0.00     0.012 A 
ATOM     85  C   UNL A   1      44.844  27.145  35.080  1.00  0.00     0.148 A 
ATOM     86  C   UNL A   1      47.007  28.931  34.913  1.00  0.00     0.002 A 
ATOM     87  C   UNL A   1      45.936  27.003  35.926  1.00  0.00     0.091 A 
ATOM     88  F   UNL A   1      43.804  26.299  35.118  1.00  0.00    -0.205 F 
ATOM     89  C   UNL A   1      47.023  27.888  35.836  1.00  0.00     0.022 A 
BRANCH  87  90
ATOM     90  S   UNL A   1      46.002  25.761  37.222  1.00  0.00     0.127 S 
ATOM     91  O   UNL A   1      47.236  26.122  37.919  1.00  0.00    -0.237 OA
ATOM     92  O   UNL A   1      44.776  26.031  37.971  1.00  0.00    -0.237 OA
ATOM     93  O   UNL A   1      46.027  24.471  36.544  1.00  0.00    -0.744 OA
ENDBRANCH  87  90
ENDBRANCH  60  83
ENDBRANCH  34  35
ENDBRANCH  26  29
ENDBRANCH   1  25
TORSDOF 14
ENDMDL
