MODEL 1
REMARK VINA RESULT:     -12.7      0.000      0.000
REMARK SMILES O=C(NCCCNC(=O)c1ccc(-c2c3nc(c(-c4cccc(S(=O)(=O)[O-])c4F)c4ccc([nH]4)c(-c4cccc(S(=O)(=O)[O-])c4F)c4nc(c(-c5cccc(S(=O)(=O)[O-])c5F)c5ccc2[nH]5)C=C4)C=C3)cc1)c1ccc(C[C@H]2SC(=O)N(c3ccccc3)C2=O)cc1
REMARK SMILES IDX 5 1 4 2 3 3 1 4 2 5 73 7 74 8 92 9 75 10 91 11 76 12 77 13
REMARK SMILES IDX 78 14 79 15 89 16 80 17 82 18 90 19 81 20 83 21 84 22 88 23
REMARK SMILES IDX 85 24 87 25 86 26 6 27 7 28 8 29 9 31 10 32 11 33 72 34
REMARK SMILES IDX 12 35 71 36 13 37 14 38 15 39 65 40 16 41 70 42 64 43 66 44
REMARK SMILES IDX 17 45 69 46 63 47 62 48 18 50 50 51 30 52 49 53 31 54 34 55
REMARK SMILES IDX 48 56 67 57 32 58 33 59 47 61 68 62 35 63 19 64 20 65 28 66
REMARK SMILES IDX 21 67 23 68 29 69 22 70 24 71 25 72 26 73 27 74 51 75 52 76
REMARK SMILES IDX 60 77 53 78 55 79 61 80 54 81 56 82 57 83 58 84 59 85 36 86
REMARK SMILES IDX 37 87 45 88 38 89 40 90 46 91 39 92 41 93 42 94 43 95 44 96
REMARK H PARENT 3 6 7 30 66 49 34 60
REMARK Flexibility Score: inf
ROOT
ATOM      1  C   UNL A   1      31.604  31.542  26.771  1.00  0.00     0.042 C 
ENDROOT
BRANCH   1   2
ATOM      2  C   UNL A   1      31.876  30.139  26.248  1.00  0.00     0.118 C 
BRANCH   2   3
ATOM      3  N   UNL A   1      31.910  30.071  24.792  1.00  0.00    -0.352 N 
ATOM      4  O   UNL A   1      32.157  29.089  22.766  1.00  0.00    -0.269 OA
ATOM      5  C   UNL A   1      32.021  28.968  23.978  1.00  0.00     0.251 C 
ATOM      6  H   UNL A   1      31.845  30.936  24.326  1.00  0.00     0.163 HD
BRANCH   5   7
ATOM      7  C   UNL A   1      31.991  27.624  24.586  1.00  0.00     0.039 A 
ATOM      8  C   UNL A   1      30.781  26.938  24.713  1.00  0.00     0.014 A 
ATOM      9  C   UNL A   1      33.176  27.072  25.074  1.00  0.00     0.014 A 
ATOM     10  C   UNL A   1      30.740  25.750  25.438  1.00  0.00     0.004 A 
ATOM     11  C   UNL A   1      33.129  25.882  25.805  1.00  0.00     0.004 A 
ATOM     12  C   UNL A   1      31.904  25.236  26.032  1.00  0.00    -0.046 A 
BRANCH  12  13
ATOM     13  C   UNL A   1      31.818  24.036  26.948  1.00  0.00     0.060 C 
BRANCH  13  14
ATOM     14  C   UNL A   1      32.103  22.686  26.258  1.00  0.00     0.151 C 
ATOM     15  S   UNL A   1      32.003  22.773  24.448  1.00  0.00    -0.050 SA
ATOM     16  C   UNL A   1      33.539  22.286  26.543  1.00  0.00     0.248 C 
ATOM     17  C   UNL A   1      33.740  22.841  24.263  1.00  0.00     0.293 C 
ATOM     18  N   UNL A   1      34.358  22.465  25.436  1.00  0.00    -0.240 N 
ATOM     19  O   UNL A   1      33.899  21.976  27.677  1.00  0.00    -0.273 OA
ATOM     20  O   UNL A   1      34.236  23.166  23.202  1.00  0.00    -0.261 OA
BRANCH  18  21
ATOM     21  C   UNL A   1      35.771  22.299  25.509  1.00  0.00     0.053 A 
ATOM     22  C   UNL A   1      36.367  21.077  25.168  1.00  0.00     0.027 A 
ATOM     23  C   UNL A   1      36.602  23.356  25.912  1.00  0.00     0.027 A 
ATOM     24  C   UNL A   1      37.756  20.922  25.209  1.00  0.00     0.002 A 
ATOM     25  C   UNL A   1      37.988  23.191  25.986  1.00  0.00     0.002 A 
ATOM     26  C   UNL A   1      38.566  21.977  25.626  1.00  0.00     0.000 A 
ENDBRANCH  18  21
ENDBRANCH  13  14
ENDBRANCH  12  13
ENDBRANCH   5   7
ENDBRANCH   2   3
ENDBRANCH   1   2
BRANCH   1  27
ATOM     27  C   UNL A   1      32.849  32.303  27.205  1.00  0.00     0.118 C 
BRANCH  27  28
ATOM     28  N   UNL A   1      32.581  33.700  27.526  1.00  0.00    -0.352 N 
ATOM     29  C   UNL A   1      33.127  34.514  28.489  1.00  0.00     0.251 C 
ATOM     30  H   UNL A   1      31.898  34.130  26.961  1.00  0.00     0.163 HD
ATOM     31  O   UNL A   1      32.637  35.623  28.690  1.00  0.00    -0.269 OA
BRANCH  29  32
ATOM     32  C   UNL A   1      34.282  34.059  29.296  1.00  0.00     0.039 A 
ATOM     33  C   UNL A   1      34.048  33.253  30.415  1.00  0.00     0.014 A 
ATOM     34  C   UNL A   1      35.587  34.429  28.966  1.00  0.00     0.014 A 
ATOM     35  C   UNL A   1      35.128  32.756  31.150  1.00  0.00     0.010 A 
ATOM     36  C   UNL A   1      36.662  33.857  29.640  1.00  0.00     0.010 A 
ATOM     37  C   UNL A   1      36.447  33.017  30.743  1.00  0.00    -0.014 A 
BRANCH  37  38
ATOM     38  C   UNL A   1      37.612  32.417  31.444  1.00  0.00     0.031 A 
ATOM     39  C   UNL A   1      38.361  31.266  30.826  1.00  0.00     0.074 A 
ATOM     40  C   UNL A   1      37.939  32.847  32.680  1.00  0.00     0.049 A 
ATOM     41  N   UNL A   1      39.349  30.566  31.319  1.00  0.00    -0.248 NA
ATOM     42  C   UNL A   1      37.924  30.825  29.491  1.00  0.00     0.031 C 
ATOM     43  C   UNL A   1      37.246  33.904  33.421  1.00  0.00     0.029 A 
ATOM     44  N   UNL A   1      38.921  32.428  33.545  1.00  0.00    -0.354 N 
ATOM     45  C   UNL A   1      39.629  29.584  30.377  1.00  0.00     0.074 A 
ATOM     46  C   UNL A   1      38.680  29.753  29.298  1.00  0.00     0.031 C 
ATOM     47  C   UNL A   1      37.828  34.056  34.621  1.00  0.00     0.029 A 
ATOM     48  C   UNL A   1      38.908  33.084  34.755  1.00  0.00     0.049 A 
ATOM     49  H   UNL A   1      39.572  31.725  33.320  1.00  0.00     0.167 HD
ATOM     50  C   UNL A   1      40.604  28.644  30.389  1.00  0.00     0.034 A 
ATOM     51  C   UNL A   1      39.671  32.915  35.852  1.00  0.00     0.034 A 
ATOM     52  C   UNL A   1      41.570  28.501  31.446  1.00  0.00     0.049 A 
ATOM     53  C   UNL A   1      40.761  31.878  35.832  1.00  0.00     0.074 A 
ATOM     54  C   UNL A   1      42.646  27.634  31.515  1.00  0.00     0.029 A 
ATOM     55  N   UNL A   1      41.573  29.236  32.621  1.00  0.00    -0.354 N 
ATOM     56  N   UNL A   1      41.106  31.060  34.866  1.00  0.00    -0.248 NA
ATOM     57  C   UNL A   1      41.592  31.764  37.039  1.00  0.00     0.031 C 
ATOM     58  C   UNL A   1      43.282  27.825  32.746  1.00  0.00     0.029 A 
ATOM     59  C   UNL A   1      42.625  28.836  33.428  1.00  0.00     0.049 A 
ATOM     60  H   UNL A   1      40.923  29.939  32.848  1.00  0.00     0.167 HD
ATOM     61  C   UNL A   1      42.215  30.364  35.334  1.00  0.00     0.074 A 
ATOM     62  C   UNL A   1      42.497  30.871  36.660  1.00  0.00     0.031 C 
ATOM     63  C   UNL A   1      42.928  29.385  34.723  1.00  0.00     0.034 A 
BRANCH  50  64
ATOM     64  C   UNL A   1      40.709  27.725  29.199  1.00  0.00     0.023 A 
ATOM     65  C   UNL A   1      39.886  26.581  29.129  1.00  0.00     0.012 A 
ATOM     66  C   UNL A   1      41.571  28.021  28.126  1.00  0.00     0.148 A 
ATOM     67  C   UNL A   1      39.949  25.726  28.030  1.00  0.00     0.002 A 
ATOM     68  C   UNL A   1      41.593  27.190  27.011  1.00  0.00     0.091 A 
ATOM     69  F   UNL A   1      42.358  29.102  28.217  1.00  0.00    -0.205 F 
ATOM     70  C   UNL A   1      40.793  26.036  26.968  1.00  0.00     0.022 A 
BRANCH  68  71
ATOM     71  S   UNL A   1      42.582  27.545  25.554  1.00  0.00     0.127 S 
ATOM     72  O   UNL A   1      43.923  27.654  26.129  1.00  0.00    -0.237 OA
ATOM     73  O   UNL A   1      42.364  26.351  24.738  1.00  0.00    -0.237 OA
ATOM     74  O   UNL A   1      42.043  28.774  24.992  1.00  0.00    -0.744 OA
ENDBRANCH  68  71
ENDBRANCH  50  64
BRANCH  51  75
ATOM     75  C   UNL A   1      39.470  33.787  37.046  1.00  0.00     0.023 A 
ATOM     76  C   UNL A   1      39.912  35.124  37.006  1.00  0.00     0.012 A 
ATOM     77  C   UNL A   1      38.835  33.308  38.208  1.00  0.00     0.148 A 
ATOM     78  C   UNL A   1      39.760  35.956  38.115  1.00  0.00     0.002 A 
ATOM     79  C   UNL A   1      38.634  34.159  39.287  1.00  0.00     0.091 A 
ATOM     80  F   UNL A   1      38.429  32.031  38.228  1.00  0.00    -0.205 F 
ATOM     81  C   UNL A   1      39.114  35.477  39.252  1.00  0.00     0.022 A 
BRANCH  79  82
ATOM     82  S   UNL A   1      37.698  33.669  40.741  1.00  0.00     0.127 S 
ATOM     83  O   UNL A   1      36.506  33.075  40.143  1.00  0.00    -0.237 OA
ATOM     84  O   UNL A   1      38.608  32.716  41.378  1.00  0.00    -0.237 OA
ATOM     85  O   UNL A   1      37.484  34.892  41.501  1.00  0.00    -0.744 OA
ENDBRANCH  79  82
ENDBRANCH  51  75
BRANCH  63  86
ATOM     86  C   UNL A   1      44.116  28.822  35.460  1.00  0.00     0.023 A 
ATOM     87  C   UNL A   1      45.393  29.384  35.272  1.00  0.00     0.012 A 
ATOM     88  C   UNL A   1      43.949  27.781  36.396  1.00  0.00     0.148 A 
ATOM     89  C   UNL A   1      46.492  28.899  35.979  1.00  0.00     0.002 A 
ATOM     90  C   UNL A   1      45.038  27.338  37.136  1.00  0.00     0.091 A 
ATOM     91  F   UNL A   1      42.728  27.248  36.548  1.00  0.00    -0.205 F 
ATOM     92  C   UNL A   1      46.313  27.885  36.919  1.00  0.00     0.022 A 
BRANCH  90  93
ATOM     93  S   UNL A   1      44.885  26.109  38.437  1.00  0.00     0.127 S 
ATOM     94  O   UNL A   1      44.224  25.011  37.732  1.00  0.00    -0.237 OA
ATOM     95  O   UNL A   1      46.282  25.856  38.788  1.00  0.00    -0.237 OA
ATOM     96  O   UNL A   1      44.099  26.735  39.492  1.00  0.00    -0.744 OA
ENDBRANCH  90  93
ENDBRANCH  63  86
ENDBRANCH  37  38
ENDBRANCH  29  32
ENDBRANCH  27  28
ENDBRANCH   1  27
TORSDOF 16
ENDMDL
MODEL 2
REMARK VINA RESULT:     -12.7      2.325      8.056
REMARK SMILES O=C(NCCCNC(=O)c1ccc(-c2c3nc(c(-c4cccc(S(=O)(=O)[O-])c4F)c4ccc([nH]4)c(-c4cccc(S(=O)(=O)[O-])c4F)c4nc(c(-c5cccc(S(=O)(=O)[O-])c5F)c5ccc2[nH]5)C=C4)C=C3)cc1)c1ccc(C[C@H]2SC(=O)N(c3ccccc3)C2=O)cc1
REMARK SMILES IDX 5 1 4 2 3 3 1 4 2 5 73 7 74 8 92 9 75 10 91 11 76 12 77 13
REMARK SMILES IDX 78 14 79 15 89 16 80 17 82 18 90 19 81 20 83 21 84 22 88 23
REMARK SMILES IDX 85 24 87 25 86 26 6 27 7 28 8 29 9 31 10 32 11 33 72 34
REMARK SMILES IDX 12 35 71 36 13 37 14 38 15 39 65 40 16 41 70 42 64 43 66 44
REMARK SMILES IDX 17 45 69 46 63 47 62 48 18 50 50 51 30 52 49 53 31 54 34 55
REMARK SMILES IDX 48 56 67 57 32 58 33 59 47 61 68 62 35 63 19 64 20 65 28 66
REMARK SMILES IDX 21 67 23 68 29 69 22 70 24 71 25 72 26 73 27 74 51 75 52 76
REMARK SMILES IDX 60 77 53 78 55 79 61 80 54 81 56 82 57 83 58 84 59 85 36 86
REMARK SMILES IDX 37 87 45 88 38 89 40 90 46 91 39 92 41 93 42 94 43 95 44 96
REMARK H PARENT 3 6 7 30 66 49 34 60
REMARK Flexibility Score: inf
ROOT
ATOM      1  C   UNL A   1      32.316  30.124  25.443  1.00  0.00     0.042 C 
ENDROOT
BRANCH   1   2
ATOM      2  C   UNL A   1      31.216  29.151  25.044  1.00  0.00     0.118 C 
BRANCH   2   3
ATOM      3  N   UNL A   1      30.619  29.464  23.751  1.00  0.00    -0.352 N 
ATOM      4  O   UNL A   1      29.943  29.065  21.627  1.00  0.00    -0.269 OA
ATOM      5  C   UNL A   1      30.336  28.623  22.701  1.00  0.00     0.251 C 
ATOM      6  H   UNL A   1      30.387  30.410  23.610  1.00  0.00     0.163 HD
BRANCH   5   7
ATOM      7  C   UNL A   1      30.530  27.171  22.874  1.00  0.00     0.039 A 
ATOM      8  C   UNL A   1      29.617  26.426  23.624  1.00  0.00     0.014 A 
ATOM      9  C   UNL A   1      31.659  26.564  22.322  1.00  0.00     0.014 A 
ATOM     10  C   UNL A   1      29.899  25.096  23.922  1.00  0.00     0.004 A 
ATOM     11  C   UNL A   1      31.940  25.230  22.628  1.00  0.00     0.004 A 
ATOM     12  C   UNL A   1      31.086  24.499  23.468  1.00  0.00    -0.046 A 
BRANCH  12  13
ATOM     13  C   UNL A   1      31.459  23.108  23.930  1.00  0.00     0.060 C 
BRANCH  13  14
ATOM     14  C   UNL A   1      32.842  22.625  23.448  1.00  0.00     0.151 C 
ATOM     15  S   UNL A   1      34.186  23.049  24.591  1.00  0.00    -0.050 SA
ATOM     16  C   UNL A   1      32.841  21.109  23.404  1.00  0.00     0.248 C 
ATOM     17  C   UNL A   1      34.243  21.437  25.267  1.00  0.00     0.293 C 
ATOM     18  N   UNL A   1      33.561  20.557  24.455  1.00  0.00    -0.240 N 
ATOM     19  O   UNL A   1      32.154  20.497  22.588  1.00  0.00    -0.273 OA
ATOM     20  O   UNL A   1      34.843  21.222  26.302  1.00  0.00    -0.261 OA
BRANCH  18  21
ATOM     21  C   UNL A   1      33.576  19.155  24.706  1.00  0.00     0.053 A 
ATOM     22  C   UNL A   1      32.527  18.540  25.403  1.00  0.00     0.027 A 
ATOM     23  C   UNL A   1      34.634  18.352  24.250  1.00  0.00     0.027 A 
ATOM     24  C   UNL A   1      32.526  17.159  25.622  1.00  0.00     0.002 A 
ATOM     25  C   UNL A   1      34.650  16.977  24.499  1.00  0.00     0.002 A 
ATOM     26  C   UNL A   1      33.591  16.379  25.177  1.00  0.00     0.000 A 
ENDBRANCH  18  21
ENDBRANCH  13  14
ENDBRANCH  12  13
ENDBRANCH   5   7
ENDBRANCH   2   3
ENDBRANCH   1   2
BRANCH   1  27
ATOM     27  C   UNL A   1      32.193  30.667  26.859  1.00  0.00     0.118 C 
BRANCH  27  28
ATOM     28  N   UNL A   1      32.382  32.111  26.936  1.00  0.00    -0.352 N 
ATOM     29  C   UNL A   1      33.379  32.849  27.528  1.00  0.00     0.251 C 
ATOM     30  H   UNL A   1      31.682  32.644  26.493  1.00  0.00     0.163 HD
ATOM     31  O   UNL A   1      33.257  34.069  27.612  1.00  0.00    -0.269 OA
BRANCH  29  32
ATOM     32  C   UNL A   1      34.582  32.187  28.081  1.00  0.00     0.039 A 
ATOM     33  C   UNL A   1      35.751  32.936  28.246  1.00  0.00     0.014 A 
ATOM     34  C   UNL A   1      34.569  30.834  28.427  1.00  0.00     0.014 A 
ATOM     35  C   UNL A   1      36.876  32.348  28.831  1.00  0.00     0.010 A 
ATOM     36  C   UNL A   1      35.656  30.278  29.094  1.00  0.00     0.010 A 
ATOM     37  C   UNL A   1      36.825  31.025  29.301  1.00  0.00    -0.014 A 
BRANCH  37  38
ATOM     38  C   UNL A   1      37.971  30.408  30.019  1.00  0.00     0.031 A 
ATOM     39  C   UNL A   1      38.273  30.794  31.443  1.00  0.00     0.074 A 
ATOM     40  C   UNL A   1      38.796  29.570  29.359  1.00  0.00     0.049 A 
ATOM     41  N   UNL A   1      39.269  30.423  32.204  1.00  0.00    -0.248 NA
ATOM     42  C   UNL A   1      37.350  31.743  32.087  1.00  0.00     0.031 C 
ATOM     43  C   UNL A   1      38.658  29.174  27.956  1.00  0.00     0.029 A 
ATOM     44  N   UNL A   1      39.934  28.922  29.774  1.00  0.00    -0.354 N 
ATOM     45  C   UNL A   1      39.115  31.116  33.399  1.00  0.00     0.074 A 
ATOM     46  C   UNL A   1      37.951  31.960  33.249  1.00  0.00     0.031 C 
ATOM     47  C   UNL A   1      39.663  28.347  27.629  1.00  0.00     0.029 A 
ATOM     48  C   UNL A   1      40.541  28.183  28.783  1.00  0.00     0.049 A 
ATOM     49  H   UNL A   1      40.283  28.979  30.692  1.00  0.00     0.167 HD
ATOM     50  C   UNL A   1      39.855  31.037  34.530  1.00  0.00     0.034 A 
ATOM     51  C   UNL A   1      41.680  27.465  28.798  1.00  0.00     0.034 A 
ATOM     52  C   UNL A   1      40.991  30.168  34.690  1.00  0.00     0.049 A 
ATOM     53  C   UNL A   1      42.473  27.377  30.074  1.00  0.00     0.074 A 
ATOM     54  C   UNL A   1      41.758  29.955  35.822  1.00  0.00     0.029 A 
ATOM     55  N   UNL A   1      41.529  29.376  33.688  1.00  0.00    -0.354 N 
ATOM     56  N   UNL A   1      42.224  27.922  31.241  1.00  0.00    -0.248 NA
ATOM     57  C   UNL A   1      43.685  26.545  30.048  1.00  0.00     0.031 C 
ATOM     58  C   UNL A   1      42.778  29.056  35.496  1.00  0.00     0.029 A 
ATOM     59  C   UNL A   1      42.625  28.681  34.171  1.00  0.00     0.049 A 
ATOM     60  H   UNL A   1      41.183  29.316  32.769  1.00  0.00     0.167 HD
ATOM     61  C   UNL A   1      43.223  27.469  32.094  1.00  0.00     0.074 A 
ATOM     62  C   UNL A   1      44.068  26.589  31.317  1.00  0.00     0.031 C 
ATOM     63  C   UNL A   1      43.427  27.766  33.402  1.00  0.00     0.034 A 
BRANCH  50  64
ATOM     64  C   UNL A   1      39.430  31.878  35.707  1.00  0.00     0.023 A 
ATOM     65  C   UNL A   1      39.856  33.220  35.793  1.00  0.00     0.012 A 
ATOM     66  C   UNL A   1      38.565  31.364  36.692  1.00  0.00     0.148 A 
ATOM     67  C   UNL A   1      39.459  34.025  36.860  1.00  0.00     0.002 A 
ATOM     68  C   UNL A   1      38.136  32.187  37.728  1.00  0.00     0.091 A 
ATOM     69  F   UNL A   1      38.185  30.082  36.605  1.00  0.00    -0.205 F 
ATOM     70  C   UNL A   1      38.592  33.512  37.820  1.00  0.00     0.022 A 
BRANCH  68  71
ATOM     71  S   UNL A   1      36.953  31.650  38.969  1.00  0.00     0.127 S 
ATOM     72  O   UNL A   1      37.758  31.714  40.189  1.00  0.00    -0.237 OA
ATOM     73  O   UNL A   1      35.915  32.676  38.867  1.00  0.00    -0.237 OA
ATOM     74  O   UNL A   1      36.531  30.315  38.571  1.00  0.00    -0.744 OA
ENDBRANCH  68  71
ENDBRANCH  50  64
BRANCH  51  75
ATOM     75  C   UNL A   1      42.114  26.722  27.579  1.00  0.00     0.023 A 
ATOM     76  C   UNL A   1      42.776  27.416  26.547  1.00  0.00     0.012 A 
ATOM     77  C   UNL A   1      41.890  25.339  27.441  1.00  0.00     0.148 A 
ATOM     78  C   UNL A   1      43.172  26.754  25.385  1.00  0.00     0.002 A 
ATOM     79  C   UNL A   1      42.338  24.674  26.307  1.00  0.00     0.091 A 
ATOM     80  F   UNL A   1      41.251  24.698  28.430  1.00  0.00    -0.205 F 
ATOM     81  C   UNL A   1      42.962  25.383  25.268  1.00  0.00     0.022 A 
BRANCH  79  82
ATOM     82  S   UNL A   1      42.228  22.890  26.127  1.00  0.00     0.127 S 
ATOM     83  O   UNL A   1      42.904  22.675  24.851  1.00  0.00    -0.237 OA
ATOM     84  O   UNL A   1      42.965  22.422  27.302  1.00  0.00    -0.237 OA
ATOM     85  O   UNL A   1      40.805  22.580  26.151  1.00  0.00    -0.744 OA
ENDBRANCH  79  82
ENDBRANCH  51  75
BRANCH  63  86
ATOM     86  C   UNL A   1      44.586  27.099  34.098  1.00  0.00     0.023 A 
ATOM     87  C   UNL A   1      45.875  27.660  34.017  1.00  0.00     0.012 A 
ATOM     88  C   UNL A   1      44.378  25.955  34.895  1.00  0.00     0.148 A 
ATOM     89  C   UNL A   1      46.946  27.074  34.690  1.00  0.00     0.002 A 
ATOM     90  C   UNL A   1      45.439  25.408  35.606  1.00  0.00     0.091 A 
ATOM     91  F   UNL A   1      43.146  25.427  34.945  1.00  0.00    -0.205 F 
ATOM     92  C   UNL A   1      46.726  25.957  35.494  1.00  0.00     0.022 A 
BRANCH  90  93
ATOM     93  S   UNL A   1      45.232  24.032  36.742  1.00  0.00     0.127 S 
ATOM     94  O   UNL A   1      44.230  24.559  37.668  1.00  0.00    -0.237 OA
ATOM     95  O   UNL A   1      44.748  22.972  35.858  1.00  0.00    -0.237 OA
ATOM     96  O   UNL A   1      46.546  23.786  37.320  1.00  0.00    -0.744 OA
ENDBRANCH  90  93
ENDBRANCH  63  86
ENDBRANCH  37  38
ENDBRANCH  29  32
ENDBRANCH  27  28
ENDBRANCH   1  27
TORSDOF 16
ENDMDL
MODEL 3
REMARK VINA RESULT:     -12.7      3.890      8.884
REMARK SMILES O=C(NCCCNC(=O)c1ccc(-c2c3nc(c(-c4cccc(S(=O)(=O)[O-])c4F)c4ccc([nH]4)c(-c4cccc(S(=O)(=O)[O-])c4F)c4nc(c(-c5cccc(S(=O)(=O)[O-])c5F)c5ccc2[nH]5)C=C4)C=C3)cc1)c1ccc(C[C@H]2SC(=O)N(c3ccccc3)C2=O)cc1
REMARK SMILES IDX 5 1 4 2 3 3 1 4 2 5 73 7 74 8 92 9 75 10 91 11 76 12 77 13
REMARK SMILES IDX 78 14 79 15 89 16 80 17 82 18 90 19 81 20 83 21 84 22 88 23
REMARK SMILES IDX 85 24 87 25 86 26 6 27 7 28 8 29 9 31 10 32 11 33 72 34
REMARK SMILES IDX 12 35 71 36 13 37 14 38 15 39 65 40 16 41 70 42 64 43 66 44
REMARK SMILES IDX 17 45 69 46 63 47 62 48 18 50 50 51 30 52 49 53 31 54 34 55
REMARK SMILES IDX 48 56 67 57 32 58 33 59 47 61 68 62 35 63 19 64 20 65 28 66
REMARK SMILES IDX 21 67 23 68 29 69 22 70 24 71 25 72 26 73 27 74 51 75 52 76
REMARK SMILES IDX 60 77 53 78 55 79 61 80 54 81 56 82 57 83 58 84 59 85 36 86
REMARK SMILES IDX 37 87 45 88 38 89 40 90 46 91 39 92 41 93 42 94 43 95 44 96
REMARK H PARENT 3 6 7 30 66 49 34 60
REMARK Flexibility Score: inf
ROOT
ATOM      1  C   UNL A   1      33.005  29.030  24.892  1.00  0.00     0.042 C 
ENDROOT
BRANCH   1   2
ATOM      2  C   UNL A   1      31.525  29.326  25.081  1.00  0.00     0.118 C 
BRANCH   2   3
ATOM      3  N   UNL A   1      30.841  29.635  23.830  1.00  0.00    -0.352 N 
ATOM      4  O   UNL A   1      29.980  29.216  21.778  1.00  0.00    -0.269 OA
ATOM      5  C   UNL A   1      30.438  28.782  22.830  1.00  0.00     0.251 C 
ATOM      6  H   UNL A   1      30.642  30.587  23.681  1.00  0.00     0.163 HD
BRANCH   5   7
ATOM      7  C   UNL A   1      30.579  27.328  23.028  1.00  0.00     0.039 A 
ATOM      8  C   UNL A   1      29.789  26.668  23.972  1.00  0.00     0.014 A 
ATOM      9  C   UNL A   1      31.544  26.632  22.298  1.00  0.00     0.014 A 
ATOM     10  C   UNL A   1      30.047  25.333  24.270  1.00  0.00     0.004 A 
ATOM     11  C   UNL A   1      31.803  25.293  22.605  1.00  0.00     0.004 A 
ATOM     12  C   UNL A   1      31.088  24.647  23.625  1.00  0.00    -0.046 A 
BRANCH  12  13
ATOM     13  C   UNL A   1      31.464  23.251  24.070  1.00  0.00     0.060 C 
BRANCH  13  14
ATOM     14  C   UNL A   1      32.824  22.757  23.536  1.00  0.00     0.151 C 
ATOM     15  S   UNL A   1      34.213  23.164  24.630  1.00  0.00    -0.050 SA
ATOM     16  C   UNL A   1      32.807  21.240  23.488  1.00  0.00     0.248 C 
ATOM     17  C   UNL A   1      34.279  21.550  25.299  1.00  0.00     0.293 C 
ATOM     18  N   UNL A   1      33.560  20.679  24.510  1.00  0.00    -0.240 N 
ATOM     19  O   UNL A   1      32.084  20.638  22.695  1.00  0.00    -0.273 OA
ATOM     20  O   UNL A   1      34.915  21.326  26.311  1.00  0.00    -0.261 OA
BRANCH  18  21
ATOM     21  C   UNL A   1      33.570  19.276  24.756  1.00  0.00     0.053 A 
ATOM     22  C   UNL A   1      34.602  18.468  24.258  1.00  0.00     0.027 A 
ATOM     23  C   UNL A   1      32.556  18.668  25.513  1.00  0.00     0.027 A 
ATOM     24  C   UNL A   1      34.630  17.096  24.525  1.00  0.00     0.002 A 
ATOM     25  C   UNL A   1      32.565  17.291  25.751  1.00  0.00     0.002 A 
ATOM     26  C   UNL A   1      33.607  16.507  25.265  1.00  0.00     0.000 A 
ENDBRANCH  18  21
ENDBRANCH  13  14
ENDBRANCH  12  13
ENDBRANCH   5   7
ENDBRANCH   2   3
ENDBRANCH   1   2
BRANCH   1  27
ATOM     27  C   UNL A   1      33.829  29.101  26.170  1.00  0.00     0.118 C 
BRANCH  27  28
ATOM     28  N   UNL A   1      33.748  30.398  26.831  1.00  0.00    -0.352 N 
ATOM     29  C   UNL A   1      34.558  30.964  27.786  1.00  0.00     0.251 C 
ATOM     30  H   UNL A   1      32.989  30.959  26.548  1.00  0.00     0.163 HD
ATOM     31  O   UNL A   1      34.211  32.012  28.326  1.00  0.00    -0.269 OA
BRANCH  29  32
ATOM     32  C   UNL A   1      35.828  30.313  28.181  1.00  0.00     0.039 A 
ATOM     33  C   UNL A   1      36.953  30.476  27.368  1.00  0.00     0.014 A 
ATOM     34  C   UNL A   1      35.913  29.538  29.339  1.00  0.00     0.014 A 
ATOM     35  C   UNL A   1      38.178  29.928  27.758  1.00  0.00     0.010 A 
ATOM     36  C   UNL A   1      37.152  29.074  29.774  1.00  0.00     0.010 A 
ATOM     37  C   UNL A   1      38.298  29.258  28.988  1.00  0.00    -0.014 A 
BRANCH  37  38
ATOM     38  C   UNL A   1      39.609  28.756  29.476  1.00  0.00     0.031 A 
ATOM     39  C   UNL A   1      40.339  29.479  30.577  1.00  0.00     0.074 A 
ATOM     40  C   UNL A   1      40.187  27.702  28.865  1.00  0.00     0.049 A 
ATOM     41  N   UNL A   1      41.521  29.237  31.081  1.00  0.00    -0.248 NA
ATOM     42  C   UNL A   1      39.664  30.645  31.172  1.00  0.00     0.031 C 
ATOM     43  C   UNL A   1      39.619  26.959  27.737  1.00  0.00     0.029 A 
ATOM     44  N   UNL A   1      41.397  27.088  29.088  1.00  0.00    -0.354 N 
ATOM     45  C   UNL A   1      41.747  30.235  32.021  1.00  0.00     0.074 A 
ATOM     46  C   UNL A   1      40.596  31.109  31.992  1.00  0.00     0.031 C 
ATOM     47  C   UNL A   1      40.472  25.989  27.373  1.00  0.00     0.029 A 
ATOM     48  C   UNL A   1      41.664  26.061  28.211  1.00  0.00     0.049 A 
ATOM     49  H   UNL A   1      42.013  27.358  29.806  1.00  0.00     0.167 HD
ATOM     50  C   UNL A   1      42.801  30.395  32.856  1.00  0.00     0.034 A 
ATOM     51  C   UNL A   1      42.751  25.274  28.090  1.00  0.00     0.034 A 
ATOM     52  C   UNL A   1      43.929  29.503  32.909  1.00  0.00     0.049 A 
ATOM     53  C   UNL A   1      43.900  25.459  29.043  1.00  0.00     0.074 A 
ATOM     54  C   UNL A   1      45.008  29.532  33.774  1.00  0.00     0.029 A 
ATOM     55  N   UNL A   1      44.128  28.427  32.058  1.00  0.00    -0.354 N 
ATOM     56  N   UNL A   1      44.026  26.316  30.028  1.00  0.00    -0.248 NA
ATOM     57  C   UNL A   1      45.042  24.546  28.894  1.00  0.00     0.031 C 
ATOM     58  C   UNL A   1      45.875  28.491  33.427  1.00  0.00     0.029 A 
ATOM     59  C   UNL A   1      45.318  27.791  32.369  1.00  0.00     0.049 A 
ATOM     60  H   UNL A   1      43.513  28.155  31.339  1.00  0.00     0.167 HD
ATOM     61  C   UNL A   1      45.239  26.021  30.638  1.00  0.00     0.074 A 
ATOM     62  C   UNL A   1      45.800  24.893  29.926  1.00  0.00     0.031 C 
ATOM     63  C   UNL A   1      45.840  26.636  31.687  1.00  0.00     0.034 A 
BRANCH  50  64
ATOM     64  C   UNL A   1      42.764  31.554  33.819  1.00  0.00     0.023 A 
ATOM     65  C   UNL A   1      43.161  32.835  33.382  1.00  0.00     0.012 A 
ATOM     66  C   UNL A   1      42.281  31.392  35.132  1.00  0.00     0.148 A 
ATOM     67  C   UNL A   1      43.116  33.927  34.247  1.00  0.00     0.002 A 
ATOM     68  C   UNL A   1      42.194  32.496  35.974  1.00  0.00     0.091 A 
ATOM     69  F   UNL A   1      41.925  30.165  35.537  1.00  0.00    -0.205 F 
ATOM     70  C   UNL A   1      42.624  33.760  35.538  1.00  0.00     0.022 A 
BRANCH  68  71
ATOM     71  S   UNL A   1      41.496  32.404  37.627  1.00  0.00     0.127 S 
ATOM     72  O   UNL A   1      41.670  33.778  38.096  1.00  0.00    -0.237 OA
ATOM     73  O   UNL A   1      40.110  32.024  37.353  1.00  0.00    -0.237 OA
ATOM     74  O   UNL A   1      42.274  31.399  38.337  1.00  0.00    -0.744 OA
ENDBRANCH  68  71
ENDBRANCH  50  64
BRANCH  51  75
ATOM     75  C   UNL A   1      42.783  24.197  27.057  1.00  0.00     0.023 A 
ATOM     76  C   UNL A   1      43.480  24.416  25.853  1.00  0.00     0.012 A 
ATOM     77  C   UNL A   1      42.145  22.959  27.265  1.00  0.00     0.148 A 
ATOM     78  C   UNL A   1      43.508  23.438  24.859  1.00  0.00     0.002 A 
ATOM     79  C   UNL A   1      42.225  21.968  26.296  1.00  0.00     0.091 A 
ATOM     80  F   UNL A   1      41.480  22.774  28.414  1.00  0.00    -0.205 F 
ATOM     81  C   UNL A   1      42.889  22.212  25.083  1.00  0.00     0.022 A 
BRANCH  79  82
ATOM     82  S   UNL A   1      41.571  20.314  26.551  1.00  0.00     0.127 S 
ATOM     83  O   UNL A   1      40.131  20.549  26.489  1.00  0.00    -0.237 OA
ATOM     84  O   UNL A   1      42.127  19.589  25.407  1.00  0.00    -0.237 OA
ATOM     85  O   UNL A   1      42.087  19.882  27.842  1.00  0.00    -0.744 OA
ENDBRANCH  79  82
ENDBRANCH  51  75
BRANCH  63  86
ATOM     86  C   UNL A   1      47.156  26.078  32.165  1.00  0.00     0.023 A 
ATOM     87  C   UNL A   1      47.191  25.196  33.262  1.00  0.00     0.012 A 
ATOM     88  C   UNL A   1      48.350  26.373  31.475  1.00  0.00     0.148 A 
ATOM     89  C   UNL A   1      48.398  24.642  33.687  1.00  0.00     0.002 A 
ATOM     90  C   UNL A   1      49.540  25.776  31.871  1.00  0.00     0.091 A 
ATOM     91  F   UNL A   1      48.297  27.229  30.444  1.00  0.00    -0.205 F 
ATOM     92  C   UNL A   1      49.569  24.922  32.985  1.00  0.00     0.022 A 
BRANCH  90  93
ATOM     93  S   UNL A   1      51.078  25.997  30.969  1.00  0.00     0.127 S 
ATOM     94  O   UNL A   1      51.314  27.431  31.132  1.00  0.00    -0.237 OA
ATOM     95  O   UNL A   1      51.998  25.138  31.713  1.00  0.00    -0.237 OA
ATOM     96  O   UNL A   1      50.810  25.561  29.605  1.00  0.00    -0.744 OA
ENDBRANCH  90  93
ENDBRANCH  63  86
ENDBRANCH  37  38
ENDBRANCH  29  32
ENDBRANCH  27  28
ENDBRANCH   1  27
TORSDOF 16
ENDMDL
