MODEL 1
REMARK VINA RESULT:     -12.5      0.000      0.000
REMARK SMILES O=C(/C=C/c1ccccc1Oc1cccc(Cl)c1)NCCCNC(=O)c1ccc(-c2c3nc(c(-c4cccc(S(=O)(=O)[O-])c4F)c4ccc([nH]4)c(-c4cccc(S(=O)(=O)[O-])c4F)c4nc(c(-c5cccc(S(=O)(=O)[O-])c5F)c5ccc2[nH]5)C=C4)C=C3)cc1
REMARK SMILES IDX 21 1 20 2 19 3 1 4 2 5 3 7 4 8 5 9 6 10 10 11 7 12 9 13 8 14
REMARK SMILES IDX 11 15 12 16 13 17 18 18 14 19 16 20 15 21 17 22 22 23 23 24
REMARK SMILES IDX 24 25 25 27 26 28 27 29 88 30 28 31 87 32 29 33 30 34 31 35
REMARK SMILES IDX 81 36 32 37 86 38 80 39 82 40 33 41 85 42 79 43 78 44 34 46
REMARK SMILES IDX 66 47 46 48 65 49 47 50 50 51 64 52 83 53 48 54 49 55 63 57
REMARK SMILES IDX 84 58 51 59 35 60 36 61 44 62 37 63 39 64 45 65 38 66 40 67
REMARK SMILES IDX 41 68 42 69 43 70 67 71 68 72 76 73 69 74 71 75 77 76 70 77
REMARK SMILES IDX 72 78 73 79 74 80 75 81 52 82 53 83 61 84 54 85 56 86 62 87
REMARK SMILES IDX 55 88 57 89 58 90 59 91 60 92
REMARK H PARENT 19 6 23 26 82 45 50 56
REMARK Flexibility Score: inf
ROOT
ATOM      1  C   UNL A   1      31.449  29.088  25.582  1.00  0.00     0.042 C 
ENDROOT
BRANCH   1   2
ATOM      2  C   UNL A   1      31.421  27.866  26.487  1.00  0.00     0.118 C 
BRANCH   2   3
ATOM      3  N   UNL A   1      32.454  26.901  26.170  1.00  0.00    -0.352 N 
ATOM      4  O   UNL A   1      31.298  25.049  26.877  1.00  0.00    -0.270 OA
ATOM      5  C   UNL A   1      32.296  25.554  26.376  1.00  0.00     0.244 C 
ATOM      6  H   UNL A   1      33.303  27.225  25.791  1.00  0.00     0.163 HD
BRANCH   5   7
ATOM      7  C   UNL A   1      33.378  24.679  25.845  1.00  0.00     0.072 C 
ATOM      8  C   UNL A   1      33.900  23.620  26.479  1.00  0.00     0.017 C 
BRANCH   8   9
ATOM      9  C   UNL A   1      35.085  22.891  26.006  1.00  0.00     0.017 A 
ATOM     10  C   UNL A   1      36.210  23.700  25.752  1.00  0.00     0.012 A 
ATOM     11  C   UNL A   1      35.166  21.509  25.736  1.00  0.00     0.134 A 
ATOM     12  C   UNL A   1      37.398  23.158  25.256  1.00  0.00     0.001 A 
ATOM     13  C   UNL A   1      36.374  20.982  25.245  1.00  0.00     0.048 A 
ATOM     14  C   UNL A   1      37.480  21.795  25.001  1.00  0.00     0.004 A 
BRANCH  11  15
ATOM     15  O   UNL A   1      34.228  20.512  25.928  1.00  0.00    -0.457 OA
BRANCH  15  16
ATOM     16  C   UNL A   1      33.708  19.796  24.888  1.00  0.00     0.128 A 
ATOM     17  C   UNL A   1      32.717  20.422  24.124  1.00  0.00     0.047 A 
ATOM     18  C   UNL A   1      34.071  18.476  24.626  1.00  0.00     0.067 A 
ATOM     19  C   UNL A   1      32.151  19.762  23.035  1.00  0.00     0.005 A 
ATOM     20  C   UNL A   1      33.505  17.824  23.530  1.00  0.00     0.044 A 
ATOM     21  C   UNL A   1      32.555  18.462  22.730  1.00  0.00     0.021 A 
ATOM     22  Cl  UNL A   1      34.027  16.235  23.126  1.00  0.00    -0.084 Cl
ENDBRANCH  15  16
ENDBRANCH  11  15
ENDBRANCH   8   9
ENDBRANCH   5   7
ENDBRANCH   2   3
ENDBRANCH   1   2
BRANCH   1  23
ATOM     23  C   UNL A   1      32.693  29.956  25.736  1.00  0.00     0.118 C 
BRANCH  23  24
ATOM     24  N   UNL A   1      32.421  31.280  26.280  1.00  0.00    -0.352 N 
ATOM     25  C   UNL A   1      33.117  31.997  27.225  1.00  0.00     0.251 C 
ATOM     26  H   UNL A   1      31.621  31.727  25.918  1.00  0.00     0.163 HD
ATOM     27  O   UNL A   1      32.660  33.065  27.629  1.00  0.00    -0.269 OA
BRANCH  25  28
ATOM     28  C   UNL A   1      34.389  31.481  27.782  1.00  0.00     0.039 A 
ATOM     29  C   UNL A   1      35.435  32.379  28.004  1.00  0.00     0.014 A 
ATOM     30  C   UNL A   1      34.558  30.129  28.091  1.00  0.00     0.014 A 
ATOM     31  C   UNL A   1      36.619  31.935  28.600  1.00  0.00     0.010 A 
ATOM     32  C   UNL A   1      35.703  29.705  28.765  1.00  0.00     0.010 A 
ATOM     33  C   UNL A   1      36.749  30.601  29.026  1.00  0.00    -0.014 A 
BRANCH  33  34
ATOM     34  C   UNL A   1      37.956  30.159  29.775  1.00  0.00     0.031 A 
ATOM     35  C   UNL A   1      38.214  30.629  31.182  1.00  0.00     0.074 A 
ATOM     36  C   UNL A   1      38.861  29.371  29.159  1.00  0.00     0.049 A 
ATOM     37  N   UNL A   1      39.198  30.317  31.987  1.00  0.00    -0.248 NA
ATOM     38  C   UNL A   1      37.261  31.594  31.754  1.00  0.00     0.031 C 
ATOM     39  C   UNL A   1      38.785  28.925  27.765  1.00  0.00     0.029 A 
ATOM     40  N   UNL A   1      40.028  28.813  29.620  1.00  0.00    -0.354 N 
ATOM     41  C   UNL A   1      38.999  31.061  33.144  1.00  0.00     0.074 A 
ATOM     42  C   UNL A   1      37.822  31.873  32.922  1.00  0.00     0.031 C 
ATOM     43  C   UNL A   1      39.843  28.146  27.492  1.00  0.00     0.029 A 
ATOM     44  C   UNL A   1      40.689  28.058  28.677  1.00  0.00     0.049 A 
ATOM     45  H   UNL A   1      40.362  28.941  30.537  1.00  0.00     0.167 HD
ATOM     46  C   UNL A   1      39.710  31.050  34.299  1.00  0.00     0.034 A 
ATOM     47  C   UNL A   1      41.844  27.369  28.758  1.00  0.00     0.034 A 
ATOM     48  C   UNL A   1      40.863  30.220  34.527  1.00  0.00     0.049 A 
ATOM     49  C   UNL A   1      42.584  27.330  30.066  1.00  0.00     0.074 A 
ATOM     50  C   UNL A   1      41.601  30.075  35.690  1.00  0.00     0.029 A 
ATOM     51  N   UNL A   1      41.458  29.407  33.575  1.00  0.00    -0.354 N 
ATOM     52  N   UNL A   1      42.283  27.910  31.203  1.00  0.00    -0.248 NA
ATOM     53  C   UNL A   1      43.799  26.505  30.116  1.00  0.00     0.031 C 
ATOM     54  C   UNL A   1      42.660  29.198  35.431  1.00  0.00     0.029 A 
ATOM     55  C   UNL A   1      42.558  28.764  34.120  1.00  0.00     0.049 A 
ATOM     56  H   UNL A   1      41.144  29.302  32.648  1.00  0.00     0.167 HD
ATOM     57  C   UNL A   1      43.248  27.491  32.112  1.00  0.00     0.074 A 
ATOM     58  C   UNL A   1      44.126  26.585  31.398  1.00  0.00     0.031 C 
ATOM     59  C   UNL A   1      43.401  27.833  33.414  1.00  0.00     0.034 A 
BRANCH  46  60
ATOM     60  C   UNL A   1      39.230  31.930  35.426  1.00  0.00     0.023 A 
ATOM     61  C   UNL A   1      38.316  31.419  36.371  1.00  0.00     0.012 A 
ATOM     62  C   UNL A   1      39.728  33.239  35.588  1.00  0.00     0.148 A 
ATOM     63  C   UNL A   1      37.878  32.205  37.436  1.00  0.00     0.002 A 
ATOM     64  C   UNL A   1      39.323  34.000  36.680  1.00  0.00     0.091 A 
ATOM     65  F   UNL A   1      40.581  33.717  34.671  1.00  0.00    -0.205 F 
ATOM     66  C   UNL A   1      38.389  33.490  37.596  1.00  0.00     0.022 A 
BRANCH  64  67
ATOM     67  S   UNL A   1      39.985  35.634  37.023  1.00  0.00     0.127 S 
ATOM     68  O   UNL A   1      39.285  35.980  38.260  1.00  0.00    -0.237 OA
ATOM     69  O   UNL A   1      41.413  35.359  37.189  1.00  0.00    -0.237 OA
ATOM     70  O   UNL A   1      39.653  36.455  35.868  1.00  0.00    -0.744 OA
ENDBRANCH  64  67
ENDBRANCH  46  60
BRANCH  47  71
ATOM     71  C   UNL A   1      42.335  26.598  27.580  1.00  0.00     0.023 A 
ATOM     72  C   UNL A   1      43.139  27.238  26.615  1.00  0.00     0.012 A 
ATOM     73  C   UNL A   1      42.029  25.233  27.421  1.00  0.00     0.148 A 
ATOM     74  C   UNL A   1      43.596  26.543  25.495  1.00  0.00     0.002 A 
ATOM     75  C   UNL A   1      42.536  24.532  26.333  1.00  0.00     0.091 A 
ATOM     76  F   UNL A   1      41.255  24.646  28.344  1.00  0.00    -0.205 F 
ATOM     77  C   UNL A   1      43.303  25.190  25.359  1.00  0.00     0.022 A 
BRANCH  75  78
ATOM     78  S   UNL A   1      42.323  22.759  26.147  1.00  0.00     0.127 S 
ATOM     79  O   UNL A   1      40.868  22.630  26.161  1.00  0.00    -0.237 OA
ATOM     80  O   UNL A   1      42.952  22.514  24.850  1.00  0.00    -0.237 OA
ATOM     81  O   UNL A   1      43.021  22.158  27.276  1.00  0.00    -0.744 OA
ENDBRANCH  75  78
ENDBRANCH  47  71
BRANCH  59  82
ATOM     82  C   UNL A   1      44.538  27.192  34.171  1.00  0.00     0.023 A 
ATOM     83  C   UNL A   1      45.829  27.759  34.126  1.00  0.00     0.012 A 
ATOM     84  C   UNL A   1      44.319  26.042  34.954  1.00  0.00     0.148 A 
ATOM     85  C   UNL A   1      46.891  27.160  34.802  1.00  0.00     0.002 A 
ATOM     86  C   UNL A   1      45.370  25.483  35.671  1.00  0.00     0.091 A 
ATOM     87  F   UNL A   1      43.090  25.503  34.972  1.00  0.00    -0.205 F 
ATOM     88  C   UNL A   1      46.660  26.029  35.582  1.00  0.00     0.022 A 
BRANCH  86  89
ATOM     89  S   UNL A   1      45.141  24.087  36.777  1.00  0.00     0.127 S 
ATOM     90  O   UNL A   1      44.157  24.612  37.721  1.00  0.00    -0.237 OA
ATOM     91  O   UNL A   1      44.631  23.054  35.873  1.00  0.00    -0.237 OA
ATOM     92  O   UNL A   1      46.456  23.800  37.336  1.00  0.00    -0.744 OA
ENDBRANCH  86  89
ENDBRANCH  59  82
ENDBRANCH  33  34
ENDBRANCH  25  28
ENDBRANCH  23  24
ENDBRANCH   1  23
TORSDOF 16
ENDMDL
MODEL 2
REMARK VINA RESULT:     -12.3      5.428     10.728
REMARK SMILES O=C(/C=C/c1ccccc1Oc1cccc(Cl)c1)NCCCNC(=O)c1ccc(-c2c3nc(c(-c4cccc(S(=O)(=O)[O-])c4F)c4ccc([nH]4)c(-c4cccc(S(=O)(=O)[O-])c4F)c4nc(c(-c5cccc(S(=O)(=O)[O-])c5F)c5ccc2[nH]5)C=C4)C=C3)cc1
REMARK SMILES IDX 21 1 20 2 19 3 1 4 2 5 3 7 4 8 5 9 6 10 10 11 7 12 9 13 8 14
REMARK SMILES IDX 11 15 12 16 13 17 18 18 14 19 16 20 15 21 17 22 22 23 23 24
REMARK SMILES IDX 24 25 25 27 26 28 27 29 88 30 28 31 87 32 29 33 30 34 31 35
REMARK SMILES IDX 81 36 32 37 86 38 80 39 82 40 33 41 85 42 79 43 78 44 34 46
REMARK SMILES IDX 66 47 46 48 65 49 47 50 50 51 64 52 83 53 48 54 49 55 63 57
REMARK SMILES IDX 84 58 51 59 35 60 36 61 44 62 37 63 39 64 45 65 38 66 40 67
REMARK SMILES IDX 41 68 42 69 43 70 67 71 68 72 76 73 69 74 71 75 77 76 70 77
REMARK SMILES IDX 72 78 73 79 74 80 75 81 52 82 53 83 61 84 54 85 56 86 62 87
REMARK SMILES IDX 55 88 57 89 58 90 59 91 60 92
REMARK H PARENT 19 6 23 26 82 45 50 56
REMARK Flexibility Score: inf
ROOT
ATOM      1  C   UNL A   1      35.594  21.113  25.108  1.00  0.00     0.042 C 
ENDROOT
BRANCH   1   2
ATOM      2  C   UNL A   1      34.694  21.923  24.188  1.00  0.00     0.118 C 
BRANCH   2   3
ATOM      3  N   UNL A   1      34.300  23.196  24.755  1.00  0.00    -0.352 N 
ATOM      4  O   UNL A   1      34.538  24.419  22.827  1.00  0.00    -0.270 OA
ATOM      5  C   UNL A   1      34.235  24.348  24.013  1.00  0.00     0.244 C 
ATOM      6  H   UNL A   1      34.069  23.236  25.711  1.00  0.00     0.163 HD
BRANCH   5   7
ATOM      7  C   UNL A   1      33.654  25.536  24.697  1.00  0.00     0.072 C 
ATOM      8  C   UNL A   1      33.792  26.807  24.295  1.00  0.00     0.017 C 
BRANCH   8   9
ATOM      9  C   UNL A   1      33.359  27.964  25.091  1.00  0.00     0.017 A 
ATOM     10  C   UNL A   1      33.911  28.028  26.385  1.00  0.00     0.012 A 
ATOM     11  C   UNL A   1      32.422  28.944  24.703  1.00  0.00     0.134 A 
ATOM     12  C   UNL A   1      33.561  29.046  27.276  1.00  0.00     0.001 A 
ATOM     13  C   UNL A   1      32.089  29.966  25.611  1.00  0.00     0.048 A 
ATOM     14  C   UNL A   1      32.648  30.016  26.888  1.00  0.00     0.004 A 
BRANCH  11  15
ATOM     15  O   UNL A   1      31.771  29.119  23.495  1.00  0.00    -0.457 OA
BRANCH  15  16
ATOM     16  C   UNL A   1      30.408  29.141  23.403  1.00  0.00     0.128 A 
ATOM     17  C   UNL A   1      29.769  27.910  23.224  1.00  0.00     0.047 A 
ATOM     18  C   UNL A   1      29.672  30.325  23.403  1.00  0.00     0.067 A 
ATOM     19  C   UNL A   1      28.379  27.849  23.139  1.00  0.00     0.005 A 
ATOM     20  C   UNL A   1      28.281  30.255  23.324  1.00  0.00     0.044 A 
ATOM     21  C   UNL A   1      27.632  29.026  23.201  1.00  0.00     0.021 A 
ATOM     22  Cl  UNL A   1      27.351  31.699  23.439  1.00  0.00    -0.084 Cl
ENDBRANCH  15  16
ENDBRANCH  11  15
ENDBRANCH   8   9
ENDBRANCH   5   7
ENDBRANCH   2   3
ENDBRANCH   1   2
BRANCH   1  23
ATOM     23  C   UNL A   1      36.960  21.740  25.362  1.00  0.00     0.118 C 
BRANCH  23  24
ATOM     24  N   UNL A   1      38.021  20.765  25.582  1.00  0.00    -0.352 N 
ATOM     25  C   UNL A   1      39.288  20.949  26.085  1.00  0.00     0.251 C 
ATOM     26  H   UNL A   1      37.798  19.838  25.336  1.00  0.00     0.163 HD
ATOM     27  O   UNL A   1      40.077  20.006  26.094  1.00  0.00    -0.269 OA
BRANCH  25  28
ATOM     28  C   UNL A   1      39.719  22.277  26.580  1.00  0.00     0.039 A 
ATOM     29  C   UNL A   1      40.723  22.335  27.550  1.00  0.00     0.014 A 
ATOM     30  C   UNL A   1      39.152  23.459  26.098  1.00  0.00     0.014 A 
ATOM     31  C   UNL A   1      41.205  23.575  27.980  1.00  0.00     0.010 A 
ATOM     32  C   UNL A   1      39.694  24.692  26.462  1.00  0.00     0.010 A 
ATOM     33  C   UNL A   1      40.724  24.766  27.409  1.00  0.00    -0.014 A 
BRANCH  33  34
ATOM     34  C   UNL A   1      41.326  26.078  27.773  1.00  0.00     0.031 A 
ATOM     35  C   UNL A   1      42.738  26.421  27.379  1.00  0.00     0.074 A 
ATOM     36  C   UNL A   1      40.612  26.946  28.518  1.00  0.00     0.049 A 
ATOM     37  N   UNL A   1      43.405  27.529  27.588  1.00  0.00    -0.248 NA
ATOM     38  C   UNL A   1      43.514  25.382  26.684  1.00  0.00     0.031 C 
ATOM     39  C   UNL A   1      39.270  26.698  29.052  1.00  0.00     0.029 A 
ATOM     40  N   UNL A   1      40.915  28.208  28.966  1.00  0.00    -0.354 N 
ATOM     41  C   UNL A   1      44.679  27.312  27.077  1.00  0.00     0.074 A 
ATOM     42  C   UNL A   1      44.707  25.953  26.584  1.00  0.00     0.031 C 
ATOM     43  C   UNL A   1      38.858  27.778  29.732  1.00  0.00     0.029 A 
ATOM     44  C   UNL A   1      39.912  28.786  29.710  1.00  0.00     0.049 A 
ATOM     45  H   UNL A   1      41.770  28.658  28.772  1.00  0.00     0.167 HD
ATOM     46  C   UNL A   1      45.723  28.174  26.996  1.00  0.00     0.034 A 
ATOM     47  C   UNL A   1      39.847  29.992  30.307  1.00  0.00     0.034 A 
ATOM     48  C   UNL A   1      45.684  29.535  27.461  1.00  0.00     0.049 A 
ATOM     49  C   UNL A   1      40.997  30.948  30.155  1.00  0.00     0.074 A 
ATOM     50  C   UNL A   1      46.660  30.511  27.349  1.00  0.00     0.029 A 
ATOM     51  N   UNL A   1      44.622  30.112  28.141  1.00  0.00    -0.354 N 
ATOM     52  N   UNL A   1      42.132  30.781  29.518  1.00  0.00    -0.248 NA
ATOM     53  C   UNL A   1      40.841  32.275  30.766  1.00  0.00     0.031 C 
ATOM     54  C   UNL A   1      46.200  31.667  27.988  1.00  0.00     0.029 A 
ATOM     55  C   UNL A   1      44.921  31.426  28.461  1.00  0.00     0.049 A 
ATOM     56  H   UNL A   1      43.780  29.654  28.363  1.00  0.00     0.167 HD
ATOM     57  C   UNL A   1      42.807  31.992  29.620  1.00  0.00     0.074 A 
ATOM     58  C   UNL A   1      41.940  32.892  30.354  1.00  0.00     0.031 C 
ATOM     59  C   UNL A   1      44.037  32.326  29.157  1.00  0.00     0.034 A 
BRANCH  46  60
ATOM     60  C   UNL A   1      46.987  27.683  26.334  1.00  0.00     0.023 A 
ATOM     61  C   UNL A   1      47.929  26.949  27.085  1.00  0.00     0.012 A 
ATOM     62  C   UNL A   1      47.215  27.892  24.959  1.00  0.00     0.148 A 
ATOM     63  C   UNL A   1      49.092  26.464  26.490  1.00  0.00     0.002 A 
ATOM     64  C   UNL A   1      48.355  27.363  24.362  1.00  0.00     0.091 A 
ATOM     65  F   UNL A   1      46.321  28.608  24.263  1.00  0.00    -0.205 F 
ATOM     66  C   UNL A   1      49.299  26.661  25.127  1.00  0.00     0.022 A 
BRANCH  64  67
ATOM     67  S   UNL A   1      48.674  27.489  22.598  1.00  0.00     0.127 S 
ATOM     68  O   UNL A   1      48.678  26.082  22.199  1.00  0.00    -0.237 OA
ATOM     69  O   UNL A   1      47.517  28.252  22.130  1.00  0.00    -0.237 OA
ATOM     70  O   UNL A   1      49.950  28.177  22.467  1.00  0.00    -0.744 OA
ENDBRANCH  64  67
ENDBRANCH  46  60
BRANCH  47  71
ATOM     71  C   UNL A   1      38.614  30.393  31.044  1.00  0.00     0.023 A 
ATOM     72  C   UNL A   1      38.471  30.046  32.402  1.00  0.00     0.012 A 
ATOM     73  C   UNL A   1      37.595  31.132  30.414  1.00  0.00     0.148 A 
ATOM     74  C   UNL A   1      37.319  30.393  33.108  1.00  0.00     0.002 A 
ATOM     75  C   UNL A   1      36.476  31.526  31.139  1.00  0.00     0.091 A 
ATOM     76  F   UNL A   1      37.746  31.445  29.120  1.00  0.00    -0.205 F 
ATOM     77  C   UNL A   1      36.327  31.140  32.480  1.00  0.00     0.022 A 
BRANCH  75  78
ATOM     78  S   UNL A   1      35.214  32.603  30.452  1.00  0.00     0.127 S 
ATOM     79  O   UNL A   1      34.757  31.830  29.301  1.00  0.00    -0.237 OA
ATOM     80  O   UNL A   1      34.259  32.690  31.557  1.00  0.00    -0.237 OA
ATOM     81  O   UNL A   1      35.891  33.855  30.144  1.00  0.00    -0.744 OA
ENDBRANCH  75  78
ENDBRANCH  47  71
BRANCH  59  82
ATOM     82  C   UNL A   1      44.506  33.740  29.392  1.00  0.00     0.023 A 
ATOM     83  C   UNL A   1      45.129  34.087  30.609  1.00  0.00     0.012 A 
ATOM     84  C   UNL A   1      44.356  34.721  28.392  1.00  0.00     0.148 A 
ATOM     85  C   UNL A   1      45.545  35.397  30.845  1.00  0.00     0.002 A 
ATOM     86  C   UNL A   1      44.824  36.011  28.613  1.00  0.00     0.091 A 
ATOM     87  F   UNL A   1      43.744  34.381  27.247  1.00  0.00    -0.205 F 
ATOM     88  C   UNL A   1      45.402  36.356  29.845  1.00  0.00     0.022 A 
BRANCH  86  89
ATOM     89  S   UNL A   1      44.770  37.280  27.345  1.00  0.00     0.127 S 
ATOM     90  O   UNL A   1      45.128  38.477  28.103  1.00  0.00    -0.237 OA
ATOM     91  O   UNL A   1      45.795  36.825  26.404  1.00  0.00    -0.237 OA
ATOM     92  O   UNL A   1      43.414  37.257  26.813  1.00  0.00    -0.744 OA
ENDBRANCH  86  89
ENDBRANCH  59  82
ENDBRANCH  33  34
ENDBRANCH  25  28
ENDBRANCH  23  24
ENDBRANCH   1  23
TORSDOF 16
ENDMDL
MODEL 3
REMARK VINA RESULT:     -12.2      5.118     10.255
REMARK SMILES O=C(/C=C/c1ccccc1Oc1cccc(Cl)c1)NCCCNC(=O)c1ccc(-c2c3nc(c(-c4cccc(S(=O)(=O)[O-])c4F)c4ccc([nH]4)c(-c4cccc(S(=O)(=O)[O-])c4F)c4nc(c(-c5cccc(S(=O)(=O)[O-])c5F)c5ccc2[nH]5)C=C4)C=C3)cc1
REMARK SMILES IDX 21 1 20 2 19 3 1 4 2 5 3 7 4 8 5 9 6 10 10 11 7 12 9 13 8 14
REMARK SMILES IDX 11 15 12 16 13 17 18 18 14 19 16 20 15 21 17 22 22 23 23 24
REMARK SMILES IDX 24 25 25 27 26 28 27 29 88 30 28 31 87 32 29 33 30 34 31 35
REMARK SMILES IDX 81 36 32 37 86 38 80 39 82 40 33 41 85 42 79 43 78 44 34 46
REMARK SMILES IDX 66 47 46 48 65 49 47 50 50 51 64 52 83 53 48 54 49 55 63 57
REMARK SMILES IDX 84 58 51 59 35 60 36 61 44 62 37 63 39 64 45 65 38 66 40 67
REMARK SMILES IDX 41 68 42 69 43 70 67 71 68 72 76 73 69 74 71 75 77 76 70 77
REMARK SMILES IDX 72 78 73 79 74 80 75 81 52 82 53 83 61 84 54 85 56 86 62 87
REMARK SMILES IDX 55 88 57 89 58 90 59 91 60 92
REMARK H PARENT 19 6 23 26 82 45 50 56
REMARK Flexibility Score: inf
ROOT
ATOM      1  C   UNL A   1      37.085  22.223  24.010  1.00  0.00     0.042 C 
ENDROOT
BRANCH   1   2
ATOM      2  C   UNL A   1      35.644  22.581  23.680  1.00  0.00     0.118 C 
BRANCH   2   3
ATOM      3  N   UNL A   1      35.263  23.896  24.154  1.00  0.00    -0.352 N 
ATOM      4  O   UNL A   1      33.874  24.407  22.399  1.00  0.00    -0.270 OA
ATOM      5  C   UNL A   1      34.383  24.701  23.476  1.00  0.00     0.244 C 
ATOM      6  H   UNL A   1      35.649  24.224  24.998  1.00  0.00     0.163 HD
BRANCH   5   7
ATOM      7  C   UNL A   1      33.964  25.947  24.173  1.00  0.00     0.072 C 
ATOM      8  C   UNL A   1      33.894  26.107  25.502  1.00  0.00     0.017 C 
BRANCH   8   9
ATOM      9  C   UNL A   1      33.304  27.287  26.150  1.00  0.00     0.017 A 
ATOM     10  C   UNL A   1      34.174  28.389  26.269  1.00  0.00     0.012 A 
ATOM     11  C   UNL A   1      32.008  27.382  26.697  1.00  0.00     0.134 A 
ATOM     12  C   UNL A   1      33.772  29.567  26.901  1.00  0.00     0.001 A 
ATOM     13  C   UNL A   1      31.619  28.581  27.322  1.00  0.00     0.048 A 
ATOM     14  C   UNL A   1      32.491  29.663  27.429  1.00  0.00     0.004 A 
BRANCH  11  15
ATOM     15  O   UNL A   1      30.971  26.468  26.683  1.00  0.00    -0.457 OA
BRANCH  15  16
ATOM     16  C   UNL A   1      30.889  25.478  25.744  1.00  0.00     0.128 A 
ATOM     17  C   UNL A   1      30.393  25.842  24.488  1.00  0.00     0.047 A 
ATOM     18  C   UNL A   1      31.202  24.149  26.022  1.00  0.00     0.067 A 
ATOM     19  C   UNL A   1      30.297  24.892  23.472  1.00  0.00     0.005 A 
ATOM     20  C   UNL A   1      31.109  23.205  24.998  1.00  0.00     0.044 A 
ATOM     21  C   UNL A   1      30.667  23.570  23.725  1.00  0.00     0.021 A 
ATOM     22  Cl  UNL A   1      31.602  21.583  25.293  1.00  0.00    -0.084 Cl
ENDBRANCH  15  16
ENDBRANCH  11  15
ENDBRANCH   8   9
ENDBRANCH   5   7
ENDBRANCH   2   3
ENDBRANCH   1   2
BRANCH   1  23
ATOM     23  C   UNL A   1      37.372  22.080  25.499  1.00  0.00     0.118 C 
BRANCH  23  24
ATOM     24  N   UNL A   1      38.451  21.148  25.802  1.00  0.00    -0.352 N 
ATOM     25  C   UNL A   1      39.682  21.388  26.366  1.00  0.00     0.251 C 
ATOM     26  H   UNL A   1      38.273  20.208  25.567  1.00  0.00     0.163 HD
ATOM     27  O   UNL A   1      40.500  20.473  26.442  1.00  0.00    -0.269 OA
BRANCH  25  28
ATOM     28  C   UNL A   1      40.041  22.741  26.851  1.00  0.00     0.039 A 
ATOM     29  C   UNL A   1      40.956  22.855  27.900  1.00  0.00     0.014 A 
ATOM     30  C   UNL A   1      39.493  23.893  26.280  1.00  0.00     0.014 A 
ATOM     31  C   UNL A   1      41.373  24.120  28.326  1.00  0.00     0.010 A 
ATOM     32  C   UNL A   1      39.975  25.150  26.646  1.00  0.00     0.010 A 
ATOM     33  C   UNL A   1      40.918  25.280  27.675  1.00  0.00    -0.014 A 
BRANCH  33  34
ATOM     34  C   UNL A   1      41.459  26.616  28.042  1.00  0.00     0.031 A 
ATOM     35  C   UNL A   1      42.884  26.990  27.735  1.00  0.00     0.074 A 
ATOM     36  C   UNL A   1      40.673  27.483  28.714  1.00  0.00     0.049 A 
ATOM     37  N   UNL A   1      43.506  28.121  27.958  1.00  0.00    -0.248 NA
ATOM     38  C   UNL A   1      43.733  25.956  27.122  1.00  0.00     0.031 C 
ATOM     39  C   UNL A   1      39.305  27.210  29.163  1.00  0.00     0.029 A 
ATOM     40  N   UNL A   1      40.911  28.764  29.147  1.00  0.00    -0.354 N 
ATOM     41  C   UNL A   1      44.817  27.928  27.540  1.00  0.00     0.074 A 
ATOM     42  C   UNL A   1      44.915  26.558  27.086  1.00  0.00     0.031 C 
ATOM     43  C   UNL A   1      38.819  28.295  29.785  1.00  0.00     0.029 A 
ATOM     44  C   UNL A   1      39.845  29.332  29.806  1.00  0.00     0.049 A 
ATOM     45  H   UNL A   1      41.765  29.233  28.999  1.00  0.00     0.167 HD
ATOM     46  C   UNL A   1      45.841  28.817  27.505  1.00  0.00     0.034 A 
ATOM     47  C   UNL A   1      39.707  30.550  30.364  1.00  0.00     0.034 A 
ATOM     48  C   UNL A   1      45.734  30.188  27.930  1.00  0.00     0.049 A 
ATOM     49  C   UNL A   1      40.839  31.534  30.264  1.00  0.00     0.074 A 
ATOM     50  C   UNL A   1      46.688  31.188  27.857  1.00  0.00     0.029 A 
ATOM     51  N   UNL A   1      44.613  30.751  28.521  1.00  0.00    -0.354 N 
ATOM     52  N   UNL A   1      42.018  31.383  29.710  1.00  0.00    -0.248 NA
ATOM     53  C   UNL A   1      40.607  32.871  30.827  1.00  0.00     0.031 C 
ATOM     54  C   UNL A   1      46.156  32.346  28.432  1.00  0.00     0.029 A 
ATOM     55  C   UNL A   1      44.854  32.081  28.825  1.00  0.00     0.049 A 
ATOM     56  H   UNL A   1      43.770  30.275  28.698  1.00  0.00     0.167 HD
ATOM     57  C   UNL A   1      42.652  32.616  29.823  1.00  0.00     0.074 A 
ATOM     58  C   UNL A   1      41.714  33.508  30.474  1.00  0.00     0.031 C 
ATOM     59  C   UNL A   1      43.901  32.972  29.435  1.00  0.00     0.034 A 
BRANCH  46  60
ATOM     60  C   UNL A   1      47.159  28.346  26.943  1.00  0.00     0.023 A 
ATOM     61  C   UNL A   1      48.242  28.102  27.813  1.00  0.00     0.012 A 
ATOM     62  C   UNL A   1      47.310  28.085  25.566  1.00  0.00     0.148 A 
ATOM     63  C   UNL A   1      49.463  27.642  27.321  1.00  0.00     0.002 A 
ATOM     64  C   UNL A   1      48.515  27.580  25.089  1.00  0.00     0.091 A 
ATOM     65  F   UNL A   1      46.278  28.339  24.750  1.00  0.00    -0.205 F 
ATOM     66  C   UNL A   1      49.596  27.372  25.962  1.00  0.00     0.022 A 
BRANCH  64  67
ATOM     67  S   UNL A   1      48.762  27.119  23.371  1.00  0.00     0.127 S 
ATOM     68  O   UNL A   1      47.937  25.916  23.268  1.00  0.00    -0.237 OA
ATOM     69  O   UNL A   1      48.233  28.284  22.661  1.00  0.00    -0.237 OA
ATOM     70  O   UNL A   1      50.194  26.908  23.211  1.00  0.00    -0.744 OA
ENDBRANCH  64  67
ENDBRANCH  46  60
BRANCH  47  71
ATOM     71  C   UNL A   1      38.416  30.934  31.006  1.00  0.00     0.023 A 
ATOM     72  C   UNL A   1      38.197  30.630  32.364  1.00  0.00     0.012 A 
ATOM     73  C   UNL A   1      37.418  31.615  30.285  1.00  0.00     0.148 A 
ATOM     74  C   UNL A   1      36.991  30.962  32.982  1.00  0.00     0.002 A 
ATOM     75  C   UNL A   1      36.242  31.995  30.923  1.00  0.00     0.091 A 
ATOM     76  F   UNL A   1      37.642  31.887  28.992  1.00  0.00    -0.205 F 
ATOM     77  C   UNL A   1      36.019  31.653  32.265  1.00  0.00     0.022 A 
BRANCH  75  78
ATOM     78  S   UNL A   1      34.994  33.004  30.117  1.00  0.00     0.127 S 
ATOM     79  O   UNL A   1      34.460  32.079  29.121  1.00  0.00    -0.237 OA
ATOM     80  O   UNL A   1      34.089  33.306  31.226  1.00  0.00    -0.237 OA
ATOM     81  O   UNL A   1      35.703  34.161  29.589  1.00  0.00    -0.744 OA
ENDBRANCH  75  78
ENDBRANCH  47  71
BRANCH  59  82
ATOM     82  C   UNL A   1      44.315  34.405  29.663  1.00  0.00     0.023 A 
ATOM     83  C   UNL A   1      44.850  34.799  30.907  1.00  0.00     0.012 A 
ATOM     84  C   UNL A   1      44.203  35.356  28.630  1.00  0.00     0.148 A 
ATOM     85  C   UNL A   1      45.214  36.126  31.136  1.00  0.00     0.002 A 
ATOM     86  C   UNL A   1      44.620  36.665  28.847  1.00  0.00     0.091 A 
ATOM     87  F   UNL A   1      43.675  34.972  27.459  1.00  0.00    -0.205 F 
ATOM     88  C   UNL A   1      45.108  37.055  30.104  1.00  0.00     0.022 A 
BRANCH  86  89
ATOM     89  S   UNL A   1      44.613  37.901  27.546  1.00  0.00     0.127 S 
ATOM     90  O   UNL A   1      45.592  37.355  26.608  1.00  0.00    -0.237 OA
ATOM     91  O   UNL A   1      43.226  37.852  27.077  1.00  0.00    -0.237 OA
ATOM     92  O   UNL A   1      44.987  39.156  28.185  1.00  0.00    -0.744 OA
ENDBRANCH  86  89
ENDBRANCH  59  82
ENDBRANCH  33  34
ENDBRANCH  25  28
ENDBRANCH  23  24
ENDBRANCH   1  23
TORSDOF 16
ENDMDL
