MODEL 1
REMARK VINA RESULT:     -12.8      0.000      0.000
REMARK SMILES CC(C)c1cc2c(cc1Cl)C=C(C(=O)NCCCNC(=O)c1ccc(-c3c4nc(c(-c5cccc(S(=O)(=O)[O-])c5F)c5ccc([nH]5)c(-c5cccc(S(=O)(=O)[O-])c5F)c5nc(c(-c6cccc(S(=O)(=O)[O-])c6F)c6ccc3[nH]6)C=C5)C=C4)cc1)[C@@H](C(F)(F)F)O2
REMARK SMILES IDX 18 1 17 2 16 3 15 4 13 5 14 6 12 8 4 9 5 10 9 11 6 12 8 13
REMARK SMILES IDX 10 14 7 15 90 16 11 17 85 18 2 19 1 20 3 21 86 22 87 23
REMARK SMILES IDX 88 24 89 25 19 26 20 27 21 29 22 30 23 31 84 32 24 33 83 34
REMARK SMILES IDX 25 35 26 36 27 37 77 38 28 39 82 40 76 41 78 42 29 43 81 44
REMARK SMILES IDX 75 45 74 46 30 48 62 49 42 50 61 51 43 52 46 53 60 54 79 55
REMARK SMILES IDX 44 56 45 57 59 59 80 60 47 61 31 62 32 63 40 64 33 65 35 66
REMARK SMILES IDX 41 67 34 68 36 69 37 70 38 71 39 72 63 73 64 74 72 75 65 76
REMARK SMILES IDX 67 77 73 78 66 79 68 80 69 81 70 82 71 83 48 84 49 85 57 86
REMARK SMILES IDX 50 87 52 88 58 89 51 90 53 91 54 92 55 93 56 94
REMARK H PARENT 15 7 19 28 78 47 46 58
REMARK Flexibility Score: inf
ROOT
ATOM      1  C   UNL A   1      37.055  22.075  25.392  1.00  0.00     0.118 C 
ENDROOT
BRANCH   1   2
ATOM      2  C   UNL A   1      35.955  21.615  24.447  1.00  0.00     0.042 C 
BRANCH   2   3
ATOM      3  C   UNL A   1      34.932  20.723  25.135  1.00  0.00     0.118 C 
BRANCH   3   4
ATOM      4  N   UNL A   1      33.791  20.433  24.280  1.00  0.00    -0.352 N 
ATOM      5  C   UNL A   1      32.733  21.110  23.777  1.00  0.00     0.251 C 
ATOM      6  O   UNL A   1      31.989  20.455  23.039  1.00  0.00    -0.270 OA
ATOM      7  H   UNL A   1      33.788  19.491  23.991  1.00  0.00     0.163 HD
BRANCH   5   8
ATOM      8  C   UNL A   1      32.424  22.544  24.048  1.00  0.00     0.067 C 
ATOM      9  C   UNL A   1      32.100  27.586  23.858  1.00  0.00    -0.023 A 
ATOM     10  C   UNL A   1      31.380  26.566  24.503  1.00  0.00     0.052 A 
ATOM     11  C   UNL A   1      33.114  27.199  22.957  1.00  0.00     0.045 A 
ATOM     12  C   UNL A   1      31.695  25.226  24.296  1.00  0.00     0.128 A 
ATOM     13  C   UNL A   1      33.408  25.845  22.733  1.00  0.00     0.032 A 
ATOM     14  Cl  UNL A   1      34.040  28.355  22.063  1.00  0.00    -0.084 Cl
ATOM     15  C   UNL A   1      32.702  24.853  23.411  1.00  0.00     0.019 A 
ATOM     16  O   UNL A   1      30.945  24.310  24.977  1.00  0.00    -0.475 OA
ATOM     17  C   UNL A   1      32.959  23.434  23.190  1.00  0.00     0.025 C 
ATOM     18  C   UNL A   1      31.593  23.028  25.203  1.00  0.00     0.314 C 
BRANCH   9  19
ATOM     19  C   UNL A   1      31.738  29.045  24.104  1.00  0.00     0.014 C 
ATOM     20  C   UNL A   1      30.312  29.316  23.618  1.00  0.00     0.012 C 
ATOM     21  C   UNL A   1      31.892  29.486  25.567  1.00  0.00     0.012 C 
ENDBRANCH   9  19
BRANCH  18  22
ATOM     22  C   UNL A   1      32.392  23.080  26.522  1.00  0.00     0.429 C 
ATOM     23  F   UNL A   1      32.495  21.841  27.064  1.00  0.00    -0.167 F 
ATOM     24  F   UNL A   1      33.657  23.530  26.347  1.00  0.00    -0.167 F 
ATOM     25  F   UNL A   1      31.823  23.880  27.451  1.00  0.00    -0.167 F 
ENDBRANCH  18  22
ENDBRANCH   5   8
ENDBRANCH   3   4
ENDBRANCH   2   3
ENDBRANCH   1   2
BRANCH   1  26
ATOM     26  N   UNL A   1      38.031  21.021  25.662  1.00  0.00    -0.352 N 
ATOM     27  C   UNL A   1      39.312  21.099  26.154  1.00  0.00     0.251 C 
ATOM     28  H   UNL A   1      37.721  20.109  25.458  1.00  0.00     0.163 HD
ATOM     29  O   UNL A   1      40.037  20.108  26.104  1.00  0.00    -0.269 OA
BRANCH  27  30
ATOM     30  C   UNL A   1      39.814  22.368  26.717  1.00  0.00     0.039 A 
ATOM     31  C   UNL A   1      39.328  23.586  26.244  1.00  0.00     0.014 A 
ATOM     32  C   UNL A   1      40.784  22.345  27.725  1.00  0.00     0.014 A 
ATOM     33  C   UNL A   1      39.949  24.766  26.625  1.00  0.00     0.010 A 
ATOM     34  C   UNL A   1      41.327  23.545  28.191  1.00  0.00     0.010 A 
ATOM     35  C   UNL A   1      40.953  24.763  27.607  1.00  0.00    -0.014 A 
BRANCH  35  36
ATOM     36  C   UNL A   1      41.567  26.058  28.001  1.00  0.00     0.031 A 
ATOM     37  C   UNL A   1      42.944  26.441  27.532  1.00  0.00     0.074 A 
ATOM     38  C   UNL A   1      40.834  26.924  28.730  1.00  0.00     0.049 A 
ATOM     39  N   UNL A   1      43.589  27.563  27.728  1.00  0.00    -0.248 NA
ATOM     40  C   UNL A   1      43.701  25.448  26.751  1.00  0.00     0.031 C 
ATOM     41  C   UNL A   1      39.496  26.653  29.263  1.00  0.00     0.029 A 
ATOM     42  N   UNL A   1      41.086  28.215  29.117  1.00  0.00    -0.354 N 
ATOM     43  C   UNL A   1      44.837  27.395  27.141  1.00  0.00     0.074 A 
ATOM     44  C   UNL A   1      44.863  26.063  26.578  1.00  0.00     0.031 C 
ATOM     45  C   UNL A   1      39.015  27.762  29.838  1.00  0.00     0.029 A 
ATOM     46  C   UNL A   1      40.033  28.806  29.774  1.00  0.00     0.049 A 
ATOM     47  H   UNL A   1      41.940  28.675  28.942  1.00  0.00     0.167 HD
ATOM     48  C   UNL A   1      45.859  28.278  27.060  1.00  0.00     0.034 A 
ATOM     49  C   UNL A   1      39.894  30.049  30.273  1.00  0.00     0.034 A 
ATOM     50  C   UNL A   1      45.804  29.624  27.560  1.00  0.00     0.049 A 
ATOM     51  C   UNL A   1      41.027  31.020  30.134  1.00  0.00     0.074 A 
ATOM     52  C   UNL A   1      46.776  30.606  27.482  1.00  0.00     0.029 A 
ATOM     53  N   UNL A   1      44.719  30.182  28.215  1.00  0.00    -0.354 N 
ATOM     54  N   UNL A   1      42.172  30.858  29.519  1.00  0.00    -0.248 NA
ATOM     55  C   UNL A   1      40.853  32.342  30.751  1.00  0.00     0.031 C 
ATOM     56  C   UNL A   1      46.278  31.760  28.092  1.00  0.00     0.029 A 
ATOM     57  C   UNL A   1      44.995  31.496  28.546  1.00  0.00     0.049 A 
ATOM     58  H   UNL A   1      43.878  29.714  28.416  1.00  0.00     0.167 HD
ATOM     59  C   UNL A   1      42.855  32.057  29.667  1.00  0.00     0.074 A 
ATOM     60  C   UNL A   1      41.986  32.946  30.412  1.00  0.00     0.031 C 
ATOM     61  C   UNL A   1      44.100  32.381  29.245  1.00  0.00     0.034 A 
BRANCH  48  62
ATOM     62  C   UNL A   1      47.118  27.847  26.359  1.00  0.00     0.023 A 
ATOM     63  C   UNL A   1      48.122  27.188  27.094  1.00  0.00     0.012 A 
ATOM     64  C   UNL A   1      47.256  27.993  24.965  1.00  0.00     0.148 A 
ATOM     65  C   UNL A   1      49.255  26.688  26.452  1.00  0.00     0.002 A 
ATOM     66  C   UNL A   1      48.375  27.466  24.329  1.00  0.00     0.091 A 
ATOM     67  F   UNL A   1      46.291  28.633  24.292  1.00  0.00    -0.205 F 
ATOM     68  C   UNL A   1      49.376  26.817  25.072  1.00  0.00     0.022 A 
BRANCH  66  69
ATOM     69  S   UNL A   1      48.603  27.530  22.548  1.00  0.00     0.127 S 
ATOM     70  O   UNL A   1      49.894  28.210  22.442  1.00  0.00    -0.237 OA
ATOM     71  O   UNL A   1      48.629  26.111  22.192  1.00  0.00    -0.237 OA
ATOM     72  O   UNL A   1      47.467  28.273  22.021  1.00  0.00    -0.744 OA
ENDBRANCH  66  69
ENDBRANCH  48  62
BRANCH  49  73
ATOM     73  C   UNL A   1      38.601  30.440  30.897  1.00  0.00     0.023 A 
ATOM     74  C   UNL A   1      38.418  30.251  32.279  1.00  0.00     0.012 A 
ATOM     75  C   UNL A   1      37.598  31.086  30.149  1.00  0.00     0.148 A 
ATOM     76  C   UNL A   1      37.257  30.701  32.908  1.00  0.00     0.002 A 
ATOM     77  C   UNL A   1      36.466  31.575  30.789  1.00  0.00     0.091 A 
ATOM     78  F   UNL A   1      37.795  31.246  28.832  1.00  0.00    -0.205 F 
ATOM     79  C   UNL A   1      36.289  31.375  32.166  1.00  0.00     0.022 A 
BRANCH  77  80
ATOM     80  S   UNL A   1      35.231  32.566  29.941  1.00  0.00     0.127 S 
ATOM     81  O   UNL A   1      36.029  33.693  29.466  1.00  0.00    -0.237 OA
ATOM     82  O   UNL A   1      34.776  31.646  28.897  1.00  0.00    -0.237 OA
ATOM     83  O   UNL A   1      34.224  32.885  30.944  1.00  0.00    -0.744 OA
ENDBRANCH  77  80
ENDBRANCH  49  73
BRANCH  61  84
ATOM     84  C   UNL A   1      44.617  33.753  29.567  1.00  0.00     0.023 A 
ATOM     85  C   UNL A   1      45.365  33.944  30.744  1.00  0.00     0.012 A 
ATOM     86  C   UNL A   1      44.480  34.808  28.645  1.00  0.00     0.148 A 
ATOM     87  C   UNL A   1      45.970  35.172  31.002  1.00  0.00     0.002 A 
ATOM     88  C   UNL A   1      45.113  36.018  28.893  1.00  0.00     0.091 A 
ATOM     89  F   UNL A   1      43.756  34.596  27.536  1.00  0.00    -0.205 F 
ATOM     90  C   UNL A   1      45.855  36.204  30.071  1.00  0.00     0.022 A 
BRANCH  88  91
ATOM     91  S   UNL A   1      45.088  37.382  27.724  1.00  0.00     0.127 S 
ATOM     92  O   UNL A   1      45.711  38.452  28.502  1.00  0.00    -0.237 OA
ATOM     93  O   UNL A   1      45.909  36.865  26.630  1.00  0.00    -0.237 OA
ATOM     94  O   UNL A   1      43.687  37.599  27.386  1.00  0.00    -0.744 OA
ENDBRANCH  88  91
ENDBRANCH  61  84
ENDBRANCH  35  36
ENDBRANCH  27  30
ENDBRANCH   1  26
TORSDOF 15
ENDMDL
MODEL 2
REMARK VINA RESULT:     -12.7      5.959      8.990
REMARK SMILES CC(C)c1cc2c(cc1Cl)C=C(C(=O)NCCCNC(=O)c1ccc(-c3c4nc(c(-c5cccc(S(=O)(=O)[O-])c5F)c5ccc([nH]5)c(-c5cccc(S(=O)(=O)[O-])c5F)c5nc(c(-c6cccc(S(=O)(=O)[O-])c6F)c6ccc3[nH]6)C=C5)C=C4)cc1)[C@@H](C(F)(F)F)O2
REMARK SMILES IDX 18 1 17 2 16 3 15 4 13 5 14 6 12 8 4 9 5 10 9 11 6 12 8 13
REMARK SMILES IDX 10 14 7 15 90 16 11 17 85 18 2 19 1 20 3 21 86 22 87 23
REMARK SMILES IDX 88 24 89 25 19 26 20 27 21 29 22 30 23 31 84 32 24 33 83 34
REMARK SMILES IDX 25 35 26 36 27 37 77 38 28 39 82 40 76 41 78 42 29 43 81 44
REMARK SMILES IDX 75 45 74 46 30 48 62 49 42 50 61 51 43 52 46 53 60 54 79 55
REMARK SMILES IDX 44 56 45 57 59 59 80 60 47 61 31 62 32 63 40 64 33 65 35 66
REMARK SMILES IDX 41 67 34 68 36 69 37 70 38 71 39 72 63 73 64 74 72 75 65 76
REMARK SMILES IDX 67 77 73 78 66 79 68 80 69 81 70 82 71 83 48 84 49 85 57 86
REMARK SMILES IDX 50 87 52 88 58 89 51 90 53 91 54 92 55 93 56 94
REMARK H PARENT 15 7 19 28 78 47 46 58
REMARK Flexibility Score: inf
ROOT
ATOM      1  C   UNL A   1      32.861  32.828  27.302  1.00  0.00     0.118 C 
ENDROOT
BRANCH   1   2
ATOM      2  C   UNL A   1      31.571  32.178  26.822  1.00  0.00     0.042 C 
BRANCH   2   3
ATOM      3  C   UNL A   1      31.751  30.705  26.486  1.00  0.00     0.118 C 
BRANCH   3   4
ATOM      4  N   UNL A   1      31.319  30.393  25.132  1.00  0.00    -0.352 N 
ATOM      5  C   UNL A   1      31.180  29.285  24.368  1.00  0.00     0.251 C 
ATOM      6  O   UNL A   1      30.733  29.479  23.232  1.00  0.00    -0.270 OA
ATOM      7  H   UNL A   1      31.057  31.206  24.641  1.00  0.00     0.163 HD
BRANCH   5   8
ATOM      8  C   UNL A   1      31.519  27.898  24.798  1.00  0.00     0.067 C 
ATOM      9  C   UNL A   1      33.914  23.655  26.152  1.00  0.00    -0.023 A 
ATOM     10  C   UNL A   1      32.606  24.149  26.296  1.00  0.00     0.052 A 
ATOM     11  C   UNL A   1      34.877  24.517  25.589  1.00  0.00     0.045 A 
ATOM     12  C   UNL A   1      32.268  25.424  25.851  1.00  0.00     0.128 A 
ATOM     13  C   UNL A   1      34.536  25.811  25.166  1.00  0.00     0.032 A 
ATOM     14  Cl  UNL A   1      36.533  24.048  25.401  1.00  0.00    -0.084 Cl
ATOM     15  C   UNL A   1      33.224  26.265  25.289  1.00  0.00     0.019 A 
ATOM     16  O   UNL A   1      30.970  25.808  26.026  1.00  0.00    -0.475 OA
ATOM     17  C   UNL A   1      32.832  27.611  24.885  1.00  0.00     0.025 C 
ATOM     18  C   UNL A   1      30.502  26.835  25.108  1.00  0.00     0.314 C 
BRANCH   9  19
ATOM     19  C   UNL A   1      34.256  22.255  26.645  1.00  0.00     0.014 C 
ATOM     20  C   UNL A   1      33.413  21.916  27.876  1.00  0.00     0.012 C 
ATOM     21  C   UNL A   1      34.097  21.163  25.577  1.00  0.00     0.012 C 
ENDBRANCH   9  19
BRANCH  18  22
ATOM     22  C   UNL A   1      29.939  26.170  23.834  1.00  0.00     0.429 C 
ATOM     23  F   UNL A   1      28.736  26.705  23.511  1.00  0.00    -0.167 F 
ATOM     24  F   UNL A   1      30.742  26.346  22.757  1.00  0.00    -0.167 F 
ATOM     25  F   UNL A   1      29.764  24.836  23.970  1.00  0.00    -0.167 F 
ENDBRANCH  18  22
ENDBRANCH   5   8
ENDBRANCH   3   4
ENDBRANCH   2   3
ENDBRANCH   1   2
BRANCH   1  26
ATOM     26  N   UNL A   1      32.668  34.224  27.690  1.00  0.00    -0.352 N 
ATOM     27  C   UNL A   1      33.180  34.932  28.751  1.00  0.00     0.251 C 
ATOM     28  H   UNL A   1      32.074  34.739  27.097  1.00  0.00     0.163 HD
ATOM     29  O   UNL A   1      32.720  36.040  29.014  1.00  0.00    -0.269 OA
BRANCH  27  30
ATOM     30  C   UNL A   1      34.258  34.352  29.578  1.00  0.00     0.039 A 
ATOM     31  C   UNL A   1      35.590  34.502  29.197  1.00  0.00     0.014 A 
ATOM     32  C   UNL A   1      33.937  33.648  30.742  1.00  0.00     0.014 A 
ATOM     33  C   UNL A   1      36.576  33.783  29.856  1.00  0.00     0.010 A 
ATOM     34  C   UNL A   1      34.949  33.019  31.473  1.00  0.00     0.010 A 
ATOM     35  C   UNL A   1      36.271  33.037  31.006  1.00  0.00    -0.014 A 
BRANCH  35  36
ATOM     36  C   UNL A   1      37.368  32.308  31.694  1.00  0.00     0.031 A 
ATOM     37  C   UNL A   1      38.133  31.215  30.998  1.00  0.00     0.074 A 
ATOM     38  C   UNL A   1      37.722  32.697  32.936  1.00  0.00     0.049 A 
ATOM     39  N   UNL A   1      39.164  30.536  31.434  1.00  0.00    -0.248 NA
ATOM     40  C   UNL A   1      37.692  30.825  29.648  1.00  0.00     0.031 C 
ATOM     41  C   UNL A   1      37.037  33.728  33.721  1.00  0.00     0.029 A 
ATOM     42  N   UNL A   1      38.759  32.304  33.742  1.00  0.00    -0.354 N 
ATOM     43  C   UNL A   1      39.461  29.612  30.440  1.00  0.00     0.074 A 
ATOM     44  C   UNL A   1      38.506  29.815  29.374  1.00  0.00     0.031 C 
ATOM     45  C   UNL A   1      37.713  33.941  34.857  1.00  0.00     0.029 A 
ATOM     46  C   UNL A   1      38.842  33.018  34.915  1.00  0.00     0.049 A 
ATOM     47  H   UNL A   1      39.384  31.581  33.506  1.00  0.00     0.167 HD
ATOM     48  C   UNL A   1      40.454  28.693  30.411  1.00  0.00     0.034 A 
ATOM     49  C   UNL A   1      39.726  32.945  35.928  1.00  0.00     0.034 A 
ATOM     50  C   UNL A   1      41.444  28.540  31.441  1.00  0.00     0.049 A 
ATOM     51  C   UNL A   1      40.840  31.945  35.851  1.00  0.00     0.074 A 
ATOM     52  C   UNL A   1      42.515  27.666  31.476  1.00  0.00     0.029 A 
ATOM     53  N   UNL A   1      41.493  29.285  32.609  1.00  0.00    -0.354 N 
ATOM     54  N   UNL A   1      41.139  31.127  34.873  1.00  0.00    -0.248 NA
ATOM     55  C   UNL A   1      41.740  31.857  37.009  1.00  0.00     0.031 C 
ATOM     56  C   UNL A   1      43.214  27.881  32.667  1.00  0.00     0.029 A 
ATOM     57  C   UNL A   1      42.579  28.892  33.371  1.00  0.00     0.049 A 
ATOM     58  H   UNL A   1      40.852  29.987  32.859  1.00  0.00     0.167 HD
ATOM     59  C   UNL A   1      42.264  30.430  35.291  1.00  0.00     0.074 A 
ATOM     60  C   UNL A   1      42.608  30.938  36.604  1.00  0.00     0.031 C 
ATOM     61  C   UNL A   1      42.934  29.442  34.653  1.00  0.00     0.034 A 
BRANCH  48  62
ATOM     62  C   UNL A   1      40.566  27.806  29.202  1.00  0.00     0.023 A 
ATOM     63  C   UNL A   1      39.686  26.714  29.068  1.00  0.00     0.012 A 
ATOM     64  C   UNL A   1      41.459  28.114  28.157  1.00  0.00     0.148 A 
ATOM     65  C   UNL A   1      39.699  25.934  27.912  1.00  0.00     0.002 A 
ATOM     66  C   UNL A   1      41.446  27.349  26.997  1.00  0.00     0.091 A 
ATOM     67  F   UNL A   1      42.293  29.151  28.316  1.00  0.00    -0.205 F 
ATOM     68  C   UNL A   1      40.569  26.258  26.874  1.00  0.00     0.022 A 
BRANCH  66  69
ATOM     69  S   UNL A   1      42.487  27.712  25.579  1.00  0.00     0.127 S 
ATOM     70  O   UNL A   1      42.244  26.546  24.730  1.00  0.00    -0.237 OA
ATOM     71  O   UNL A   1      41.905  28.959  25.083  1.00  0.00    -0.237 OA
ATOM     72  O   UNL A   1      43.844  27.831  26.094  1.00  0.00    -0.744 OA
ENDBRANCH  66  69
ENDBRANCH  48  62
BRANCH  49  73
ATOM     73  C   UNL A   1      39.604  33.894  37.067  1.00  0.00     0.023 A 
ATOM     74  C   UNL A   1      39.949  35.245  36.877  1.00  0.00     0.012 A 
ATOM     75  C   UNL A   1      39.055  33.487  38.298  1.00  0.00     0.148 A 
ATOM     76  C   UNL A   1      39.748  36.178  37.895  1.00  0.00     0.002 A 
ATOM     77  C   UNL A   1      38.812  34.429  39.290  1.00  0.00     0.091 A 
ATOM     78  F   UNL A   1      38.741  32.193  38.454  1.00  0.00    -0.205 F 
ATOM     79  C   UNL A   1      39.166  35.772  39.094  1.00  0.00     0.022 A 
BRANCH  77  80
ATOM     80  S   UNL A   1      37.950  34.025  40.814  1.00  0.00     0.127 S 
ATOM     81  O   UNL A   1      38.932  33.188  41.497  1.00  0.00    -0.237 OA
ATOM     82  O   UNL A   1      37.749  35.349  41.404  1.00  0.00    -0.237 OA
ATOM     83  O   UNL A   1      36.723  33.353  40.408  1.00  0.00    -0.744 OA
ENDBRANCH  77  80
ENDBRANCH  49  73
BRANCH  61  84
ATOM     84  C   UNL A   1      44.115  28.830  35.350  1.00  0.00     0.023 A 
ATOM     85  C   UNL A   1      45.390  29.393  35.157  1.00  0.00     0.012 A 
ATOM     86  C   UNL A   1      43.939  27.797  36.290  1.00  0.00     0.148 A 
ATOM     87  C   UNL A   1      46.481  28.933  35.892  1.00  0.00     0.002 A 
ATOM     88  C   UNL A   1      45.024  27.366  37.041  1.00  0.00     0.091 A 
ATOM     89  F   UNL A   1      42.712  27.278  36.446  1.00  0.00    -0.205 F 
ATOM     90  C   UNL A   1      46.296  27.929  36.842  1.00  0.00     0.022 A 
BRANCH  88  91
ATOM     91  S   UNL A   1      44.874  26.134  38.341  1.00  0.00     0.127 S 
ATOM     92  O   UNL A   1      46.265  25.982  38.767  1.00  0.00    -0.237 OA
ATOM     93  O   UNL A   1      44.009  26.809  39.307  1.00  0.00    -0.237 OA
ATOM     94  O   UNL A   1      44.288  24.956  37.715  1.00  0.00    -0.744 OA
ENDBRANCH  88  91
ENDBRANCH  61  84
ENDBRANCH  35  36
ENDBRANCH  27  30
ENDBRANCH   1  26
TORSDOF 15
ENDMDL
MODEL 3
REMARK VINA RESULT:     -12.7      5.343     10.266
REMARK SMILES CC(C)c1cc2c(cc1Cl)C=C(C(=O)NCCCNC(=O)c1ccc(-c3c4nc(c(-c5cccc(S(=O)(=O)[O-])c5F)c5ccc([nH]5)c(-c5cccc(S(=O)(=O)[O-])c5F)c5nc(c(-c6cccc(S(=O)(=O)[O-])c6F)c6ccc3[nH]6)C=C5)C=C4)cc1)[C@@H](C(F)(F)F)O2
REMARK SMILES IDX 18 1 17 2 16 3 15 4 13 5 14 6 12 8 4 9 5 10 9 11 6 12 8 13
REMARK SMILES IDX 10 14 7 15 90 16 11 17 85 18 2 19 1 20 3 21 86 22 87 23
REMARK SMILES IDX 88 24 89 25 19 26 20 27 21 29 22 30 23 31 84 32 24 33 83 34
REMARK SMILES IDX 25 35 26 36 27 37 77 38 28 39 82 40 76 41 78 42 29 43 81 44
REMARK SMILES IDX 75 45 74 46 30 48 62 49 42 50 61 51 43 52 46 53 60 54 79 55
REMARK SMILES IDX 44 56 45 57 59 59 80 60 47 61 31 62 32 63 40 64 33 65 35 66
REMARK SMILES IDX 41 67 34 68 36 69 37 70 38 71 39 72 63 73 64 74 72 75 65 76
REMARK SMILES IDX 67 77 73 78 66 79 68 80 69 81 70 82 71 83 48 84 49 85 57 86
REMARK SMILES IDX 50 87 52 88 58 89 51 90 53 91 54 92 55 93 56 94
REMARK H PARENT 15 7 19 28 78 47 46 58
REMARK Flexibility Score: inf
ROOT
ATOM      1  C   UNL A   1      32.947  30.046  26.522  1.00  0.00     0.118 C 
ENDROOT
BRANCH   1   2
ATOM      2  C   UNL A   1      32.396  29.717  25.142  1.00  0.00     0.042 C 
BRANCH   2   3
ATOM      3  C   UNL A   1      30.922  30.071  25.005  1.00  0.00     0.118 C 
BRANCH   3   4
ATOM      4  N   UNL A   1      30.443  29.911  23.640  1.00  0.00    -0.352 N 
ATOM      5  C   UNL A   1      30.347  28.910  22.736  1.00  0.00     0.251 C 
ATOM      6  O   UNL A   1      29.827  29.219  21.659  1.00  0.00    -0.270 OA
ATOM      7  H   UNL A   1      30.095  30.759  23.279  1.00  0.00     0.163 HD
BRANCH   5   8
ATOM      8  C   UNL A   1      30.812  27.509  22.954  1.00  0.00     0.067 C 
ATOM      9  C   UNL A   1      31.513  22.815  24.696  1.00  0.00    -0.023 A 
ATOM     10  C   UNL A   1      31.788  23.480  23.488  1.00  0.00     0.052 A 
ATOM     11  C   UNL A   1      30.789  23.521  25.679  1.00  0.00     0.045 A 
ATOM     12  C   UNL A   1      31.403  24.803  23.296  1.00  0.00     0.128 A 
ATOM     13  C   UNL A   1      30.381  24.847  25.467  1.00  0.00     0.032 A 
ATOM     14  Cl  UNL A   1      30.344  22.800  27.188  1.00  0.00    -0.084 Cl
ATOM     15  C   UNL A   1      30.695  25.495  24.274  1.00  0.00     0.019 A 
ATOM     16  O   UNL A   1      31.726  25.365  22.094  1.00  0.00    -0.475 OA
ATOM     17  C   UNL A   1      30.270  26.864  24.004  1.00  0.00     0.025 C 
ATOM     18  C   UNL A   1      31.837  26.815  22.101  1.00  0.00     0.314 C 
BRANCH   9  19
ATOM     19  C   UNL A   1      31.948  21.367  24.883  1.00  0.00     0.014 C 
ATOM     20  C   UNL A   1      32.295  20.749  23.526  1.00  0.00     0.012 C 
ATOM     21  C   UNL A   1      33.119  21.190  25.860  1.00  0.00     0.012 C 
ENDBRANCH   9  19
BRANCH  18  22
ATOM     22  C   UNL A   1      33.280  27.219  22.467  1.00  0.00     0.429 C 
ATOM     23  F   UNL A   1      34.169  26.352  21.924  1.00  0.00    -0.167 F 
ATOM     24  F   UNL A   1      33.609  28.450  22.006  1.00  0.00    -0.167 F 
ATOM     25  F   UNL A   1      33.498  27.237  23.802  1.00  0.00    -0.167 F 
ENDBRANCH  18  22
ENDBRANCH   5   8
ENDBRANCH   3   4
ENDBRANCH   2   3
ENDBRANCH   1   2
BRANCH   1  26
ATOM     26  N   UNL A   1      32.831  31.467  26.842  1.00  0.00    -0.352 N 
ATOM     27  C   UNL A   1      33.632  32.276  27.613  1.00  0.00     0.251 C 
ATOM     28  H   UNL A   1      32.053  31.919  26.441  1.00  0.00     0.163 HD
ATOM     29  O   UNL A   1      33.236  33.395  27.925  1.00  0.00    -0.269 OA
BRANCH  27  30
ATOM     30  C   UNL A   1      34.948  31.789  28.077  1.00  0.00     0.039 A 
ATOM     31  C   UNL A   1      35.099  30.468  28.494  1.00  0.00     0.014 A 
ATOM     32  C   UNL A   1      36.040  32.662  28.099  1.00  0.00     0.014 A 
ATOM     33  C   UNL A   1      36.274  30.078  29.121  1.00  0.00     0.010 A 
ATOM     34  C   UNL A   1      37.261  32.229  28.626  1.00  0.00     0.010 A 
ATOM     35  C   UNL A   1      37.373  30.951  29.190  1.00  0.00    -0.014 A 
BRANCH  35  36
ATOM     36  C   UNL A   1      38.619  30.475  29.845  1.00  0.00     0.031 A 
ATOM     37  C   UNL A   1      38.953  30.866  31.259  1.00  0.00     0.074 A 
ATOM     38  C   UNL A   1      39.414  29.618  29.173  1.00  0.00     0.049 A 
ATOM     39  N   UNL A   1      39.962  30.475  31.996  1.00  0.00    -0.248 NA
ATOM     40  C   UNL A   1      38.053  31.814  31.937  1.00  0.00     0.031 C 
ATOM     41  C   UNL A   1      39.206  29.188  27.788  1.00  0.00     0.029 A 
ATOM     42  N   UNL A   1      40.532  28.929  29.567  1.00  0.00    -0.354 N 
ATOM     43  C   UNL A   1      39.847  31.164  33.198  1.00  0.00     0.074 A 
ATOM     44  C   UNL A   1      38.668  31.996  33.097  1.00  0.00     0.031 C 
ATOM     45  C   UNL A   1      40.113  28.254  27.473  1.00  0.00     0.029 A 
ATOM     46  C   UNL A   1      41.008  28.064  28.610  1.00  0.00     0.049 A 
ATOM     47  H   UNL A   1      40.953  29.041  30.450  1.00  0.00     0.167 HD
ATOM     48  C   UNL A   1      40.639  31.091  34.292  1.00  0.00     0.034 A 
ATOM     49  C   UNL A   1      42.050  27.211  28.635  1.00  0.00     0.034 A 
ATOM     50  C   UNL A   1      41.769  30.211  34.414  1.00  0.00     0.049 A 
ATOM     51  C   UNL A   1      42.887  27.121  29.875  1.00  0.00     0.074 A 
ATOM     52  C   UNL A   1      42.603  30.036  35.503  1.00  0.00     0.029 A 
ATOM     53  N   UNL A   1      42.214  29.352  33.423  1.00  0.00    -0.354 N 
ATOM     54  N   UNL A   1      42.720  27.734  31.021  1.00  0.00    -0.248 NA
ATOM     55  C   UNL A   1      44.049  26.224  29.833  1.00  0.00     0.031 C 
ATOM     56  C   UNL A   1      43.556  29.069  35.171  1.00  0.00     0.029 A 
ATOM     57  C   UNL A   1      43.311  28.641  33.876  1.00  0.00     0.049 A 
ATOM     58  H   UNL A   1      41.811  29.261  32.530  1.00  0.00     0.167 HD
ATOM     59  C   UNL A   1      43.750  27.295  31.840  1.00  0.00     0.074 A 
ATOM     60  C   UNL A   1      44.525  26.345  31.066  1.00  0.00     0.031 C 
ATOM     61  C   UNL A   1      44.041  27.665  33.109  1.00  0.00     0.034 A 
BRANCH  48  62
ATOM     62  C   UNL A   1      40.291  31.945  35.480  1.00  0.00     0.023 A 
ATOM     63  C   UNL A   1      40.989  33.151  35.687  1.00  0.00     0.012 A 
ATOM     64  C   UNL A   1      39.210  31.612  36.319  1.00  0.00     0.148 A 
ATOM     65  C   UNL A   1      40.621  34.011  36.721  1.00  0.00     0.002 A 
ATOM     66  C   UNL A   1      38.832  32.489  37.330  1.00  0.00     0.091 A 
ATOM     67  F   UNL A   1      38.571  30.453  36.107  1.00  0.00    -0.205 F 
ATOM     68  C   UNL A   1      39.538  33.687  37.533  1.00  0.00     0.022 A 
BRANCH  66  69
ATOM     69  S   UNL A   1      37.418  32.193  38.398  1.00  0.00     0.127 S 
ATOM     70  O   UNL A   1      37.884  32.759  39.664  1.00  0.00    -0.237 OA
ATOM     71  O   UNL A   1      36.367  32.964  37.735  1.00  0.00    -0.237 OA
ATOM     72  O   UNL A   1      37.210  30.752  38.404  1.00  0.00    -0.744 OA
ENDBRANCH  66  69
ENDBRANCH  48  62
BRANCH  49  73
ATOM     73  C   UNL A   1      42.305  26.342  27.454  1.00  0.00     0.023 A 
ATOM     74  C   UNL A   1      43.066  26.844  26.383  1.00  0.00     0.012 A 
ATOM     75  C   UNL A   1      41.885  24.999  27.435  1.00  0.00     0.148 A 
ATOM     76  C   UNL A   1      43.407  26.020  25.310  1.00  0.00     0.002 A 
ATOM     77  C   UNL A   1      42.269  24.171  26.388  1.00  0.00     0.091 A 
ATOM     78  F   UNL A   1      41.155  24.549  28.466  1.00  0.00    -0.205 F 
ATOM     79  C   UNL A   1      43.022  24.682  25.320  1.00  0.00     0.022 A 
BRANCH  77  80
ATOM     80  S   UNL A   1      41.930  22.406  26.378  1.00  0.00     0.127 S 
ATOM     81  O   UNL A   1      42.515  21.985  27.648  1.00  0.00    -0.237 OA
ATOM     82  O   UNL A   1      40.466  22.384  26.335  1.00  0.00    -0.237 OA
ATOM     83  O   UNL A   1      42.576  21.885  25.182  1.00  0.00    -0.744 OA
ENDBRANCH  77  80
ENDBRANCH  49  73
BRANCH  61  84
ATOM     84  C   UNL A   1      45.245  27.052  33.763  1.00  0.00     0.023 A 
ATOM     85  C   UNL A   1      46.477  27.730  33.700  1.00  0.00     0.012 A 
ATOM     86  C   UNL A   1      45.124  25.889  34.546  1.00  0.00     0.148 A 
ATOM     87  C   UNL A   1      47.579  27.255  34.409  1.00  0.00     0.002 A 
ATOM     88  C   UNL A   1      46.217  25.439  35.274  1.00  0.00     0.091 A 
ATOM     89  F   UNL A   1      43.939  25.262  34.579  1.00  0.00    -0.205 F 
ATOM     90  C   UNL A   1      47.445  26.118  35.205  1.00  0.00     0.022 A 
BRANCH  88  91
ATOM     91  S   UNL A   1      46.127  24.031  36.386  1.00  0.00     0.127 S 
ATOM     92  O   UNL A   1      45.089  24.458  37.324  1.00  0.00    -0.237 OA
ATOM     93  O   UNL A   1      45.729  22.951  35.484  1.00  0.00    -0.237 OA
ATOM     94  O   UNL A   1      47.458  23.885  36.962  1.00  0.00    -0.744 OA
ENDBRANCH  88  91
ENDBRANCH  61  84
ENDBRANCH  35  36
ENDBRANCH  27  30
ENDBRANCH   1  26
TORSDOF 15
ENDMDL
