MODEL 1
REMARK VINA RESULT:     -11.3      0.000      0.000
REMARK SMILES O=C(CC[C@H]1CCC[N@@H+](Cc2cccc(C3CC3)c2)C1)NCCCNC(=O)c1ccc(-c2c3nc(c(-c4cccc(S(=O)(=O)[O-])c4F)c4ccc([nH]4)c(-c4cccc(S(=O)(=O)[O-])c4F)c4nc(c(-c5cccc(S(=O)(=O)[O-])c5F)c5ccc2[nH]5)C=C4)C=C3)cc1
REMARK SMILES IDX 22 1 21 2 1 3 2 4 3 6 4 7 5 8 6 9 20 10 7 11 9 12 8 13 10 15
REMARK SMILES IDX 11 16 12 17 19 18 13 19 15 20 14 21 16 22 17 23 18 24 23 25
REMARK SMILES IDX 24 26 25 27 26 28 27 30 28 31 29 32 90 33 30 34 89 35 31 36
REMARK SMILES IDX 32 37 33 38 83 39 34 40 88 41 82 42 84 43 35 44 87 45 81 46
REMARK SMILES IDX 80 47 36 49 68 50 48 51 67 52 49 53 52 54 66 55 85 56 50 57
REMARK SMILES IDX 51 58 65 60 86 61 53 62 37 63 38 64 46 65 39 66 41 67 47 68
REMARK SMILES IDX 40 69 42 70 43 71 44 72 45 73 69 74 70 75 78 76 71 77 73 78
REMARK SMILES IDX 79 79 72 80 74 81 75 82 76 83 77 84 54 85 55 86 63 87 56 88
REMARK SMILES IDX 58 89 64 90 57 91 59 92 60 93 61 94 62 95
REMARK H PARENT 21 5 9 14 25 29 84 48 52 59
REMARK Flexibility Score: inf
ROOT
ATOM      1  C   UNL A   1      33.199  29.266  24.459  1.00  0.00     0.117 C 
ENDROOT
BRANCH   1   2
ATOM      2  N   UNL A   1      31.781  29.321  24.173  1.00  0.00    -0.356 N 
ATOM      3  O   UNL A   1      31.930  28.003  22.302  1.00  0.00    -0.275 OA
ATOM      4  C   UNL A   1      31.247  28.555  23.162  1.00  0.00     0.220 C 
ATOM      5  H   UNL A   1      31.197  29.910  24.703  1.00  0.00     0.163 HD
BRANCH   4   6
ATOM      6  C   UNL A   1      29.747  28.339  23.251  1.00  0.00     0.100 C 
BRANCH   6   7
ATOM      7  C   UNL A   1      29.460  26.849  23.510  1.00  0.00     0.019 C 
BRANCH   7   8
ATOM      8  C   UNL A   1      30.514  26.043  24.315  1.00  0.00     0.045 C 
ATOM      9  C   UNL A   1      30.246  25.962  25.821  1.00  0.00     0.015 C 
ATOM     10  C   UNL A   1      30.665  24.630  23.732  1.00  0.00     0.265 C 
ATOM     11  C   UNL A   1      31.252  25.061  26.528  1.00  0.00     0.062 C 
ATOM     12  N   UNL A   1      31.648  23.816  24.455  1.00  0.00    -0.331 N 
ATOM     13  C   UNL A   1      31.300  23.681  25.871  1.00  0.00     0.262 C 
ATOM     14  H   UNL A   1      32.529  24.328  24.408  1.00  0.00     0.348 HD
BRANCH  12  15
ATOM     15  C   UNL A   1      31.931  22.516  23.813  1.00  0.00     0.299 C 
BRANCH  15  16
ATOM     16  C   UNL A   1      33.184  21.799  24.273  1.00  0.00     0.006 A 
ATOM     17  C   UNL A   1      33.199  20.420  24.492  1.00  0.00     0.009 A 
ATOM     18  C   UNL A   1      34.382  22.518  24.431  1.00  0.00     0.013 A 
ATOM     19  C   UNL A   1      34.394  19.783  24.819  1.00  0.00     0.001 A 
ATOM     20  C   UNL A   1      35.618  21.897  24.667  1.00  0.00    -0.044 A 
ATOM     21  C   UNL A   1      35.587  20.511  24.883  1.00  0.00     0.004 A 
BRANCH  20  22
ATOM     22  C   UNL A   1      36.935  22.653  24.630  1.00  0.00     0.019 C 
ATOM     23  C   UNL A   1      37.316  23.580  25.766  1.00  0.00     0.009 C 
ATOM     24  C   UNL A   1      38.075  22.303  25.554  1.00  0.00     0.009 C 
ENDBRANCH  20  22
ENDBRANCH  15  16
ENDBRANCH  12  15
ENDBRANCH   7   8
ENDBRANCH   6   7
ENDBRANCH   4   6
ENDBRANCH   1   2
BRANCH   1  25
ATOM     25  C   UNL A   1      33.580  28.222  25.504  1.00  0.00     0.042 C 
BRANCH  25  26
ATOM     26  C   UNL A   1      33.616  28.712  26.953  1.00  0.00     0.118 C 
BRANCH  26  27
ATOM     27  N   UNL A   1      33.733  30.156  27.089  1.00  0.00    -0.352 N 
ATOM     28  C   UNL A   1      34.738  30.903  27.657  1.00  0.00     0.251 C 
ATOM     29  H   UNL A   1      32.981  30.674  26.719  1.00  0.00     0.163 HD
ATOM     30  O   UNL A   1      34.600  32.122  27.758  1.00  0.00    -0.269 OA
BRANCH  28  31
ATOM     31  C   UNL A   1      35.969  30.261  28.182  1.00  0.00     0.039 A 
ATOM     32  C   UNL A   1      37.114  30.259  27.380  1.00  0.00     0.014 A 
ATOM     33  C   UNL A   1      36.005  29.646  29.437  1.00  0.00     0.014 A 
ATOM     34  C   UNL A   1      38.305  29.705  27.861  1.00  0.00     0.010 A 
ATOM     35  C   UNL A   1      37.211  29.149  29.941  1.00  0.00     0.010 A 
ATOM     36  C   UNL A   1      38.378  29.176  29.162  1.00  0.00    -0.014 A 
BRANCH  36  37
ATOM     37  C   UNL A   1      39.682  28.712  29.715  1.00  0.00     0.031 A 
ATOM     38  C   UNL A   1      40.395  29.476  30.801  1.00  0.00     0.074 A 
ATOM     39  C   UNL A   1      40.260  27.609  29.197  1.00  0.00     0.049 A 
ATOM     40  N   UNL A   1      41.508  29.176  31.422  1.00  0.00    -0.248 NA
ATOM     41  C   UNL A   1      39.796  30.747  31.231  1.00  0.00     0.031 C 
ATOM     42  C   UNL A   1      39.733  26.828  28.076  1.00  0.00     0.029 A 
ATOM     43  N   UNL A   1      41.424  26.961  29.531  1.00  0.00    -0.354 N 
ATOM     44  C   UNL A   1      41.757  30.228  32.297  1.00  0.00     0.074 A 
ATOM     45  C   UNL A   1      40.695  31.192  32.100  1.00  0.00     0.031 C 
ATOM     46  C   UNL A   1      40.556  25.798  27.830  1.00  0.00     0.029 A 
ATOM     47  C   UNL A   1      41.683  25.853  28.756  1.00  0.00     0.049 A 
ATOM     48  H   UNL A   1      42.018  27.260  30.257  1.00  0.00     0.167 HD
ATOM     49  C   UNL A   1      42.758  30.368  33.201  1.00  0.00     0.034 A 
ATOM     50  C   UNL A   1      42.704  24.974  28.789  1.00  0.00     0.034 A 
ATOM     51  C   UNL A   1      43.801  29.398  33.419  1.00  0.00     0.049 A 
ATOM     52  C   UNL A   1      43.767  25.121  29.842  1.00  0.00     0.074 A 
ATOM     53  C   UNL A   1      44.807  29.414  34.369  1.00  0.00     0.029 A 
ATOM     54  N   UNL A   1      43.981  28.244  32.671  1.00  0.00    -0.354 N 
ATOM     55  N   UNL A   1      43.885  26.031  30.777  1.00  0.00    -0.248 NA
ATOM     56  C   UNL A   1      44.814  24.088  29.874  1.00  0.00     0.031 C 
ATOM     57  C   UNL A   1      45.611  28.283  34.180  1.00  0.00     0.029 A 
ATOM     58  C   UNL A   1      45.085  27.545  33.134  1.00  0.00     0.049 A 
ATOM     59  H   UNL A   1      43.408  27.963  31.922  1.00  0.00     0.167 HD
ATOM     60  C   UNL A   1      44.995  25.663  31.531  1.00  0.00     0.074 A 
ATOM     61  C   UNL A   1      45.495  24.430  30.959  1.00  0.00     0.031 C 
ATOM     62  C   UNL A   1      45.555  26.296  32.591  1.00  0.00     0.034 A 
BRANCH  49  63
ATOM     63  C   UNL A   1      42.748  31.601  34.072  1.00  0.00     0.023 A 
ATOM     64  C   UNL A   1      43.440  32.755  33.649  1.00  0.00     0.012 A 
ATOM     65  C   UNL A   1      42.003  31.645  35.267  1.00  0.00     0.148 A 
ATOM     66  C   UNL A   1      43.420  33.919  34.417  1.00  0.00     0.002 A 
ATOM     67  C   UNL A   1      41.951  32.823  36.003  1.00  0.00     0.091 A 
ATOM     68  F   UNL A   1      41.366  30.535  35.664  1.00  0.00    -0.205 F 
ATOM     69  C   UNL A   1      42.669  33.957  35.586  1.00  0.00     0.022 A 
BRANCH  67  70
ATOM     70  S   UNL A   1      40.947  33.002  37.484  1.00  0.00     0.127 S 
ATOM     71  O   UNL A   1      41.179  34.402  37.830  1.00  0.00    -0.237 OA
ATOM     72  O   UNL A   1      39.606  32.708  36.984  1.00  0.00    -0.237 OA
ATOM     73  O   UNL A   1      41.467  32.027  38.439  1.00  0.00    -0.744 OA
ENDBRANCH  67  70
ENDBRANCH  49  63
BRANCH  50  74
ATOM     74  C   UNL A   1      42.727  23.826  27.839  1.00  0.00     0.023 A 
ATOM     75  C   UNL A   1      41.707  22.856  27.897  1.00  0.00     0.012 A 
ATOM     76  C   UNL A   1      43.737  23.701  26.867  1.00  0.00     0.148 A 
ATOM     77  C   UNL A   1      41.714  21.763  27.031  1.00  0.00     0.002 A 
ATOM     78  C   UNL A   1      43.706  22.643  25.967  1.00  0.00     0.091 A 
ATOM     79  F   UNL A   1      44.705  24.630  26.835  1.00  0.00    -0.205 F 
ATOM     80  C   UNL A   1      42.707  21.662  26.060  1.00  0.00     0.022 A 
BRANCH  78  81
ATOM     81  S   UNL A   1      44.862  22.508  24.600  1.00  0.00     0.127 S 
ATOM     82  O   UNL A   1      44.872  23.870  24.080  1.00  0.00    -0.237 OA
ATOM     83  O   UNL A   1      46.089  22.096  25.282  1.00  0.00    -0.237 OA
ATOM     84  O   UNL A   1      44.302  21.495  23.712  1.00  0.00    -0.744 OA
ENDBRANCH  78  81
ENDBRANCH  50  74
BRANCH  62  85
ATOM     85  C   UNL A   1      46.758  25.647  33.230  1.00  0.00     0.023 A 
ATOM     86  C   UNL A   1      48.057  25.994  32.805  1.00  0.00     0.012 A 
ATOM     87  C   UNL A   1      46.603  24.712  34.273  1.00  0.00     0.148 A 
ATOM     88  C   UNL A   1      49.177  25.383  33.369  1.00  0.00     0.002 A 
ATOM     89  C   UNL A   1      47.725  24.147  34.867  1.00  0.00     0.091 A 
ATOM     90  F   UNL A   1      45.362  24.377  34.654  1.00  0.00    -0.205 F 
ATOM     91  C   UNL A   1      49.012  24.468  34.406  1.00  0.00     0.022 A 
BRANCH  89  92
ATOM     92  S   UNL A   1      47.605  23.033  36.272  1.00  0.00     0.127 S 
ATOM     93  O   UNL A   1      46.905  21.892  35.689  1.00  0.00    -0.237 OA
ATOM     94  O   UNL A   1      49.012  22.786  36.596  1.00  0.00    -0.237 OA
ATOM     95  O   UNL A   1      46.874  23.767  37.298  1.00  0.00    -0.744 OA
ENDBRANCH  89  92
ENDBRANCH  62  85
ENDBRANCH  36  37
ENDBRANCH  28  31
ENDBRANCH  26  27
ENDBRANCH  25  26
ENDBRANCH   1  25
TORSDOF 18
ENDMDL
MODEL 2
REMARK VINA RESULT:     -11.2      2.943      8.634
REMARK SMILES O=C(CC[C@H]1CCC[N@@H+](Cc2cccc(C3CC3)c2)C1)NCCCNC(=O)c1ccc(-c2c3nc(c(-c4cccc(S(=O)(=O)[O-])c4F)c4ccc([nH]4)c(-c4cccc(S(=O)(=O)[O-])c4F)c4nc(c(-c5cccc(S(=O)(=O)[O-])c5F)c5ccc2[nH]5)C=C4)C=C3)cc1
REMARK SMILES IDX 22 1 21 2 1 3 2 4 3 6 4 7 5 8 6 9 20 10 7 11 9 12 8 13 10 15
REMARK SMILES IDX 11 16 12 17 19 18 13 19 15 20 14 21 16 22 17 23 18 24 23 25
REMARK SMILES IDX 24 26 25 27 26 28 27 30 28 31 29 32 90 33 30 34 89 35 31 36
REMARK SMILES IDX 32 37 33 38 83 39 34 40 88 41 82 42 84 43 35 44 87 45 81 46
REMARK SMILES IDX 80 47 36 49 68 50 48 51 67 52 49 53 52 54 66 55 85 56 50 57
REMARK SMILES IDX 51 58 65 60 86 61 53 62 37 63 38 64 46 65 39 66 41 67 47 68
REMARK SMILES IDX 40 69 42 70 43 71 44 72 45 73 69 74 70 75 78 76 71 77 73 78
REMARK SMILES IDX 79 79 72 80 74 81 75 82 76 83 77 84 54 85 55 86 63 87 56 88
REMARK SMILES IDX 58 89 64 90 57 91 59 92 60 93 61 94 62 95
REMARK H PARENT 21 5 9 14 25 29 84 48 52 59
REMARK Flexibility Score: inf
ROOT
ATOM      1  C   UNL A   1      31.872  30.292  25.925  1.00  0.00     0.117 C 
ENDROOT
BRANCH   1   2
ATOM      2  N   UNL A   1      31.179  30.028  24.681  1.00  0.00    -0.356 N 
ATOM      3  O   UNL A   1      32.950  28.929  23.724  1.00  0.00    -0.275 OA
ATOM      4  C   UNL A   1      31.759  29.235  23.717  1.00  0.00     0.220 C 
ATOM      5  H   UNL A   1      30.289  30.418  24.524  1.00  0.00     0.163 HD
BRANCH   4   6
ATOM      6  C   UNL A   1      30.793  28.661  22.697  1.00  0.00     0.100 C 
BRANCH   6   7
ATOM      7  C   UNL A   1      30.218  27.335  23.228  1.00  0.00     0.019 C 
BRANCH   7   8
ATOM      8  C   UNL A   1      30.986  26.030  22.884  1.00  0.00     0.045 C 
ATOM      9  C   UNL A   1      32.060  26.184  21.805  1.00  0.00     0.015 C 
ATOM     10  C   UNL A   1      31.601  25.423  24.155  1.00  0.00     0.265 C 
ATOM     11  C   UNL A   1      32.850  24.896  21.603  1.00  0.00     0.062 C 
ATOM     12  N   UNL A   1      32.345  24.185  23.893  1.00  0.00    -0.331 N 
ATOM     13  C   UNL A   1      33.427  24.400  22.929  1.00  0.00     0.262 C 
ATOM     14  H   UNL A   1      31.680  23.541  23.464  1.00  0.00     0.348 HD
BRANCH  12  15
ATOM     15  C   UNL A   1      32.802  23.497  25.117  1.00  0.00     0.299 C 
BRANCH  15  16
ATOM     16  C   UNL A   1      33.516  22.175  24.918  1.00  0.00     0.006 A 
ATOM     17  C   UNL A   1      34.833  21.985  25.337  1.00  0.00     0.009 A 
ATOM     18  C   UNL A   1      32.827  21.088  24.349  1.00  0.00     0.013 A 
ATOM     19  C   UNL A   1      35.422  20.727  25.225  1.00  0.00     0.001 A 
ATOM     20  C   UNL A   1      33.355  19.789  24.308  1.00  0.00    -0.044 A 
ATOM     21  C   UNL A   1      34.683  19.644  24.736  1.00  0.00     0.004 A 
BRANCH  20  22
ATOM     22  C   UNL A   1      32.533  18.584  23.886  1.00  0.00     0.019 C 
ATOM     23  C   UNL A   1      32.314  18.284  22.417  1.00  0.00     0.009 C 
ATOM     24  C   UNL A   1      33.171  17.375  23.248  1.00  0.00     0.009 C 
ENDBRANCH  20  22
ENDBRANCH  15  16
ENDBRANCH  12  15
ENDBRANCH   7   8
ENDBRANCH   6   7
ENDBRANCH   4   6
ENDBRANCH   1   2
BRANCH   1  25
ATOM     25  C   UNL A   1      31.598  31.675  26.506  1.00  0.00     0.042 C 
BRANCH  25  26
ATOM     26  C   UNL A   1      32.765  32.330  27.246  1.00  0.00     0.118 C 
BRANCH  26  27
ATOM     27  N   UNL A   1      32.546  33.729  27.580  1.00  0.00    -0.352 N 
ATOM     28  C   UNL A   1      33.196  34.521  28.498  1.00  0.00     0.251 C 
ATOM     29  H   UNL A   1      31.829  34.173  27.074  1.00  0.00     0.163 HD
ATOM     30  O   UNL A   1      32.792  35.666  28.699  1.00  0.00    -0.269 OA
BRANCH  28  31
ATOM     31  C   UNL A   1      34.351  34.007  29.275  1.00  0.00     0.039 A 
ATOM     32  C   UNL A   1      34.101  33.219  30.401  1.00  0.00     0.014 A 
ATOM     33  C   UNL A   1      35.671  34.307  28.923  1.00  0.00     0.014 A 
ATOM     34  C   UNL A   1      35.166  32.680  31.130  1.00  0.00     0.010 A 
ATOM     35  C   UNL A   1      36.733  33.717  29.614  1.00  0.00     0.010 A 
ATOM     36  C   UNL A   1      36.495  32.891  30.723  1.00  0.00    -0.014 A 
BRANCH  36  37
ATOM     37  C   UNL A   1      37.617  32.203  31.423  1.00  0.00     0.031 A 
ATOM     38  C   UNL A   1      38.360  31.057  30.786  1.00  0.00     0.074 A 
ATOM     39  C   UNL A   1      37.941  32.583  32.676  1.00  0.00     0.049 A 
ATOM     40  N   UNL A   1      39.389  30.388  31.243  1.00  0.00    -0.248 NA
ATOM     41  C   UNL A   1      37.875  30.586  29.481  1.00  0.00     0.031 C 
ATOM     42  C   UNL A   1      37.243  33.609  33.454  1.00  0.00     0.029 A 
ATOM     43  N   UNL A   1      38.929  32.143  33.524  1.00  0.00    -0.354 N 
ATOM     44  C   UNL A   1      39.662  29.406  30.297  1.00  0.00     0.074 A 
ATOM     45  C   UNL A   1      38.665  29.544  29.257  1.00  0.00     0.031 C 
ATOM     46  C   UNL A   1      37.835  33.734  34.651  1.00  0.00     0.029 A 
ATOM     47  C   UNL A   1      38.939  32.784  34.741  1.00  0.00     0.049 A 
ATOM     48  H   UNL A   1      39.569  31.435  33.283  1.00  0.00     0.167 HD
ATOM     49  C   UNL A   1      40.663  28.493  30.280  1.00  0.00     0.034 A 
ATOM     50  C   UNL A   1      39.749  32.635  35.809  1.00  0.00     0.034 A 
ATOM     51  C   UNL A   1      41.673  28.371  31.301  1.00  0.00     0.049 A 
ATOM     52  C   UNL A   1      40.888  31.657  35.736  1.00  0.00     0.074 A 
ATOM     53  C   UNL A   1      42.775  27.534  31.326  1.00  0.00     0.029 A 
ATOM     54  N   UNL A   1      41.701  29.098  32.481  1.00  0.00    -0.354 N 
ATOM     55  N   UNL A   1      41.234  30.860  34.755  1.00  0.00    -0.248 NA
ATOM     56  C   UNL A   1      41.782  31.593  36.903  1.00  0.00     0.031 C 
ATOM     57  C   UNL A   1      43.455  27.735  32.534  1.00  0.00     0.029 A 
ATOM     58  C   UNL A   1      42.796  28.724  33.245  1.00  0.00     0.049 A 
ATOM     59  H   UNL A   1      41.040  29.780  32.738  1.00  0.00     0.167 HD
ATOM     60  C   UNL A   1      42.401  30.228  35.169  1.00  0.00     0.074 A 
ATOM     61  C   UNL A   1      42.719  30.759  36.478  1.00  0.00     0.031 C 
ATOM     62  C   UNL A   1      43.134  29.284  34.528  1.00  0.00     0.034 A 
BRANCH  49  63
ATOM     63  C   UNL A   1      40.755  27.575  29.084  1.00  0.00     0.023 A 
ATOM     64  C   UNL A   1      39.894  26.461  28.997  1.00  0.00     0.012 A 
ATOM     65  C   UNL A   1      41.636  27.850  28.019  1.00  0.00     0.148 A 
ATOM     66  C   UNL A   1      39.933  25.616  27.888  1.00  0.00     0.002 A 
ATOM     67  C   UNL A   1      41.636  27.029  26.897  1.00  0.00     0.091 A 
ATOM     68  F   UNL A   1      42.459  28.902  28.125  1.00  0.00    -0.205 F 
ATOM     69  C   UNL A   1      40.795  25.905  26.835  1.00  0.00     0.022 A 
BRANCH  67  70
ATOM     70  S   UNL A   1      42.651  27.359  25.451  1.00  0.00     0.127 S 
ATOM     71  O   UNL A   1      42.470  26.133  24.677  1.00  0.00    -0.237 OA
ATOM     72  O   UNL A   1      42.006  28.541  24.884  1.00  0.00    -0.237 OA
ATOM     73  O   UNL A   1      44.002  27.586  25.954  1.00  0.00    -0.744 OA
ENDBRANCH  67  70
ENDBRANCH  49  63
BRANCH  50  74
ATOM     74  C   UNL A   1      39.558  33.493  37.012  1.00  0.00     0.023 A 
ATOM     75  C   UNL A   1      38.565  33.158  37.954  1.00  0.00     0.012 A 
ATOM     76  C   UNL A   1      40.366  34.622  37.240  1.00  0.00     0.148 A 
ATOM     77  C   UNL A   1      38.355  33.954  39.080  1.00  0.00     0.002 A 
ATOM     78  C   UNL A   1      40.193  35.376  38.395  1.00  0.00     0.091 A 
ATOM     79  F   UNL A   1      41.300  34.929  36.327  1.00  0.00    -0.205 F 
ATOM     80  C   UNL A   1      39.175  35.056  39.306  1.00  0.00     0.022 A 
BRANCH  78  81
ATOM     81  S   UNL A   1      41.290  36.728  38.835  1.00  0.00     0.127 S 
ATOM     82  O   UNL A   1      40.353  37.716  39.359  1.00  0.00    -0.237 OA
ATOM     83  O   UNL A   1      42.155  36.102  39.835  1.00  0.00    -0.237 OA
ATOM     84  O   UNL A   1      41.973  37.096  37.600  1.00  0.00    -0.744 OA
ENDBRANCH  78  81
ENDBRANCH  50  74
BRANCH  62  85
ATOM     85  C   UNL A   1      44.380  28.786  35.219  1.00  0.00     0.023 A 
ATOM     86  C   UNL A   1      45.641  29.308  34.864  1.00  0.00     0.012 A 
ATOM     87  C   UNL A   1      44.299  27.818  36.240  1.00  0.00     0.148 A 
ATOM     88  C   UNL A   1      46.803  28.838  35.475  1.00  0.00     0.002 A 
ATOM     89  C   UNL A   1      45.456  27.394  36.882  1.00  0.00     0.091 A 
ATOM     90  F   UNL A   1      43.097  27.315  36.554  1.00  0.00    -0.205 F 
ATOM     91  C   UNL A   1      46.710  27.889  36.491  1.00  0.00     0.022 A 
BRANCH  89  92
ATOM     92  S   UNL A   1      45.417  26.246  38.265  1.00  0.00     0.127 S 
ATOM     93  O   UNL A   1      46.628  26.614  38.993  1.00  0.00    -0.237 OA
ATOM     94  O   UNL A   1      44.167  26.607  38.937  1.00  0.00    -0.237 OA
ATOM     95  O   UNL A   1      45.416  24.914  37.674  1.00  0.00    -0.744 OA
ENDBRANCH  89  92
ENDBRANCH  62  85
ENDBRANCH  36  37
ENDBRANCH  28  31
ENDBRANCH  26  27
ENDBRANCH  25  26
ENDBRANCH   1  25
TORSDOF 18
ENDMDL
MODEL 3
REMARK VINA RESULT:     -11.1      3.134      8.625
REMARK SMILES O=C(CC[C@H]1CCC[N@@H+](Cc2cccc(C3CC3)c2)C1)NCCCNC(=O)c1ccc(-c2c3nc(c(-c4cccc(S(=O)(=O)[O-])c4F)c4ccc([nH]4)c(-c4cccc(S(=O)(=O)[O-])c4F)c4nc(c(-c5cccc(S(=O)(=O)[O-])c5F)c5ccc2[nH]5)C=C4)C=C3)cc1
REMARK SMILES IDX 22 1 21 2 1 3 2 4 3 6 4 7 5 8 6 9 20 10 7 11 9 12 8 13 10 15
REMARK SMILES IDX 11 16 12 17 19 18 13 19 15 20 14 21 16 22 17 23 18 24 23 25
REMARK SMILES IDX 24 26 25 27 26 28 27 30 28 31 29 32 90 33 30 34 89 35 31 36
REMARK SMILES IDX 32 37 33 38 83 39 34 40 88 41 82 42 84 43 35 44 87 45 81 46
REMARK SMILES IDX 80 47 36 49 68 50 48 51 67 52 49 53 52 54 66 55 85 56 50 57
REMARK SMILES IDX 51 58 65 60 86 61 53 62 37 63 38 64 46 65 39 66 41 67 47 68
REMARK SMILES IDX 40 69 42 70 43 71 44 72 45 73 69 74 70 75 78 76 71 77 73 78
REMARK SMILES IDX 79 79 72 80 74 81 75 82 76 83 77 84 54 85 55 86 63 87 56 88
REMARK SMILES IDX 58 89 64 90 57 91 59 92 60 93 61 94 62 95
REMARK H PARENT 21 5 9 14 25 29 84 48 52 59
REMARK Flexibility Score: inf
ROOT
ATOM      1  C   UNL A   1      32.045  30.155  25.523  1.00  0.00     0.117 C 
ENDROOT
BRANCH   1   2
ATOM      2  N   UNL A   1      31.108  29.817  24.473  1.00  0.00    -0.356 N 
ATOM      3  O   UNL A   1      32.696  28.866  23.120  1.00  0.00    -0.275 OA
ATOM      4  C   UNL A   1      31.515  29.066  23.394  1.00  0.00     0.220 C 
ATOM      5  H   UNL A   1      30.175  30.125  24.531  1.00  0.00     0.163 HD
BRANCH   4   6
ATOM      6  C   UNL A   1      30.393  28.397  22.622  1.00  0.00     0.100 C 
BRANCH   6   7
ATOM      7  C   UNL A   1      29.683  27.378  23.532  1.00  0.00     0.019 C 
BRANCH   7   8
ATOM      8  C   UNL A   1      30.567  26.344  24.280  1.00  0.00     0.045 C 
ATOM      9  C   UNL A   1      30.141  26.062  25.723  1.00  0.00     0.015 C 
ATOM     10  C   UNL A   1      30.638  25.030  23.487  1.00  0.00     0.265 C 
ATOM     11  C   UNL A   1      30.978  24.956  26.356  1.00  0.00     0.062 C 
ATOM     12  N   UNL A   1      31.459  24.009  24.147  1.00  0.00    -0.331 N 
ATOM     13  C   UNL A   1      30.958  23.697  25.488  1.00  0.00     0.262 C 
ATOM     14  H   UNL A   1      32.386  24.420  24.258  1.00  0.00     0.348 HD
BRANCH  12  15
ATOM     15  C   UNL A   1      31.676  22.800  23.327  1.00  0.00     0.299 C 
BRANCH  15  16
ATOM     16  C   UNL A   1      32.610  21.756  23.905  1.00  0.00     0.006 A 
ATOM     17  C   UNL A   1      32.324  20.392  23.820  1.00  0.00     0.009 A 
ATOM     18  C   UNL A   1      33.824  22.153  24.493  1.00  0.00     0.013 A 
ATOM     19  C   UNL A   1      33.252  19.459  24.276  1.00  0.00     0.001 A 
ATOM     20  C   UNL A   1      34.819  21.241  24.876  1.00  0.00    -0.044 A 
ATOM     21  C   UNL A   1      34.489  19.881  24.776  1.00  0.00     0.004 A 
BRANCH  20  22
ATOM     22  C   UNL A   1      36.206  21.678  25.316  1.00  0.00     0.019 C 
ATOM     23  C   UNL A   1      37.322  21.817  24.301  1.00  0.00     0.009 C 
ATOM     24  C   UNL A   1      36.756  23.038  24.965  1.00  0.00     0.009 C 
ENDBRANCH  20  22
ENDBRANCH  15  16
ENDBRANCH  12  15
ENDBRANCH   7   8
ENDBRANCH   6   7
ENDBRANCH   4   6
ENDBRANCH   1   2
BRANCH   1  25
ATOM     25  C   UNL A   1      31.618  31.345  26.376  1.00  0.00     0.042 C 
BRANCH  25  26
ATOM     26  C   UNL A   1      32.724  32.004  27.202  1.00  0.00     0.118 C 
BRANCH  26  27
ATOM     27  N   UNL A   1      32.511  33.421  27.455  1.00  0.00    -0.352 N 
ATOM     28  C   UNL A   1      33.167  34.262  28.324  1.00  0.00     0.251 C 
ATOM     29  H   UNL A   1      31.794  33.838  26.926  1.00  0.00     0.163 HD
ATOM     30  O   UNL A   1      32.768  35.419  28.460  1.00  0.00    -0.269 OA
BRANCH  28  31
ATOM     31  C   UNL A   1      34.323  33.789  29.126  1.00  0.00     0.039 A 
ATOM     32  C   UNL A   1      34.085  32.910  30.186  1.00  0.00     0.014 A 
ATOM     33  C   UNL A   1      35.629  34.214  28.862  1.00  0.00     0.014 A 
ATOM     34  C   UNL A   1      35.155  32.408  30.934  1.00  0.00     0.010 A 
ATOM     35  C   UNL A   1      36.702  33.663  29.569  1.00  0.00     0.010 A 
ATOM     36  C   UNL A   1      36.480  32.749  30.610  1.00  0.00    -0.014 A 
BRANCH  36  37
ATOM     37  C   UNL A   1      37.621  32.105  31.322  1.00  0.00     0.031 A 
ATOM     38  C   UNL A   1      38.402  30.976  30.702  1.00  0.00     0.074 A 
ATOM     39  C   UNL A   1      37.927  32.510  32.572  1.00  0.00     0.049 A 
ATOM     40  N   UNL A   1      39.450  30.346  31.170  1.00  0.00    -0.248 NA
ATOM     41  C   UNL A   1      37.938  30.475  29.400  1.00  0.00     0.031 C 
ATOM     42  C   UNL A   1      37.193  33.522  33.335  1.00  0.00     0.029 A 
ATOM     43  N   UNL A   1      38.925  32.111  33.429  1.00  0.00    -0.354 N 
ATOM     44  C   UNL A   1      39.758  29.362  30.237  1.00  0.00     0.074 A 
ATOM     45  C   UNL A   1      38.761  29.455  29.191  1.00  0.00     0.031 C 
ATOM     46  C   UNL A   1      37.776  33.680  34.533  1.00  0.00     0.029 A 
ATOM     47  C   UNL A   1      38.910  32.767  34.638  1.00  0.00     0.049 A 
ATOM     48  H   UNL A   1      39.589  31.421  33.199  1.00  0.00     0.167 HD
ATOM     49  C   UNL A   1      40.788  28.481  30.234  1.00  0.00     0.034 A 
ATOM     50  C   UNL A   1      39.719  32.656  35.710  1.00  0.00     0.034 A 
ATOM     51  C   UNL A   1      41.797  28.403  31.261  1.00  0.00     0.049 A 
ATOM     52  C   UNL A   1      40.890  31.714  35.654  1.00  0.00     0.074 A 
ATOM     53  C   UNL A   1      42.925  27.601  31.300  1.00  0.00     0.029 A 
ATOM     54  N   UNL A   1      41.797  29.144  32.432  1.00  0.00    -0.354 N 
ATOM     55  N   UNL A   1      41.264  30.917  34.684  1.00  0.00    -0.248 NA
ATOM     56  C   UNL A   1      41.780  31.692  36.825  1.00  0.00     0.031 C 
ATOM     57  C   UNL A   1      43.593  27.839  32.508  1.00  0.00     0.029 A 
ATOM     58  C   UNL A   1      42.900  28.814  33.205  1.00  0.00     0.049 A 
ATOM     59  H   UNL A   1      41.113  29.808  32.679  1.00  0.00     0.167 HD
ATOM     60  C   UNL A   1      42.449  30.327  35.109  1.00  0.00     0.074 A 
ATOM     61  C   UNL A   1      42.745  30.883  36.414  1.00  0.00     0.031 C 
ATOM     62  C   UNL A   1      43.215  29.399  34.483  1.00  0.00     0.034 A 
BRANCH  49  63
ATOM     63  C   UNL A   1      40.914  27.553  29.050  1.00  0.00     0.023 A 
ATOM     64  C   UNL A   1      40.097  26.405  28.978  1.00  0.00     0.012 A 
ATOM     65  C   UNL A   1      41.783  27.848  27.981  1.00  0.00     0.148 A 
ATOM     66  C   UNL A   1      40.167  25.549  27.879  1.00  0.00     0.002 A 
ATOM     67  C   UNL A   1      41.814  27.014  26.869  1.00  0.00     0.091 A 
ATOM     68  F   UNL A   1      42.564  28.932  28.072  1.00  0.00    -0.205 F 
ATOM     69  C   UNL A   1      41.016  25.858  26.822  1.00  0.00     0.022 A 
BRANCH  67  70
ATOM     70  S   UNL A   1      42.814  27.365  25.417  1.00  0.00     0.127 S 
ATOM     71  O   UNL A   1      42.727  26.103  24.687  1.00  0.00    -0.237 OA
ATOM     72  O   UNL A   1      42.090  28.477  24.806  1.00  0.00    -0.237 OA
ATOM     73  O   UNL A   1      44.141  27.706  25.919  1.00  0.00    -0.744 OA
ENDBRANCH  67  70
ENDBRANCH  49  63
BRANCH  50  74
ATOM     74  C   UNL A   1      39.496  33.521  36.903  1.00  0.00     0.023 A 
ATOM     75  C   UNL A   1      39.932  34.861  36.881  1.00  0.00     0.012 A 
ATOM     76  C   UNL A   1      38.836  33.034  38.046  1.00  0.00     0.148 A 
ATOM     77  C   UNL A   1      39.750  35.687  37.990  1.00  0.00     0.002 A 
ATOM     78  C   UNL A   1      38.603  33.879  39.125  1.00  0.00     0.091 A 
ATOM     79  F   UNL A   1      38.437  31.753  38.051  1.00  0.00    -0.205 F 
ATOM     80  C   UNL A   1      39.077  35.200  39.107  1.00  0.00     0.022 A 
BRANCH  78  81
ATOM     81  S   UNL A   1      37.627  33.379  40.546  1.00  0.00     0.127 S 
ATOM     82  O   UNL A   1      37.570  34.614  41.321  1.00  0.00    -0.237 OA
ATOM     83  O   UNL A   1      36.366  32.980  39.922  1.00  0.00    -0.237 OA
ATOM     84  O   UNL A   1      38.364  32.280  41.161  1.00  0.00    -0.744 OA
ENDBRANCH  78  81
ENDBRANCH  50  74
BRANCH  62  85
ATOM     85  C   UNL A   1      44.473  28.949  35.184  1.00  0.00     0.023 A 
ATOM     86  C   UNL A   1      44.438  27.839  36.053  1.00  0.00     0.012 A 
ATOM     87  C   UNL A   1      45.697  29.610  34.960  1.00  0.00     0.148 A 
ATOM     88  C   UNL A   1      45.588  27.428  36.728  1.00  0.00     0.002 A 
ATOM     89  C   UNL A   1      46.850  29.162  35.595  1.00  0.00     0.091 A 
ATOM     90  F   UNL A   1      45.712  30.676  34.147  1.00  0.00    -0.205 F 
ATOM     91  C   UNL A   1      46.795  28.083  36.492  1.00  0.00     0.022 A 
BRANCH  89  92
ATOM     92  S   UNL A   1      48.462  29.887  35.274  1.00  0.00     0.127 S 
ATOM     93  O   UNL A   1      48.593  29.698  33.831  1.00  0.00    -0.237 OA
ATOM     94  O   UNL A   1      48.270  31.277  35.692  1.00  0.00    -0.237 OA
ATOM     95  O   UNL A   1      49.404  29.138  36.097  1.00  0.00    -0.744 OA
ENDBRANCH  89  92
ENDBRANCH  62  85
ENDBRANCH  36  37
ENDBRANCH  28  31
ENDBRANCH  26  27
ENDBRANCH  25  26
ENDBRANCH   1  25
TORSDOF 18
ENDMDL
