MODEL 1
REMARK VINA RESULT:     -12.3      0.000      0.000
REMARK SMILES O=C(NCCCNC(=O)c1ccc(S(=O)(=O)NCC[NH+]2CCCC2)c(F)c1)c1ccc(-c2c3nc(c(-c4cccc(S(=O)(=O)[O-])c4F)c4ccc([nH]4)c(-c4cccc(S(=O)(=O)[O-])c4F)c4nc(c(-c5cccc(S(=O)(=O)[O-])c5F)c5ccc2[nH]5)C=C4)C=C3)cc1
REMARK SMILES IDX 6 1 5 2 4 3 3 4 1 5 2 6 28 8 29 9 90 10 30 11 89 12 31 13
REMARK SMILES IDX 32 14 33 15 83 16 34 17 88 18 82 19 84 20 35 21 87 22 81 23
REMARK SMILES IDX 80 24 36 26 68 27 48 28 67 29 49 30 52 31 66 32 85 33 50 34
REMARK SMILES IDX 51 35 65 37 86 38 53 39 37 40 38 41 46 42 39 43 41 44 47 45
REMARK SMILES IDX 40 46 42 47 43 48 44 49 45 50 69 51 70 52 78 53 71 54 73 55
REMARK SMILES IDX 79 56 72 57 74 58 75 59 76 60 77 61 54 62 55 63 63 64 56 65
REMARK SMILES IDX 58 66 64 67 57 68 59 69 60 70 61 71 62 72 7 73 8 74 9 76
REMARK SMILES IDX 10 77 11 78 27 79 12 80 25 81 13 82 26 83 14 84 15 85 16 86
REMARK SMILES IDX 17 87 18 89 19 90 20 91 21 92 24 93 22 95 23 96
REMARK H PARENT 3 7 84 25 52 36 7 75 17 88 20 94
REMARK Flexibility Score: inf
ROOT
ATOM      1  C   UNL A   1      33.349  21.497  26.081  1.00  0.00     0.118 C 
ENDROOT
BRANCH   1   2
ATOM      2  C   UNL A   1      34.563  21.841  26.933  1.00  0.00     0.042 C 
BRANCH   2   3
ATOM      3  C   UNL A   1      35.769  22.312  26.132  1.00  0.00     0.118 C 
BRANCH   3   4
ATOM      4  N   UNL A   1      36.725  21.244  25.867  1.00  0.00    -0.352 N 
ATOM      5  O   UNL A   1      38.687  20.262  25.394  1.00  0.00    -0.269 OA
ATOM      6  C   UNL A   1      38.101  21.252  25.827  1.00  0.00     0.251 C 
ATOM      7  H   UNL A   1      36.317  20.366  25.687  1.00  0.00     0.163 HD
BRANCH   6   8
ATOM      8  C   UNL A   1      38.872  22.437  26.271  1.00  0.00     0.039 A 
ATOM      9  C   UNL A   1      39.986  22.303  27.095  1.00  0.00     0.014 A 
ATOM     10  C   UNL A   1      38.496  23.708  25.821  1.00  0.00     0.014 A 
ATOM     11  C   UNL A   1      40.603  23.433  27.617  1.00  0.00     0.010 A 
ATOM     12  C   UNL A   1      39.193  24.842  26.257  1.00  0.00     0.010 A 
ATOM     13  C   UNL A   1      40.227  24.719  27.194  1.00  0.00    -0.014 A 
BRANCH  13  14
ATOM     14  C   UNL A   1      41.001  25.884  27.696  1.00  0.00     0.031 A 
ATOM     15  C   UNL A   1      42.407  26.160  27.241  1.00  0.00     0.074 A 
ATOM     16  C   UNL A   1      40.388  26.742  28.537  1.00  0.00     0.049 A 
ATOM     17  N   UNL A   1      43.145  27.217  27.470  1.00  0.00    -0.248 NA
ATOM     18  C   UNL A   1      43.080  25.124  26.443  1.00  0.00     0.031 C 
ATOM     19  C   UNL A   1      39.050  26.544  29.099  1.00  0.00     0.029 A 
ATOM     20  N   UNL A   1      40.781  27.958  29.037  1.00  0.00    -0.354 N 
ATOM     21  C   UNL A   1      44.377  26.960  26.881  1.00  0.00     0.074 A 
ATOM     22  C   UNL A   1      44.293  25.641  26.289  1.00  0.00     0.031 C 
ATOM     23  C   UNL A   1      38.700  27.632  29.797  1.00  0.00     0.029 A 
ATOM     24  C   UNL A   1      39.806  28.584  29.779  1.00  0.00     0.049 A 
ATOM     25  H   UNL A   1      41.672  28.345  28.879  1.00  0.00     0.167 HD
ATOM     26  C   UNL A   1      45.468  27.758  26.821  1.00  0.00     0.034 A 
ATOM     27  C   UNL A   1      39.790  29.794  30.371  1.00  0.00     0.034 A 
ATOM     28  C   UNL A   1      45.526  29.089  27.364  1.00  0.00     0.049 A 
ATOM     29  C   UNL A   1      40.987  30.688  30.231  1.00  0.00     0.074 A 
ATOM     30  C   UNL A   1      46.561  30.005  27.279  1.00  0.00     0.029 A 
ATOM     31  N   UNL A   1      44.514  29.695  28.091  1.00  0.00    -0.354 N 
ATOM     32  N   UNL A   1      42.088  30.482  29.549  1.00  0.00    -0.248 NA
ATOM     33  C   UNL A   1      40.938  31.984  30.921  1.00  0.00     0.031 C 
ATOM     34  C   UNL A   1      46.178  31.161  27.966  1.00  0.00     0.029 A 
ATOM     35  C   UNL A   1      44.902  30.970  28.471  1.00  0.00     0.049 A 
ATOM     36  H   UNL A   1      43.648  29.281  28.307  1.00  0.00     0.167 HD
ATOM     37  C   UNL A   1      42.863  31.621  29.724  1.00  0.00     0.074 A 
ATOM     38  C   UNL A   1      42.091  32.529  30.550  1.00  0.00     0.031 C 
ATOM     39  C   UNL A   1      44.109  31.878  29.260  1.00  0.00     0.034 A 
BRANCH  26  40
ATOM     40  C   UNL A   1      46.683  27.244  26.094  1.00  0.00     0.023 A 
ATOM     41  C   UNL A   1      46.808  27.478  24.711  1.00  0.00     0.012 A 
ATOM     42  C   UNL A   1      47.739  26.622  26.790  1.00  0.00     0.148 A 
ATOM     43  C   UNL A   1      47.958  27.084  24.026  1.00  0.00     0.002 A 
ATOM     44  C   UNL A   1      48.896  26.263  26.106  1.00  0.00     0.091 A 
ATOM     45  F   UNL A   1      47.592  26.385  28.101  1.00  0.00    -0.205 F 
ATOM     46  C   UNL A   1      49.005  26.488  24.724  1.00  0.00     0.022 A 
BRANCH  44  47
ATOM     47  S   UNL A   1      50.323  25.560  26.942  1.00  0.00     0.127 S 
ATOM     48  O   UNL A   1      51.240  25.341  25.826  1.00  0.00    -0.237 OA
ATOM     49  O   UNL A   1      50.717  26.636  27.852  1.00  0.00    -0.237 OA
ATOM     50  O   UNL A   1      49.837  24.359  27.608  1.00  0.00    -0.744 OA
ENDBRANCH  44  47
ENDBRANCH  26  40
BRANCH  27  51
ATOM     51  C   UNL A   1      38.548  30.239  31.063  1.00  0.00     0.023 A 
ATOM     52  C   UNL A   1      38.448  30.094  32.460  1.00  0.00     0.012 A 
ATOM     53  C   UNL A   1      37.533  30.926  30.369  1.00  0.00     0.148 A 
ATOM     54  C   UNL A   1      37.364  30.632  33.153  1.00  0.00     0.002 A 
ATOM     55  C   UNL A   1      36.490  31.516  31.072  1.00  0.00     0.091 A 
ATOM     56  F   UNL A   1      37.639  31.036  29.037  1.00  0.00    -0.205 F 
ATOM     57  C   UNL A   1      36.396  31.360  32.463  1.00  0.00     0.022 A 
BRANCH  55  58
ATOM     58  S   UNL A   1      35.309  32.619  30.287  1.00  0.00     0.127 S 
ATOM     59  O   UNL A   1      34.847  31.811  29.162  1.00  0.00    -0.237 OA
ATOM     60  O   UNL A   1      34.324  32.817  31.351  1.00  0.00    -0.237 OA
ATOM     61  O   UNL A   1      36.064  33.817  29.942  1.00  0.00    -0.744 OA
ENDBRANCH  55  58
ENDBRANCH  27  51
BRANCH  39  62
ATOM     62  C   UNL A   1      44.744  33.188  29.640  1.00  0.00     0.023 A 
ATOM     63  C   UNL A   1      45.570  33.243  30.780  1.00  0.00     0.012 A 
ATOM     64  C   UNL A   1      44.628  34.319  28.810  1.00  0.00     0.148 A 
ATOM     65  C   UNL A   1      46.264  34.411  31.094  1.00  0.00     0.002 A 
ATOM     66  C   UNL A   1      45.353  35.467  29.107  1.00  0.00     0.091 A 
ATOM     67  F   UNL A   1      43.823  34.246  27.740  1.00  0.00    -0.205 F 
ATOM     68  C   UNL A   1      46.167  35.516  30.252  1.00  0.00     0.022 A 
BRANCH  66  69
ATOM     69  S   UNL A   1      45.362  36.907  28.033  1.00  0.00     0.127 S 
ATOM     70  O   UNL A   1      44.210  37.656  28.530  1.00  0.00    -0.237 OA
ATOM     71  O   UNL A   1      46.660  37.512  28.333  1.00  0.00    -0.237 OA
ATOM     72  O   UNL A   1      45.235  36.393  26.675  1.00  0.00    -0.744 OA
ENDBRANCH  66  69
ENDBRANCH  39  62
ENDBRANCH  13  14
ENDBRANCH   6   8
ENDBRANCH   3   4
ENDBRANCH   2   3
ENDBRANCH   1   2
BRANCH   1  73
ATOM     73  N   UNL A   1      32.095  21.938  26.682  1.00  0.00    -0.352 N 
ATOM     74  C   UNL A   1      31.421  23.130  26.593  1.00  0.00     0.251 C 
ATOM     75  H   UNL A   1      31.657  21.264  27.249  1.00  0.00     0.163 HD
ATOM     76  O   UNL A   1      30.465  23.348  27.332  1.00  0.00    -0.269 OA
BRANCH  74  77
ATOM     77  C   UNL A   1      31.845  24.175  25.638  1.00  0.00     0.042 A 
ATOM     78  C   UNL A   1      32.594  25.280  26.050  1.00  0.00     0.015 A 
ATOM     79  C   UNL A   1      31.515  24.022  24.288  1.00  0.00     0.054 A 
ATOM     80  C   UNL A   1      32.865  26.307  25.147  1.00  0.00     0.026 A 
ATOM     81  C   UNL A   1      31.836  25.026  23.376  1.00  0.00     0.144 A 
ATOM     82  C   UNL A   1      32.453  26.190  23.812  1.00  0.00     0.118 A 
ATOM     83  F   UNL A   1      31.497  24.842  22.096  1.00  0.00    -0.205 F 
BRANCH  82  84
ATOM     84  S   UNL A   1      32.655  27.601  22.777  1.00  0.00     0.243 S 
ATOM     85  O   UNL A   1      32.808  28.734  23.664  1.00  0.00    -0.207 OA
ATOM     86  O   UNL A   1      33.692  27.274  21.823  1.00  0.00    -0.207 OA
BRANCH  84  87
ATOM     87  N   UNL A   1      31.235  27.829  21.906  1.00  0.00    -0.205 NA
ATOM     88  H   UNL A   1      30.887  26.901  21.669  1.00  0.00     0.141 HD
BRANCH  87  89
ATOM     89  C   UNL A   1      30.092  28.572  22.496  1.00  0.00     0.160 C 
BRANCH  89  90
ATOM     90  C   UNL A   1      29.853  29.927  21.819  1.00  0.00     0.278 C 
BRANCH  90  91
ATOM     91  N   UNL A   1      28.407  30.167  21.593  1.00  0.00    -0.334 N 
ATOM     92  C   UNL A   1      28.174  31.576  21.220  1.00  0.00     0.262 C 
ATOM     93  C   UNL A   1      27.644  30.008  22.846  1.00  0.00     0.262 C 
ATOM     94  H   UNL A   1      28.119  29.507  20.871  1.00  0.00     0.348 HD
ATOM     95  C   UNL A   1      28.229  32.339  22.528  1.00  0.00     0.067 C 
ATOM     96  C   UNL A   1      27.620  31.374  23.533  1.00  0.00     0.067 C 
ENDBRANCH  90  91
ENDBRANCH  89  90
ENDBRANCH  87  89
ENDBRANCH  84  87
ENDBRANCH  82  84
ENDBRANCH  74  77
ENDBRANCH   1  73
TORSDOF 18
ENDMDL
MODEL 2
REMARK VINA RESULT:     -12.3      4.839     10.358
REMARK SMILES O=C(NCCCNC(=O)c1ccc(S(=O)(=O)NCC[NH+]2CCCC2)c(F)c1)c1ccc(-c2c3nc(c(-c4cccc(S(=O)(=O)[O-])c4F)c4ccc([nH]4)c(-c4cccc(S(=O)(=O)[O-])c4F)c4nc(c(-c5cccc(S(=O)(=O)[O-])c5F)c5ccc2[nH]5)C=C4)C=C3)cc1
REMARK SMILES IDX 6 1 5 2 4 3 3 4 1 5 2 6 28 8 29 9 90 10 30 11 89 12 31 13
REMARK SMILES IDX 32 14 33 15 83 16 34 17 88 18 82 19 84 20 35 21 87 22 81 23
REMARK SMILES IDX 80 24 36 26 68 27 48 28 67 29 49 30 52 31 66 32 85 33 50 34
REMARK SMILES IDX 51 35 65 37 86 38 53 39 37 40 38 41 46 42 39 43 41 44 47 45
REMARK SMILES IDX 40 46 42 47 43 48 44 49 45 50 69 51 70 52 78 53 71 54 73 55
REMARK SMILES IDX 79 56 72 57 74 58 75 59 76 60 77 61 54 62 55 63 63 64 56 65
REMARK SMILES IDX 58 66 64 67 57 68 59 69 60 70 61 71 62 72 7 73 8 74 9 76
REMARK SMILES IDX 10 77 11 78 27 79 12 80 25 81 13 82 26 83 14 84 15 85 16 86
REMARK SMILES IDX 17 87 18 89 19 90 20 91 21 92 24 93 22 95 23 96
REMARK H PARENT 3 7 84 25 52 36 7 75 17 88 20 94
REMARK Flexibility Score: inf
ROOT
ATOM      1  C   UNL A   1      33.845  28.031  23.242  1.00  0.00     0.118 C 
ENDROOT
BRANCH   1   2
ATOM      2  C   UNL A   1      32.717  28.791  23.928  1.00  0.00     0.042 C 
BRANCH   2   3
ATOM      3  C   UNL A   1      32.955  29.048  25.409  1.00  0.00     0.118 C 
BRANCH   3   4
ATOM      4  N   UNL A   1      32.479  30.357  25.840  1.00  0.00    -0.352 N 
ATOM      5  O   UNL A   1      32.258  32.183  27.124  1.00  0.00    -0.269 OA
ATOM      6  C   UNL A   1      32.942  31.211  26.814  1.00  0.00     0.251 C 
ATOM      7  H   UNL A   1      31.693  30.687  25.349  1.00  0.00     0.163 HD
BRANCH   6   8
ATOM      8  C   UNL A   1      34.230  30.958  27.503  1.00  0.00     0.039 A 
ATOM      9  C   UNL A   1      34.566  29.685  27.955  1.00  0.00     0.014 A 
ATOM     10  C   UNL A   1      35.138  32.011  27.667  1.00  0.00     0.014 A 
ATOM     11  C   UNL A   1      35.708  29.501  28.726  1.00  0.00     0.010 A 
ATOM     12  C   UNL A   1      36.346  31.798  28.345  1.00  0.00     0.010 A 
ATOM     13  C   UNL A   1      36.623  30.550  28.919  1.00  0.00    -0.014 A 
BRANCH  13  14
ATOM     14  C   UNL A   1      37.883  30.264  29.653  1.00  0.00     0.031 A 
ATOM     15  C   UNL A   1      38.105  30.733  31.064  1.00  0.00     0.074 A 
ATOM     16  C   UNL A   1      38.819  29.509  29.043  1.00  0.00     0.049 A 
ATOM     17  N   UNL A   1      39.080  30.427  31.881  1.00  0.00    -0.248 NA
ATOM     18  C   UNL A   1      37.124  31.670  31.632  1.00  0.00     0.031 C 
ATOM     19  C   UNL A   1      38.744  29.052  27.653  1.00  0.00     0.029 A 
ATOM     20  N   UNL A   1      39.988  28.963  29.508  1.00  0.00    -0.354 N 
ATOM     21  C   UNL A   1      38.856  31.160  33.040  1.00  0.00     0.074 A 
ATOM     22  C   UNL A   1      37.653  31.934  32.820  1.00  0.00     0.031 C 
ATOM     23  C   UNL A   1      39.772  28.232  27.403  1.00  0.00     0.029 A 
ATOM     24  C   UNL A   1      40.611  28.145  28.594  1.00  0.00     0.049 A 
ATOM     25  H   UNL A   1      40.346  29.139  30.408  1.00  0.00     0.167 HD
ATOM     26  C   UNL A   1      39.574  31.168  34.187  1.00  0.00     0.034 A 
ATOM     27  C   UNL A   1      41.725  27.394  28.699  1.00  0.00     0.034 A 
ATOM     28  C   UNL A   1      40.737  30.353  34.418  1.00  0.00     0.049 A 
ATOM     29  C   UNL A   1      42.464  27.367  30.004  1.00  0.00     0.074 A 
ATOM     30  C   UNL A   1      41.482  30.231  35.579  1.00  0.00     0.029 A 
ATOM     31  N   UNL A   1      41.326  29.524  33.476  1.00  0.00    -0.354 N 
ATOM     32  N   UNL A   1      42.154  27.957  31.133  1.00  0.00    -0.248 NA
ATOM     33  C   UNL A   1      43.692  26.561  30.061  1.00  0.00     0.031 C 
ATOM     34  C   UNL A   1      42.529  29.338  35.334  1.00  0.00     0.029 A 
ATOM     35  C   UNL A   1      42.432  28.895  34.025  1.00  0.00     0.049 A 
ATOM     36  H   UNL A   1      41.007  29.401  32.554  1.00  0.00     0.167 HD
ATOM     37  C   UNL A   1      43.144  27.594  32.037  1.00  0.00     0.074 A 
ATOM     38  C   UNL A   1      44.047  26.704  31.333  1.00  0.00     0.031 C 
ATOM     39  C   UNL A   1      43.299  27.982  33.325  1.00  0.00     0.034 A 
BRANCH  26  40
ATOM     40  C   UNL A   1      39.097  32.044  35.315  1.00  0.00     0.023 A 
ATOM     41  C   UNL A   1      38.170  31.530  36.242  1.00  0.00     0.012 A 
ATOM     42  C   UNL A   1      39.635  33.331  35.515  1.00  0.00     0.148 A 
ATOM     43  C   UNL A   1      37.770  32.290  37.342  1.00  0.00     0.002 A 
ATOM     44  C   UNL A   1      39.257  34.069  36.632  1.00  0.00     0.091 A 
ATOM     45  F   UNL A   1      40.497  33.814  34.608  1.00  0.00    -0.205 F 
ATOM     46  C   UNL A   1      38.321  33.552  37.543  1.00  0.00     0.022 A 
BRANCH  44  47
ATOM     47  S   UNL A   1      39.975  35.672  37.008  1.00  0.00     0.127 S 
ATOM     48  O   UNL A   1      41.390  35.337  37.147  1.00  0.00    -0.237 OA
ATOM     49  O   UNL A   1      39.649  36.452  35.812  1.00  0.00    -0.237 OA
ATOM     50  O   UNL A   1      39.309  36.128  38.221  1.00  0.00    -0.744 OA
ENDBRANCH  44  47
ENDBRANCH  26  40
BRANCH  27  51
ATOM     51  C   UNL A   1      42.129  26.544  27.544  1.00  0.00     0.023 A 
ATOM     52  C   UNL A   1      43.061  27.043  26.613  1.00  0.00     0.012 A 
ATOM     53  C   UNL A   1      41.705  25.204  27.441  1.00  0.00     0.148 A 
ATOM     54  C   UNL A   1      43.568  26.220  25.608  1.00  0.00     0.002 A 
ATOM     55  C   UNL A   1      42.263  24.373  26.478  1.00  0.00     0.091 A 
ATOM     56  F   UNL A   1      40.803  24.756  28.326  1.00  0.00    -0.205 F 
ATOM     57  C   UNL A   1      43.186  24.882  25.552  1.00  0.00     0.022 A 
BRANCH  55  58
ATOM     58  S   UNL A   1      41.964  22.602  26.453  1.00  0.00     0.127 S 
ATOM     59  O   UNL A   1      42.651  22.199  25.229  1.00  0.00    -0.237 OA
ATOM     60  O   UNL A   1      42.607  22.167  27.694  1.00  0.00    -0.237 OA
ATOM     61  O   UNL A   1      40.515  22.451  26.447  1.00  0.00    -0.744 OA
ENDBRANCH  55  58
ENDBRANCH  27  51
BRANCH  39  62
ATOM     62  C   UNL A   1      44.500  27.470  34.073  1.00  0.00     0.023 A 
ATOM     63  C   UNL A   1      45.684  28.232  34.073  1.00  0.00     0.012 A 
ATOM     64  C   UNL A   1      44.418  26.312  34.871  1.00  0.00     0.148 A 
ATOM     65  C   UNL A   1      46.775  27.843  34.848  1.00  0.00     0.002 A 
ATOM     66  C   UNL A   1      45.496  25.952  35.671  1.00  0.00     0.091 A 
ATOM     67  F   UNL A   1      43.286  25.594  34.841  1.00  0.00    -0.205 F 
ATOM     68  C   UNL A   1      46.677  26.713  35.657  1.00  0.00     0.022 A 
BRANCH  66  69
ATOM     69  S   UNL A   1      45.428  24.565  36.812  1.00  0.00     0.127 S 
ATOM     70  O   UNL A   1      44.261  24.904  37.623  1.00  0.00    -0.237 OA
ATOM     71  O   UNL A   1      45.236  23.429  35.910  1.00  0.00    -0.237 OA
ATOM     72  O   UNL A   1      46.702  24.566  37.519  1.00  0.00    -0.744 OA
ENDBRANCH  66  69
ENDBRANCH  39  62
ENDBRANCH  13  14
ENDBRANCH   6   8
ENDBRANCH   3   4
ENDBRANCH   2   3
ENDBRANCH   1   2
BRANCH   1  73
ATOM     73  N   UNL A   1      33.413  27.363  22.020  1.00  0.00    -0.352 N 
ATOM     74  C   UNL A   1      33.169  26.039  21.752  1.00  0.00     0.251 C 
ATOM     75  H   UNL A   1      33.272  27.966  21.255  1.00  0.00     0.163 HD
ATOM     76  O   UNL A   1      32.986  25.674  20.594  1.00  0.00    -0.269 OA
BRANCH  74  77
ATOM     77  C   UNL A   1      33.153  25.033  22.834  1.00  0.00     0.042 A 
ATOM     78  C   UNL A   1      32.155  25.028  23.811  1.00  0.00     0.015 A 
ATOM     79  C   UNL A   1      34.143  24.045  22.844  1.00  0.00     0.054 A 
ATOM     80  C   UNL A   1      32.244  24.145  24.886  1.00  0.00     0.026 A 
ATOM     81  C   UNL A   1      34.196  23.128  23.892  1.00  0.00     0.144 A 
ATOM     82  C   UNL A   1      33.290  23.213  24.939  1.00  0.00     0.118 A 
ATOM     83  F   UNL A   1      35.162  22.203  23.866  1.00  0.00    -0.205 F 
BRANCH  82  84
ATOM     84  S   UNL A   1      33.453  22.263  26.414  1.00  0.00     0.243 S 
ATOM     85  O   UNL A   1      34.873  22.113  26.643  1.00  0.00    -0.207 OA
ATOM     86  O   UNL A   1      32.614  22.893  27.411  1.00  0.00    -0.207 OA
BRANCH  84  87
ATOM     87  N   UNL A   1      32.821  20.731  26.132  1.00  0.00    -0.205 NA
ATOM     88  H   UNL A   1      32.133  20.561  26.863  1.00  0.00     0.141 HD
BRANCH  87  89
ATOM     89  C   UNL A   1      32.159  20.407  24.842  1.00  0.00     0.160 C 
BRANCH  89  90
ATOM     90  C   UNL A   1      32.826  19.237  24.110  1.00  0.00     0.278 C 
BRANCH  90  91
ATOM     91  N   UNL A   1      33.646  18.420  25.036  1.00  0.00    -0.334 N 
ATOM     92  C   UNL A   1      34.806  17.848  24.324  1.00  0.00     0.262 C 
ATOM     93  C   UNL A   1      32.899  17.233  25.495  1.00  0.00     0.262 C 
ATOM     94  H   UNL A   1      33.910  19.039  25.802  1.00  0.00     0.348 HD
ATOM     95  C   UNL A   1      34.249  16.661  23.565  1.00  0.00     0.067 C 
ATOM     96  C   UNL A   1      33.174  16.114  24.490  1.00  0.00     0.067 C 
ENDBRANCH  90  91
ENDBRANCH  89  90
ENDBRANCH  87  89
ENDBRANCH  84  87
ENDBRANCH  82  84
ENDBRANCH  74  77
ENDBRANCH   1  73
TORSDOF 18
ENDMDL
MODEL 3
REMARK VINA RESULT:     -11.4      2.461      3.396
REMARK SMILES O=C(NCCCNC(=O)c1ccc(S(=O)(=O)NCC[NH+]2CCCC2)c(F)c1)c1ccc(-c2c3nc(c(-c4cccc(S(=O)(=O)[O-])c4F)c4ccc([nH]4)c(-c4cccc(S(=O)(=O)[O-])c4F)c4nc(c(-c5cccc(S(=O)(=O)[O-])c5F)c5ccc2[nH]5)C=C4)C=C3)cc1
REMARK SMILES IDX 6 1 5 2 4 3 3 4 1 5 2 6 28 8 29 9 90 10 30 11 89 12 31 13
REMARK SMILES IDX 32 14 33 15 83 16 34 17 88 18 82 19 84 20 35 21 87 22 81 23
REMARK SMILES IDX 80 24 36 26 68 27 48 28 67 29 49 30 52 31 66 32 85 33 50 34
REMARK SMILES IDX 51 35 65 37 86 38 53 39 37 40 38 41 46 42 39 43 41 44 47 45
REMARK SMILES IDX 40 46 42 47 43 48 44 49 45 50 69 51 70 52 78 53 71 54 73 55
REMARK SMILES IDX 79 56 72 57 74 58 75 59 76 60 77 61 54 62 55 63 63 64 56 65
REMARK SMILES IDX 58 66 64 67 57 68 59 69 60 70 61 71 62 72 7 73 8 74 9 76
REMARK SMILES IDX 10 77 11 78 27 79 12 80 25 81 13 82 26 83 14 84 15 85 16 86
REMARK SMILES IDX 17 87 18 89 19 90 20 91 21 92 24 93 22 95 23 96
REMARK H PARENT 3 7 84 25 52 36 7 75 17 88 20 94
REMARK Flexibility Score: inf
ROOT
ATOM      1  C   UNL A   1      37.396  21.131  24.655  1.00  0.00     0.118 C 
ENDROOT
BRANCH   1   2
ATOM      2  C   UNL A   1      38.194  19.879  24.991  1.00  0.00     0.042 C 
BRANCH   2   3
ATOM      3  C   UNL A   1      39.205  20.071  26.113  1.00  0.00     0.118 C 
BRANCH   3   4
ATOM      4  N   UNL A   1      40.419  19.288  25.922  1.00  0.00    -0.352 N 
ATOM      5  O   UNL A   1      42.589  18.849  25.555  1.00  0.00    -0.269 OA
ATOM      6  C   UNL A   1      41.744  19.659  25.930  1.00  0.00     0.251 C 
ATOM      7  H   UNL A   1      40.265  18.329  25.761  1.00  0.00     0.163 HD
BRANCH   6   8
ATOM      8  C   UNL A   1      42.155  21.018  26.356  1.00  0.00     0.039 A 
ATOM      9  C   UNL A   1      42.449  21.296  27.689  1.00  0.00     0.014 A 
ATOM     10  C   UNL A   1      42.288  22.027  25.396  1.00  0.00     0.014 A 
ATOM     11  C   UNL A   1      42.687  22.605  28.088  1.00  0.00     0.010 A 
ATOM     12  C   UNL A   1      42.644  23.325  25.785  1.00  0.00     0.010 A 
ATOM     13  C   UNL A   1      42.805  23.636  27.141  1.00  0.00    -0.014 A 
BRANCH  13  14
ATOM     14  C   UNL A   1      43.178  24.995  27.617  1.00  0.00     0.031 A 
ATOM     15  C   UNL A   1      44.557  25.557  27.411  1.00  0.00     0.074 A 
ATOM     16  C   UNL A   1      42.223  25.753  28.191  1.00  0.00     0.049 A 
ATOM     17  N   UNL A   1      44.980  26.776  27.628  1.00  0.00    -0.248 NA
ATOM     18  C   UNL A   1      45.597  24.644  26.913  1.00  0.00     0.031 C 
ATOM     19  C   UNL A   1      40.868  25.292  28.503  1.00  0.00     0.029 A 
ATOM     20  N   UNL A   1      42.224  27.068  28.582  1.00  0.00    -0.354 N 
ATOM     21  C   UNL A   1      46.338  26.770  27.334  1.00  0.00     0.074 A 
ATOM     22  C   UNL A   1      46.673  25.421  26.929  1.00  0.00     0.031 C 
ATOM     23  C   UNL A   1      40.146  26.323  28.959  1.00  0.00     0.029 A 
ATOM     24  C   UNL A   1      40.997  27.507  29.024  1.00  0.00     0.049 A 
ATOM     25  H   UNL A   1      43.023  27.642  28.550  1.00  0.00     0.167 HD
ATOM     26  C   UNL A   1      47.217  27.798  27.377  1.00  0.00     0.034 A 
ATOM     27  C   UNL A   1      40.589  28.727  29.425  1.00  0.00     0.034 A 
ATOM     28  C   UNL A   1      46.865  29.148  27.728  1.00  0.00     0.049 A 
ATOM     29  C   UNL A   1      41.566  29.866  29.397  1.00  0.00     0.074 A 
ATOM     30  C   UNL A   1      47.670  30.274  27.718  1.00  0.00     0.029 A 
ATOM     31  N   UNL A   1      45.610  29.558  28.150  1.00  0.00    -0.354 N 
ATOM     32  N   UNL A   1      42.809  29.869  28.980  1.00  0.00    -0.248 NA
ATOM     33  C   UNL A   1      41.087  31.170  29.875  1.00  0.00     0.031 C 
ATOM     34  C   UNL A   1      46.905  31.362  28.148  1.00  0.00     0.029 A 
ATOM     35  C   UNL A   1      45.620  30.917  28.415  1.00  0.00     0.049 A 
ATOM     36  H   UNL A   1      44.828  28.969  28.248  1.00  0.00     0.167 HD
ATOM     37  C   UNL A   1      43.262  31.171  29.141  1.00  0.00     0.074 A 
ATOM     38  C   UNL A   1      42.148  31.939  29.664  1.00  0.00     0.031 C 
ATOM     39  C   UNL A   1      44.495  31.677  28.898  1.00  0.00     0.034 A 
BRANCH  26  40
ATOM     40  C   UNL A   1      48.645  27.527  26.981  1.00  0.00     0.023 A 
ATOM     41  C   UNL A   1      49.534  26.992  27.934  1.00  0.00     0.012 A 
ATOM     42  C   UNL A   1      49.079  27.706  25.653  1.00  0.00     0.148 A 
ATOM     43  C   UNL A   1      50.841  26.657  27.576  1.00  0.00     0.002 A 
ATOM     44  C   UNL A   1      50.372  27.338  25.296  1.00  0.00     0.091 A 
ATOM     45  F   UNL A   1      48.227  28.240  24.766  1.00  0.00    -0.205 F 
ATOM     46  C   UNL A   1      51.255  26.819  26.257  1.00  0.00     0.022 A 
BRANCH  44  47
ATOM     47  S   UNL A   1      50.964  27.442  23.603  1.00  0.00     0.127 S 
ATOM     48  O   UNL A   1      51.073  28.887  23.416  1.00  0.00    -0.237 OA
ATOM     49  O   UNL A   1      52.246  26.739  23.674  1.00  0.00    -0.237 OA
ATOM     50  O   UNL A   1      49.957  26.772  22.791  1.00  0.00    -0.744 OA
ENDBRANCH  44  47
ENDBRANCH  26  40
BRANCH  27  51
ATOM     51  C   UNL A   1      39.158  28.922  29.791  1.00  0.00     0.023 A 
ATOM     52  C   UNL A   1      38.734  28.617  31.099  1.00  0.00     0.012 A 
ATOM     53  C   UNL A   1      38.255  29.535  28.901  1.00  0.00     0.148 A 
ATOM     54  C   UNL A   1      37.438  28.925  31.513  1.00  0.00     0.002 A 
ATOM     55  C   UNL A   1      36.988  29.898  29.340  1.00  0.00     0.091 A 
ATOM     56  F   UNL A   1      38.674  29.800  27.655  1.00  0.00    -0.205 F 
ATOM     57  C   UNL A   1      36.573  29.584  30.643  1.00  0.00     0.022 A 
BRANCH  55  58
ATOM     58  S   UNL A   1      35.883  30.907  28.346  1.00  0.00     0.127 S 
ATOM     59  O   UNL A   1      36.753  32.015  27.961  1.00  0.00    -0.237 OA
ATOM     60  O   UNL A   1      35.530  29.992  27.260  1.00  0.00    -0.237 OA
ATOM     61  O   UNL A   1      34.771  31.249  29.223  1.00  0.00    -0.744 OA
ENDBRANCH  55  58
ENDBRANCH  27  51
BRANCH  39  62
ATOM     62  C   UNL A   1      44.732  33.130  29.207  1.00  0.00     0.023 A 
ATOM     63  C   UNL A   1      45.273  33.485  30.458  1.00  0.00     0.012 A 
ATOM     64  C   UNL A   1      44.541  34.121  28.226  1.00  0.00     0.148 A 
ATOM     65  C   UNL A   1      45.612  34.809  30.732  1.00  0.00     0.002 A 
ATOM     66  C   UNL A   1      44.917  35.433  28.491  1.00  0.00     0.091 A 
ATOM     67  F   UNL A   1      44.008  33.761  27.049  1.00  0.00    -0.205 F 
ATOM     68  C   UNL A   1      45.447  35.779  29.746  1.00  0.00     0.022 A 
BRANCH  66  69
ATOM     69  S   UNL A   1      44.825  36.731  27.253  1.00  0.00     0.127 S 
ATOM     70  O   UNL A   1      43.445  36.604  26.790  1.00  0.00    -0.237 OA
ATOM     71  O   UNL A   1      45.097  37.934  28.042  1.00  0.00    -0.237 OA
ATOM     72  O   UNL A   1      45.848  36.414  26.265  1.00  0.00    -0.744 OA
ENDBRANCH  66  69
ENDBRANCH  39  62
ENDBRANCH  13  14
ENDBRANCH   6   8
ENDBRANCH   3   4
ENDBRANCH   2   3
ENDBRANCH   1   2
BRANCH   1  73
ATOM     73  N   UNL A   1      37.812  22.291  25.433  1.00  0.00    -0.352 N 
ATOM     74  C   UNL A   1      37.146  23.446  25.759  1.00  0.00     0.251 C 
ATOM     75  H   UNL A   1      38.729  22.237  25.785  1.00  0.00     0.163 HD
ATOM     76  O   UNL A   1      37.756  24.377  26.278  1.00  0.00    -0.269 OA
BRANCH  74  77
ATOM     77  C   UNL A   1      35.706  23.603  25.469  1.00  0.00     0.042 A 
ATOM     78  C   UNL A   1      34.733  23.324  26.431  1.00  0.00     0.015 A 
ATOM     79  C   UNL A   1      35.325  24.082  24.212  1.00  0.00     0.054 A 
ATOM     80  C   UNL A   1      33.384  23.360  26.081  1.00  0.00     0.026 A 
ATOM     81  C   UNL A   1      33.973  24.171  23.884  1.00  0.00     0.144 A 
ATOM     82  C   UNL A   1      33.008  23.755  24.790  1.00  0.00     0.118 A 
ATOM     83  F   UNL A   1      33.652  24.628  22.668  1.00  0.00    -0.205 F 
BRANCH  82  84
ATOM     84  S   UNL A   1      31.308  23.593  24.357  1.00  0.00     0.243 S 
ATOM     85  O   UNL A   1      31.269  22.757  23.177  1.00  0.00    -0.207 OA
ATOM     86  O   UNL A   1      30.608  23.195  25.559  1.00  0.00    -0.207 OA
BRANCH  84  87
ATOM     87  N   UNL A   1      30.724  25.109  23.922  1.00  0.00    -0.205 NA
ATOM     88  H   UNL A   1      29.863  24.949  23.400  1.00  0.00     0.141 HD
BRANCH  87  89
ATOM     89  C   UNL A   1      30.409  26.127  24.956  1.00  0.00     0.160 C 
BRANCH  89  90
ATOM     90  C   UNL A   1      30.792  27.549  24.525  1.00  0.00     0.278 C 
BRANCH  90  91
ATOM     91  N   UNL A   1      31.477  28.276  25.620  1.00  0.00    -0.334 N 
ATOM     92  C   UNL A   1      32.474  29.213  25.067  1.00  0.00     0.262 C 
ATOM     93  C   UNL A   1      32.284  27.354  26.442  1.00  0.00     0.262 C 
ATOM     94  H   UNL A   1      30.743  28.740  26.155  1.00  0.00     0.348 HD
ATOM     95  C   UNL A   1      33.669  28.349  24.719  1.00  0.00     0.067 C 
ATOM     96  C   UNL A   1      33.673  27.287  25.808  1.00  0.00     0.067 C 
ENDBRANCH  90  91
ENDBRANCH  89  90
ENDBRANCH  87  89
ENDBRANCH  84  87
ENDBRANCH  82  84
ENDBRANCH  74  77
ENDBRANCH   1  73
TORSDOF 18
ENDMDL
