MODEL 1
REMARK VINA RESULT:     -13.2      0.000      0.000
REMARK SMILES Cc1cccc(N2CCN(C(=O)[C@@H]3CC=CC[C@@H]3C(=O)NCCCNC(=O)c3ccc(-c4c5nc(c(-c6cccc(S(=O)(=O)[O-])c6F)c6ccc([nH]6)c(-c6cccc(S(=O)(=O)[O-])c6F)c6nc(c(-c7cccc(S(=O)(=O)[O-])c7F)c7ccc4[nH]7)C=C6)C=C5)cc3)CC2)c1C
REMARK SMILES IDX 23 1 22 2 21 3 19 4 20 5 18 7 13 8 14 9 15 10 17 11 16 12
REMARK SMILES IDX 11 13 7 14 8 15 92 16 9 17 91 18 10 19 12 20 6 21 1 22 2 23
REMARK SMILES IDX 3 24 93 25 4 26 94 27 5 28 24 29 25 30 26 31 27 33 28 34
REMARK SMILES IDX 29 35 90 36 30 37 89 38 31 39 32 40 33 41 83 42 34 43 88 44
REMARK SMILES IDX 82 45 84 46 35 47 87 48 81 49 80 50 36 52 68 53 48 54 67 55
REMARK SMILES IDX 49 56 52 57 66 58 85 59 50 60 51 61 65 63 86 64 53 65 37 66
REMARK SMILES IDX 38 67 46 68 39 69 41 70 47 71 40 72 42 73 43 74 44 75 45 76
REMARK SMILES IDX 69 77 70 78 78 79 71 80 73 81 79 82 72 83 74 84 75 85 76 86
REMARK SMILES IDX 77 87 54 88 55 89 63 90 56 91 58 92 64 93 57 94 59 95 60 96
REMARK SMILES IDX 61 97 62 98
REMARK H PARENT 21 6 25 32 84 51 52 62
REMARK Flexibility Score: inf
ROOT
ATOM      1  C   UNL A   1      33.110  30.490  27.198  1.00  0.00     0.042 C 
ENDROOT
BRANCH   1   2
ATOM      2  C   UNL A   1      33.979  29.382  26.628  1.00  0.00     0.117 C 
BRANCH   2   3
ATOM      3  N   UNL A   1      33.962  29.289  25.184  1.00  0.00    -0.356 N 
ATOM      4  C   UNL A   1      33.051  28.843  24.289  1.00  0.00     0.224 C 
ATOM      5  O   UNL A   1      33.339  29.067  23.103  1.00  0.00    -0.275 OA
ATOM      6  H   UNL A   1      34.788  29.621  24.765  1.00  0.00     0.163 HD
BRANCH   4   7
ATOM      7  C   UNL A   1      31.689  28.192  24.595  1.00  0.00     0.095 C 
ATOM      8  C   UNL A   1      30.996  27.247  23.619  1.00  0.00     0.095 C 
ATOM      9  C   UNL A   1      30.387  28.008  22.387  1.00  0.00     0.041 C 
ATOM     10  C   UNL A   1      30.111  29.472  22.599  1.00  0.00    -0.030 C 
ATOM     11  C   UNL A   1      30.705  29.323  24.990  1.00  0.00     0.041 C 
ATOM     12  C   UNL A   1      30.228  30.073  23.790  1.00  0.00    -0.030 C 
BRANCH   8  13
ATOM     13  C   UNL A   1      31.621  25.878  23.237  1.00  0.00     0.226 C 
ATOM     14  N   UNL A   1      34.292  23.272  24.996  1.00  0.00    -0.368 N 
ATOM     15  C   UNL A   1      33.625  23.087  23.691  1.00  0.00     0.138 C 
ATOM     16  C   UNL A   1      33.843  24.448  25.794  1.00  0.00     0.138 C 
ATOM     17  C   UNL A   1      32.155  23.528  23.651  1.00  0.00     0.141 C 
ATOM     18  C   UNL A   1      32.398  24.957  25.543  1.00  0.00     0.141 C 
ATOM     19  N   UNL A   1      31.973  24.891  24.146  1.00  0.00    -0.339 N 
ATOM     20  O   UNL A   1      31.683  25.618  22.026  1.00  0.00    -0.275 OA
BRANCH  14  21
ATOM     21  C   UNL A   1      35.622  22.807  25.221  1.00  0.00     0.040 A 
ATOM     22  C   UNL A   1      38.065  19.760  25.170  1.00  0.00     0.044 C 
ATOM     23  C   UNL A   1      37.490  21.149  25.340  1.00  0.00    -0.046 A 
ATOM     24  C   UNL A   1      38.391  22.149  25.714  1.00  0.00     0.004 A 
ATOM     25  C   UNL A   1      36.104  21.459  25.091  1.00  0.00    -0.025 A 
ATOM     26  C   UNL A   1      37.948  23.442  25.875  1.00  0.00     0.002 A 
ATOM     27  C   UNL A   1      35.228  20.277  24.730  1.00  0.00     0.047 C 
ATOM     28  C   UNL A   1      36.605  23.749  25.639  1.00  0.00     0.026 A 
ENDBRANCH  14  21
ENDBRANCH   8  13
ENDBRANCH   4   7
ENDBRANCH   2   3
ENDBRANCH   1   2
BRANCH   1  29
ATOM     29  C   UNL A   1      33.945  31.673  27.649  1.00  0.00     0.118 C 
BRANCH  29  30
ATOM     30  N   UNL A   1      33.216  32.943  27.602  1.00  0.00    -0.352 N 
ATOM     31  C   UNL A   1      33.380  34.059  28.386  1.00  0.00     0.251 C 
ATOM     32  H   UNL A   1      32.513  33.004  26.916  1.00  0.00     0.163 HD
ATOM     33  O   UNL A   1      32.543  34.958  28.359  1.00  0.00    -0.269 OA
BRANCH  31  34
ATOM     34  C   UNL A   1      34.478  34.102  29.375  1.00  0.00     0.039 A 
ATOM     35  C   UNL A   1      34.196  33.639  30.662  1.00  0.00     0.014 A 
ATOM     36  C   UNL A   1      35.791  34.382  28.994  1.00  0.00     0.014 A 
ATOM     37  C   UNL A   1      35.246  33.258  31.488  1.00  0.00     0.010 A 
ATOM     38  C   UNL A   1      36.831  33.879  29.760  1.00  0.00     0.010 A 
ATOM     39  C   UNL A   1      36.557  33.266  30.989  1.00  0.00    -0.014 A 
BRANCH  39  40
ATOM     40  C   UNL A   1      37.612  32.506  31.692  1.00  0.00     0.031 A 
ATOM     41  C   UNL A   1      38.309  31.367  31.019  1.00  0.00     0.074 A 
ATOM     42  C   UNL A   1      37.871  32.822  32.979  1.00  0.00     0.049 A 
ATOM     43  N   UNL A   1      39.308  30.651  31.454  1.00  0.00    -0.248 NA
ATOM     44  C   UNL A   1      37.799  30.953  29.700  1.00  0.00     0.031 C 
ATOM     45  C   UNL A   1      37.137  33.821  33.768  1.00  0.00     0.029 A 
ATOM     46  N   UNL A   1      38.815  32.351  33.853  1.00  0.00    -0.354 N 
ATOM     47  C   UNL A   1      39.533  29.689  30.478  1.00  0.00     0.074 A 
ATOM     48  C   UNL A   1      38.535  29.880  29.451  1.00  0.00     0.031 C 
ATOM     49  C   UNL A   1      37.693  33.923  34.985  1.00  0.00     0.029 A 
ATOM     50  C   UNL A   1      38.808  32.990  35.073  1.00  0.00     0.049 A 
ATOM     51  H   UNL A   1      39.440  31.623  33.629  1.00  0.00     0.167 HD
ATOM     52  C   UNL A   1      40.514  28.757  30.430  1.00  0.00     0.034 A 
ATOM     53  C   UNL A   1      39.635  32.860  36.128  1.00  0.00     0.034 A 
ATOM     54  C   UNL A   1      41.516  28.617  31.449  1.00  0.00     0.049 A 
ATOM     55  C   UNL A   1      40.789  31.905  35.996  1.00  0.00     0.074 A 
ATOM     56  C   UNL A   1      42.601  27.762  31.483  1.00  0.00     0.029 A 
ATOM     57  N   UNL A   1      41.549  29.361  32.621  1.00  0.00    -0.354 N 
ATOM     58  N   UNL A   1      41.101  31.128  34.985  1.00  0.00    -0.248 NA
ATOM     59  C   UNL A   1      41.731  31.838  37.120  1.00  0.00     0.031 C 
ATOM     60  C   UNL A   1      43.289  27.988  32.681  1.00  0.00     0.029 A 
ATOM     61  C   UNL A   1      42.640  28.990  33.386  1.00  0.00     0.049 A 
ATOM     62  H   UNL A   1      40.894  30.051  32.871  1.00  0.00     0.167 HD
ATOM     63  C   UNL A   1      42.284  30.495  35.340  1.00  0.00     0.074 A 
ATOM     64  C   UNL A   1      42.650  31.007  36.647  1.00  0.00     0.031 C 
ATOM     65  C   UNL A   1      42.994  29.559  34.662  1.00  0.00     0.034 A 
BRANCH  52  66
ATOM     66  C   UNL A   1      40.567  27.881  29.208  1.00  0.00     0.023 A 
ATOM     67  C   UNL A   1      39.709  26.763  29.122  1.00  0.00     0.012 A 
ATOM     68  C   UNL A   1      41.457  28.150  28.150  1.00  0.00     0.148 A 
ATOM     69  C   UNL A   1      39.767  25.903  28.027  1.00  0.00     0.002 A 
ATOM     70  C   UNL A   1      41.481  27.309  27.042  1.00  0.00     0.091 A 
ATOM     71  F   UNL A   1      42.283  29.199  28.260  1.00  0.00    -0.205 F 
ATOM     72  C   UNL A   1      40.646  26.180  26.984  1.00  0.00     0.022 A 
BRANCH  70  73
ATOM     73  S   UNL A   1      42.538  27.607  25.621  1.00  0.00     0.127 S 
ATOM     74  O   UNL A   1      43.858  27.681  26.246  1.00  0.00    -0.237 OA
ATOM     75  O   UNL A   1      42.313  26.408  24.813  1.00  0.00    -0.237 OA
ATOM     76  O   UNL A   1      42.060  28.843  25.018  1.00  0.00    -0.744 OA
ENDBRANCH  70  73
ENDBRANCH  52  66
BRANCH  53  77
ATOM     77  C   UNL A   1      39.469  33.737  37.323  1.00  0.00     0.023 A 
ATOM     78  C   UNL A   1      39.933  35.067  37.271  1.00  0.00     0.012 A 
ATOM     79  C   UNL A   1      38.806  33.293  38.483  1.00  0.00     0.148 A 
ATOM     80  C   UNL A   1      39.765  35.927  38.359  1.00  0.00     0.002 A 
ATOM     81  C   UNL A   1      38.595  34.169  39.543  1.00  0.00     0.091 A 
ATOM     82  F   UNL A   1      38.379  32.022  38.525  1.00  0.00    -0.205 F 
ATOM     83  C   UNL A   1      39.086  35.481  39.490  1.00  0.00     0.022 A 
BRANCH  81  84
ATOM     84  S   UNL A   1      37.607  33.713  40.975  1.00  0.00     0.127 S 
ATOM     85  O   UNL A   1      38.473  32.748  41.643  1.00  0.00    -0.237 OA
ATOM     86  O   UNL A   1      37.458  34.993  41.671  1.00  0.00    -0.237 OA
ATOM     87  O   UNL A   1      36.362  33.187  40.429  1.00  0.00    -0.744 OA
ENDBRANCH  81  84
ENDBRANCH  53  77
BRANCH  65  88
ATOM     88  C   UNL A   1      44.236  29.033  35.323  1.00  0.00     0.023 A 
ATOM     89  C   UNL A   1      45.475  29.649  35.058  1.00  0.00     0.012 A 
ATOM     90  C   UNL A   1      44.164  27.991  36.266  1.00  0.00     0.148 A 
ATOM     91  C   UNL A   1      46.630  29.216  35.703  1.00  0.00     0.002 A 
ATOM     92  C   UNL A   1      45.312  27.596  36.940  1.00  0.00     0.091 A 
ATOM     93  F   UNL A   1      42.978  27.403  36.483  1.00  0.00    -0.205 F 
ATOM     94  C   UNL A   1      46.547  28.200  36.652  1.00  0.00     0.022 A 
BRANCH  92  95
ATOM     95  S   UNL A   1      45.271  26.363  38.244  1.00  0.00     0.127 S 
ATOM     96  O   UNL A   1      44.867  25.166  37.511  1.00  0.00    -0.237 OA
ATOM     97  O   UNL A   1      46.658  26.354  38.712  1.00  0.00    -0.237 OA
ATOM     98  O   UNL A   1      44.312  26.857  39.223  1.00  0.00    -0.744 OA
ENDBRANCH  92  95
ENDBRANCH  65  88
ENDBRANCH  39  40
ENDBRANCH  31  34
ENDBRANCH  29  30
ENDBRANCH   1  29
TORSDOF 15
ENDMDL
MODEL 2
REMARK VINA RESULT:     -13.2      5.618     11.867
REMARK SMILES Cc1cccc(N2CCN(C(=O)[C@@H]3CC=CC[C@@H]3C(=O)NCCCNC(=O)c3ccc(-c4c5nc(c(-c6cccc(S(=O)(=O)[O-])c6F)c6ccc([nH]6)c(-c6cccc(S(=O)(=O)[O-])c6F)c6nc(c(-c7cccc(S(=O)(=O)[O-])c7F)c7ccc4[nH]7)C=C6)C=C5)cc3)CC2)c1C
REMARK SMILES IDX 23 1 22 2 21 3 19 4 20 5 18 7 13 8 14 9 15 10 17 11 16 12
REMARK SMILES IDX 11 13 7 14 8 15 92 16 9 17 91 18 10 19 12 20 6 21 1 22 2 23
REMARK SMILES IDX 3 24 93 25 4 26 94 27 5 28 24 29 25 30 26 31 27 33 28 34
REMARK SMILES IDX 29 35 90 36 30 37 89 38 31 39 32 40 33 41 83 42 34 43 88 44
REMARK SMILES IDX 82 45 84 46 35 47 87 48 81 49 80 50 36 52 68 53 48 54 67 55
REMARK SMILES IDX 49 56 52 57 66 58 85 59 50 60 51 61 65 63 86 64 53 65 37 66
REMARK SMILES IDX 38 67 46 68 39 69 41 70 47 71 40 72 42 73 43 74 44 75 45 76
REMARK SMILES IDX 69 77 70 78 78 79 71 80 73 81 79 82 72 83 74 84 75 85 76 86
REMARK SMILES IDX 77 87 54 88 55 89 63 90 56 91 58 92 64 93 57 94 59 95 60 96
REMARK SMILES IDX 61 97 62 98
REMARK H PARENT 21 6 25 32 84 51 52 62
REMARK Flexibility Score: inf
ROOT
ATOM      1  C   UNL A   1      38.160  21.967  25.313  1.00  0.00     0.042 C 
ENDROOT
BRANCH   1   2
ATOM      2  C   UNL A   1      37.427  23.226  25.742  1.00  0.00     0.117 C 
BRANCH   2   3
ATOM      3  N   UNL A   1      36.349  23.002  26.682  1.00  0.00    -0.356 N 
ATOM      4  C   UNL A   1      35.001  23.003  26.574  1.00  0.00     0.224 C 
ATOM      5  O   UNL A   1      34.401  22.611  27.586  1.00  0.00    -0.275 OA
ATOM      6  H   UNL A   1      36.666  22.808  27.594  1.00  0.00     0.163 HD
BRANCH   4   7
ATOM      7  C   UNL A   1      34.171  23.339  25.321  1.00  0.00     0.095 C 
ATOM      8  C   UNL A   1      32.660  23.542  25.372  1.00  0.00     0.095 C 
ATOM      9  C   UNL A   1      31.884  22.189  25.557  1.00  0.00     0.041 C 
ATOM     10  C   UNL A   1      32.630  20.950  25.139  1.00  0.00    -0.030 C 
ATOM     11  C   UNL A   1      34.503  22.280  24.238  1.00  0.00     0.041 C 
ATOM     12  C   UNL A   1      33.813  20.985  24.513  1.00  0.00    -0.030 C 
BRANCH   8  13
ATOM     13  C   UNL A   1      32.028  24.716  26.166  1.00  0.00     0.226 C 
ATOM     14  N   UNL A   1      32.582  28.802  26.314  1.00  0.00    -0.368 N 
ATOM     15  C   UNL A   1      31.608  28.025  27.108  1.00  0.00     0.138 C 
ATOM     16  C   UNL A   1      33.329  28.038  25.275  1.00  0.00     0.138 C 
ATOM     17  C   UNL A   1      30.917  26.887  26.345  1.00  0.00     0.141 C 
ATOM     18  C   UNL A   1      32.635  26.776  24.696  1.00  0.00     0.141 C 
ATOM     19  N   UNL A   1      31.874  26.006  25.680  1.00  0.00    -0.339 N 
ATOM     20  O   UNL A   1      31.517  24.432  27.261  1.00  0.00    -0.275 OA
BRANCH  14  21
ATOM     21  C   UNL A   1      33.221  29.959  26.851  1.00  0.00     0.040 A 
ATOM     22  C   UNL A   1      32.876  33.730  27.806  1.00  0.00     0.044 C 
ATOM     23  C   UNL A   1      33.431  32.342  27.579  1.00  0.00    -0.046 A 
ATOM     24  C   UNL A   1      34.744  32.124  28.006  1.00  0.00     0.004 A 
ATOM     25  C   UNL A   1      32.657  31.273  26.999  1.00  0.00    -0.025 A 
ATOM     26  C   UNL A   1      35.318  30.883  27.847  1.00  0.00     0.002 A 
ATOM     27  C   UNL A   1      31.263  31.652  26.544  1.00  0.00     0.047 C 
ATOM     28  C   UNL A   1      34.574  29.844  27.282  1.00  0.00     0.026 A 
ENDBRANCH  14  21
ENDBRANCH   8  13
ENDBRANCH   4   7
ENDBRANCH   2   3
ENDBRANCH   1   2
BRANCH   1  29
ATOM     29  C   UNL A   1      39.406  21.739  26.148  1.00  0.00     0.118 C 
BRANCH  29  30
ATOM     30  N   UNL A   1      39.893  20.359  26.090  1.00  0.00    -0.352 N 
ATOM     31  C   UNL A   1      41.185  19.898  26.160  1.00  0.00     0.251 C 
ATOM     32  H   UNL A   1      39.199  19.668  25.987  1.00  0.00     0.163 HD
ATOM     33  O   UNL A   1      41.437  18.729  25.880  1.00  0.00    -0.269 OA
BRANCH  31  34
ATOM     34  C   UNL A   1      42.286  20.849  26.418  1.00  0.00     0.039 A 
ATOM     35  C   UNL A   1      42.810  21.532  25.317  1.00  0.00     0.014 A 
ATOM     36  C   UNL A   1      42.642  21.218  27.715  1.00  0.00     0.014 A 
ATOM     37  C   UNL A   1      43.518  22.708  25.526  1.00  0.00     0.010 A 
ATOM     38  C   UNL A   1      43.228  22.457  27.921  1.00  0.00     0.010 A 
ATOM     39  C   UNL A   1      43.621  23.232  26.824  1.00  0.00    -0.014 A 
BRANCH  39  40
ATOM     40  C   UNL A   1      44.009  24.646  27.013  1.00  0.00     0.031 A 
ATOM     41  C   UNL A   1      43.038  25.634  27.578  1.00  0.00     0.074 A 
ATOM     42  C   UNL A   1      45.233  25.030  26.592  1.00  0.00     0.049 A 
ATOM     43  N   UNL A   1      43.236  26.886  27.887  1.00  0.00    -0.248 NA
ATOM     44  C   UNL A   1      41.657  25.170  27.793  1.00  0.00     0.031 C 
ATOM     45  C   UNL A   1      46.195  24.168  25.892  1.00  0.00     0.029 A 
ATOM     46  N   UNL A   1      45.887  26.231  26.689  1.00  0.00    -0.354 N 
ATOM     47  C   UNL A   1      42.005  27.366  28.310  1.00  0.00     0.074 A 
ATOM     48  C   UNL A   1      41.054  26.287  28.171  1.00  0.00     0.031 C 
ATOM     49  C   UNL A   1      47.329  24.852  25.672  1.00  0.00     0.029 A 
ATOM     50  C   UNL A   1      47.173  26.201  26.199  1.00  0.00     0.049 A 
ATOM     51  H   UNL A   1      45.474  27.038  27.073  1.00  0.00     0.167 HD
ATOM     52  C   UNL A   1      41.708  28.589  28.808  1.00  0.00     0.034 A 
ATOM     53  C   UNL A   1      48.129  27.150  26.208  1.00  0.00     0.034 A 
ATOM     54  C   UNL A   1      42.684  29.630  28.970  1.00  0.00     0.049 A 
ATOM     55  C   UNL A   1      47.810  28.456  26.881  1.00  0.00     0.074 A 
ATOM     56  C   UNL A   1      42.527  30.885  29.526  1.00  0.00     0.029 A 
ATOM     57  N   UNL A   1      44.010  29.528  28.570  1.00  0.00    -0.354 N 
ATOM     58  N   UNL A   1      46.688  28.836  27.446  1.00  0.00    -0.248 NA
ATOM     59  C   UNL A   1      48.890  29.448  26.960  1.00  0.00     0.031 C 
ATOM     60  C   UNL A   1      43.760  31.543  29.459  1.00  0.00     0.029 A 
ATOM     61  C   UNL A   1      44.687  30.696  28.872  1.00  0.00     0.049 A 
ATOM     62  H   UNL A   1      44.410  28.741  28.136  1.00  0.00     0.167 HD
ATOM     63  C   UNL A   1      46.931  30.098  27.968  1.00  0.00     0.074 A 
ATOM     64  C   UNL A   1      48.319  30.405  27.679  1.00  0.00     0.031 C 
ATOM     65  C   UNL A   1      46.082  30.942  28.607  1.00  0.00     0.034 A 
BRANCH  52  66
ATOM     66  C   UNL A   1      40.292  28.820  29.263  1.00  0.00     0.023 A 
ATOM     67  C   UNL A   1      39.310  29.170  28.311  1.00  0.00     0.012 A 
ATOM     68  C   UNL A   1      39.927  28.697  30.617  1.00  0.00     0.148 A 
ATOM     69  C   UNL A   1      38.000  29.438  28.704  1.00  0.00     0.002 A 
ATOM     70  C   UNL A   1      38.608  28.928  30.996  1.00  0.00     0.091 A 
ATOM     71  F   UNL A   1      40.877  28.390  31.511  1.00  0.00    -0.205 F 
ATOM     72  C   UNL A   1      37.647  29.310  30.044  1.00  0.00     0.022 A 
BRANCH  70  73
ATOM     73  S   UNL A   1      38.038  28.736  32.689  1.00  0.00     0.127 S 
ATOM     74  O   UNL A   1      36.687  29.289  32.610  1.00  0.00    -0.237 OA
ATOM     75  O   UNL A   1      38.092  27.285  32.869  1.00  0.00    -0.237 OA
ATOM     76  O   UNL A   1      38.974  29.485  33.514  1.00  0.00    -0.744 OA
ENDBRANCH  70  73
ENDBRANCH  52  66
BRANCH  53  77
ATOM     77  C   UNL A   1      49.492  26.845  25.682  1.00  0.00     0.023 A 
ATOM     78  C   UNL A   1      50.403  26.142  26.495  1.00  0.00     0.012 A 
ATOM     79  C   UNL A   1      49.875  27.189  24.372  1.00  0.00     0.148 A 
ATOM     80  C   UNL A   1      51.675  25.810  26.024  1.00  0.00     0.002 A 
ATOM     81  C   UNL A   1      51.124  26.810  23.889  1.00  0.00     0.091 A 
ATOM     82  F   UNL A   1      49.004  27.869  23.611  1.00  0.00    -0.205 F 
ATOM     83  C   UNL A   1      52.032  26.134  24.718  1.00  0.00     0.022 A 
BRANCH  81  84
ATOM     84  S   UNL A   1      51.603  27.067  22.175  1.00  0.00     0.127 S 
ATOM     85  O   UNL A   1      51.832  28.508  22.139  1.00  0.00    -0.237 OA
ATOM     86  O   UNL A   1      52.811  26.248  22.063  1.00  0.00    -0.237 OA
ATOM     87  O   UNL A   1      50.478  26.577  21.387  1.00  0.00    -0.744 OA
ENDBRANCH  81  84
ENDBRANCH  53  77
BRANCH  65  88
ATOM     88  C   UNL A   1      46.635  32.271  29.036  1.00  0.00     0.023 A 
ATOM     89  C   UNL A   1      47.280  32.383  30.283  1.00  0.00     0.012 A 
ATOM     90  C   UNL A   1      46.589  33.381  28.173  1.00  0.00     0.148 A 
ATOM     91  C   UNL A   1      47.850  33.591  30.676  1.00  0.00     0.002 A 
ATOM     92  C   UNL A   1      47.201  34.570  28.553  1.00  0.00     0.091 A 
ATOM     93  F   UNL A   1      45.947  33.259  27.002  1.00  0.00    -0.205 F 
ATOM     94  C   UNL A   1      47.823  34.678  29.807  1.00  0.00     0.022 A 
BRANCH  92  95
ATOM     95  S   UNL A   1      47.293  35.984  27.451  1.00  0.00     0.127 S 
ATOM     96  O   UNL A   1      45.880  36.292  27.241  1.00  0.00    -0.237 OA
ATOM     97  O   UNL A   1      48.018  36.965  28.259  1.00  0.00    -0.237 OA
ATOM     98  O   UNL A   1      48.020  35.522  26.276  1.00  0.00    -0.744 OA
ENDBRANCH  92  95
ENDBRANCH  65  88
ENDBRANCH  39  40
ENDBRANCH  31  34
ENDBRANCH  29  30
ENDBRANCH   1  29
TORSDOF 15
ENDMDL
MODEL 3
REMARK VINA RESULT:     -12.9      1.011      7.695
REMARK SMILES Cc1cccc(N2CCN(C(=O)[C@@H]3CC=CC[C@@H]3C(=O)NCCCNC(=O)c3ccc(-c4c5nc(c(-c6cccc(S(=O)(=O)[O-])c6F)c6ccc([nH]6)c(-c6cccc(S(=O)(=O)[O-])c6F)c6nc(c(-c7cccc(S(=O)(=O)[O-])c7F)c7ccc4[nH]7)C=C6)C=C5)cc3)CC2)c1C
REMARK SMILES IDX 23 1 22 2 21 3 19 4 20 5 18 7 13 8 14 9 15 10 17 11 16 12
REMARK SMILES IDX 11 13 7 14 8 15 92 16 9 17 91 18 10 19 12 20 6 21 1 22 2 23
REMARK SMILES IDX 3 24 93 25 4 26 94 27 5 28 24 29 25 30 26 31 27 33 28 34
REMARK SMILES IDX 29 35 90 36 30 37 89 38 31 39 32 40 33 41 83 42 34 43 88 44
REMARK SMILES IDX 82 45 84 46 35 47 87 48 81 49 80 50 36 52 68 53 48 54 67 55
REMARK SMILES IDX 49 56 52 57 66 58 85 59 50 60 51 61 65 63 86 64 53 65 37 66
REMARK SMILES IDX 38 67 46 68 39 69 41 70 47 71 40 72 42 73 43 74 44 75 45 76
REMARK SMILES IDX 69 77 70 78 78 79 71 80 73 81 79 82 72 83 74 84 75 85 76 86
REMARK SMILES IDX 77 87 54 88 55 89 63 90 56 91 58 92 64 93 57 94 59 95 60 96
REMARK SMILES IDX 61 97 62 98
REMARK H PARENT 21 6 25 32 84 51 52 62
REMARK Flexibility Score: inf
ROOT
ATOM      1  C   UNL A   1      33.500  30.156  27.517  1.00  0.00     0.042 C 
ENDROOT
BRANCH   1   2
ATOM      2  C   UNL A   1      34.337  29.065  26.871  1.00  0.00     0.117 C 
BRANCH   2   3
ATOM      3  N   UNL A   1      34.380  29.119  25.425  1.00  0.00    -0.356 N 
ATOM      4  C   UNL A   1      33.709  28.469  24.447  1.00  0.00     0.224 C 
ATOM      5  O   UNL A   1      33.918  28.900  23.302  1.00  0.00    -0.275 OA
ATOM      6  H   UNL A   1      35.038  29.766  25.081  1.00  0.00     0.163 HD
BRANCH   4   7
ATOM      7  C   UNL A   1      32.670  27.345  24.622  1.00  0.00     0.095 C 
ATOM      8  C   UNL A   1      32.358  26.341  23.517  1.00  0.00     0.095 C 
ATOM      9  C   UNL A   1      31.515  26.978  22.356  1.00  0.00     0.041 C 
ATOM     10  C   UNL A   1      30.734  28.213  22.721  1.00  0.00    -0.030 C 
ATOM     11  C   UNL A   1      31.348  27.998  25.101  1.00  0.00     0.041 C 
ATOM     12  C   UNL A   1      30.632  28.669  23.976  1.00  0.00    -0.030 C 
BRANCH   8  13
ATOM     13  C   UNL A   1      33.429  25.339  23.009  1.00  0.00     0.226 C 
ATOM     14  N   UNL A   1      36.045  22.683  24.777  1.00  0.00    -0.368 N 
ATOM     15  C   UNL A   1      35.895  22.925  23.327  1.00  0.00     0.138 C 
ATOM     16  C   UNL A   1      35.058  23.373  25.655  1.00  0.00     0.138 C 
ATOM     17  C   UNL A   1      34.449  23.122  22.853  1.00  0.00     0.141 C 
ATOM     18  C   UNL A   1      33.680  23.718  25.029  1.00  0.00     0.141 C 
ATOM     19  N   UNL A   1      33.746  24.140  23.631  1.00  0.00    -0.339 N 
ATOM     20  O   UNL A   1      33.935  25.584  21.903  1.00  0.00    -0.275 OA
BRANCH  14  21
ATOM     21  C   UNL A   1      37.314  22.370  25.349  1.00  0.00     0.040 A 
ATOM     22  C   UNL A   1      40.058  19.649  25.912  1.00  0.00     0.044 C 
ATOM     23  C   UNL A   1      39.281  20.946  25.944  1.00  0.00    -0.046 A 
ATOM     24  C   UNL A   1      39.908  22.026  26.571  1.00  0.00     0.004 A 
ATOM     25  C   UNL A   1      37.985  21.099  25.330  1.00  0.00    -0.025 A 
ATOM     26  C   UNL A   1      39.272  23.246  26.630  1.00  0.00     0.002 A 
ATOM     27  C   UNL A   1      37.402  19.842  24.720  1.00  0.00     0.047 C 
ATOM     28  C   UNL A   1      38.014  23.400  26.040  1.00  0.00     0.026 A 
ENDBRANCH  14  21
ENDBRANCH   8  13
ENDBRANCH   4   7
ENDBRANCH   2   3
ENDBRANCH   1   2
BRANCH   1  29
ATOM     29  C   UNL A   1      34.285  31.446  27.658  1.00  0.00     0.118 C 
BRANCH  29  30
ATOM     30  N   UNL A   1      33.439  32.641  27.629  1.00  0.00    -0.352 N 
ATOM     31  C   UNL A   1      33.471  33.740  28.453  1.00  0.00     0.251 C 
ATOM     32  H   UNL A   1      32.753  32.659  26.923  1.00  0.00     0.163 HD
ATOM     33  O   UNL A   1      32.553  34.555  28.428  1.00  0.00    -0.269 OA
BRANCH  31  34
ATOM     34  C   UNL A   1      34.531  33.853  29.477  1.00  0.00     0.039 A 
ATOM     35  C   UNL A   1      34.380  33.091  30.638  1.00  0.00     0.014 A 
ATOM     36  C   UNL A   1      35.731  34.513  29.215  1.00  0.00     0.014 A 
ATOM     37  C   UNL A   1      35.496  32.821  31.419  1.00  0.00     0.010 A 
ATOM     38  C   UNL A   1      36.868  34.137  29.913  1.00  0.00     0.010 A 
ATOM     39  C   UNL A   1      36.762  33.246  30.988  1.00  0.00    -0.014 A 
BRANCH  39  40
ATOM     40  C   UNL A   1      37.976  32.642  31.576  1.00  0.00     0.031 A 
ATOM     41  C   UNL A   1      38.524  33.141  32.875  1.00  0.00     0.074 A 
ATOM     42  C   UNL A   1      38.614  31.683  30.870  1.00  0.00     0.049 A 
ATOM     43  N   UNL A   1      39.524  32.675  33.571  1.00  0.00    -0.248 NA
ATOM     44  C   UNL A   1      37.892  34.339  33.454  1.00  0.00     0.031 C 
ATOM     45  C   UNL A   1      38.238  31.235  29.522  1.00  0.00     0.029 A 
ATOM     46  N   UNL A   1      39.702  30.909  31.176  1.00  0.00    -0.354 N 
ATOM     47  C   UNL A   1      39.657  33.532  34.655  1.00  0.00     0.074 A 
ATOM     48  C   UNL A   1      38.669  34.576  34.500  1.00  0.00     0.031 C 
ATOM     49  C   UNL A   1      39.046  30.233  29.144  1.00  0.00     0.029 A 
ATOM     50  C   UNL A   1      40.006  29.976  30.210  1.00  0.00     0.049 A 
ATOM     51  H   UNL A   1      40.218  31.010  32.009  1.00  0.00     0.167 HD
ATOM     52  C   UNL A   1      40.504  33.429  35.706  1.00  0.00     0.034 A 
ATOM     53  C   UNL A   1      40.934  29.000  30.204  1.00  0.00     0.034 A 
ATOM     54  C   UNL A   1      41.449  32.358  35.851  1.00  0.00     0.049 A 
ATOM     55  C   UNL A   1      41.777  28.832  31.438  1.00  0.00     0.074 A 
ATOM     56  C   UNL A   1      42.311  32.101  36.900  1.00  0.00     0.029 A 
ATOM     57  N   UNL A   1      41.652  31.360  34.908  1.00  0.00    -0.354 N 
ATOM     58  N   UNL A   1      41.767  29.541  32.542  1.00  0.00    -0.248 NA
ATOM     59  C   UNL A   1      42.724  27.710  31.451  1.00  0.00     0.031 C 
ATOM     60  C   UNL A   1      43.039  30.948  36.587  1.00  0.00     0.029 A 
ATOM     61  C   UNL A   1      42.623  30.480  35.350  1.00  0.00     0.049 A 
ATOM     62  H   UNL A   1      41.175  31.288  34.050  1.00  0.00     0.167 HD
ATOM     63  C   UNL A   1      42.687  28.942  33.390  1.00  0.00     0.074 A 
ATOM     64  C   UNL A   1      43.212  27.789  32.682  1.00  0.00     0.031 C 
ATOM     65  C   UNL A   1      43.083  29.318  34.632  1.00  0.00     0.034 A 
BRANCH  52  66
ATOM     66  C   UNL A   1      40.384  34.467  36.788  1.00  0.00     0.023 A 
ATOM     67  C   UNL A   1      40.912  35.758  36.568  1.00  0.00     0.012 A 
ATOM     68  C   UNL A   1      39.759  34.179  38.016  1.00  0.00     0.148 A 
ATOM     69  C   UNL A   1      40.861  36.729  37.567  1.00  0.00     0.002 A 
ATOM     70  C   UNL A   1      39.677  35.165  38.994  1.00  0.00     0.091 A 
ATOM     71  F   UNL A   1      39.287  32.941  38.219  1.00  0.00    -0.205 F 
ATOM     72  C   UNL A   1      40.238  36.435  38.776  1.00  0.00     0.022 A 
BRANCH  70  73
ATOM     73  S   UNL A   1      38.846  34.907  40.565  1.00  0.00     0.127 S 
ATOM     74  O   UNL A   1      38.424  36.266  40.903  1.00  0.00    -0.237 OA
ATOM     75  O   UNL A   1      37.756  34.006  40.192  1.00  0.00    -0.237 OA
ATOM     76  O   UNL A   1      39.840  34.322  41.453  1.00  0.00    -0.744 OA
ENDBRANCH  70  73
ENDBRANCH  52  66
BRANCH  53  77
ATOM     77  C   UNL A   1      41.015  28.049  29.057  1.00  0.00     0.023 A 
ATOM     78  C   UNL A   1      40.166  26.925  29.033  1.00  0.00     0.012 A 
ATOM     79  C   UNL A   1      41.875  28.275  27.966  1.00  0.00     0.148 A 
ATOM     80  C   UNL A   1      40.191  26.032  27.960  1.00  0.00     0.002 A 
ATOM     81  C   UNL A   1      41.858  27.411  26.875  1.00  0.00     0.091 A 
ATOM     82  F   UNL A   1      42.688  29.342  28.005  1.00  0.00    -0.205 F 
ATOM     83  C   UNL A   1      41.028  26.281  26.876  1.00  0.00     0.022 A 
BRANCH  81  84
ATOM     84  S   UNL A   1      42.804  27.741  25.382  1.00  0.00     0.127 S 
ATOM     85  O   UNL A   1      44.115  28.084  25.925  1.00  0.00    -0.237 OA
ATOM     86  O   UNL A   1      42.744  26.455  24.684  1.00  0.00    -0.237 OA
ATOM     87  O   UNL A   1      42.090  28.817  24.707  1.00  0.00    -0.744 OA
ENDBRANCH  81  84
ENDBRANCH  53  77
BRANCH  65  88
ATOM     88  C   UNL A   1      44.131  28.474  35.299  1.00  0.00     0.023 A 
ATOM     89  C   UNL A   1      45.483  28.864  35.228  1.00  0.00     0.012 A 
ATOM     90  C   UNL A   1      43.770  27.348  36.061  1.00  0.00     0.148 A 
ATOM     91  C   UNL A   1      46.465  28.128  35.887  1.00  0.00     0.002 A 
ATOM     92  C   UNL A   1      44.749  26.646  36.753  1.00  0.00     0.091 A 
ATOM     93  F   UNL A   1      42.480  26.980  36.093  1.00  0.00    -0.205 F 
ATOM     94  C   UNL A   1      46.097  27.029  36.659  1.00  0.00     0.022 A 
BRANCH  92  95
ATOM     95  S   UNL A   1      44.345  25.280  37.846  1.00  0.00     0.127 S 
ATOM     96  O   UNL A   1      42.886  25.254  37.764  1.00  0.00    -0.237 OA
ATOM     97  O   UNL A   1      45.013  24.150  37.197  1.00  0.00    -0.237 OA
ATOM     98  O   UNL A   1      44.898  25.637  39.146  1.00  0.00    -0.744 OA
ENDBRANCH  92  95
ENDBRANCH  65  88
ENDBRANCH  39  40
ENDBRANCH  31  34
ENDBRANCH  29  30
ENDBRANCH   1  29
TORSDOF 15
ENDMDL
