MODEL 1
REMARK VINA RESULT:     -13.5      0.000      0.000
REMARK SMILES Cn1c(=O)c(=O)n(C)c2cc(S(=O)(=O)N3CCC[C@H]3C(=O)NCCCNC(=O)c3ccc(-c4c5nc(c(-c6cccc(S(=O)(=O)[O-])c6F)c6ccc([nH]6)c(-c6cccc(S(=O)(=O)[O-])c6F)c6nc(c(-c7cccc(S(=O)(=O)[O-])c7F)c7ccc4[nH]7)C=C6)C=C5)cc3)ccc21
REMARK SMILES IDX 24 1 23 2 22 3 20 4 21 5 19 7 15 8 16 9 17 10 18 11 12 12
REMARK SMILES IDX 13 13 14 14 11 15 1 16 2 17 3 18 94 19 4 20 5 21 9 22 93 23
REMARK SMILES IDX 6 24 7 25 10 26 92 27 8 28 25 29 26 30 27 31 28 33 29 34
REMARK SMILES IDX 30 35 91 36 31 37 90 38 32 39 33 40 34 41 84 42 35 43 89 44
REMARK SMILES IDX 83 45 85 46 36 47 88 48 82 49 81 50 37 52 69 53 49 54 68 55
REMARK SMILES IDX 50 56 53 57 67 58 86 59 51 60 52 61 66 63 87 64 54 65 38 66
REMARK SMILES IDX 39 67 47 68 40 69 42 70 48 71 41 72 43 73 44 74 45 75 46 76
REMARK SMILES IDX 70 77 71 78 79 79 72 80 74 81 80 82 73 83 75 84 76 85 77 86
REMARK SMILES IDX 78 87 55 88 56 89 64 90 57 91 59 92 65 93 58 94 60 95 61 96
REMARK SMILES IDX 62 97 63 98
REMARK H PARENT 22 6 26 32 85 51 53 62
REMARK Flexibility Score: inf
ROOT
ATOM      1  C   UNL A   1      31.648  31.570  26.525  1.00  0.00     0.042 C 
ENDROOT
BRANCH   1   2
ATOM      2  C   UNL A   1      32.011  30.295  25.772  1.00  0.00     0.117 C 
BRANCH   2   3
ATOM      3  N   UNL A   1      31.102  30.031  24.676  1.00  0.00    -0.355 N 
ATOM      4  C   UNL A   1      30.954  28.984  23.830  1.00  0.00     0.238 C 
ATOM      5  O   UNL A   1      30.137  29.178  22.917  1.00  0.00    -0.273 OA
ATOM      6  H   UNL A   1      30.462  30.761  24.512  1.00  0.00     0.163 HD
BRANCH   4   7
ATOM      7  C   UNL A   1      31.744  27.666  23.883  1.00  0.00     0.162 C 
ATOM      8  N   UNL A   1      31.127  26.447  24.436  1.00  0.00    -0.185 NA
ATOM      9  C   UNL A   1      30.561  25.624  23.367  1.00  0.00     0.103 C 
ATOM     10  C   UNL A   1      31.404  25.921  22.148  1.00  0.00     0.019 C 
ATOM     11  C   UNL A   1      32.074  27.263  22.418  1.00  0.00     0.032 C 
BRANCH   8  12
ATOM     12  S   UNL A   1      31.615  25.751  25.883  1.00  0.00     0.243 S 
ATOM     13  O   UNL A   1      30.553  24.870  26.317  1.00  0.00    -0.207 OA
ATOM     14  O   UNL A   1      32.097  26.813  26.737  1.00  0.00    -0.207 OA
BRANCH  12  15
ATOM     15  C   UNL A   1      33.040  24.718  25.637  1.00  0.00     0.084 A 
ATOM     16  C   UNL A   1      37.601  22.376  25.443  1.00  0.00     0.154 C 
ATOM     17  N   UNL A   1      36.224  21.941  25.277  1.00  0.00    -0.305 N 
ATOM     18  C   UNL A   1      36.003  20.583  25.049  1.00  0.00     0.316 A 
ATOM     19  C   UNL A   1      35.149  22.864  25.394  1.00  0.00     0.068 A 
ATOM     20  O   UNL A   1      36.908  19.757  24.965  1.00  0.00    -0.263 OA
ATOM     21  C   UNL A   1      34.554  20.106  24.889  1.00  0.00     0.316 A 
ATOM     22  C   UNL A   1      33.820  22.422  25.276  1.00  0.00     0.069 A 
ATOM     23  C   UNL A   1      35.391  24.229  25.636  1.00  0.00     0.030 A 
ATOM     24  O   UNL A   1      34.355  18.924  24.627  1.00  0.00    -0.263 OA
ATOM     25  N   UNL A   1      33.539  21.048  25.042  1.00  0.00    -0.305 N 
ATOM     26  C   UNL A   1      32.780  23.359  25.401  1.00  0.00     0.050 A 
ATOM     27  C   UNL A   1      34.347  25.152  25.750  1.00  0.00     0.024 A 
ATOM     28  C   UNL A   1      32.162  20.580  24.953  1.00  0.00     0.154 C 
ENDBRANCH  12  15
ENDBRANCH   8  12
ENDBRANCH   4   7
ENDBRANCH   2   3
ENDBRANCH   1   2
BRANCH   1  29
ATOM     29  C   UNL A   1      32.804  32.263  27.237  1.00  0.00     0.118 C 
BRANCH  29  30
ATOM     30  N   UNL A   1      32.512  33.633  27.626  1.00  0.00    -0.352 N 
ATOM     31  C   UNL A   1      33.136  34.442  28.548  1.00  0.00     0.251 C 
ATOM     32  H   UNL A   1      31.752  34.046  27.157  1.00  0.00     0.163 HD
ATOM     33  O   UNL A   1      32.647  35.541  28.800  1.00  0.00    -0.269 OA
BRANCH  31  34
ATOM     34  C   UNL A   1      34.357  33.994  29.263  1.00  0.00     0.039 A 
ATOM     35  C   UNL A   1      35.628  34.444  28.901  1.00  0.00     0.014 A 
ATOM     36  C   UNL A   1      34.219  33.115  30.345  1.00  0.00     0.014 A 
ATOM     37  C   UNL A   1      36.758  33.901  29.511  1.00  0.00     0.010 A 
ATOM     38  C   UNL A   1      35.352  32.626  31.006  1.00  0.00     0.010 A 
ATOM     39  C   UNL A   1      36.634  32.978  30.563  1.00  0.00    -0.014 A 
BRANCH  39  40
ATOM     40  C   UNL A   1      37.863  32.404  31.172  1.00  0.00     0.031 A 
ATOM     41  C   UNL A   1      38.321  32.830  32.540  1.00  0.00     0.074 A 
ATOM     42  C   UNL A   1      38.530  31.434  30.517  1.00  0.00     0.049 A 
ATOM     43  N   UNL A   1      39.282  32.331  33.275  1.00  0.00    -0.248 NA
ATOM     44  C   UNL A   1      37.613  33.957  33.169  1.00  0.00     0.031 C 
ATOM     45  C   UNL A   1      38.206  30.955  29.173  1.00  0.00     0.029 A 
ATOM     46  N   UNL A   1      39.591  30.654  30.904  1.00  0.00    -0.354 N 
ATOM     47  C   UNL A   1      39.308  33.090  34.437  1.00  0.00     0.074 A 
ATOM     48  C   UNL A   1      38.279  34.098  34.307  1.00  0.00     0.031 C 
ATOM     49  C   UNL A   1      39.000  29.915  28.875  1.00  0.00     0.029 A 
ATOM     50  C   UNL A   1      39.908  29.673  29.994  1.00  0.00     0.049 A 
ATOM     51  H   UNL A   1      40.076  30.783  31.750  1.00  0.00     0.167 HD
ATOM     52  C   UNL A   1      40.093  32.942  35.530  1.00  0.00     0.034 A 
ATOM     53  C   UNL A   1      40.807  28.671  30.060  1.00  0.00     0.034 A 
ATOM     54  C   UNL A   1      41.081  31.911  35.690  1.00  0.00     0.049 A 
ATOM     55  C   UNL A   1      41.651  28.512  31.291  1.00  0.00     0.074 A 
ATOM     56  C   UNL A   1      41.896  31.665  36.781  1.00  0.00     0.029 A 
ATOM     57  N   UNL A   1      41.383  30.951  34.739  1.00  0.00    -0.354 N 
ATOM     58  N   UNL A   1      41.600  29.187  32.412  1.00  0.00    -0.248 NA
ATOM     59  C   UNL A   1      42.669  27.451  31.270  1.00  0.00     0.031 C 
ATOM     60  C   UNL A   1      42.686  30.547  36.492  1.00  0.00     0.029 A 
ATOM     61  C   UNL A   1      42.369  30.108  35.217  1.00  0.00     0.049 A 
ATOM     62  H   UNL A   1      40.959  30.880  33.854  1.00  0.00     0.167 HD
ATOM     63  C   UNL A   1      42.576  28.634  33.234  1.00  0.00     0.074 A 
ATOM     64  C   UNL A   1      43.186  27.552  32.490  1.00  0.00     0.031 C 
ATOM     65  C   UNL A   1      42.944  29.010  34.482  1.00  0.00     0.034 A 
BRANCH  52  66
ATOM     66  C   UNL A   1      39.859  33.875  36.683  1.00  0.00     0.023 A 
ATOM     67  C   UNL A   1      40.243  35.224  36.550  1.00  0.00     0.012 A 
ATOM     68  C   UNL A   1      39.217  33.448  37.860  1.00  0.00     0.148 A 
ATOM     69  C   UNL A   1      40.001  36.134  37.577  1.00  0.00     0.002 A 
ATOM     70  C   UNL A   1      38.962  34.367  38.873  1.00  0.00     0.091 A 
ATOM     71  F   UNL A   1      38.888  32.154  37.979  1.00  0.00    -0.205 F 
ATOM     72  C   UNL A   1      39.354  35.708  38.734  1.00  0.00     0.022 A 
BRANCH  70  73
ATOM     73  S   UNL A   1      38.098  33.907  40.380  1.00  0.00     0.127 S 
ATOM     74  O   UNL A   1      39.060  33.003  41.008  1.00  0.00    -0.237 OA
ATOM     75  O   UNL A   1      37.937  35.193  41.059  1.00  0.00    -0.237 OA
ATOM     76  O   UNL A   1      36.848  33.299  39.942  1.00  0.00    -0.744 OA
ENDBRANCH  70  73
ENDBRANCH  52  66
BRANCH  53  77
ATOM     77  C   UNL A   1      40.859  27.679  28.952  1.00  0.00     0.023 A 
ATOM     78  C   UNL A   1      39.862  26.688  28.881  1.00  0.00     0.012 A 
ATOM     79  C   UNL A   1      41.810  27.781  27.918  1.00  0.00     0.148 A 
ATOM     80  C   UNL A   1      39.807  25.814  27.796  1.00  0.00     0.002 A 
ATOM     81  C   UNL A   1      41.726  26.932  26.820  1.00  0.00     0.091 A 
ATOM     82  F   UNL A   1      42.744  28.737  28.010  1.00  0.00    -0.205 F 
ATOM     83  C   UNL A   1      40.731  25.943  26.761  1.00  0.00     0.022 A 
BRANCH  81  84
ATOM     84  S   UNL A   1      42.797  27.088  25.387  1.00  0.00     0.127 S 
ATOM     85  O   UNL A   1      44.102  27.303  26.010  1.00  0.00    -0.237 OA
ATOM     86  O   UNL A   1      42.626  25.783  24.749  1.00  0.00    -0.237 OA
ATOM     87  O   UNL A   1      42.282  28.216  24.625  1.00  0.00    -0.744 OA
ENDBRANCH  81  84
ENDBRANCH  53  77
BRANCH  65  88
ATOM     88  C   UNL A   1      44.082  28.277  35.131  1.00  0.00     0.023 A 
ATOM     89  C   UNL A   1      45.401  28.664  34.820  1.00  0.00     0.012 A 
ATOM     90  C   UNL A   1      43.857  27.312  36.132  1.00  0.00     0.148 A 
ATOM     91  C   UNL A   1      46.481  28.101  35.495  1.00  0.00     0.002 A 
ATOM     92  C   UNL A   1      44.938  26.771  36.818  1.00  0.00     0.091 A 
ATOM     93  F   UNL A   1      42.591  26.968  36.410  1.00  0.00    -0.205 F 
ATOM     94  C   UNL A   1      46.250  27.162  36.499  1.00  0.00     0.022 A 
BRANCH  92  95
ATOM     95  S   UNL A   1      44.751  25.596  38.162  1.00  0.00     0.127 S 
ATOM     96  O   UNL A   1      43.913  24.566  37.547  1.00  0.00    -0.237 OA
ATOM     97  O   UNL A   1      46.134  25.190  38.409  1.00  0.00    -0.237 OA
ATOM     98  O   UNL A   1      44.120  26.325  39.254  1.00  0.00    -0.744 OA
ENDBRANCH  92  95
ENDBRANCH  65  88
ENDBRANCH  39  40
ENDBRANCH  31  34
ENDBRANCH  29  30
ENDBRANCH   1  29
TORSDOF 15
ENDMDL
MODEL 2
REMARK VINA RESULT:     -13.2      1.362      2.064
REMARK SMILES Cn1c(=O)c(=O)n(C)c2cc(S(=O)(=O)N3CCC[C@H]3C(=O)NCCCNC(=O)c3ccc(-c4c5nc(c(-c6cccc(S(=O)(=O)[O-])c6F)c6ccc([nH]6)c(-c6cccc(S(=O)(=O)[O-])c6F)c6nc(c(-c7cccc(S(=O)(=O)[O-])c7F)c7ccc4[nH]7)C=C6)C=C5)cc3)ccc21
REMARK SMILES IDX 24 1 23 2 22 3 20 4 21 5 19 7 15 8 16 9 17 10 18 11 12 12
REMARK SMILES IDX 13 13 14 14 11 15 1 16 2 17 3 18 94 19 4 20 5 21 9 22 93 23
REMARK SMILES IDX 6 24 7 25 10 26 92 27 8 28 25 29 26 30 27 31 28 33 29 34
REMARK SMILES IDX 30 35 91 36 31 37 90 38 32 39 33 40 34 41 84 42 35 43 89 44
REMARK SMILES IDX 83 45 85 46 36 47 88 48 82 49 81 50 37 52 69 53 49 54 68 55
REMARK SMILES IDX 50 56 53 57 67 58 86 59 51 60 52 61 66 63 87 64 54 65 38 66
REMARK SMILES IDX 39 67 47 68 40 69 42 70 48 71 41 72 43 73 44 74 45 75 46 76
REMARK SMILES IDX 70 77 71 78 79 79 72 80 74 81 80 82 73 83 75 84 76 85 77 86
REMARK SMILES IDX 78 87 55 88 56 89 64 90 57 91 59 92 65 93 58 94 60 95 61 96
REMARK SMILES IDX 62 97 63 98
REMARK H PARENT 22 6 26 32 85 51 53 62
REMARK Flexibility Score: inf
ROOT
ATOM      1  C   UNL A   1      31.544  31.391  26.514  1.00  0.00     0.042 C 
ENDROOT
BRANCH   1   2
ATOM      2  C   UNL A   1      31.790  30.017  25.899  1.00  0.00     0.117 C 
BRANCH   2   3
ATOM      3  N   UNL A   1      31.188  29.890  24.589  1.00  0.00    -0.355 N 
ATOM      4  C   UNL A   1      31.158  28.887  23.679  1.00  0.00     0.238 C 
ATOM      5  O   UNL A   1      30.644  29.199  22.593  1.00  0.00    -0.273 OA
ATOM      6  H   UNL A   1      30.701  30.695  24.300  1.00  0.00     0.163 HD
BRANCH   4   7
ATOM      7  C   UNL A   1      31.753  27.482  23.869  1.00  0.00     0.162 C 
ATOM      8  N   UNL A   1      30.915  26.378  24.372  1.00  0.00    -0.185 NA
ATOM      9  C   UNL A   1      30.380  25.588  23.263  1.00  0.00     0.103 C 
ATOM     10  C   UNL A   1      31.399  25.720  22.153  1.00  0.00     0.019 C 
ATOM     11  C   UNL A   1      32.204  26.975  22.470  1.00  0.00     0.032 C 
BRANCH   8  12
ATOM     12  S   UNL A   1      31.125  25.690  25.889  1.00  0.00     0.243 S 
ATOM     13  O   UNL A   1      29.810  25.503  26.462  1.00  0.00    -0.207 OA
ATOM     14  O   UNL A   1      32.137  26.457  26.579  1.00  0.00    -0.207 OA
BRANCH  12  15
ATOM     15  C   UNL A   1      31.835  24.067  25.752  1.00  0.00     0.084 A 
ATOM     16  C   UNL A   1      33.055  19.140  25.005  1.00  0.00     0.154 C 
ATOM     17  N   UNL A   1      33.818  20.370  25.137  1.00  0.00    -0.305 N 
ATOM     18  C   UNL A   1      35.204  20.283  25.003  1.00  0.00     0.316 A 
ATOM     19  C   UNL A   1      33.164  21.614  25.345  1.00  0.00     0.068 A 
ATOM     20  O   UNL A   1      35.797  19.227  24.801  1.00  0.00    -0.263 OA
ATOM     21  C   UNL A   1      36.021  21.575  25.123  1.00  0.00     0.316 A 
ATOM     22  C   UNL A   1      33.911  22.803  25.426  1.00  0.00     0.069 A 
ATOM     23  C   UNL A   1      31.763  21.683  25.466  1.00  0.00     0.030 A 
ATOM     24  O   UNL A   1      37.245  21.498  25.068  1.00  0.00    -0.263 OA
ATOM     25  N   UNL A   1      35.326  22.771  25.297  1.00  0.00    -0.305 N 
ATOM     26  C   UNL A   1      33.233  24.017  25.628  1.00  0.00     0.050 A 
ATOM     27  C   UNL A   1      31.102  22.898  25.676  1.00  0.00     0.024 A 
ATOM     28  C   UNL A   1      36.101  24.003  25.346  1.00  0.00     0.154 C 
ENDBRANCH  12  15
ENDBRANCH   8  12
ENDBRANCH   4   7
ENDBRANCH   2   3
ENDBRANCH   1   2
BRANCH   1  29
ATOM     29  C   UNL A   1      32.791  32.139  26.969  1.00  0.00     0.118 C 
BRANCH  29  30
ATOM     30  N   UNL A   1      32.520  33.483  27.453  1.00  0.00    -0.352 N 
ATOM     31  C   UNL A   1      33.160  34.218  28.426  1.00  0.00     0.251 C 
ATOM     32  H   UNL A   1      31.764  33.938  27.019  1.00  0.00     0.163 HD
ATOM     33  O   UNL A   1      32.688  35.303  28.756  1.00  0.00    -0.269 OA
BRANCH  31  34
ATOM     34  C   UNL A   1      34.378  33.705  29.101  1.00  0.00     0.039 A 
ATOM     35  C   UNL A   1      35.626  34.307  28.924  1.00  0.00     0.014 A 
ATOM     36  C   UNL A   1      34.260  32.602  29.955  1.00  0.00     0.014 A 
ATOM     37  C   UNL A   1      36.766  33.718  29.470  1.00  0.00     0.010 A 
ATOM     38  C   UNL A   1      35.397  32.055  30.563  1.00  0.00     0.010 A 
ATOM     39  C   UNL A   1      36.666  32.580  30.288  1.00  0.00    -0.014 A 
BRANCH  39  40
ATOM     40  C   UNL A   1      37.907  31.969  30.832  1.00  0.00     0.031 A 
ATOM     41  C   UNL A   1      38.335  32.220  32.253  1.00  0.00     0.074 A 
ATOM     42  C   UNL A   1      38.614  31.118  30.062  1.00  0.00     0.049 A 
ATOM     43  N   UNL A   1      39.304  31.656  32.928  1.00  0.00    -0.248 NA
ATOM     44  C   UNL A   1      37.582  33.228  33.016  1.00  0.00     0.031 C 
ATOM     45  C   UNL A   1      38.320  30.815  28.661  1.00  0.00     0.029 A 
ATOM     46  N   UNL A   1      39.696  30.327  30.357  1.00  0.00    -0.354 N 
ATOM     47  C   UNL A   1      39.292  32.251  34.182  1.00  0.00     0.074 A 
ATOM     48  C   UNL A   1      38.230  33.234  34.174  1.00  0.00     0.031 C 
ATOM     49  C   UNL A   1      39.153  29.852  28.238  1.00  0.00     0.029 A 
ATOM     50  C   UNL A   1      40.056  29.489  29.328  1.00  0.00     0.049 A 
ATOM     51  H   UNL A   1      40.167  30.356  31.220  1.00  0.00     0.167 HD
ATOM     52  C   UNL A   1      40.069  31.982  35.258  1.00  0.00     0.034 A 
ATOM     53  C   UNL A   1      40.987  28.516  29.272  1.00  0.00     0.034 A 
ATOM     54  C   UNL A   1      41.089  30.971  35.292  1.00  0.00     0.049 A 
ATOM     55  C   UNL A   1      41.823  28.219  30.483  1.00  0.00     0.074 A 
ATOM     56  C   UNL A   1      41.900  30.606  36.352  1.00  0.00     0.029 A 
ATOM     57  N   UNL A   1      41.434  30.159  34.224  1.00  0.00    -0.354 N 
ATOM     58  N   UNL A   1      41.736  28.734  31.685  1.00  0.00    -0.248 NA
ATOM     59  C   UNL A   1      42.877  27.204  30.336  1.00  0.00     0.031 C 
ATOM     60  C   UNL A   1      42.731  29.562  35.927  1.00  0.00     0.029 A 
ATOM     61  C   UNL A   1      42.443  29.290  34.600  1.00  0.00     0.049 A 
ATOM     62  H   UNL A   1      41.022  30.195  33.331  1.00  0.00     0.167 HD
ATOM     63  C   UNL A   1      42.721  28.106  32.439  1.00  0.00     0.074 A 
ATOM     64  C   UNL A   1      43.376  27.155  31.566  1.00  0.00     0.031 C 
ATOM     65  C   UNL A   1      43.063  28.322  33.732  1.00  0.00     0.034 A 
BRANCH  52  66
ATOM     66  C   UNL A   1      39.791  32.742  36.522  1.00  0.00     0.023 A 
ATOM     67  C   UNL A   1      40.503  33.933  36.767  1.00  0.00     0.012 A 
ATOM     68  C   UNL A   1      38.800  32.326  37.431  1.00  0.00     0.148 A 
ATOM     69  C   UNL A   1      40.242  34.693  37.904  1.00  0.00     0.002 A 
ATOM     70  C   UNL A   1      38.533  33.101  38.555  1.00  0.00     0.091 A 
ATOM     71  F   UNL A   1      38.156  31.174  37.195  1.00  0.00    -0.205 F 
ATOM     72  C   UNL A   1      39.253  34.282  38.793  1.00  0.00     0.022 A 
BRANCH  70  73
ATOM     73  S   UNL A   1      37.246  32.661  39.729  1.00  0.00     0.127 S 
ATOM     74  O   UNL A   1      36.057  32.666  38.880  1.00  0.00    -0.237 OA
ATOM     75  O   UNL A   1      37.667  31.334  40.180  1.00  0.00    -0.237 OA
ATOM     76  O   UNL A   1      37.293  33.688  40.761  1.00  0.00    -0.744 OA
ENDBRANCH  70  73
ENDBRANCH  52  66
BRANCH  53  77
ATOM     77  C   UNL A   1      41.085  27.687  28.041  1.00  0.00     0.023 A 
ATOM     78  C   UNL A   1      41.677  28.244  26.892  1.00  0.00     0.012 A 
ATOM     79  C   UNL A   1      40.705  26.330  28.036  1.00  0.00     0.148 A 
ATOM     80  C   UNL A   1      41.893  27.464  25.756  1.00  0.00     0.002 A 
ATOM     81  C   UNL A   1      40.960  25.548  26.916  1.00  0.00     0.091 A 
ATOM     82  F   UNL A   1      40.149  25.826  29.146  1.00  0.00    -0.205 F 
ATOM     83  C   UNL A   1      41.547  26.115  25.772  1.00  0.00     0.022 A 
BRANCH  81  84
ATOM     84  S   UNL A   1      40.653  23.780  26.875  1.00  0.00     0.127 S 
ATOM     85  O   UNL A   1      39.214  23.731  26.623  1.00  0.00    -0.237 OA
ATOM     86  O   UNL A   1      41.490  23.362  25.750  1.00  0.00    -0.237 OA
ATOM     87  O   UNL A   1      41.071  23.272  28.173  1.00  0.00    -0.744 OA
ENDBRANCH  81  84
ENDBRANCH  53  77
BRANCH  65  88
ATOM     88  C   UNL A   1      44.218  27.544  34.294  1.00  0.00     0.023 A 
ATOM     89  C   UNL A   1      45.522  28.049  34.119  1.00  0.00     0.012 A 
ATOM     90  C   UNL A   1      44.013  26.404  35.096  1.00  0.00     0.148 A 
ATOM     91  C   UNL A   1      46.608  27.431  34.734  1.00  0.00     0.002 A 
ATOM     92  C   UNL A   1      45.099  25.806  35.725  1.00  0.00     0.091 A 
ATOM     93  F   UNL A   1      42.761  25.950  35.247  1.00  0.00    -0.205 F 
ATOM     94  C   UNL A   1      46.396  26.316  35.543  1.00  0.00     0.022 A 
BRANCH  92  95
ATOM     95  S   UNL A   1      44.932  24.399  36.828  1.00  0.00     0.127 S 
ATOM     96  O   UNL A   1      46.248  24.362  37.467  1.00  0.00    -0.237 OA
ATOM     97  O   UNL A   1      43.841  24.825  37.704  1.00  0.00    -0.237 OA
ATOM     98  O   UNL A   1      44.631  23.253  35.982  1.00  0.00    -0.744 OA
ENDBRANCH  92  95
ENDBRANCH  65  88
ENDBRANCH  39  40
ENDBRANCH  31  34
ENDBRANCH  29  30
ENDBRANCH   1  29
TORSDOF 15
ENDMDL
MODEL 3
REMARK VINA RESULT:     -13.2      1.972      2.429
REMARK SMILES Cn1c(=O)c(=O)n(C)c2cc(S(=O)(=O)N3CCC[C@H]3C(=O)NCCCNC(=O)c3ccc(-c4c5nc(c(-c6cccc(S(=O)(=O)[O-])c6F)c6ccc([nH]6)c(-c6cccc(S(=O)(=O)[O-])c6F)c6nc(c(-c7cccc(S(=O)(=O)[O-])c7F)c7ccc4[nH]7)C=C6)C=C5)cc3)ccc21
REMARK SMILES IDX 24 1 23 2 22 3 20 4 21 5 19 7 15 8 16 9 17 10 18 11 12 12
REMARK SMILES IDX 13 13 14 14 11 15 1 16 2 17 3 18 94 19 4 20 5 21 9 22 93 23
REMARK SMILES IDX 6 24 7 25 10 26 92 27 8 28 25 29 26 30 27 31 28 33 29 34
REMARK SMILES IDX 30 35 91 36 31 37 90 38 32 39 33 40 34 41 84 42 35 43 89 44
REMARK SMILES IDX 83 45 85 46 36 47 88 48 82 49 81 50 37 52 69 53 49 54 68 55
REMARK SMILES IDX 50 56 53 57 67 58 86 59 51 60 52 61 66 63 87 64 54 65 38 66
REMARK SMILES IDX 39 67 47 68 40 69 42 70 48 71 41 72 43 73 44 74 45 75 46 76
REMARK SMILES IDX 70 77 71 78 79 79 72 80 74 81 80 82 73 83 75 84 76 85 77 86
REMARK SMILES IDX 78 87 55 88 56 89 64 90 57 91 59 92 65 93 58 94 60 95 61 96
REMARK SMILES IDX 62 97 63 98
REMARK H PARENT 22 6 26 32 85 51 53 62
REMARK Flexibility Score: inf
ROOT
ATOM      1  C   UNL A   1      31.096  30.934  25.779  1.00  0.00     0.042 C 
ENDROOT
BRANCH   1   2
ATOM      2  C   UNL A   1      31.421  29.844  24.763  1.00  0.00     0.117 C 
BRANCH   2   3
ATOM      3  N   UNL A   1      30.712  30.032  23.515  1.00  0.00    -0.355 N 
ATOM      4  C   UNL A   1      30.325  29.183  22.534  1.00  0.00     0.238 C 
ATOM      5  O   UNL A   1      29.846  29.741  21.535  1.00  0.00    -0.273 OA
ATOM      6  H   UNL A   1      30.461  30.969  23.344  1.00  0.00     0.163 HD
BRANCH   4   7
ATOM      7  C   UNL A   1      30.498  27.654  22.548  1.00  0.00     0.162 C 
ATOM      8  N   UNL A   1      31.738  27.048  23.063  1.00  0.00    -0.185 NA
ATOM      9  C   UNL A   1      31.581  26.663  24.466  1.00  0.00     0.103 C 
ATOM     10  C   UNL A   1      30.109  26.361  24.633  1.00  0.00     0.019 C 
ATOM     11  C   UNL A   1      29.402  27.072  23.485  1.00  0.00     0.032 C 
BRANCH   8  12
ATOM     12  S   UNL A   1      32.848  26.261  22.081  1.00  0.00     0.243 S 
ATOM     13  O   UNL A   1      33.955  27.168  21.870  1.00  0.00    -0.207 OA
ATOM     14  O   UNL A   1      32.121  25.701  20.964  1.00  0.00    -0.207 OA
BRANCH  12  15
ATOM     15  C   UNL A   1      33.527  24.842  22.906  1.00  0.00     0.084 A 
ATOM     16  C   UNL A   1      35.771  21.360  25.934  1.00  0.00     0.154 C 
ATOM     17  N   UNL A   1      34.730  21.310  24.921  1.00  0.00    -0.305 N 
ATOM     18  C   UNL A   1      34.122  20.077  24.684  1.00  0.00     0.316 A 
ATOM     19  C   UNL A   1      34.320  22.487  24.238  1.00  0.00     0.068 A 
ATOM     20  O   UNL A   1      34.438  19.045  25.273  1.00  0.00    -0.263 OA
ATOM     21  C   UNL A   1      33.010  20.011  23.630  1.00  0.00     0.316 A 
ATOM     22  C   UNL A   1      33.281  22.433  23.293  1.00  0.00     0.069 A 
ATOM     23  C   UNL A   1      34.937  23.725  24.498  1.00  0.00     0.030 A 
ATOM     24  O   UNL A   1      32.514  18.918  23.373  1.00  0.00    -0.263 OA
ATOM     25  N   UNL A   1      32.628  21.201  23.014  1.00  0.00    -0.305 N 
ATOM     26  C   UNL A   1      32.897  23.616  22.639  1.00  0.00     0.050 A 
ATOM     27  C   UNL A   1      34.551  24.893  23.833  1.00  0.00     0.024 A 
ATOM     28  C   UNL A   1      31.529  21.146  22.060  1.00  0.00     0.154 C 
ENDBRANCH  12  15
ENDBRANCH   8  12
ENDBRANCH   4   7
ENDBRANCH   2   3
ENDBRANCH   1   2
BRANCH   1  29
ATOM     29  C   UNL A   1      32.245  31.341  26.693  1.00  0.00     0.118 C 
BRANCH  29  30
ATOM     30  N   UNL A   1      32.207  32.740  27.090  1.00  0.00    -0.352 N 
ATOM     31  C   UNL A   1      33.085  33.463  27.865  1.00  0.00     0.251 C 
ATOM     32  H   UNL A   1      31.436  33.248  26.751  1.00  0.00     0.163 HD
ATOM     33  O   UNL A   1      32.795  34.618  28.168  1.00  0.00    -0.269 OA
BRANCH  31  34
ATOM     34  C   UNL A   1      34.346  32.861  28.364  1.00  0.00     0.039 A 
ATOM     35  C   UNL A   1      34.364  31.627  29.018  1.00  0.00     0.014 A 
ATOM     36  C   UNL A   1      35.550  33.544  28.149  1.00  0.00     0.014 A 
ATOM     37  C   UNL A   1      35.548  31.157  29.586  1.00  0.00     0.010 A 
ATOM     38  C   UNL A   1      36.751  33.034  28.656  1.00  0.00     0.010 A 
ATOM     39  C   UNL A   1      36.753  31.861  29.421  1.00  0.00    -0.014 A 
BRANCH  39  40
ATOM     40  C   UNL A   1      37.989  31.339  30.062  1.00  0.00     0.031 A 
ATOM     41  C   UNL A   1      38.342  31.707  31.477  1.00  0.00     0.074 A 
ATOM     42  C   UNL A   1      38.759  30.464  29.387  1.00  0.00     0.049 A 
ATOM     43  N   UNL A   1      39.299  31.232  32.232  1.00  0.00    -0.248 NA
ATOM     44  C   UNL A   1      37.521  32.738  32.132  1.00  0.00     0.031 C 
ATOM     45  C   UNL A   1      38.541  30.050  28.001  1.00  0.00     0.029 A 
ATOM     46  N   UNL A   1      39.855  29.738  29.784  1.00  0.00    -0.354 N 
ATOM     47  C   UNL A   1      39.210  31.914  33.438  1.00  0.00     0.074 A 
ATOM     48  C   UNL A   1      38.115  32.852  33.312  1.00  0.00     0.031 C 
ATOM     49  C   UNL A   1      39.426  29.092  27.685  1.00  0.00     0.029 A 
ATOM     50  C   UNL A   1      40.291  28.844  28.836  1.00  0.00     0.049 A 
ATOM     51  H   UNL A   1      40.285  29.847  30.663  1.00  0.00     0.167 HD
ATOM     52  C   UNL A   1      39.947  31.753  34.562  1.00  0.00     0.034 A 
ATOM     53  C   UNL A   1      41.257  27.906  28.891  1.00  0.00     0.034 A 
ATOM     54  C   UNL A   1      41.000  30.787  34.714  1.00  0.00     0.049 A 
ATOM     55  C   UNL A   1      42.047  27.729  30.155  1.00  0.00     0.074 A 
ATOM     56  C   UNL A   1      41.774  30.530  35.832  1.00  0.00     0.029 A 
ATOM     57  N   UNL A   1      41.421  29.915  33.724  1.00  0.00    -0.354 N 
ATOM     58  N   UNL A   1      41.888  28.325  31.311  1.00  0.00    -0.248 NA
ATOM     59  C   UNL A   1      43.142  26.748  30.127  1.00  0.00     0.031 C 
ATOM     60  C   UNL A   1      42.660  29.492  35.520  1.00  0.00     0.029 A 
ATOM     61  C   UNL A   1      42.442  29.115  34.205  1.00  0.00     0.049 A 
ATOM     62  H   UNL A   1      41.049  29.871  32.814  1.00  0.00     0.167 HD
ATOM     63  C   UNL A   1      42.860  27.791  32.150  1.00  0.00     0.074 A 
ATOM     64  C   UNL A   1      43.587  26.806  31.378  1.00  0.00     0.031 C 
ATOM     65  C   UNL A   1      43.135  28.112  33.437  1.00  0.00     0.034 A 
BRANCH  52  66
ATOM     66  C   UNL A   1      39.584  32.590  35.754  1.00  0.00     0.023 A 
ATOM     67  C   UNL A   1      40.101  33.898  35.846  1.00  0.00     0.012 A 
ATOM     68  C   UNL A   1      38.701  32.122  36.744  1.00  0.00     0.148 A 
ATOM     69  C   UNL A   1      39.753  34.725  36.911  1.00  0.00     0.002 A 
ATOM     70  C   UNL A   1      38.343  32.961  37.795  1.00  0.00     0.091 A 
ATOM     71  F   UNL A   1      38.245  30.865  36.656  1.00  0.00    -0.205 F 
ATOM     72  C   UNL A   1      38.868  34.260  37.880  1.00  0.00     0.022 A 
BRANCH  70  73
ATOM     73  S   UNL A   1      37.177  32.452  39.065  1.00  0.00     0.127 S 
ATOM     74  O   UNL A   1      37.522  33.355  40.160  1.00  0.00    -0.237 OA
ATOM     75  O   UNL A   1      35.884  32.722  38.436  1.00  0.00    -0.237 OA
ATOM     76  O   UNL A   1      37.447  31.039  39.297  1.00  0.00    -0.744 OA
ENDBRANCH  70  73
ENDBRANCH  52  66
BRANCH  53  77
ATOM     77  C   UNL A   1      41.440  26.994  27.729  1.00  0.00     0.023 A 
ATOM     78  C   UNL A   1      42.194  27.442  26.627  1.00  0.00     0.012 A 
ATOM     79  C   UNL A   1      40.976  25.665  27.757  1.00  0.00     0.148 A 
ATOM     80  C   UNL A   1      42.487  26.579  25.572  1.00  0.00     0.002 A 
ATOM     81  C   UNL A   1      41.306  24.799  26.721  1.00  0.00     0.091 A 
ATOM     82  F   UNL A   1      40.266  25.266  28.821  1.00  0.00    -0.205 F 
ATOM     83  C   UNL A   1      42.054  25.256  25.624  1.00  0.00     0.022 A 
BRANCH  81  84
ATOM     84  S   UNL A   1      40.890  23.052  26.745  1.00  0.00     0.127 S 
ATOM     85  O   UNL A   1      41.305  22.664  28.091  1.00  0.00    -0.237 OA
ATOM     86  O   UNL A   1      39.444  23.092  26.532  1.00  0.00    -0.237 OA
ATOM     87  O   UNL A   1      41.653  22.446  25.664  1.00  0.00    -0.744 OA
ENDBRANCH  81  84
ENDBRANCH  53  77
BRANCH  65  88
ATOM     88  C   UNL A   1      44.290  27.422  34.104  1.00  0.00     0.023 A 
ATOM     89  C   UNL A   1      45.561  28.027  34.049  1.00  0.00     0.012 A 
ATOM     90  C   UNL A   1      44.102  26.264  34.884  1.00  0.00     0.148 A 
ATOM     91  C   UNL A   1      46.631  27.490  34.762  1.00  0.00     0.002 A 
ATOM     92  C   UNL A   1      45.168  25.747  35.610  1.00  0.00     0.091 A 
ATOM     93  F   UNL A   1      42.880  25.714  34.920  1.00  0.00    -0.205 F 
ATOM     94  C   UNL A   1      46.433  26.357  35.548  1.00  0.00     0.022 A 
BRANCH  92  95
ATOM     95  S   UNL A   1      45.011  24.325  36.695  1.00  0.00     0.127 S 
ATOM     96  O   UNL A   1      44.194  24.865  37.781  1.00  0.00    -0.237 OA
ATOM     97  O   UNL A   1      44.323  23.360  35.836  1.00  0.00    -0.237 OA
ATOM     98  O   UNL A   1      46.366  23.953  37.075  1.00  0.00    -0.744 OA
ENDBRANCH  92  95
ENDBRANCH  65  88
ENDBRANCH  39  40
ENDBRANCH  31  34
ENDBRANCH  29  30
ENDBRANCH   1  29
TORSDOF 15
ENDMDL
