MODEL 1
REMARK VINA RESULT:     -12.8      0.000      0.000
REMARK SMILES O=C(C[C@]12CSc3[nH]c(=O)sc3[C@H]1c1cc(Cl)ccc1OC2=O)NCCCNC(=O)c1ccc(-c2c3nc(c(-c4cccc(S(=O)(=O)[O-])c4F)c4ccc([nH]4)c(-c4cccc(S(=O)(=O)[O-])c4F)c4nc(c(-c5cccc(S(=O)(=O)[O-])c5F)c5ccc2[nH]5)C=C4)C=C3)cc1
REMARK SMILES IDX 27 1 26 2 25 3 24 4 1 5 2 6 3 8 4 9 5 10 13 11 22 12 6 13
REMARK SMILES IDX 12 14 14 15 21 16 23 17 7 18 11 19 15 20 20 21 8 22 9 23
REMARK SMILES IDX 16 24 19 25 10 27 17 28 18 29 28 30 29 31 30 33 31 34 32 35
REMARK SMILES IDX 93 36 33 37 92 38 34 39 35 40 36 41 86 42 37 43 91 44 85 45
REMARK SMILES IDX 87 46 38 47 90 48 84 49 83 50 39 52 71 53 51 54 70 55 52 56
REMARK SMILES IDX 55 57 69 58 88 59 53 60 54 61 68 63 89 64 56 65 40 66 41 67
REMARK SMILES IDX 49 68 42 69 44 70 50 71 43 72 45 73 46 74 47 75 48 76 72 77
REMARK SMILES IDX 73 78 81 79 74 80 76 81 82 82 75 83 77 84 78 85 79 86 80 87
REMARK SMILES IDX 57 88 58 89 66 90 59 91 61 92 67 93 60 94 62 95 63 96 64 97
REMARK SMILES IDX 65 98
REMARK H PARENT 24 7 8 26 28 32 87 51 55 62
REMARK Flexibility Score: inf
ROOT
ATOM      1  C   UNL A   1      38.929  19.398  25.851  1.00  0.00     0.118 C 
ENDROOT
BRANCH   1   2
ATOM      2  C   UNL A   1      38.566  20.586  24.966  1.00  0.00     0.042 C 
BRANCH   2   3
ATOM      3  C   UNL A   1      38.253  21.843  25.758  1.00  0.00     0.117 C 
BRANCH   3   4
ATOM      4  N   UNL A   1      36.827  22.180  25.794  1.00  0.00    -0.356 N 
ATOM      5  O   UNL A   1      36.983  24.417  26.154  1.00  0.00    -0.275 OA
ATOM      6  C   UNL A   1      36.312  23.459  25.780  1.00  0.00     0.221 C 
ATOM      7  H   UNL A   1      36.185  21.435  25.831  1.00  0.00     0.163 HD
BRANCH   6   8
ATOM      8  C   UNL A   1      34.834  23.670  25.284  1.00  0.00     0.120 C 
BRANCH   8   9
ATOM      9  C   UNL A   1      33.462  23.909  26.166  1.00  0.00     0.098 C 
ATOM     10  C   UNL A   1      34.025  23.185  27.437  1.00  0.00     0.097 C 
ATOM     11  C   UNL A   1      32.591  23.483  24.992  1.00  0.00     0.085 C 
ATOM     12  C   UNL A   1      31.919  23.741  26.927  1.00  0.00     0.319 C 
ATOM     13  S   UNL A   1      34.051  21.378  27.328  1.00  0.00    -0.106 SA
ATOM     14  C   UNL A   1      32.535  21.922  24.992  1.00  0.00     0.049 A 
ATOM     15  C   UNL A   1      32.116  25.021  24.765  1.00  0.00     0.006 A 
ATOM     16  O   UNL A   1      31.104  24.853  26.894  1.00  0.00    -0.426 OA
ATOM     17  O   UNL A   1      31.454  22.743  27.476  1.00  0.00    -0.251 OA
ATOM     18  C   UNL A   1      33.213  21.092  25.849  1.00  0.00     0.090 A 
ATOM     19  S   UNL A   1      32.111  20.947  23.559  1.00  0.00    -0.077 S 
ATOM     20  C   UNL A   1      32.889  25.938  23.977  1.00  0.00     0.028 A 
ATOM     21  C   UNL A   1      31.504  25.646  25.852  1.00  0.00     0.134 A 
ATOM     22  N   UNL A   1      33.378  19.808  25.434  1.00  0.00    -0.307 N 
ATOM     23  C   UNL A   1      32.872  19.470  24.210  1.00  0.00     0.305 A 
ATOM     24  C   UNL A   1      33.066  27.299  24.334  1.00  0.00     0.041 A 
ATOM     25  C   UNL A   1      31.533  27.022  26.131  1.00  0.00     0.049 A 
ATOM     26  H   UNL A   1      33.844  19.146  25.993  1.00  0.00     0.171 HD
ATOM     27  O   UNL A   1      32.962  18.402  23.673  1.00  0.00    -0.257 OA
ATOM     28  Cl  UNL A   1      34.263  28.269  23.555  1.00  0.00    -0.084 Cl
ATOM     29  C   UNL A   1      32.365  27.848  25.395  1.00  0.00     0.024 A 
ENDBRANCH   8   9
ENDBRANCH   6   8
ENDBRANCH   3   4
ENDBRANCH   2   3
ENDBRANCH   1   2
BRANCH   1  30
ATOM     30  N   UNL A   1      40.233  18.823  25.583  1.00  0.00    -0.352 N 
ATOM     31  C   UNL A   1      41.511  19.144  25.950  1.00  0.00     0.251 C 
ATOM     32  H   UNL A   1      40.189  18.025  25.009  1.00  0.00     0.163 HD
ATOM     33  O   UNL A   1      42.384  18.332  25.635  1.00  0.00    -0.269 OA
BRANCH  31  34
ATOM     34  C   UNL A   1      41.906  20.412  26.608  1.00  0.00     0.039 A 
ATOM     35  C   UNL A   1      41.816  20.665  27.978  1.00  0.00     0.014 A 
ATOM     36  C   UNL A   1      42.344  21.439  25.754  1.00  0.00     0.014 A 
ATOM     37  C   UNL A   1      42.013  21.942  28.471  1.00  0.00     0.010 A 
ATOM     38  C   UNL A   1      42.583  22.712  26.246  1.00  0.00     0.010 A 
ATOM     39  C   UNL A   1      42.351  22.968  27.595  1.00  0.00    -0.014 A 
BRANCH  39  40
ATOM     40  C   UNL A   1      42.540  24.292  28.163  1.00  0.00     0.031 A 
ATOM     41  C   UNL A   1      41.348  25.186  28.089  1.00  0.00     0.074 A 
ATOM     42  C   UNL A   1      43.677  24.618  28.806  1.00  0.00     0.049 A 
ATOM     43  N   UNL A   1      41.260  26.365  27.560  1.00  0.00    -0.248 NA
ATOM     44  C   UNL A   1      40.061  24.642  28.555  1.00  0.00     0.031 C 
ATOM     45  C   UNL A   1      44.803  23.744  29.144  1.00  0.00     0.029 A 
ATOM     46  N   UNL A   1      43.981  25.776  29.448  1.00  0.00    -0.354 N 
ATOM     47  C   UNL A   1      39.952  26.786  27.793  1.00  0.00     0.074 A 
ATOM     48  C   UNL A   1      39.226  25.641  28.279  1.00  0.00     0.031 C 
ATOM     49  C   UNL A   1      45.503  24.306  30.152  1.00  0.00     0.029 A 
ATOM     50  C   UNL A   1      44.943  25.612  30.440  1.00  0.00     0.049 A 
ATOM     51  H   UNL A   1      43.565  26.642  29.233  1.00  0.00     0.167 HD
ATOM     52  C   UNL A   1      39.574  28.093  27.756  1.00  0.00     0.034 A 
ATOM     53  C   UNL A   1      45.157  26.448  31.486  1.00  0.00     0.034 A 
ATOM     54  C   UNL A   1      40.544  28.934  27.125  1.00  0.00     0.049 A 
ATOM     55  C   UNL A   1      44.561  27.758  31.117  1.00  0.00     0.074 A 
ATOM     56  C   UNL A   1      41.072  29.018  25.853  1.00  0.00     0.029 A 
ATOM     57  N   UNL A   1      41.401  29.630  27.943  1.00  0.00    -0.354 N 
ATOM     58  N   UNL A   1      45.016  28.509  30.153  1.00  0.00    -0.248 NA
ATOM     59  C   UNL A   1      43.194  28.033  31.533  1.00  0.00     0.031 C 
ATOM     60  C   UNL A   1      42.447  29.329  26.051  1.00  0.00     0.029 A 
ATOM     61  C   UNL A   1      42.660  29.464  27.425  1.00  0.00     0.049 A 
ATOM     62  H   UNL A   1      41.160  30.147  28.744  1.00  0.00     0.167 HD
ATOM     63  C   UNL A   1      43.880  29.038  29.556  1.00  0.00     0.074 A 
ATOM     64  C   UNL A   1      42.799  28.799  30.510  1.00  0.00     0.031 C 
ATOM     65  C   UNL A   1      43.857  29.352  28.228  1.00  0.00     0.034 A 
BRANCH  52  66
ATOM     66  C   UNL A   1      38.444  28.653  28.567  1.00  0.00     0.023 A 
ATOM     67  C   UNL A   1      37.370  29.281  27.906  1.00  0.00     0.012 A 
ATOM     68  C   UNL A   1      38.524  28.797  29.971  1.00  0.00     0.148 A 
ATOM     69  C   UNL A   1      36.412  30.013  28.616  1.00  0.00     0.002 A 
ATOM     70  C   UNL A   1      37.533  29.463  30.679  1.00  0.00     0.091 A 
ATOM     71  F   UNL A   1      39.629  28.392  30.609  1.00  0.00    -0.205 F 
ATOM     72  C   UNL A   1      36.482  30.090  30.004  1.00  0.00     0.022 A 
BRANCH  70  73
ATOM     73  S   UNL A   1      37.565  29.552  32.471  1.00  0.00     0.127 S 
ATOM     74  O   UNL A   1      38.802  30.291  32.706  1.00  0.00    -0.237 OA
ATOM     75  O   UNL A   1      36.335  30.292  32.757  1.00  0.00    -0.237 OA
ATOM     76  O   UNL A   1      37.546  28.168  32.925  1.00  0.00    -0.744 OA
ENDBRANCH  70  73
ENDBRANCH  52  66
BRANCH  53  77
ATOM     77  C   UNL A   1      45.599  26.132  32.869  1.00  0.00     0.023 A 
ATOM     78  C   UNL A   1      46.613  26.911  33.462  1.00  0.00     0.012 A 
ATOM     79  C   UNL A   1      44.882  25.243  33.705  1.00  0.00     0.148 A 
ATOM     80  C   UNL A   1      46.878  26.835  34.835  1.00  0.00     0.002 A 
ATOM     81  C   UNL A   1      45.167  25.153  35.065  1.00  0.00     0.091 A 
ATOM     82  F   UNL A   1      43.852  24.555  33.197  1.00  0.00    -0.205 F 
ATOM     83  C   UNL A   1      46.155  25.959  35.638  1.00  0.00     0.022 A 
BRANCH  81  84
ATOM     84  S   UNL A   1      44.268  24.032  36.150  1.00  0.00     0.127 S 
ATOM     85  O   UNL A   1      44.972  24.203  37.421  1.00  0.00    -0.237 OA
ATOM     86  O   UNL A   1      42.921  24.592  36.116  1.00  0.00    -0.237 OA
ATOM     87  O   UNL A   1      44.424  22.708  35.559  1.00  0.00    -0.744 OA
ENDBRANCH  81  84
ENDBRANCH  53  77
BRANCH  65  88
ATOM     88  C   UNL A   1      45.150  29.277  27.455  1.00  0.00     0.023 A 
ATOM     89  C   UNL A   1      46.105  30.314  27.519  1.00  0.00     0.012 A 
ATOM     90  C   UNL A   1      45.511  28.055  26.867  1.00  0.00     0.148 A 
ATOM     91  C   UNL A   1      47.390  30.139  27.003  1.00  0.00     0.002 A 
ATOM     92  C   UNL A   1      46.804  27.869  26.391  1.00  0.00     0.091 A 
ATOM     93  F   UNL A   1      44.596  27.074  26.835  1.00  0.00    -0.205 F 
ATOM     94  C   UNL A   1      47.745  28.911  26.453  1.00  0.00     0.022 A 
BRANCH  92  95
ATOM     95  S   UNL A   1      47.373  26.277  25.790  1.00  0.00     0.127 S 
ATOM     96  O   UNL A   1      46.566  26.099  24.586  1.00  0.00    -0.237 OA
ATOM     97  O   UNL A   1      48.794  26.529  25.544  1.00  0.00    -0.237 OA
ATOM     98  O   UNL A   1      47.113  25.323  26.861  1.00  0.00    -0.744 OA
ENDBRANCH  92  95
ENDBRANCH  65  88
ENDBRANCH  39  40
ENDBRANCH  31  34
ENDBRANCH   1  30
TORSDOF 14
ENDMDL
MODEL 2
REMARK VINA RESULT:     -12.5      3.308      7.757
REMARK SMILES O=C(C[C@]12CSc3[nH]c(=O)sc3[C@H]1c1cc(Cl)ccc1OC2=O)NCCCNC(=O)c1ccc(-c2c3nc(c(-c4cccc(S(=O)(=O)[O-])c4F)c4ccc([nH]4)c(-c4cccc(S(=O)(=O)[O-])c4F)c4nc(c(-c5cccc(S(=O)(=O)[O-])c5F)c5ccc2[nH]5)C=C4)C=C3)cc1
REMARK SMILES IDX 27 1 26 2 25 3 24 4 1 5 2 6 3 8 4 9 5 10 13 11 22 12 6 13
REMARK SMILES IDX 12 14 14 15 21 16 23 17 7 18 11 19 15 20 20 21 8 22 9 23
REMARK SMILES IDX 16 24 19 25 10 27 17 28 18 29 28 30 29 31 30 33 31 34 32 35
REMARK SMILES IDX 93 36 33 37 92 38 34 39 35 40 36 41 86 42 37 43 91 44 85 45
REMARK SMILES IDX 87 46 38 47 90 48 84 49 83 50 39 52 71 53 51 54 70 55 52 56
REMARK SMILES IDX 55 57 69 58 88 59 53 60 54 61 68 63 89 64 56 65 40 66 41 67
REMARK SMILES IDX 49 68 42 69 44 70 50 71 43 72 45 73 46 74 47 75 48 76 72 77
REMARK SMILES IDX 73 78 81 79 74 80 76 81 82 82 75 83 77 84 78 85 79 86 80 87
REMARK SMILES IDX 57 88 58 89 66 90 59 91 61 92 67 93 60 94 62 95 63 96 64 97
REMARK SMILES IDX 65 98
REMARK H PARENT 24 7 8 26 28 32 87 51 55 62
REMARK Flexibility Score: inf
ROOT
ATOM      1  C   UNL A   1      35.833  31.888  27.948  1.00  0.00     0.118 C 
ENDROOT
BRANCH   1   2
ATOM      2  C   UNL A   1      35.135  30.670  27.352  1.00  0.00     0.042 C 
BRANCH   2   3
ATOM      3  C   UNL A   1      33.627  30.706  27.524  1.00  0.00     0.117 C 
BRANCH   3   4
ATOM      4  N   UNL A   1      32.927  29.604  26.858  1.00  0.00    -0.356 N 
ATOM      5  O   UNL A   1      31.493  30.800  25.566  1.00  0.00    -0.275 OA
ATOM      6  C   UNL A   1      32.069  29.739  25.788  1.00  0.00     0.221 C 
ATOM      7  H   UNL A   1      33.082  28.695  27.202  1.00  0.00     0.163 HD
BRANCH   6   8
ATOM      8  C   UNL A   1      31.828  28.494  24.854  1.00  0.00     0.120 C 
BRANCH   8   9
ATOM      9  C   UNL A   1      30.487  27.549  24.702  1.00  0.00     0.098 C 
ATOM     10  C   UNL A   1      30.675  26.871  26.103  1.00  0.00     0.097 C 
ATOM     11  C   UNL A   1      30.867  27.177  23.276  1.00  0.00     0.085 C 
ATOM     12  C   UNL A   1      29.387  26.254  24.380  1.00  0.00     0.319 C 
ATOM     13  S   UNL A   1      31.975  25.612  26.165  1.00  0.00    -0.106 SA
ATOM     14  C   UNL A   1      31.902  26.009  23.357  1.00  0.00     0.049 A 
ATOM     15  C   UNL A   1      29.667  28.107  22.695  1.00  0.00     0.006 A 
ATOM     16  O   UNL A   1      28.198  26.606  23.779  1.00  0.00    -0.426 OA
ATOM     17  O   UNL A   1      29.548  25.056  24.606  1.00  0.00    -0.251 OA
ATOM     18  C   UNL A   1      32.426  25.475  24.506  1.00  0.00     0.090 A 
ATOM     19  S   UNL A   1      33.027  25.591  22.036  1.00  0.00    -0.077 S 
ATOM     20  C   UNL A   1      29.847  29.514  22.474  1.00  0.00     0.028 A 
ATOM     21  C   UNL A   1      28.380  27.803  23.139  1.00  0.00     0.134 A 
ATOM     22  N   UNL A   1      33.593  24.792  24.372  1.00  0.00    -0.307 N 
ATOM     23  C   UNL A   1      34.138  24.712  23.121  1.00  0.00     0.305 A 
ATOM     24  C   UNL A   1      28.842  30.472  22.764  1.00  0.00     0.041 A 
ATOM     25  C   UNL A   1      27.321  28.716  23.277  1.00  0.00     0.049 A 
ATOM     26  H   UNL A   1      34.030  24.370  25.146  1.00  0.00     0.171 HD
ATOM     27  O   UNL A   1      35.176  24.189  22.829  1.00  0.00    -0.257 OA
ATOM     28  Cl  UNL A   1      29.213  32.158  22.803  1.00  0.00    -0.084 Cl
ATOM     29  C   UNL A   1      27.570  30.071  23.139  1.00  0.00     0.024 A 
ENDBRANCH   8   9
ENDBRANCH   6   8
ENDBRANCH   3   4
ENDBRANCH   2   3
ENDBRANCH   1   2
BRANCH   1  30
ATOM     30  N   UNL A   1      35.524  32.136  29.343  1.00  0.00    -0.352 N 
ATOM     31  C   UNL A   1      36.218  32.001  30.514  1.00  0.00     0.251 C 
ATOM     32  H   UNL A   1      34.611  32.479  29.477  1.00  0.00     0.163 HD
ATOM     33  O   UNL A   1      35.668  32.445  31.523  1.00  0.00    -0.269 OA
BRANCH  31  34
ATOM     34  C   UNL A   1      37.515  31.296  30.647  1.00  0.00     0.039 A 
ATOM     35  C   UNL A   1      38.757  31.921  30.774  1.00  0.00     0.014 A 
ATOM     36  C   UNL A   1      37.465  29.893  30.576  1.00  0.00     0.014 A 
ATOM     37  C   UNL A   1      39.925  31.187  30.685  1.00  0.00     0.010 A 
ATOM     38  C   UNL A   1      38.630  29.146  30.528  1.00  0.00     0.010 A 
ATOM     39  C   UNL A   1      39.855  29.809  30.518  1.00  0.00    -0.014 A 
BRANCH  39  40
ATOM     40  C   UNL A   1      41.112  29.085  30.424  1.00  0.00     0.031 A 
ATOM     41  C   UNL A   1      41.741  28.739  31.732  1.00  0.00     0.074 A 
ATOM     42  C   UNL A   1      41.589  28.670  29.235  1.00  0.00     0.049 A 
ATOM     43  N   UNL A   1      42.930  29.031  32.153  1.00  0.00    -0.248 NA
ATOM     44  C   UNL A   1      40.889  28.092  32.744  1.00  0.00     0.031 C 
ATOM     45  C   UNL A   1      40.934  28.744  27.926  1.00  0.00     0.029 A 
ATOM     46  N   UNL A   1      42.699  27.929  28.983  1.00  0.00    -0.354 N 
ATOM     47  C   UNL A   1      43.039  28.443  33.412  1.00  0.00     0.074 A 
ATOM     48  C   UNL A   1      41.718  28.003  33.782  1.00  0.00     0.031 C 
ATOM     49  C   UNL A   1      41.504  27.840  27.102  1.00  0.00     0.029 A 
ATOM     50  C   UNL A   1      42.622  27.220  27.788  1.00  0.00     0.049 A 
ATOM     51  H   UNL A   1      43.479  27.897  29.584  1.00  0.00     0.167 HD
ATOM     52  C   UNL A   1      44.233  28.176  34.007  1.00  0.00     0.034 A 
ATOM     53  C   UNL A   1      43.352  26.124  27.464  1.00  0.00     0.034 A 
ATOM     54  C   UNL A   1      45.327  28.859  33.389  1.00  0.00     0.049 A 
ATOM     55  C   UNL A   1      44.544  26.126  28.351  1.00  0.00     0.074 A 
ATOM     56  C   UNL A   1      45.670  30.185  33.222  1.00  0.00     0.029 A 
ATOM     57  N   UNL A   1      46.083  28.151  32.486  1.00  0.00    -0.354 N 
ATOM     58  N   UNL A   1      45.483  27.029  28.292  1.00  0.00    -0.248 NA
ATOM     59  C   UNL A   1      44.477  25.374  29.595  1.00  0.00     0.031 C 
ATOM     60  C   UNL A   1      46.235  30.252  31.918  1.00  0.00     0.029 A 
ATOM     61  C   UNL A   1      46.246  28.959  31.390  1.00  0.00     0.049 A 
ATOM     62  H   UNL A   1      46.439  27.241  32.603  1.00  0.00     0.167 HD
ATOM     63  C   UNL A   1      45.832  27.259  29.616  1.00  0.00     0.074 A 
ATOM     64  C   UNL A   1      45.260  26.139  30.362  1.00  0.00     0.031 C 
ATOM     65  C   UNL A   1      46.291  28.476  30.029  1.00  0.00     0.034 A 
BRANCH  52  66
ATOM     66  C   UNL A   1      44.444  27.049  34.974  1.00  0.00     0.023 A 
ATOM     67  C   UNL A   1      44.932  27.335  36.264  1.00  0.00     0.012 A 
ATOM     68  C   UNL A   1      44.410  25.694  34.572  1.00  0.00     0.148 A 
ATOM     69  C   UNL A   1      45.358  26.312  37.120  1.00  0.00     0.002 A 
ATOM     70  C   UNL A   1      44.765  24.679  35.448  1.00  0.00     0.091 A 
ATOM     71  F   UNL A   1      44.148  25.397  33.293  1.00  0.00    -0.205 F 
ATOM     72  C   UNL A   1      45.259  24.983  36.720  1.00  0.00     0.022 A 
BRANCH  70  73
ATOM     73  S   UNL A   1      44.615  22.951  34.987  1.00  0.00     0.127 S 
ATOM     74  O   UNL A   1      44.990  22.282  36.229  1.00  0.00    -0.237 OA
ATOM     75  O   UNL A   1      43.198  22.856  34.633  1.00  0.00    -0.237 OA
ATOM     76  O   UNL A   1      45.523  22.774  33.861  1.00  0.00    -0.744 OA
ENDBRANCH  70  73
ENDBRANCH  52  66
BRANCH  53  77
ATOM     77  C   UNL A   1      42.972  24.949  26.639  1.00  0.00     0.023 A 
ATOM     78  C   UNL A   1      43.792  24.575  25.555  1.00  0.00     0.012 A 
ATOM     79  C   UNL A   1      41.960  24.044  27.037  1.00  0.00     0.148 A 
ATOM     80  C   UNL A   1      43.635  23.338  24.918  1.00  0.00     0.002 A 
ATOM     81  C   UNL A   1      41.791  22.826  26.384  1.00  0.00     0.091 A 
ATOM     82  F   UNL A   1      41.221  24.323  28.119  1.00  0.00    -0.205 F 
ATOM     83  C   UNL A   1      42.637  22.462  25.332  1.00  0.00     0.022 A 
BRANCH  81  84
ATOM     84  S   UNL A   1      40.513  21.657  26.872  1.00  0.00     0.127 S 
ATOM     85  O   UNL A   1      40.811  21.447  28.290  1.00  0.00    -0.237 OA
ATOM     86  O   UNL A   1      39.293  22.412  26.608  1.00  0.00    -0.237 OA
ATOM     87  O   UNL A   1      40.724  20.477  26.042  1.00  0.00    -0.744 OA
ENDBRANCH  81  84
ENDBRANCH  53  77
BRANCH  65  88
ATOM     88  C   UNL A   1      46.579  29.522  28.980  1.00  0.00     0.023 A 
ATOM     89  C   UNL A   1      47.828  29.580  28.326  1.00  0.00     0.012 A 
ATOM     90  C   UNL A   1      45.512  30.283  28.479  1.00  0.00     0.148 A 
ATOM     91  C   UNL A   1      48.011  30.383  27.199  1.00  0.00     0.002 A 
ATOM     92  C   UNL A   1      45.686  31.049  27.333  1.00  0.00     0.091 A 
ATOM     93  F   UNL A   1      44.327  30.198  29.103  1.00  0.00    -0.205 F 
ATOM     94  C   UNL A   1      46.935  31.106  26.693  1.00  0.00     0.022 A 
BRANCH  92  95
ATOM     95  S   UNL A   1      44.317  31.903  26.547  1.00  0.00     0.127 S 
ATOM     96  O   UNL A   1      43.381  30.811  26.293  1.00  0.00    -0.237 OA
ATOM     97  O   UNL A   1      43.896  32.840  27.590  1.00  0.00    -0.237 OA
ATOM     98  O   UNL A   1      44.867  32.542  25.358  1.00  0.00    -0.744 OA
ENDBRANCH  92  95
ENDBRANCH  65  88
ENDBRANCH  39  40
ENDBRANCH  31  34
ENDBRANCH   1  30
TORSDOF 14
ENDMDL
MODEL 3
REMARK VINA RESULT:     -12.5      2.960      7.413
REMARK SMILES O=C(C[C@]12CSc3[nH]c(=O)sc3[C@H]1c1cc(Cl)ccc1OC2=O)NCCCNC(=O)c1ccc(-c2c3nc(c(-c4cccc(S(=O)(=O)[O-])c4F)c4ccc([nH]4)c(-c4cccc(S(=O)(=O)[O-])c4F)c4nc(c(-c5cccc(S(=O)(=O)[O-])c5F)c5ccc2[nH]5)C=C4)C=C3)cc1
REMARK SMILES IDX 27 1 26 2 25 3 24 4 1 5 2 6 3 8 4 9 5 10 13 11 22 12 6 13
REMARK SMILES IDX 12 14 14 15 21 16 23 17 7 18 11 19 15 20 20 21 8 22 9 23
REMARK SMILES IDX 16 24 19 25 10 27 17 28 18 29 28 30 29 31 30 33 31 34 32 35
REMARK SMILES IDX 93 36 33 37 92 38 34 39 35 40 36 41 86 42 37 43 91 44 85 45
REMARK SMILES IDX 87 46 38 47 90 48 84 49 83 50 39 52 71 53 51 54 70 55 52 56
REMARK SMILES IDX 55 57 69 58 88 59 53 60 54 61 68 63 89 64 56 65 40 66 41 67
REMARK SMILES IDX 49 68 42 69 44 70 50 71 43 72 45 73 46 74 47 75 48 76 72 77
REMARK SMILES IDX 73 78 81 79 74 80 76 81 82 82 75 83 77 84 78 85 79 86 80 87
REMARK SMILES IDX 57 88 58 89 66 90 59 91 61 92 67 93 60 94 62 95 63 96 64 97
REMARK SMILES IDX 65 98
REMARK H PARENT 24 7 8 26 28 32 87 51 55 62
REMARK Flexibility Score: inf
ROOT
ATOM      1  C   UNL A   1      34.890  31.816  27.772  1.00  0.00     0.118 C 
ENDROOT
BRANCH   1   2
ATOM      2  C   UNL A   1      34.648  30.408  27.236  1.00  0.00     0.042 C 
BRANCH   2   3
ATOM      3  C   UNL A   1      33.287  29.853  27.618  1.00  0.00     0.117 C 
BRANCH   3   4
ATOM      4  N   UNL A   1      33.189  28.395  27.505  1.00  0.00    -0.356 N 
ATOM      5  O   UNL A   1      30.957  28.146  27.840  1.00  0.00    -0.275 OA
ATOM      6  C   UNL A   1      32.013  27.682  27.418  1.00  0.00     0.221 C 
ATOM      7  H   UNL A   1      34.030  27.884  27.491  1.00  0.00     0.163 HD
BRANCH   6   8
ATOM      8  C   UNL A   1      32.048  26.247  26.772  1.00  0.00     0.120 C 
BRANCH   8   9
ATOM      9  C   UNL A   1      31.208  25.664  25.479  1.00  0.00     0.098 C 
ATOM     10  C   UNL A   1      30.512  24.529  26.307  1.00  0.00     0.097 C 
ATOM     11  C   UNL A   1      32.447  25.737  24.597  1.00  0.00     0.085 C 
ATOM     12  C   UNL A   1      30.693  24.773  24.090  1.00  0.00     0.319 C 
ATOM     13  S   UNL A   1      31.575  23.114  26.690  1.00  0.00    -0.106 SA
ATOM     14  C   UNL A   1      33.287  24.447  24.862  1.00  0.00     0.049 A 
ATOM     15  C   UNL A   1      31.822  27.007  23.797  1.00  0.00     0.006 A 
ATOM     16  O   UNL A   1      30.142  25.515  23.067  1.00  0.00    -0.426 OA
ATOM     17  O   UNL A   1      30.777  23.561  23.898  1.00  0.00    -0.251 OA
ATOM     18  C   UNL A   1      32.996  23.470  25.779  1.00  0.00     0.090 A 
ATOM     19  S   UNL A   1      35.029  24.309  24.500  1.00  0.00    -0.077 S 
ATOM     20  C   UNL A   1      31.976  28.350  24.282  1.00  0.00     0.028 A 
ATOM     21  C   UNL A   1      30.585  26.805  23.187  1.00  0.00     0.134 A 
ATOM     22  N   UNL A   1      34.032  22.676  26.159  1.00  0.00    -0.307 N 
ATOM     23  C   UNL A   1      35.256  22.931  25.609  1.00  0.00     0.305 A 
ATOM     24  C   UNL A   1      30.939  29.315  24.213  1.00  0.00     0.041 A 
ATOM     25  C   UNL A   1      29.609  27.790  22.963  1.00  0.00     0.049 A 
ATOM     26  H   UNL A   1      33.905  21.946  26.806  1.00  0.00     0.171 HD
ATOM     27  O   UNL A   1      36.281  22.361  25.860  1.00  0.00    -0.257 OA
ATOM     28  Cl  UNL A   1      31.047  30.792  25.100  1.00  0.00    -0.084 Cl
ATOM     29  C   UNL A   1      29.766  29.044  23.528  1.00  0.00     0.024 A 
ENDBRANCH   8   9
ENDBRANCH   6   8
ENDBRANCH   3   4
ENDBRANCH   2   3
ENDBRANCH   1   2
BRANCH   1  30
ATOM     30  N   UNL A   1      34.880  31.919  29.218  1.00  0.00    -0.352 N 
ATOM     31  C   UNL A   1      35.794  31.655  30.201  1.00  0.00     0.251 C 
ATOM     32  H   UNL A   1      34.024  32.254  29.572  1.00  0.00     0.163 HD
ATOM     33  O   UNL A   1      35.475  31.996  31.342  1.00  0.00    -0.269 OA
BRANCH  31  34
ATOM     34  C   UNL A   1      37.069  30.929  29.993  1.00  0.00     0.039 A 
ATOM     35  C   UNL A   1      37.185  29.549  29.815  1.00  0.00     0.014 A 
ATOM     36  C   UNL A   1      38.237  31.708  30.043  1.00  0.00     0.014 A 
ATOM     37  C   UNL A   1      38.427  28.941  29.835  1.00  0.00     0.010 A 
ATOM     38  C   UNL A   1      39.487  31.111  30.022  1.00  0.00     0.010 A 
ATOM     39  C   UNL A   1      39.568  29.721  29.983  1.00  0.00    -0.014 A 
BRANCH  39  40
ATOM     40  C   UNL A   1      40.847  29.031  30.003  1.00  0.00     0.031 A 
ATOM     41  C   UNL A   1      41.383  28.735  31.364  1.00  0.00     0.074 A 
ATOM     42  C   UNL A   1      41.425  28.601  28.866  1.00  0.00     0.049 A 
ATOM     43  N   UNL A   1      42.528  29.070  31.867  1.00  0.00    -0.248 NA
ATOM     44  C   UNL A   1      40.472  28.089  32.325  1.00  0.00     0.031 C 
ATOM     45  C   UNL A   1      40.871  28.626  27.510  1.00  0.00     0.029 A 
ATOM     46  N   UNL A   1      42.570  27.886  28.719  1.00  0.00    -0.354 N 
ATOM     47  C   UNL A   1      42.554  28.516  33.146  1.00  0.00     0.074 A 
ATOM     48  C   UNL A   1      41.221  28.048  33.425  1.00  0.00     0.031 C 
ATOM     49  C   UNL A   1      41.527  27.720  26.755  1.00  0.00     0.029 A 
ATOM     50  C   UNL A   1      42.604  27.147  27.540  1.00  0.00     0.049 A 
ATOM     51  H   UNL A   1      43.302  27.892  29.378  1.00  0.00     0.167 HD
ATOM     52  C   UNL A   1      43.706  28.297  33.837  1.00  0.00     0.034 A 
ATOM     53  C   UNL A   1      43.386  26.066  27.302  1.00  0.00     0.034 A 
ATOM     54  C   UNL A   1      44.826  28.996  33.286  1.00  0.00     0.049 A 
ATOM     55  C   UNL A   1      44.506  26.123  28.276  1.00  0.00     0.074 A 
ATOM     56  C   UNL A   1      45.146  30.327  33.112  1.00  0.00     0.029 A 
ATOM     57  N   UNL A   1      45.668  28.289  32.463  1.00  0.00    -0.354 N 
ATOM     58  N   UNL A   1      45.423  27.051  28.266  1.00  0.00    -0.248 NA
ATOM     59  C   UNL A   1      44.363  25.399  29.531  1.00  0.00     0.031 C 
ATOM     60  C   UNL A   1      45.807  30.379  31.853  1.00  0.00     0.029 A 
ATOM     61  C   UNL A   1      45.893  29.074  31.362  1.00  0.00     0.049 A 
ATOM     62  H   UNL A   1      46.038  27.392  32.630  1.00  0.00     0.167 HD
ATOM     63  C   UNL A   1      45.662  27.322  29.606  1.00  0.00     0.074 A 
ATOM     64  C   UNL A   1      45.064  26.204  30.335  1.00  0.00     0.031 C 
ATOM     65  C   UNL A   1      46.055  28.561  30.020  1.00  0.00     0.034 A 
BRANCH  52  66
ATOM     66  C   UNL A   1      43.872  27.200  34.846  1.00  0.00     0.023 A 
ATOM     67  C   UNL A   1      44.071  27.538  36.199  1.00  0.00     0.012 A 
ATOM     68  C   UNL A   1      44.083  25.855  34.468  1.00  0.00     0.148 A 
ATOM     69  C   UNL A   1      44.454  26.572  37.137  1.00  0.00     0.002 A 
ATOM     70  C   UNL A   1      44.393  24.887  35.414  1.00  0.00     0.091 A 
ATOM     71  F   UNL A   1      44.104  25.534  33.169  1.00  0.00    -0.205 F 
ATOM     72  C   UNL A   1      44.598  25.243  36.749  1.00  0.00     0.022 A 
BRANCH  70  73
ATOM     73  S   UNL A   1      44.549  23.157  34.963  1.00  0.00     0.127 S 
ATOM     74  O   UNL A   1      45.656  23.200  34.012  1.00  0.00    -0.237 OA
ATOM     75  O   UNL A   1      44.861  22.537  36.252  1.00  0.00    -0.237 OA
ATOM     76  O   UNL A   1      43.249  22.782  34.421  1.00  0.00    -0.744 OA
ENDBRANCH  70  73
ENDBRANCH  52  66
BRANCH  53  77
ATOM     77  C   UNL A   1      43.102  24.861  26.480  1.00  0.00     0.023 A 
ATOM     78  C   UNL A   1      43.978  24.523  25.429  1.00  0.00     0.012 A 
ATOM     79  C   UNL A   1      42.131  23.903  26.858  1.00  0.00     0.148 A 
ATOM     80  C   UNL A   1      43.913  23.271  24.804  1.00  0.00     0.002 A 
ATOM     81  C   UNL A   1      42.054  22.670  26.216  1.00  0.00     0.091 A 
ATOM     82  F   UNL A   1      41.342  24.151  27.911  1.00  0.00    -0.205 F 
ATOM     83  C   UNL A   1      42.955  22.343  25.198  1.00  0.00     0.022 A 
BRANCH  81  84
ATOM     84  S   UNL A   1      40.830  21.434  26.679  1.00  0.00     0.127 S 
ATOM     85  O   UNL A   1      39.604  21.981  26.098  1.00  0.00    -0.237 OA
ATOM     86  O   UNL A   1      41.341  20.238  26.017  1.00  0.00    -0.237 OA
ATOM     87  O   UNL A   1      40.835  21.407  28.137  1.00  0.00    -0.744 OA
ENDBRANCH  81  84
ENDBRANCH  53  77
BRANCH  65  88
ATOM     88  C   UNL A   1      46.396  29.589  28.970  1.00  0.00     0.023 A 
ATOM     89  C   UNL A   1      47.670  29.626  28.366  1.00  0.00     0.012 A 
ATOM     90  C   UNL A   1      45.357  30.353  28.416  1.00  0.00     0.148 A 
ATOM     91  C   UNL A   1      47.906  30.412  27.236  1.00  0.00     0.002 A 
ATOM     92  C   UNL A   1      45.584  31.101  27.268  1.00  0.00     0.091 A 
ATOM     93  F   UNL A   1      44.147  30.287  28.993  1.00  0.00    -0.205 F 
ATOM     94  C   UNL A   1      46.858  31.138  26.677  1.00  0.00     0.022 A 
BRANCH  92  95
ATOM     95  S   UNL A   1      44.256  31.956  26.415  1.00  0.00     0.127 S 
ATOM     96  O   UNL A   1      43.302  30.876  26.174  1.00  0.00    -0.237 OA
ATOM     97  O   UNL A   1      43.829  32.939  27.413  1.00  0.00    -0.237 OA
ATOM     98  O   UNL A   1      44.851  32.540  25.220  1.00  0.00    -0.744 OA
ENDBRANCH  92  95
ENDBRANCH  65  88
ENDBRANCH  39  40
ENDBRANCH  31  34
ENDBRANCH   1  30
TORSDOF 14
ENDMDL
