MODEL 1
REMARK VINA RESULT:     -12.3      0.000      0.000
REMARK SMILES O=C(NCCCNC(=O)c1conc1-c1ccc(Cl)cc1)c1ccc(-c2c3nc(c(-c4cccc(S(=O)(=O)[O-])c4F)c4ccc([nH]4)c(-c4cccc(S(=O)(=O)[O-])c4F)c4nc(c(-c5cccc(S(=O)(=O)[O-])c5F)c5ccc2[nH]5)C=C4)C=C3)cc1
REMARK SMILES IDX 4 1 3 2 1 3 2 4 22 6 23 7 84 8 24 9 83 10 25 11 26 12 27 13
REMARK SMILES IDX 77 14 28 15 82 16 76 17 78 18 29 19 81 20 75 21 74 22 30 24
REMARK SMILES IDX 62 25 42 26 61 27 43 28 46 29 60 30 79 31 44 32 45 33 59 35
REMARK SMILES IDX 80 36 47 37 31 38 32 39 40 40 33 41 35 42 41 43 34 44 36 45
REMARK SMILES IDX 37 46 38 47 39 48 63 49 64 50 72 51 65 52 67 53 73 54 66 55
REMARK SMILES IDX 68 56 69 57 70 58 71 59 48 60 49 61 57 62 50 63 52 64 58 65
REMARK SMILES IDX 51 66 53 67 54 68 55 69 56 70 5 71 6 72 7 73 8 74 9 76 10 77
REMARK SMILES IDX 11 78 14 79 12 80 13 81 15 82 16 83 21 84 17 85 20 86 18 87
REMARK SMILES IDX 19 88
REMARK H PARENT 3 5 78 23 46 34 7 75
REMARK Flexibility Score: inf
ROOT
ATOM      1  C   UNL A   1      33.077  29.979  26.219  1.00  0.00     0.118 C 
ENDROOT
BRANCH   1   2
ATOM      2  N   UNL A   1      32.946  31.338  26.715  1.00  0.00    -0.352 N 
ATOM      3  O   UNL A   1      33.270  33.130  28.004  1.00  0.00    -0.269 OA
ATOM      4  C   UNL A   1      33.707  32.051  27.607  1.00  0.00     0.251 C 
ATOM      5  H   UNL A   1      32.178  31.833  26.348  1.00  0.00     0.163 HD
BRANCH   4   6
ATOM      6  C   UNL A   1      35.019  31.565  28.094  1.00  0.00     0.039 A 
ATOM      7  C   UNL A   1      36.151  32.385  28.119  1.00  0.00     0.014 A 
ATOM      8  C   UNL A   1      35.084  30.281  28.653  1.00  0.00     0.014 A 
ATOM      9  C   UNL A   1      37.355  31.900  28.639  1.00  0.00     0.010 A 
ATOM     10  C   UNL A   1      36.278  29.809  29.206  1.00  0.00     0.010 A 
ATOM     11  C   UNL A   1      37.426  30.612  29.192  1.00  0.00    -0.014 A 
BRANCH  11  12
ATOM     12  C   UNL A   1      38.687  30.156  29.826  1.00  0.00     0.031 A 
ATOM     13  C   UNL A   1      39.079  30.622  31.197  1.00  0.00     0.074 A 
ATOM     14  C   UNL A   1      39.476  29.291  29.160  1.00  0.00     0.049 A 
ATOM     15  N   UNL A   1      40.040  30.182  31.967  1.00  0.00    -0.248 NA
ATOM     16  C   UNL A   1      38.288  31.714  31.783  1.00  0.00     0.031 C 
ATOM     17  C   UNL A   1      39.230  28.797  27.805  1.00  0.00     0.029 A 
ATOM     18  N   UNL A   1      40.635  28.663  29.541  1.00  0.00    -0.354 N 
ATOM     19  C   UNL A   1      39.972  30.938  33.130  1.00  0.00     0.074 A 
ATOM     20  C   UNL A   1      38.886  31.879  32.957  1.00  0.00     0.031 C 
ATOM     21  C   UNL A   1      40.186  27.912  27.481  1.00  0.00     0.029 A 
ATOM     22  C   UNL A   1      41.114  27.782  28.601  1.00  0.00     0.049 A 
ATOM     23  H   UNL A   1      41.081  28.829  30.403  1.00  0.00     0.167 HD
ATOM     24  C   UNL A   1      40.719  30.825  34.254  1.00  0.00     0.034 A 
ATOM     25  C   UNL A   1      42.164  26.941  28.649  1.00  0.00     0.034 A 
ATOM     26  C   UNL A   1      41.760  29.850  34.446  1.00  0.00     0.049 A 
ATOM     27  C   UNL A   1      43.006  26.878  29.890  1.00  0.00     0.074 A 
ATOM     28  C   UNL A   1      42.470  29.554  35.599  1.00  0.00     0.029 A 
ATOM     29  N   UNL A   1      42.258  29.027  33.450  1.00  0.00    -0.354 N 
ATOM     30  N   UNL A   1      42.803  27.452  31.049  1.00  0.00    -0.248 NA
ATOM     31  C   UNL A   1      44.212  26.040  29.831  1.00  0.00     0.031 C 
ATOM     32  C   UNL A   1      43.394  28.545  35.298  1.00  0.00     0.029 A 
ATOM     33  C   UNL A   1      43.281  28.241  33.952  1.00  0.00     0.049 A 
ATOM     34  H   UNL A   1      41.931  29.003  32.521  1.00  0.00     0.167 HD
ATOM     35  C   UNL A   1      43.838  27.022  31.869  1.00  0.00     0.074 A 
ATOM     36  C   UNL A   1      44.670  26.142  31.074  1.00  0.00     0.031 C 
ATOM     37  C   UNL A   1      44.076  27.336  33.165  1.00  0.00     0.034 A 
BRANCH  24  38
ATOM     38  C   UNL A   1      40.355  31.713  35.408  1.00  0.00     0.023 A 
ATOM     39  C   UNL A   1      41.172  32.827  35.681  1.00  0.00     0.012 A 
ATOM     40  C   UNL A   1      39.225  31.475  36.208  1.00  0.00     0.148 A 
ATOM     41  C   UNL A   1      40.867  33.694  36.731  1.00  0.00     0.002 A 
ATOM     42  C   UNL A   1      38.933  32.338  37.261  1.00  0.00     0.091 A 
ATOM     43  F   UNL A   1      38.464  30.398  35.957  1.00  0.00    -0.205 F 
ATOM     44  C   UNL A   1      39.747  33.450  37.522  1.00  0.00     0.022 A 
BRANCH  42  45
ATOM     45  S   UNL A   1      37.521  32.004  38.315  1.00  0.00     0.127 S 
ATOM     46  O   UNL A   1      36.494  32.877  37.753  1.00  0.00    -0.237 OA
ATOM     47  O   UNL A   1      37.273  30.576  38.105  1.00  0.00    -0.237 OA
ATOM     48  O   UNL A   1      38.006  32.339  39.649  1.00  0.00    -0.744 OA
ENDBRANCH  42  45
ENDBRANCH  24  38
BRANCH  25  49
ATOM     49  C   UNL A   1      42.405  26.006  27.521  1.00  0.00     0.023 A 
ATOM     50  C   UNL A   1      43.186  26.443  26.435  1.00  0.00     0.012 A 
ATOM     51  C   UNL A   1      41.922  24.688  27.534  1.00  0.00     0.148 A 
ATOM     52  C   UNL A   1      43.479  25.579  25.379  1.00  0.00     0.002 A 
ATOM     53  C   UNL A   1      42.240  23.825  26.490  1.00  0.00     0.091 A 
ATOM     54  F   UNL A   1      41.180  24.280  28.575  1.00  0.00    -0.205 F 
ATOM     55  C   UNL A   1      43.012  24.266  25.408  1.00  0.00     0.022 A 
BRANCH  53  56
ATOM     56  S   UNL A   1      41.700  22.116  26.567  1.00  0.00     0.127 S 
ATOM     57  O   UNL A   1      40.247  22.233  26.516  1.00  0.00    -0.237 OA
ATOM     58  O   UNL A   1      42.303  21.517  25.376  1.00  0.00    -0.237 OA
ATOM     59  O   UNL A   1      42.276  21.654  27.826  1.00  0.00    -0.744 OA
ENDBRANCH  53  56
ENDBRANCH  25  49
BRANCH  37  60
ATOM     60  C   UNL A   1      45.291  26.733  33.805  1.00  0.00     0.023 A 
ATOM     61  C   UNL A   1      46.485  27.476  33.829  1.00  0.00     0.012 A 
ATOM     62  C   UNL A   1      45.249  25.471  34.422  1.00  0.00     0.148 A 
ATOM     63  C   UNL A   1      47.626  26.964  34.449  1.00  0.00     0.002 A 
ATOM     64  C   UNL A   1      46.387  24.972  35.048  1.00  0.00     0.091 A 
ATOM     65  F   UNL A   1      44.104  24.770  34.397  1.00  0.00    -0.205 F 
ATOM     66  C   UNL A   1      47.577  25.713  35.062  1.00  0.00     0.022 A 
BRANCH  64  67
ATOM     67  S   UNL A   1      46.321  23.370  35.855  1.00  0.00     0.127 S 
ATOM     68  O   UNL A   1      47.650  23.249  36.447  1.00  0.00    -0.237 OA
ATOM     69  O   UNL A   1      45.243  23.528  36.834  1.00  0.00    -0.237 OA
ATOM     70  O   UNL A   1      46.007  22.457  34.761  1.00  0.00    -0.744 OA
ENDBRANCH  64  67
ENDBRANCH  37  60
ENDBRANCH  11  12
ENDBRANCH   4   6
ENDBRANCH   1   2
BRANCH   1  71
ATOM     71  C   UNL A   1      32.155  28.996  26.944  1.00  0.00     0.042 C 
BRANCH  71  72
ATOM     72  C   UNL A   1      32.427  27.520  26.656  1.00  0.00     0.118 C 
BRANCH  72  73
ATOM     73  N   UNL A   1      31.272  26.673  26.900  1.00  0.00    -0.352 N 
ATOM     74  C   UNL A   1      30.499  25.929  26.045  1.00  0.00     0.256 C 
ATOM     75  H   UNL A   1      30.996  26.623  27.844  1.00  0.00     0.163 HD
ATOM     76  O   UNL A   1      29.453  25.455  26.482  1.00  0.00    -0.269 OA
BRANCH  74  77
ATOM     77  C   UNL A   1      30.908  25.723  24.676  1.00  0.00     0.107 A 
ATOM     78  C   UNL A   1      31.535  24.616  24.156  1.00  0.00     0.245 A 
ATOM     79  C   UNL A   1      30.620  26.519  23.522  1.00  0.00     0.126 A 
ATOM     80  O   UNL A   1      31.672  24.744  22.819  1.00  0.00    -0.363 OA
ATOM     81  N   UNL A   1      31.100  25.928  22.414  1.00  0.00    -0.079 NA
BRANCH  79  82
ATOM     82  C   UNL A   1      29.911  27.795  23.426  1.00  0.00     0.005 A 
ATOM     83  C   UNL A   1      30.576  29.016  23.611  1.00  0.00     0.012 A 
ATOM     84  C   UNL A   1      28.538  27.810  23.131  1.00  0.00     0.012 A 
ATOM     85  C   UNL A   1      29.877  30.225  23.517  1.00  0.00     0.021 A 
ATOM     86  C   UNL A   1      27.840  29.017  23.039  1.00  0.00     0.021 A 
ATOM     87  C   UNL A   1      28.513  30.220  23.235  1.00  0.00     0.041 A 
ATOM     88  Cl  UNL A   1      27.653  31.706  23.126  1.00  0.00    -0.084 Cl
ENDBRANCH  79  82
ENDBRANCH  74  77
ENDBRANCH  72  73
ENDBRANCH  71  72
ENDBRANCH   1  71
TORSDOF 14
ENDMDL
MODEL 2
REMARK VINA RESULT:     -12.2      1.364      1.632
REMARK SMILES O=C(NCCCNC(=O)c1conc1-c1ccc(Cl)cc1)c1ccc(-c2c3nc(c(-c4cccc(S(=O)(=O)[O-])c4F)c4ccc([nH]4)c(-c4cccc(S(=O)(=O)[O-])c4F)c4nc(c(-c5cccc(S(=O)(=O)[O-])c5F)c5ccc2[nH]5)C=C4)C=C3)cc1
REMARK SMILES IDX 4 1 3 2 1 3 2 4 22 6 23 7 84 8 24 9 83 10 25 11 26 12 27 13
REMARK SMILES IDX 77 14 28 15 82 16 76 17 78 18 29 19 81 20 75 21 74 22 30 24
REMARK SMILES IDX 62 25 42 26 61 27 43 28 46 29 60 30 79 31 44 32 45 33 59 35
REMARK SMILES IDX 80 36 47 37 31 38 32 39 40 40 33 41 35 42 41 43 34 44 36 45
REMARK SMILES IDX 37 46 38 47 39 48 63 49 64 50 72 51 65 52 67 53 73 54 66 55
REMARK SMILES IDX 68 56 69 57 70 58 71 59 48 60 49 61 57 62 50 63 52 64 58 65
REMARK SMILES IDX 51 66 53 67 54 68 55 69 56 70 5 71 6 72 7 73 8 74 9 76 10 77
REMARK SMILES IDX 11 78 14 79 12 80 13 81 15 82 16 83 21 84 17 85 20 86 18 87
REMARK SMILES IDX 19 88
REMARK H PARENT 3 5 78 23 46 34 7 75
REMARK Flexibility Score: inf
ROOT
ATOM      1  C   UNL A   1      32.683  29.969  26.000  1.00  0.00     0.118 C 
ENDROOT
BRANCH   1   2
ATOM      2  N   UNL A   1      32.489  31.347  26.419  1.00  0.00    -0.352 N 
ATOM      3  O   UNL A   1      32.700  33.212  27.623  1.00  0.00    -0.269 OA
ATOM      4  C   UNL A   1      33.188  32.130  27.300  1.00  0.00     0.251 C 
ATOM      5  H   UNL A   1      31.721  31.795  25.996  1.00  0.00     0.163 HD
BRANCH   4   6
ATOM      6  C   UNL A   1      34.494  31.716  27.863  1.00  0.00     0.039 A 
ATOM      7  C   UNL A   1      35.561  32.610  28.001  1.00  0.00     0.014 A 
ATOM      8  C   UNL A   1      34.612  30.417  28.379  1.00  0.00     0.014 A 
ATOM      9  C   UNL A   1      36.757  32.187  28.590  1.00  0.00     0.010 A 
ATOM     10  C   UNL A   1      35.795  30.005  28.999  1.00  0.00     0.010 A 
ATOM     11  C   UNL A   1      36.881  30.885  29.098  1.00  0.00    -0.014 A 
BRANCH  11  12
ATOM     12  C   UNL A   1      38.123  30.490  29.806  1.00  0.00     0.031 A 
ATOM     13  C   UNL A   1      38.403  30.958  31.203  1.00  0.00     0.074 A 
ATOM     14  C   UNL A   1      38.999  29.679  29.182  1.00  0.00     0.049 A 
ATOM     15  N   UNL A   1      39.338  30.561  32.027  1.00  0.00    -0.248 NA
ATOM     16  C   UNL A   1      37.517  31.997  31.750  1.00  0.00     0.031 C 
ATOM     17  C   UNL A   1      38.865  29.191  27.808  1.00  0.00     0.029 A 
ATOM     18  N   UNL A   1      40.166  29.111  29.627  1.00  0.00    -0.354 N 
ATOM     19  C   UNL A   1      39.156  31.296  33.191  1.00  0.00     0.074 A 
ATOM     20  C   UNL A   1      38.031  32.179  32.960  1.00  0.00     0.031 C 
ATOM     21  C   UNL A   1      39.888  28.365  27.536  1.00  0.00     0.029 A 
ATOM     22  C   UNL A   1      40.751  28.270  28.710  1.00  0.00     0.049 A 
ATOM     23  H   UNL A   1      40.547  29.289  30.517  1.00  0.00     0.167 HD
ATOM     24  C   UNL A   1      39.837  31.210  34.359  1.00  0.00     0.034 A 
ATOM     25  C   UNL A   1      41.840  27.488  28.815  1.00  0.00     0.034 A 
ATOM     26  C   UNL A   1      40.917  30.291  34.605  1.00  0.00     0.049 A 
ATOM     27  C   UNL A   1      42.606  27.454  30.106  1.00  0.00     0.074 A 
ATOM     28  C   UNL A   1      41.569  30.019  35.797  1.00  0.00     0.029 A 
ATOM     29  N   UNL A   1      41.520  29.510  33.634  1.00  0.00    -0.354 N 
ATOM     30  N   UNL A   1      42.300  28.001  31.256  1.00  0.00    -0.248 NA
ATOM     31  C   UNL A   1      43.859  26.686  30.114  1.00  0.00     0.031 C 
ATOM     32  C   UNL A   1      42.565  29.066  35.544  1.00  0.00     0.029 A 
ATOM     33  C   UNL A   1      42.553  28.775  34.190  1.00  0.00     0.049 A 
ATOM     34  H   UNL A   1      41.254  29.481  32.686  1.00  0.00     0.167 HD
ATOM     35  C   UNL A   1      43.305  27.617  32.134  1.00  0.00     0.074 A 
ATOM     36  C   UNL A   1      44.232  26.796  31.384  1.00  0.00     0.031 C 
ATOM     37  C   UNL A   1      43.445  27.926  33.446  1.00  0.00     0.034 A 
BRANCH  24  38
ATOM     38  C   UNL A   1      39.353  32.061  35.496  1.00  0.00     0.023 A 
ATOM     39  C   UNL A   1      38.357  31.542  36.346  1.00  0.00     0.012 A 
ATOM     40  C   UNL A   1      39.871  33.343  35.744  1.00  0.00     0.148 A 
ATOM     41  C   UNL A   1      37.886  32.285  37.428  1.00  0.00     0.002 A 
ATOM     42  C   UNL A   1      39.388  34.083  36.820  1.00  0.00     0.091 A 
ATOM     43  F   UNL A   1      40.803  33.841  34.916  1.00  0.00    -0.205 F 
ATOM     44  C   UNL A   1      38.402  33.557  37.666  1.00  0.00     0.022 A 
BRANCH  42  45
ATOM     45  S   UNL A   1      40.011  35.741  37.104  1.00  0.00     0.127 S 
ATOM     46  O   UNL A   1      41.445  35.516  37.268  1.00  0.00    -0.237 OA
ATOM     47  O   UNL A   1      39.653  36.453  35.876  1.00  0.00    -0.237 OA
ATOM     48  O   UNL A   1      39.279  36.181  38.287  1.00  0.00    -0.744 OA
ENDBRANCH  42  45
ENDBRANCH  24  38
BRANCH  25  49
ATOM     49  C   UNL A   1      42.203  26.583  27.695  1.00  0.00     0.023 A 
ATOM     50  C   UNL A   1      43.057  27.065  26.685  1.00  0.00     0.012 A 
ATOM     51  C   UNL A   1      41.762  25.251  27.645  1.00  0.00     0.148 A 
ATOM     52  C   UNL A   1      43.463  26.231  25.642  1.00  0.00     0.002 A 
ATOM     53  C   UNL A   1      42.191  24.419  26.616  1.00  0.00     0.091 A 
ATOM     54  F   UNL A   1      40.950  24.801  28.614  1.00  0.00    -0.205 F 
ATOM     55  C   UNL A   1      43.036  24.905  25.610  1.00  0.00     0.022 A 
BRANCH  53  56
ATOM     56  S   UNL A   1      41.700  22.693  26.619  1.00  0.00     0.127 S 
ATOM     57  O   UNL A   1      42.280  22.194  27.860  1.00  0.00    -0.237 OA
ATOM     58  O   UNL A   1      40.238  22.760  26.616  1.00  0.00    -0.237 OA
ATOM     59  O   UNL A   1      42.278  22.193  25.376  1.00  0.00    -0.744 OA
ENDBRANCH  53  56
ENDBRANCH  25  49
BRANCH  37  60
ATOM     60  C   UNL A   1      44.649  27.382  34.155  1.00  0.00     0.023 A 
ATOM     61  C   UNL A   1      45.835  28.140  34.158  1.00  0.00     0.012 A 
ATOM     62  C   UNL A   1      44.605  26.163  34.853  1.00  0.00     0.148 A 
ATOM     63  C   UNL A   1      46.964  27.685  34.839  1.00  0.00     0.002 A 
ATOM     64  C   UNL A   1      45.733  25.722  35.538  1.00  0.00     0.091 A 
ATOM     65  F   UNL A   1      43.469  25.448  34.846  1.00  0.00    -0.205 F 
ATOM     66  C   UNL A   1      46.914  26.476  35.532  1.00  0.00     0.022 A 
BRANCH  64  67
ATOM     67  S   UNL A   1      45.663  24.176  36.449  1.00  0.00     0.127 S 
ATOM     68  O   UNL A   1      47.005  24.071  37.014  1.00  0.00    -0.237 OA
ATOM     69  O   UNL A   1      44.613  24.414  37.441  1.00  0.00    -0.237 OA
ATOM     70  O   UNL A   1      45.308  23.200  35.424  1.00  0.00    -0.744 OA
ENDBRANCH  64  67
ENDBRANCH  37  60
ENDBRANCH  11  12
ENDBRANCH   4   6
ENDBRANCH   1   2
BRANCH   1  71
ATOM     71  C   UNL A   1      31.778  28.991  26.753  1.00  0.00     0.042 C 
BRANCH  71  72
ATOM     72  C   UNL A   1      32.176  27.520  26.635  1.00  0.00     0.118 C 
BRANCH  72  73
ATOM     73  N   UNL A   1      31.067  26.613  26.878  1.00  0.00    -0.352 N 
ATOM     74  C   UNL A   1      30.359  25.801  26.027  1.00  0.00     0.256 C 
ATOM     75  H   UNL A   1      30.771  26.573  27.816  1.00  0.00     0.163 HD
ATOM     76  O   UNL A   1      29.333  25.278  26.455  1.00  0.00    -0.269 OA
BRANCH  74  77
ATOM     77  C   UNL A   1      30.813  25.582  24.675  1.00  0.00     0.107 A 
ATOM     78  C   UNL A   1      31.449  24.466  24.185  1.00  0.00     0.245 A 
ATOM     79  C   UNL A   1      30.570  26.370  23.505  1.00  0.00     0.126 A 
ATOM     80  O   UNL A   1      31.632  24.583  22.852  1.00  0.00    -0.363 OA
ATOM     81  N   UNL A   1      31.082  25.767  22.419  1.00  0.00    -0.079 NA
BRANCH  79  82
ATOM     82  C   UNL A   1      29.873  27.650  23.376  1.00  0.00     0.005 A 
ATOM     83  C   UNL A   1      30.573  28.865  23.366  1.00  0.00     0.012 A 
ATOM     84  C   UNL A   1      28.474  27.673  23.246  1.00  0.00     0.012 A 
ATOM     85  C   UNL A   1      29.885  30.079  23.243  1.00  0.00     0.021 A 
ATOM     86  C   UNL A   1      27.788  28.884  23.126  1.00  0.00     0.021 A 
ATOM     87  C   UNL A   1      28.498  30.083  23.128  1.00  0.00     0.041 A 
ATOM     88  Cl  UNL A   1      27.653  31.575  22.983  1.00  0.00    -0.084 Cl
ENDBRANCH  79  82
ENDBRANCH  74  77
ENDBRANCH  72  73
ENDBRANCH  71  72
ENDBRANCH   1  71
TORSDOF 14
ENDMDL
MODEL 3
REMARK VINA RESULT:     -12.0      6.684     11.380
REMARK SMILES O=C(NCCCNC(=O)c1conc1-c1ccc(Cl)cc1)c1ccc(-c2c3nc(c(-c4cccc(S(=O)(=O)[O-])c4F)c4ccc([nH]4)c(-c4cccc(S(=O)(=O)[O-])c4F)c4nc(c(-c5cccc(S(=O)(=O)[O-])c5F)c5ccc2[nH]5)C=C4)C=C3)cc1
REMARK SMILES IDX 4 1 3 2 1 3 2 4 22 6 23 7 84 8 24 9 83 10 25 11 26 12 27 13
REMARK SMILES IDX 77 14 28 15 82 16 76 17 78 18 29 19 81 20 75 21 74 22 30 24
REMARK SMILES IDX 62 25 42 26 61 27 43 28 46 29 60 30 79 31 44 32 45 33 59 35
REMARK SMILES IDX 80 36 47 37 31 38 32 39 40 40 33 41 35 42 41 43 34 44 36 45
REMARK SMILES IDX 37 46 38 47 39 48 63 49 64 50 72 51 65 52 67 53 73 54 66 55
REMARK SMILES IDX 68 56 69 57 70 58 71 59 48 60 49 61 57 62 50 63 52 64 58 65
REMARK SMILES IDX 51 66 53 67 54 68 55 69 56 70 5 71 6 72 7 73 8 74 9 76 10 77
REMARK SMILES IDX 11 78 14 79 12 80 13 81 15 82 16 83 21 84 17 85 20 86 18 87
REMARK SMILES IDX 19 88
REMARK H PARENT 3 5 78 23 46 34 7 75
REMARK Flexibility Score: inf
ROOT
ATOM      1  C   UNL A   1      39.059  20.363  25.814  1.00  0.00     0.118 C 
ENDROOT
BRANCH   1   2
ATOM      2  N   UNL A   1      40.139  19.393  25.877  1.00  0.00    -0.352 N 
ATOM      3  O   UNL A   1      42.213  18.575  25.854  1.00  0.00    -0.269 OA
ATOM      4  C   UNL A   1      41.492  19.557  26.022  1.00  0.00     0.251 C 
ATOM      5  H   UNL A   1      39.847  18.456  25.804  1.00  0.00     0.163 HD
BRANCH   4   6
ATOM      6  C   UNL A   1      42.099  20.863  26.370  1.00  0.00     0.039 A 
ATOM      7  C   UNL A   1      42.363  21.840  25.404  1.00  0.00     0.014 A 
ATOM      8  C   UNL A   1      42.298  21.161  27.725  1.00  0.00     0.014 A 
ATOM      9  C   UNL A   1      42.885  23.079  25.787  1.00  0.00     0.010 A 
ATOM     10  C   UNL A   1      42.786  22.413  28.111  1.00  0.00     0.010 A 
ATOM     11  C   UNL A   1      43.094  23.378  27.143  1.00  0.00    -0.014 A 
BRANCH  11  12
ATOM     12  C   UNL A   1      43.556  24.733  27.532  1.00  0.00     0.031 A 
ATOM     13  C   UNL A   1      44.987  25.145  27.357  1.00  0.00     0.074 A 
ATOM     14  C   UNL A   1      42.661  25.608  28.029  1.00  0.00     0.049 A 
ATOM     15  N   UNL A   1      45.514  26.337  27.469  1.00  0.00    -0.248 NA
ATOM     16  C   UNL A   1      45.948  24.090  27.005  1.00  0.00     0.031 C 
ATOM     17  C   UNL A   1      41.250  25.316  28.289  1.00  0.00     0.029 A 
ATOM     18  N   UNL A   1      42.803  26.924  28.389  1.00  0.00    -0.354 N 
ATOM     19  C   UNL A   1      46.868  26.180  27.198  1.00  0.00     0.074 A 
ATOM     20  C   UNL A   1      47.084  24.773  26.936  1.00  0.00     0.031 C 
ATOM     21  C   UNL A   1      40.647  26.432  28.730  1.00  0.00     0.029 A 
ATOM     22  C   UNL A   1      41.626  27.513  28.789  1.00  0.00     0.049 A 
ATOM     23  H   UNL A   1      43.664  27.401  28.365  1.00  0.00     0.167 HD
ATOM     24  C   UNL A   1      47.830  27.131  27.132  1.00  0.00     0.034 A 
ATOM     25  C   UNL A   1      41.361  28.786  29.133  1.00  0.00     0.034 A 
ATOM     26  C   UNL A   1      47.601  28.537  27.336  1.00  0.00     0.049 A 
ATOM     27  C   UNL A   1      42.461  29.806  29.102  1.00  0.00     0.074 A 
ATOM     28  C   UNL A   1      48.474  29.595  27.142  1.00  0.00     0.029 A 
ATOM     29  N   UNL A   1      46.417  29.080  27.804  1.00  0.00    -0.354 N 
ATOM     30  N   UNL A   1      43.684  29.680  28.650  1.00  0.00    -0.248 NA
ATOM     31  C   UNL A   1      42.140  31.145  29.615  1.00  0.00     0.031 C 
ATOM     32  C   UNL A   1      47.812  30.780  27.489  1.00  0.00     0.029 A 
ATOM     33  C   UNL A   1      46.541  30.453  27.931  1.00  0.00     0.049 A 
ATOM     34  H   UNL A   1      45.604  28.565  28.016  1.00  0.00     0.167 HD
ATOM     35  C   UNL A   1      44.270  30.931  28.794  1.00  0.00     0.074 A 
ATOM     36  C   UNL A   1      43.271  31.801  29.380  1.00  0.00     0.031 C 
ATOM     37  C   UNL A   1      45.528  31.318  28.473  1.00  0.00     0.034 A 
BRANCH  24  38
ATOM     38  C   UNL A   1      49.201  26.687  26.713  1.00  0.00     0.023 A 
ATOM     39  C   UNL A   1      49.957  25.908  27.610  1.00  0.00     0.012 A 
ATOM     40  C   UNL A   1      49.742  27.012  25.458  1.00  0.00     0.148 A 
ATOM     41  C   UNL A   1      51.230  25.455  27.262  1.00  0.00     0.002 A 
ATOM     42  C   UNL A   1      51.017  26.566  25.122  1.00  0.00     0.091 A 
ATOM     43  F   UNL A   1      49.026  27.775  24.618  1.00  0.00    -0.205 F 
ATOM     44  C   UNL A   1      51.761  25.783  26.017  1.00  0.00     0.022 A 
BRANCH  42  45
ATOM     45  S   UNL A   1      51.728  27.026  23.541  1.00  0.00     0.127 S 
ATOM     46  O   UNL A   1      50.641  26.736  22.609  1.00  0.00    -0.237 OA
ATOM     47  O   UNL A   1      52.015  28.453  23.701  1.00  0.00    -0.237 OA
ATOM     48  O   UNL A   1      52.915  26.183  23.444  1.00  0.00    -0.744 OA
ENDBRANCH  42  45
ENDBRANCH  24  38
BRANCH  25  49
ATOM     49  C   UNL A   1      39.962  29.189  29.428  1.00  0.00     0.023 A 
ATOM     50  C   UNL A   1      39.089  29.438  28.353  1.00  0.00     0.012 A 
ATOM     51  C   UNL A   1      39.477  29.276  30.743  1.00  0.00     0.148 A 
ATOM     52  C   UNL A   1      37.754  29.769  28.586  1.00  0.00     0.002 A 
ATOM     53  C   UNL A   1      38.138  29.582  30.966  1.00  0.00     0.091 A 
ATOM     54  F   UNL A   1      40.317  29.035  31.761  1.00  0.00    -0.205 F 
ATOM     55  C   UNL A   1      37.275  29.835  29.893  1.00  0.00     0.022 A 
BRANCH  53  56
ATOM     56  S   UNL A   1      37.508  29.592  32.646  1.00  0.00     0.127 S 
ATOM     57  O   UNL A   1      37.548  28.182  33.015  1.00  0.00    -0.237 OA
ATOM     58  O   UNL A   1      38.469  30.434  33.360  1.00  0.00    -0.237 OA
ATOM     59  O   UNL A   1      36.187  30.192  32.490  1.00  0.00    -0.744 OA
ENDBRANCH  53  56
ENDBRANCH  25  49
BRANCH  37  60
ATOM     60  C   UNL A   1      45.901  32.742  28.757  1.00  0.00     0.023 A 
ATOM     61  C   UNL A   1      46.541  33.048  29.972  1.00  0.00     0.012 A 
ATOM     62  C   UNL A   1      45.673  33.764  27.819  1.00  0.00     0.148 A 
ATOM     63  C   UNL A   1      46.938  34.355  30.255  1.00  0.00     0.002 A 
ATOM     64  C   UNL A   1      46.081  35.064  28.105  1.00  0.00     0.091 A 
ATOM     65  F   UNL A   1      45.064  33.463  26.662  1.00  0.00    -0.205 F 
ATOM     66  C   UNL A   1      46.711  35.365  29.320  1.00  0.00     0.022 A 
BRANCH  64  67
ATOM     67  S   UNL A   1      45.809  36.361  26.893  1.00  0.00     0.127 S 
ATOM     68  O   UNL A   1      44.355  36.386  26.765  1.00  0.00    -0.237 OA
ATOM     69  O   UNL A   1      46.375  37.549  27.536  1.00  0.00    -0.237 OA
ATOM     70  O   UNL A   1      46.559  35.895  25.731  1.00  0.00    -0.744 OA
ENDBRANCH  64  67
ENDBRANCH  37  60
ENDBRANCH  11  12
ENDBRANCH   4   6
ENDBRANCH   1   2
BRANCH   1  71
ATOM     71  C   UNL A   1      37.897  19.895  24.935  1.00  0.00     0.042 C 
BRANCH  71  72
ATOM     72  C   UNL A   1      36.765  20.908  24.765  1.00  0.00     0.118 C 
BRANCH  72  73
ATOM     73  N   UNL A   1      35.902  20.993  25.930  1.00  0.00    -0.352 N 
ATOM     74  C   UNL A   1      34.562  21.268  26.046  1.00  0.00     0.256 C 
ATOM     75  H   UNL A   1      36.357  20.823  26.787  1.00  0.00     0.163 HD
ATOM     76  O   UNL A   1      34.114  21.474  27.172  1.00  0.00    -0.269 OA
BRANCH  74  77
ATOM     77  C   UNL A   1      33.719  21.318  24.875  1.00  0.00     0.107 A 
ATOM     78  C   UNL A   1      33.462  22.413  24.086  1.00  0.00     0.245 A 
ATOM     79  C   UNL A   1      33.100  20.240  24.167  1.00  0.00     0.126 A 
ATOM     80  O   UNL A   1      32.708  22.055  23.025  1.00  0.00    -0.363 OA
ATOM     81  N   UNL A   1      32.480  20.698  23.065  1.00  0.00    -0.079 NA
BRANCH  79  82
ATOM     82  C   UNL A   1      33.079  18.811  24.482  1.00  0.00     0.005 A 
ATOM     83  C   UNL A   1      32.572  18.339  25.700  1.00  0.00     0.012 A 
ATOM     84  C   UNL A   1      33.563  17.883  23.544  1.00  0.00     0.012 A 
ATOM     85  C   UNL A   1      32.563  16.968  25.982  1.00  0.00     0.021 A 
ATOM     86  C   UNL A   1      33.557  16.515  23.826  1.00  0.00     0.021 A 
ATOM     87  C   UNL A   1      33.059  16.064  25.046  1.00  0.00     0.041 A 
ATOM     88  Cl  UNL A   1      33.054  14.378  25.395  1.00  0.00    -0.084 Cl
ENDBRANCH  79  82
ENDBRANCH  74  77
ENDBRANCH  72  73
ENDBRANCH  71  72
ENDBRANCH   1  71
TORSDOF 14
ENDMDL
