MODEL 1
REMARK VINA RESULT:     -12.8      0.000      0.000
REMARK SMILES COc1cc([C@H]2c3c(-c4ccccc4)n[nH]c3C(=O)N2c2ccc(C(=O)NCCCNC(=O)c3ccc(-c4c5nc(c(-c6cccc(S(=O)(=O)[O-])c6F)c6ccc([nH]6)c(-c6cccc(S(=O)(=O)[O-])c6F)c6nc(c(-c7cccc(S(=O)(=O)[O-])c7F)c7ccc4[nH]7)C=C6)C=C5)cc3)cc2)ccc1O
REMARK SMILES IDX 29 1 28 2 27 3 25 4 26 5 24 7 21 8 22 9 98 10 23 11 97 12
REMARK SMILES IDX 20 13 6 14 7 15 8 16 17 17 18 18 15 19 16 20 19 21 5 23 3 24
REMARK SMILES IDX 4 25 101 26 100 27 99 28 2 29 1 30 102 31 9 33 10 34 14 35
REMARK SMILES IDX 11 36 13 37 12 38 30 39 31 40 32 41 33 43 34 44 35 45 96 46
REMARK SMILES IDX 36 47 95 48 37 49 38 50 39 51 89 52 40 53 94 54 88 55 90 56
REMARK SMILES IDX 41 57 93 58 87 59 86 60 42 62 74 63 54 64 73 65 55 66 58 67
REMARK SMILES IDX 72 68 91 69 56 70 57 71 71 73 92 74 59 75 43 76 44 77 52 78
REMARK SMILES IDX 45 79 47 80 53 81 46 82 48 83 49 84 50 85 51 86 75 87 76 88
REMARK SMILES IDX 84 89 77 90 79 91 85 92 78 93 80 94 81 95 82 96 83 97 60 98
REMARK SMILES IDX 61 99 69 100 62 101 64 102 70 103 63 104 65 105 66 106
REMARK SMILES IDX 67 107 68 108
REMARK H PARENT 27 6 16 22 102 32 31 42 90 61 58 72
REMARK Flexibility Score: inf
ROOT
ATOM      1  C   UNL A   1      34.413  31.900  29.121  1.00  0.00     0.042 C 
ENDROOT
BRANCH   1   2
ATOM      2  C   UNL A   1      34.123  31.963  27.616  1.00  0.00     0.118 C 
BRANCH   2   3
ATOM      3  N   UNL A   1      32.720  32.216  27.342  1.00  0.00    -0.352 N 
ATOM      4  C   UNL A   1      31.769  31.534  26.624  1.00  0.00     0.251 C 
ATOM      5  O   UNL A   1      30.613  31.948  26.691  1.00  0.00    -0.269 OA
ATOM      6  H   UNL A   1      32.382  33.044  27.754  1.00  0.00     0.163 HD
BRANCH   4   7
ATOM      7  C   UNL A   1      32.046  30.303  25.827  1.00  0.00     0.039 A 
ATOM      8  C   UNL A   1      32.355  27.937  24.338  1.00  0.00     0.045 A 
ATOM      9  C   UNL A   1      31.233  28.737  24.139  1.00  0.00     0.027 A 
ATOM     10  C   UNL A   1      33.347  28.342  25.225  1.00  0.00     0.027 A 
ATOM     11  C   UNL A   1      31.067  29.896  24.905  1.00  0.00     0.016 A 
ATOM     12  C   UNL A   1      33.213  29.543  25.918  1.00  0.00     0.016 A 
BRANCH   8  13
ATOM     13  N   UNL A   1      32.509  26.732  23.644  1.00  0.00    -0.295 N 
ATOM     14  C   UNL A   1      33.066  25.517  24.300  1.00  0.00     0.156 C 
ATOM     15  C   UNL A   1      33.176  24.628  23.119  1.00  0.00     0.038 A 
ATOM     16  C   UNL A   1      33.591  23.364  22.670  1.00  0.00     0.099 A 
ATOM     17  C   UNL A   1      32.732  25.278  22.003  1.00  0.00     0.129 A 
ATOM     18  C   UNL A   1      32.262  26.583  22.274  1.00  0.00     0.277 C 
ATOM     19  N   UNL A   1      33.467  23.288  21.323  1.00  0.00    -0.174 NA
ATOM     20  N   UNL A   1      32.924  24.473  20.949  1.00  0.00    -0.272 N 
ATOM     21  O   UNL A   1      31.802  27.376  21.463  1.00  0.00    -0.267 OA
ATOM     22  H   UNL A   1      32.699  24.712  20.020  1.00  0.00     0.190 HD
BRANCH  14  23
ATOM     23  C   UNL A   1      32.101  24.882  25.282  1.00  0.00    -0.016 A 
ATOM     24  C   UNL A   1      31.736  23.354  27.183  1.00  0.00     0.160 A 
ATOM     25  C   UNL A   1      32.586  23.999  26.265  1.00  0.00     0.056 A 
ATOM     26  C   UNL A   1      30.366  23.607  27.104  1.00  0.00     0.157 A 
ATOM     27  C   UNL A   1      29.864  24.499  26.155  1.00  0.00     0.050 A 
ATOM     28  C   UNL A   1      30.723  25.144  25.263  1.00  0.00     0.010 A 
BRANCH  24  29
ATOM     29  O   UNL A   1      32.423  22.534  28.033  1.00  0.00    -0.493 OA
ATOM     30  C   UNL A   1      33.768  22.182  27.764  1.00  0.00     0.278 C 
ENDBRANCH  24  29
BRANCH  26  31
ATOM     31  O   UNL A   1      29.419  23.035  27.905  1.00  0.00    -0.504 OA
ATOM     32  H   UNL A   1      29.651  22.324  28.469  1.00  0.00     0.293 HD
ENDBRANCH  26  31
ENDBRANCH  14  23
BRANCH  16  33
ATOM     33  C   UNL A   1      34.090  22.235  23.441  1.00  0.00     0.002 A 
ATOM     34  C   UNL A   1      33.234  21.186  23.796  1.00  0.00     0.010 A 
ATOM     35  C   UNL A   1      35.419  22.208  23.879  1.00  0.00     0.010 A 
ATOM     36  C   UNL A   1      33.709  20.118  24.564  1.00  0.00     0.001 A 
ATOM     37  C   UNL A   1      35.895  21.141  24.641  1.00  0.00     0.001 A 
ATOM     38  C   UNL A   1      35.039  20.095  24.983  1.00  0.00     0.000 A 
ENDBRANCH  16  33
ENDBRANCH   8  13
ENDBRANCH   4   7
ENDBRANCH   2   3
ENDBRANCH   1   2
BRANCH   1  39
ATOM     39  C   UNL A   1      34.927  33.227  29.655  1.00  0.00     0.118 C 
BRANCH  39  40
ATOM     40  N   UNL A   1      35.033  33.214  31.115  1.00  0.00    -0.352 N 
ATOM     41  C   UNL A   1      35.790  32.379  31.909  1.00  0.00     0.251 C 
ATOM     42  H   UNL A   1      34.495  33.888  31.591  1.00  0.00     0.163 HD
ATOM     43  O   UNL A   1      35.520  32.242  33.097  1.00  0.00    -0.269 OA
BRANCH  41  44
ATOM     44  C   UNL A   1      36.916  31.652  31.302  1.00  0.00     0.039 A 
ATOM     45  C   UNL A   1      38.069  32.332  30.911  1.00  0.00     0.014 A 
ATOM     46  C   UNL A   1      36.823  30.267  31.174  1.00  0.00     0.014 A 
ATOM     47  C   UNL A   1      39.164  31.591  30.480  1.00  0.00     0.010 A 
ATOM     48  C   UNL A   1      37.949  29.529  30.892  1.00  0.00     0.010 A 
ATOM     49  C   UNL A   1      39.114  30.184  30.512  1.00  0.00    -0.014 A 
BRANCH  49  50
ATOM     50  C   UNL A   1      40.347  29.413  30.352  1.00  0.00     0.031 A 
ATOM     51  C   UNL A   1      40.993  29.118  31.658  1.00  0.00     0.074 A 
ATOM     52  C   UNL A   1      40.765  28.853  29.193  1.00  0.00     0.049 A 
ATOM     53  N   UNL A   1      42.009  29.728  32.176  1.00  0.00    -0.248 NA
ATOM     54  C   UNL A   1      40.310  28.212  32.600  1.00  0.00     0.031 C 
ATOM     55  C   UNL A   1      40.018  28.780  27.929  1.00  0.00     0.029 A 
ATOM     56  N   UNL A   1      41.882  28.114  28.916  1.00  0.00    -0.354 N 
ATOM     57  C   UNL A   1      42.294  29.011  33.337  1.00  0.00     0.074 A 
ATOM     58  C   UNL A   1      41.082  28.324  33.686  1.00  0.00     0.031 C 
ATOM     59  C   UNL A   1      40.559  27.829  27.136  1.00  0.00     0.029 A 
ATOM     60  C   UNL A   1      41.793  27.367  27.739  1.00  0.00     0.049 A 
ATOM     61  H   UNL A   1      42.677  28.108  29.496  1.00  0.00     0.167 HD
ATOM     62  C   UNL A   1      43.590  28.714  33.635  1.00  0.00     0.034 A 
ATOM     63  C   UNL A   1      42.662  26.426  27.293  1.00  0.00     0.034 A 
ATOM     64  C   UNL A   1      44.483  29.487  32.809  1.00  0.00     0.049 A 
ATOM     65  C   UNL A   1      43.964  26.693  27.932  1.00  0.00     0.074 A 
ATOM     66  C   UNL A   1      44.930  30.785  32.711  1.00  0.00     0.029 A 
ATOM     67  N   UNL A   1      44.738  28.875  31.613  1.00  0.00    -0.354 N 
ATOM     68  N   UNL A   1      44.676  27.755  27.679  1.00  0.00    -0.248 NA
ATOM     69  C   UNL A   1      44.350  25.935  29.117  1.00  0.00     0.031 C 
ATOM     70  C   UNL A   1      45.397  30.948  31.371  1.00  0.00     0.029 A 
ATOM     71  C   UNL A   1      45.275  29.734  30.701  1.00  0.00     0.049 A 
ATOM     72  H   UNL A   1      44.554  27.925  31.432  1.00  0.00     0.167 HD
ATOM     73  C   UNL A   1      45.252  28.048  28.899  1.00  0.00     0.074 A 
ATOM     74  C   UNL A   1      45.188  26.814  29.671  1.00  0.00     0.031 C 
ATOM     75  C   UNL A   1      45.376  29.338  29.315  1.00  0.00     0.034 A 
BRANCH  62  76
ATOM     76  C   UNL A   1      44.086  27.391  34.207  1.00  0.00     0.023 A 
ATOM     77  C   UNL A   1      45.009  27.471  35.278  1.00  0.00     0.012 A 
ATOM     78  C   UNL A   1      43.963  26.131  33.577  1.00  0.00     0.148 A 
ATOM     79  C   UNL A   1      45.792  26.377  35.666  1.00  0.00     0.002 A 
ATOM     80  C   UNL A   1      44.688  25.027  34.014  1.00  0.00     0.091 A 
ATOM     81  F   UNL A   1      43.244  26.004  32.461  1.00  0.00    -0.205 F 
ATOM     82  C   UNL A   1      45.627  25.151  35.038  1.00  0.00     0.022 A 
BRANCH  80  83
ATOM     83  S   UNL A   1      44.494  23.407  33.254  1.00  0.00     0.127 S 
ATOM     84  O   UNL A   1      45.611  22.676  33.843  1.00  0.00    -0.237 OA
ATOM     85  O   UNL A   1      43.169  23.016  33.735  1.00  0.00    -0.237 OA
ATOM     86  O   UNL A   1      44.565  23.635  31.816  1.00  0.00    -0.744 OA
ENDBRANCH  80  83
ENDBRANCH  62  76
BRANCH  63  87
ATOM     87  C   UNL A   1      42.460  25.212  26.468  1.00  0.00     0.023 A 
ATOM     88  C   UNL A   1      43.399  24.886  25.465  1.00  0.00     0.012 A 
ATOM     89  C   UNL A   1      41.546  24.216  26.873  1.00  0.00     0.148 A 
ATOM     90  C   UNL A   1      43.468  23.595  24.930  1.00  0.00     0.002 A 
ATOM     91  C   UNL A   1      41.621  22.931  26.340  1.00  0.00     0.091 A 
ATOM     92  F   UNL A   1      40.669  24.508  27.844  1.00  0.00    -0.205 F 
ATOM     93  C   UNL A   1      42.592  22.614  25.380  1.00  0.00     0.022 A 
BRANCH  91  94
ATOM     94  S   UNL A   1      40.554  21.593  26.890  1.00  0.00     0.127 S 
ATOM     95  O   UNL A   1      41.108  20.451  26.164  1.00  0.00    -0.237 OA
ATOM     96  O   UNL A   1      40.802  21.581  28.328  1.00  0.00    -0.237 OA
ATOM     97  O   UNL A   1      39.206  21.969  26.482  1.00  0.00    -0.744 OA
ENDBRANCH  91  94
ENDBRANCH  63  87
BRANCH  75  98
ATOM     98  C   UNL A   1      45.505  30.403  28.277  1.00  0.00     0.023 A 
ATOM     99  C   UNL A   1      44.413  31.027  27.647  1.00  0.00     0.012 A 
ATOM    100  C   UNL A   1      46.808  30.838  27.988  1.00  0.00     0.148 A 
ATOM    101  C   UNL A   1      44.626  32.064  26.733  1.00  0.00     0.002 A 
ATOM    102  C   UNL A   1      47.014  31.894  27.116  1.00  0.00     0.091 A 
ATOM    103  F   UNL A   1      47.832  30.209  28.587  1.00  0.00    -0.205 F 
ATOM    104  C   UNL A   1      45.926  32.507  26.478  1.00  0.00     0.022 A 
BRANCH 102 105
ATOM    105  S   UNL A   1      48.655  32.559  26.839  1.00  0.00     0.127 S 
ATOM    106  O   UNL A   1      48.985  33.114  28.149  1.00  0.00    -0.237 OA
ATOM    107  O   UNL A   1      49.416  31.365  26.466  1.00  0.00    -0.237 OA
ATOM    108  O   UNL A   1      48.517  33.533  25.762  1.00  0.00    -0.744 OA
ENDBRANCH 102 105
ENDBRANCH  75  98
ENDBRANCH  49  50
ENDBRANCH  41  44
ENDBRANCH  39  40
ENDBRANCH   1  39
TORSDOF 18
ENDMDL
MODEL 2
REMARK VINA RESULT:     -12.8      1.739      2.141
REMARK SMILES COc1cc([C@H]2c3c(-c4ccccc4)n[nH]c3C(=O)N2c2ccc(C(=O)NCCCNC(=O)c3ccc(-c4c5nc(c(-c6cccc(S(=O)(=O)[O-])c6F)c6ccc([nH]6)c(-c6cccc(S(=O)(=O)[O-])c6F)c6nc(c(-c7cccc(S(=O)(=O)[O-])c7F)c7ccc4[nH]7)C=C6)C=C5)cc3)cc2)ccc1O
REMARK SMILES IDX 29 1 28 2 27 3 25 4 26 5 24 7 21 8 22 9 98 10 23 11 97 12
REMARK SMILES IDX 20 13 6 14 7 15 8 16 17 17 18 18 15 19 16 20 19 21 5 23 3 24
REMARK SMILES IDX 4 25 101 26 100 27 99 28 2 29 1 30 102 31 9 33 10 34 14 35
REMARK SMILES IDX 11 36 13 37 12 38 30 39 31 40 32 41 33 43 34 44 35 45 96 46
REMARK SMILES IDX 36 47 95 48 37 49 38 50 39 51 89 52 40 53 94 54 88 55 90 56
REMARK SMILES IDX 41 57 93 58 87 59 86 60 42 62 74 63 54 64 73 65 55 66 58 67
REMARK SMILES IDX 72 68 91 69 56 70 57 71 71 73 92 74 59 75 43 76 44 77 52 78
REMARK SMILES IDX 45 79 47 80 53 81 46 82 48 83 49 84 50 85 51 86 75 87 76 88
REMARK SMILES IDX 84 89 77 90 79 91 85 92 78 93 80 94 81 95 82 96 83 97 60 98
REMARK SMILES IDX 61 99 69 100 62 101 64 102 70 103 63 104 65 105 66 106
REMARK SMILES IDX 67 107 68 108
REMARK H PARENT 27 6 16 22 102 32 31 42 90 61 58 72
REMARK Flexibility Score: inf
ROOT
ATOM      1  C   UNL A   1      34.434  32.228  29.201  1.00  0.00     0.042 C 
ENDROOT
BRANCH   1   2
ATOM      2  C   UNL A   1      34.111  31.816  27.760  1.00  0.00     0.118 C 
BRANCH   2   3
ATOM      3  N   UNL A   1      32.751  32.157  27.387  1.00  0.00    -0.352 N 
ATOM      4  C   UNL A   1      31.819  31.545  26.586  1.00  0.00     0.251 C 
ATOM      5  O   UNL A   1      30.686  32.025  26.575  1.00  0.00    -0.269 OA
ATOM      6  H   UNL A   1      32.431  32.996  27.790  1.00  0.00     0.163 HD
BRANCH   4   7
ATOM      7  C   UNL A   1      32.083  30.312  25.786  1.00  0.00     0.039 A 
ATOM      8  C   UNL A   1      32.371  27.938  24.305  1.00  0.00     0.045 A 
ATOM      9  C   UNL A   1      31.212  28.698  24.174  1.00  0.00     0.027 A 
ATOM     10  C   UNL A   1      33.406  28.388  25.118  1.00  0.00     0.027 A 
ATOM     11  C   UNL A   1      31.058  29.861  24.937  1.00  0.00     0.016 A 
ATOM     12  C   UNL A   1      33.279  29.593  25.806  1.00  0.00     0.016 A 
BRANCH   8  13
ATOM     13  N   UNL A   1      32.520  26.731  23.616  1.00  0.00    -0.295 N 
ATOM     14  C   UNL A   1      33.078  25.517  24.275  1.00  0.00     0.156 C 
ATOM     15  C   UNL A   1      33.180  24.623  23.096  1.00  0.00     0.038 A 
ATOM     16  C   UNL A   1      33.590  23.356  22.651  1.00  0.00     0.099 A 
ATOM     17  C   UNL A   1      32.730  25.269  21.981  1.00  0.00     0.129 A 
ATOM     18  C   UNL A   1      32.264  26.575  22.248  1.00  0.00     0.277 C 
ATOM     19  N   UNL A   1      33.458  23.274  21.305  1.00  0.00    -0.174 NA
ATOM     20  N   UNL A   1      32.914  24.458  20.929  1.00  0.00    -0.272 N 
ATOM     21  O   UNL A   1      31.800  27.366  21.436  1.00  0.00    -0.267 OA
ATOM     22  H   UNL A   1      32.684  24.693  20.000  1.00  0.00     0.190 HD
BRANCH  14  23
ATOM     23  C   UNL A   1      32.118  24.888  25.265  1.00  0.00    -0.016 A 
ATOM     24  C   UNL A   1      31.760  23.359  27.165  1.00  0.00     0.160 A 
ATOM     25  C   UNL A   1      32.605  23.998  26.240  1.00  0.00     0.056 A 
ATOM     26  C   UNL A   1      30.391  23.624  27.103  1.00  0.00     0.157 A 
ATOM     27  C   UNL A   1      29.888  24.523  26.161  1.00  0.00     0.050 A 
ATOM     28  C   UNL A   1      30.742  25.163  25.262  1.00  0.00     0.010 A 
BRANCH  24  29
ATOM     29  O   UNL A   1      32.448  22.530  28.006  1.00  0.00    -0.493 OA
ATOM     30  C   UNL A   1      33.833  22.300  27.816  1.00  0.00     0.278 C 
ENDBRANCH  24  29
BRANCH  26  31
ATOM     31  O   UNL A   1      29.448  23.058  27.912  1.00  0.00    -0.504 OA
ATOM     32  H   UNL A   1      29.707  22.463  28.587  1.00  0.00     0.293 HD
ENDBRANCH  26  31
ENDBRANCH  14  23
BRANCH  16  33
ATOM     33  C   UNL A   1      34.092  22.229  23.424  1.00  0.00     0.002 A 
ATOM     34  C   UNL A   1      33.242  21.171  23.768  1.00  0.00     0.010 A 
ATOM     35  C   UNL A   1      35.417  22.214  23.875  1.00  0.00     0.010 A 
ATOM     36  C   UNL A   1      33.719  20.106  24.538  1.00  0.00     0.001 A 
ATOM     37  C   UNL A   1      35.894  21.149  24.640  1.00  0.00     0.001 A 
ATOM     38  C   UNL A   1      35.045  20.095  24.970  1.00  0.00     0.000 A 
ENDBRANCH  16  33
ENDBRANCH   8  13
ENDBRANCH   4   7
ENDBRANCH   2   3
ENDBRANCH   1   2
BRANCH   1  39
ATOM     39  C   UNL A   1      35.919  32.480  29.399  1.00  0.00     0.118 C 
BRANCH  39  40
ATOM     40  N   UNL A   1      36.196  33.059  30.715  1.00  0.00    -0.352 N 
ATOM     41  C   UNL A   1      37.075  32.609  31.678  1.00  0.00     0.251 C 
ATOM     42  H   UNL A   1      35.692  33.873  30.941  1.00  0.00     0.163 HD
ATOM     43  O   UNL A   1      36.952  32.969  32.844  1.00  0.00    -0.269 OA
BRANCH  41  44
ATOM     44  C   UNL A   1      38.151  31.687  31.282  1.00  0.00     0.039 A 
ATOM     45  C   UNL A   1      39.432  32.168  31.013  1.00  0.00     0.014 A 
ATOM     46  C   UNL A   1      37.872  30.322  31.230  1.00  0.00     0.014 A 
ATOM     47  C   UNL A   1      40.452  31.251  30.787  1.00  0.00     0.010 A 
ATOM     48  C   UNL A   1      38.904  29.416  31.155  1.00  0.00     0.010 A 
ATOM     49  C   UNL A   1      40.192  29.871  30.901  1.00  0.00    -0.014 A 
BRANCH  49  50
ATOM     50  C   UNL A   1      41.309  28.928  30.964  1.00  0.00     0.031 A 
ATOM     51  C   UNL A   1      41.845  28.791  32.343  1.00  0.00     0.074 A 
ATOM     52  C   UNL A   1      41.696  28.117  29.950  1.00  0.00     0.049 A 
ATOM     53  N   UNL A   1      42.913  29.344  32.820  1.00  0.00    -0.248 NA
ATOM     54  C   UNL A   1      40.997  28.168  33.376  1.00  0.00     0.031 C 
ATOM     55  C   UNL A   1      41.005  27.917  28.669  1.00  0.00     0.029 A 
ATOM     56  N   UNL A   1      42.708  27.200  29.885  1.00  0.00    -0.354 N 
ATOM     57  C   UNL A   1      43.038  28.817  34.104  1.00  0.00     0.074 A 
ATOM     58  C   UNL A   1      41.726  28.370  34.478  1.00  0.00     0.031 C 
ATOM     59  C   UNL A   1      41.441  26.776  28.092  1.00  0.00     0.029 A 
ATOM     60  C   UNL A   1      42.568  26.272  28.851  1.00  0.00     0.049 A 
ATOM     61  H   UNL A   1      43.466  27.193  30.512  1.00  0.00     0.167 HD
ATOM     62  C   UNL A   1      44.263  28.410  34.539  1.00  0.00     0.034 A 
ATOM     63  C   UNL A   1      43.312  25.159  28.636  1.00  0.00     0.034 A 
ATOM     64  C   UNL A   1      45.294  28.896  33.658  1.00  0.00     0.049 A 
ATOM     65  C   UNL A   1      44.608  25.362  29.311  1.00  0.00     0.074 A 
ATOM     66  C   UNL A   1      45.926  30.085  33.370  1.00  0.00     0.029 A 
ATOM     67  N   UNL A   1      45.515  28.050  32.607  1.00  0.00    -0.354 N 
ATOM     68  N   UNL A   1      45.476  26.258  28.930  1.00  0.00    -0.248 NA
ATOM     69  C   UNL A   1      44.828  24.786  30.632  1.00  0.00     0.031 C 
ATOM     70  C   UNL A   1      46.473  29.940  32.059  1.00  0.00     0.029 A 
ATOM     71  C   UNL A   1      46.210  28.652  31.600  1.00  0.00     0.049 A 
ATOM     72  H   UNL A   1      45.206  27.116  32.578  1.00  0.00     0.167 HD
ATOM     73  C   UNL A   1      46.031  26.686  30.118  1.00  0.00     0.074 A 
ATOM     74  C   UNL A   1      45.755  25.631  31.085  1.00  0.00     0.031 C 
ATOM     75  C   UNL A   1      46.318  28.003  30.314  1.00  0.00     0.034 A 
BRANCH  62  76
ATOM     76  C   UNL A   1      44.539  27.158  35.364  1.00  0.00     0.023 A 
ATOM     77  C   UNL A   1      45.364  27.319  36.503  1.00  0.00     0.012 A 
ATOM     78  C   UNL A   1      44.317  25.829  34.932  1.00  0.00     0.148 A 
ATOM     79  C   UNL A   1      45.968  26.230  37.142  1.00  0.00     0.002 A 
ATOM     80  C   UNL A   1      44.858  24.745  35.614  1.00  0.00     0.091 A 
ATOM     81  F   UNL A   1      43.691  25.593  33.779  1.00  0.00    -0.205 F 
ATOM     82  C   UNL A   1      45.710  24.939  36.702  1.00  0.00     0.022 A 
BRANCH  80  83
ATOM     83  S   UNL A   1      44.534  23.049  35.104  1.00  0.00     0.127 S 
ATOM     84  O   UNL A   1      43.078  23.050  35.006  1.00  0.00    -0.237 OA
ATOM     85  O   UNL A   1      45.246  22.988  33.827  1.00  0.00    -0.237 OA
ATOM     86  O   UNL A   1      45.105  22.208  36.148  1.00  0.00    -0.744 OA
ENDBRANCH  80  83
ENDBRANCH  62  76
BRANCH  63  87
ATOM     87  C   UNL A   1      42.978  23.853  28.021  1.00  0.00     0.023 A 
ATOM     88  C   UNL A   1      41.650  23.375  28.080  1.00  0.00     0.012 A 
ATOM     89  C   UNL A   1      43.865  23.243  27.110  1.00  0.00     0.148 A 
ATOM     90  C   UNL A   1      41.204  22.368  27.216  1.00  0.00     0.002 A 
ATOM     91  C   UNL A   1      43.416  22.243  26.251  1.00  0.00     0.091 A 
ATOM     92  F   UNL A   1      45.119  23.709  27.029  1.00  0.00    -0.205 F 
ATOM     93  C   UNL A   1      42.082  21.815  26.290  1.00  0.00     0.022 A 
BRANCH  91  94
ATOM     94  S   UNL A   1      44.471  21.500  24.999  1.00  0.00     0.127 S 
ATOM     95  O   UNL A   1      43.861  20.180  24.838  1.00  0.00    -0.237 OA
ATOM     96  O   UNL A   1      44.279  22.403  23.868  1.00  0.00    -0.237 OA
ATOM     97  O   UNL A   1      45.811  21.478  25.572  1.00  0.00    -0.744 OA
ENDBRANCH  91  94
ENDBRANCH  63  87
BRANCH  75  98
ATOM     98  C   UNL A   1      46.646  28.836  29.120  1.00  0.00     0.023 A 
ATOM     99  C   UNL A   1      47.871  28.780  28.430  1.00  0.00     0.012 A 
ATOM    100  C   UNL A   1      45.619  29.662  28.634  1.00  0.00     0.148 A 
ATOM    101  C   UNL A   1      48.066  29.549  27.278  1.00  0.00     0.002 A 
ATOM    102  C   UNL A   1      45.799  30.388  27.469  1.00  0.00     0.091 A 
ATOM    103  F   UNL A   1      44.469  29.712  29.324  1.00  0.00    -0.205 F 
ATOM    104  C   UNL A   1      47.026  30.342  26.790  1.00  0.00     0.022 A 
BRANCH 102 105
ATOM    105  S   UNL A   1      44.460  31.338  26.753  1.00  0.00     0.127 S 
ATOM    106  O   UNL A   1      43.462  30.306  26.485  1.00  0.00    -0.237 OA
ATOM    107  O   UNL A   1      44.116  32.258  27.838  1.00  0.00    -0.237 OA
ATOM    108  O   UNL A   1      45.016  31.993  25.575  1.00  0.00    -0.744 OA
ENDBRANCH 102 105
ENDBRANCH  75  98
ENDBRANCH  49  50
ENDBRANCH  41  44
ENDBRANCH  39  40
ENDBRANCH   1  39
TORSDOF 18
ENDMDL
MODEL 3
REMARK VINA RESULT:     -12.3      4.798      8.466
REMARK SMILES COc1cc([C@H]2c3c(-c4ccccc4)n[nH]c3C(=O)N2c2ccc(C(=O)NCCCNC(=O)c3ccc(-c4c5nc(c(-c6cccc(S(=O)(=O)[O-])c6F)c6ccc([nH]6)c(-c6cccc(S(=O)(=O)[O-])c6F)c6nc(c(-c7cccc(S(=O)(=O)[O-])c7F)c7ccc4[nH]7)C=C6)C=C5)cc3)cc2)ccc1O
REMARK SMILES IDX 29 1 28 2 27 3 25 4 26 5 24 7 21 8 22 9 98 10 23 11 97 12
REMARK SMILES IDX 20 13 6 14 7 15 8 16 17 17 18 18 15 19 16 20 19 21 5 23 3 24
REMARK SMILES IDX 4 25 101 26 100 27 99 28 2 29 1 30 102 31 9 33 10 34 14 35
REMARK SMILES IDX 11 36 13 37 12 38 30 39 31 40 32 41 33 43 34 44 35 45 96 46
REMARK SMILES IDX 36 47 95 48 37 49 38 50 39 51 89 52 40 53 94 54 88 55 90 56
REMARK SMILES IDX 41 57 93 58 87 59 86 60 42 62 74 63 54 64 73 65 55 66 58 67
REMARK SMILES IDX 72 68 91 69 56 70 57 71 71 73 92 74 59 75 43 76 44 77 52 78
REMARK SMILES IDX 45 79 47 80 53 81 46 82 48 83 49 84 50 85 51 86 75 87 76 88
REMARK SMILES IDX 84 89 77 90 79 91 85 92 78 93 80 94 81 95 82 96 83 97 60 98
REMARK SMILES IDX 61 99 69 100 62 101 64 102 70 103 63 104 65 105 66 106
REMARK SMILES IDX 67 107 68 108
REMARK H PARENT 27 6 16 22 102 32 31 42 90 61 58 72
REMARK Flexibility Score: inf
ROOT
ATOM      1  C   UNL A   1      44.181  35.762  32.469  1.00  0.00     0.042 C 
ENDROOT
BRANCH   1   2
ATOM      2  C   UNL A   1      44.485  34.333  32.937  1.00  0.00     0.118 C 
BRANCH   2   3
ATOM      3  N   UNL A   1      44.386  34.199  34.379  1.00  0.00    -0.352 N 
ATOM      4  C   UNL A   1      43.343  33.905  35.221  1.00  0.00     0.251 C 
ATOM      5  O   UNL A   1      43.614  33.733  36.409  1.00  0.00    -0.269 OA
ATOM      6  H   UNL A   1      45.239  34.349  34.847  1.00  0.00     0.163 HD
BRANCH   4   7
ATOM      7  C   UNL A   1      41.930  33.728  34.774  1.00  0.00     0.039 A 
ATOM      8  C   UNL A   1      39.216  33.568  34.054  1.00  0.00     0.045 A 
ATOM      9  C   UNL A   1      39.827  34.813  34.174  1.00  0.00     0.027 A 
ATOM     10  C   UNL A   1      39.964  32.409  34.228  1.00  0.00     0.027 A 
ATOM     11  C   UNL A   1      41.168  34.890  34.565  1.00  0.00     0.016 A 
ATOM     12  C   UNL A   1      41.322  32.496  34.531  1.00  0.00     0.016 A 
BRANCH   8  13
ATOM     13  N   UNL A   1      37.856  33.463  33.741  1.00  0.00    -0.295 N 
ATOM     14  C   UNL A   1      37.361  33.611  32.344  1.00  0.00     0.156 C 
ATOM     15  C   UNL A   1      35.900  33.593  32.599  1.00  0.00     0.038 A 
ATOM     16  C   UNL A   1      34.633  33.699  32.006  1.00  0.00     0.099 A 
ATOM     17  C   UNL A   1      35.661  33.447  33.935  1.00  0.00     0.129 A 
ATOM     18  C   UNL A   1      36.844  33.317  34.698  1.00  0.00     0.277 C 
ATOM     19  N   UNL A   1      33.672  33.689  32.962  1.00  0.00    -0.174 NA
ATOM     20  N   UNL A   1      34.337  33.519  34.131  1.00  0.00    -0.272 N 
ATOM     21  O   UNL A   1      36.919  33.165  35.910  1.00  0.00    -0.267 OA
ATOM     22  H   UNL A   1      33.903  33.456  35.013  1.00  0.00     0.190 HD
BRANCH  14  23
ATOM     23  C   UNL A   1      37.703  32.423  31.468  1.00  0.00    -0.016 A 
ATOM     24  C   UNL A   1      37.642  29.983  31.115  1.00  0.00     0.160 A 
ATOM     25  C   UNL A   1      37.327  31.128  31.870  1.00  0.00     0.056 A 
ATOM     26  C   UNL A   1      38.356  30.151  29.927  1.00  0.00     0.157 A 
ATOM     27  C   UNL A   1      38.718  31.429  29.494  1.00  0.00     0.050 A 
ATOM     28  C   UNL A   1      38.381  32.555  30.246  1.00  0.00     0.010 A 
BRANCH  24  29
ATOM     29  O   UNL A   1      37.190  28.836  31.703  1.00  0.00    -0.493 OA
ATOM     30  C   UNL A   1      38.079  27.993  32.413  1.00  0.00     0.278 C 
ENDBRANCH  24  29
BRANCH  26  31
ATOM     31  O   UNL A   1      38.759  29.137  29.107  1.00  0.00    -0.504 OA
ATOM     32  H   UNL A   1      38.149  28.746  28.513  1.00  0.00     0.293 HD
ENDBRANCH  26  31
ENDBRANCH  14  23
BRANCH  16  33
ATOM     33  C   UNL A   1      34.284  33.804  30.596  1.00  0.00     0.002 A 
ATOM     34  C   UNL A   1      33.625  34.939  30.111  1.00  0.00     0.010 A 
ATOM     35  C   UNL A   1      34.560  32.749  29.719  1.00  0.00     0.010 A 
ATOM     36  C   UNL A   1      33.263  35.023  28.763  1.00  0.00     0.001 A 
ATOM     37  C   UNL A   1      34.203  32.833  28.372  1.00  0.00     0.001 A 
ATOM     38  C   UNL A   1      33.555  33.971  27.895  1.00  0.00     0.000 A 
ENDBRANCH  16  33
ENDBRANCH   8  13
ENDBRANCH   4   7
ENDBRANCH   2   3
ENDBRANCH   1   2
BRANCH   1  39
ATOM     39  C   UNL A   1      44.705  36.022  31.067  1.00  0.00     0.118 C 
BRANCH  39  40
ATOM     40  N   UNL A   1      43.653  36.530  30.185  1.00  0.00    -0.352 N 
ATOM     41  C   UNL A   1      43.016  35.877  29.151  1.00  0.00     0.251 C 
ATOM     42  H   UNL A   1      43.362  37.455  30.351  1.00  0.00     0.163 HD
ATOM     43  O   UNL A   1      42.426  36.514  28.286  1.00  0.00    -0.269 OA
BRANCH  41  44
ATOM     44  C   UNL A   1      43.068  34.407  29.102  1.00  0.00     0.039 A 
ATOM     45  C   UNL A   1      44.087  33.757  28.406  1.00  0.00     0.014 A 
ATOM     46  C   UNL A   1      42.107  33.683  29.807  1.00  0.00     0.014 A 
ATOM     47  C   UNL A   1      44.184  32.374  28.507  1.00  0.00     0.010 A 
ATOM     48  C   UNL A   1      42.291  32.338  30.028  1.00  0.00     0.010 A 
ATOM     49  C   UNL A   1      43.307  31.670  29.356  1.00  0.00    -0.014 A 
BRANCH  49  50
ATOM     50  C   UNL A   1      43.594  30.277  29.697  1.00  0.00     0.031 A 
ATOM     51  C   UNL A   1      44.132  30.141  31.076  1.00  0.00     0.074 A 
ATOM     52  C   UNL A   1      43.238  29.207  28.948  1.00  0.00     0.049 A 
ATOM     53  N   UNL A   1      45.371  29.976  31.413  1.00  0.00    -0.248 NA
ATOM     54  C   UNL A   1      43.250  30.450  32.217  1.00  0.00     0.031 C 
ATOM     55  C   UNL A   1      42.386  29.214  27.750  1.00  0.00     0.029 A 
ATOM     56  N   UNL A   1      43.440  27.870  29.157  1.00  0.00    -0.354 N 
ATOM     57  C   UNL A   1      45.336  29.792  32.794  1.00  0.00     0.074 A 
ATOM     58  C   UNL A   1      44.105  30.380  33.242  1.00  0.00     0.031 C 
ATOM     59  C   UNL A   1      41.929  27.965  27.511  1.00  0.00     0.029 A 
ATOM     60  C   UNL A   1      42.601  27.044  28.406  1.00  0.00     0.049 A 
ATOM     61  H   UNL A   1      44.116  27.522  29.781  1.00  0.00     0.167 HD
ATOM     62  C   UNL A   1      46.095  28.808  33.354  1.00  0.00     0.034 A 
ATOM     63  C   UNL A   1      42.454  25.700  28.516  1.00  0.00     0.034 A 
ATOM     64  C   UNL A   1      47.057  28.315  32.400  1.00  0.00     0.049 A 
ATOM     65  C   UNL A   1      43.682  25.176  29.143  1.00  0.00     0.074 A 
ATOM     66  C   UNL A   1      48.235  28.727  31.821  1.00  0.00     0.029 A 
ATOM     67  N   UNL A   1      46.544  27.316  31.620  1.00  0.00    -0.354 N 
ATOM     68  N   UNL A   1      44.847  25.201  28.558  1.00  0.00    -0.248 NA
ATOM     69  C   UNL A   1      43.695  24.904  30.576  1.00  0.00     0.031 C 
ATOM     70  C   UNL A   1      48.368  27.981  30.610  1.00  0.00     0.029 A 
ATOM     71  C   UNL A   1      47.299  27.095  30.507  1.00  0.00     0.049 A 
ATOM     72  H   UNL A   1      45.724  26.817  31.836  1.00  0.00     0.167 HD
ATOM     73  C   UNL A   1      45.720  25.428  29.602  1.00  0.00     0.074 A 
ATOM     74  C   UNL A   1      45.002  25.039  30.809  1.00  0.00     0.031 C 
ATOM     75  C   UNL A   1      46.786  26.261  29.445  1.00  0.00     0.034 A 
BRANCH  62  76
ATOM     76  C   UNL A   1      45.659  27.891  34.490  1.00  0.00     0.023 A 
ATOM     77  C   UNL A   1      46.604  27.665  35.520  1.00  0.00     0.012 A 
ATOM     78  C   UNL A   1      44.548  27.015  34.454  1.00  0.00     0.148 A 
ATOM     79  C   UNL A   1      46.476  26.605  36.426  1.00  0.00     0.002 A 
ATOM     80  C   UNL A   1      44.386  26.010  35.401  1.00  0.00     0.091 A 
ATOM     81  F   UNL A   1      43.699  27.050  33.427  1.00  0.00    -0.205 F 
ATOM     82  C   UNL A   1      45.361  25.779  36.371  1.00  0.00     0.022 A 
BRANCH  80  83
ATOM     83  S   UNL A   1      42.948  24.928  35.394  1.00  0.00     0.127 S 
ATOM     84  O   UNL A   1      42.951  24.433  36.767  1.00  0.00    -0.237 OA
ATOM     85  O   UNL A   1      41.875  25.870  35.073  1.00  0.00    -0.237 OA
ATOM     86  O   UNL A   1      43.204  23.937  34.356  1.00  0.00    -0.744 OA
ENDBRANCH  80  83
ENDBRANCH  62  76
BRANCH  63  87
ATOM     87  C   UNL A   1      41.295  24.812  28.264  1.00  0.00     0.023 A 
ATOM     88  C   UNL A   1      40.005  25.371  28.135  1.00  0.00     0.012 A 
ATOM     89  C   UNL A   1      41.492  23.484  27.833  1.00  0.00     0.148 A 
ATOM     90  C   UNL A   1      38.962  24.654  27.537  1.00  0.00     0.002 A 
ATOM     91  C   UNL A   1      40.452  22.775  27.236  1.00  0.00     0.091 A 
ATOM     92  F   UNL A   1      42.720  22.956  27.927  1.00  0.00    -0.205 F 
ATOM     93  C   UNL A   1      39.190  23.364  27.072  1.00  0.00     0.022 A 
BRANCH  91  94
ATOM     94  S   UNL A   1      40.669  21.118  26.572  1.00  0.00     0.127 S 
ATOM     95  O   UNL A   1      41.837  21.292  25.710  1.00  0.00    -0.237 OA
ATOM     96  O   UNL A   1      40.913  20.339  27.782  1.00  0.00    -0.237 OA
ATOM     97  O   UNL A   1      39.435  20.813  25.859  1.00  0.00    -0.744 OA
ENDBRANCH  91  94
ENDBRANCH  63  87
BRANCH  75  98
ATOM     98  C   UNL A   1      47.372  26.403  28.080  1.00  0.00     0.023 A 
ATOM     99  C   UNL A   1      48.423  25.608  27.585  1.00  0.00     0.012 A 
ATOM    100  C   UNL A   1      46.765  27.345  27.234  1.00  0.00     0.148 A 
ATOM    101  C   UNL A   1      48.865  25.766  26.268  1.00  0.00     0.002 A 
ATOM    102  C   UNL A   1      47.174  27.468  25.917  1.00  0.00     0.091 A 
ATOM    103  F   UNL A   1      45.779  28.104  27.739  1.00  0.00    -0.205 F 
ATOM    104  C   UNL A   1      48.231  26.686  25.430  1.00  0.00     0.022 A 
BRANCH 102 105
ATOM    105  S   UNL A   1      46.324  28.562  24.782  1.00  0.00     0.127 S 
ATOM    106  O   UNL A   1      44.944  28.096  24.883  1.00  0.00    -0.237 OA
ATOM    107  O   UNL A   1      46.574  29.878  25.371  1.00  0.00    -0.237 OA
ATOM    108  O   UNL A   1      46.958  28.365  23.483  1.00  0.00    -0.744 OA
ENDBRANCH 102 105
ENDBRANCH  75  98
ENDBRANCH  49  50
ENDBRANCH  41  44
ENDBRANCH  39  40
ENDBRANCH   1  39
TORSDOF 18
ENDMDL
