MODEL 1
REMARK VINA RESULT:     -10.5      0.000      0.000
REMARK SMILES C[C@@H](Nc1cccc(Cl)c1)[C@@H](C)C(=O)NCCCNC(=O)c1ccc(-c2c3nc(c(-c4cccc(S(=O)(=O)[O-])c4F)c4ccc([nH]4)c(-c4cccc(S(=O)(=O)[O-])c4F)c4nc(c(-c5cccc(S(=O)(=O)[O-])c5F)c5ccc2[nH]5)C=C4)C=C3)cc1
REMARK SMILES IDX 17 1 16 2 15 3 13 4 14 5 11 7 12 8 2 9 1 10 3 11 4 13 5 14
REMARK SMILES IDX 10 15 6 16 8 17 7 18 9 19 18 20 19 21 20 22 21 24 22 25
REMARK SMILES IDX 23 26 84 27 24 28 83 29 25 30 26 31 27 32 77 33 28 34 82 35
REMARK SMILES IDX 76 36 78 37 29 38 81 39 75 40 74 41 30 43 62 44 42 45 61 46
REMARK SMILES IDX 43 47 46 48 60 49 79 50 44 51 45 52 59 54 80 55 47 56 31 57
REMARK SMILES IDX 32 58 40 59 33 60 35 61 41 62 34 63 36 64 37 65 38 66 39 67
REMARK SMILES IDX 63 68 64 69 72 70 65 71 67 72 73 73 66 74 68 75 69 76 70 77
REMARK SMILES IDX 71 78 48 79 49 80 57 81 50 82 52 83 58 84 51 85 53 86 54 87
REMARK SMILES IDX 55 88 56 89
REMARK H PARENT 15 6 3 12 19 23 78 42 46 53
REMARK Flexibility Score: inf
ROOT
ATOM      1  C   UNL A   1      33.722  34.239  28.628  1.00  0.00     0.042 C 
ENDROOT
BRANCH   1   2
ATOM      2  C   UNL A   1      34.381  35.613  28.527  1.00  0.00     0.117 C 
BRANCH   2   3
ATOM      3  N   UNL A   1      33.633  36.658  29.200  1.00  0.00    -0.356 N 
ATOM      4  C   UNL A   1      33.254  36.828  30.492  1.00  0.00     0.224 C 
ATOM      5  O   UNL A   1      32.790  37.940  30.775  1.00  0.00    -0.275 OA
ATOM      6  H   UNL A   1      33.346  37.387  28.603  1.00  0.00     0.163 HD
BRANCH   4   7
ATOM      7  C   UNL A   1      33.469  35.788  31.590  1.00  0.00     0.097 C 
ATOM      8  C   UNL A   1      32.130  35.665  32.333  1.00  0.00     0.020 C 
BRANCH   7   9
ATOM      9  C   UNL A   1      34.708  35.995  32.497  1.00  0.00     0.088 C 
ATOM     10  C   UNL A   1      34.401  35.659  33.969  1.00  0.00     0.031 C 
BRANCH   9  11
ATOM     11  N   UNL A   1      35.926  35.239  32.155  1.00  0.00    -0.382 N 
ATOM     12  H   UNL A   1      36.588  35.719  31.607  1.00  0.00     0.160 HD
BRANCH  11  13
ATOM     13  C   UNL A   1      36.260  33.950  32.501  1.00  0.00     0.036 A 
ATOM     14  C   UNL A   1      35.611  32.839  31.963  1.00  0.00     0.026 A 
ATOM     15  C   UNL A   1      37.295  33.725  33.415  1.00  0.00     0.046 A 
ATOM     16  C   UNL A   1      35.925  31.539  32.372  1.00  0.00     0.004 A 
ATOM     17  C   UNL A   1      37.627  32.427  33.813  1.00  0.00     0.043 A 
ATOM     18  C   UNL A   1      36.934  31.332  33.306  1.00  0.00     0.020 A 
ATOM     19  Cl  UNL A   1      38.899  32.178  34.946  1.00  0.00    -0.084 Cl
ENDBRANCH  11  13
ENDBRANCH   9  11
ENDBRANCH   7   9
ENDBRANCH   4   7
ENDBRANCH   2   3
ENDBRANCH   1   2
BRANCH   1  20
ATOM     20  C   UNL A   1      34.677  33.057  28.504  1.00  0.00     0.118 C 
BRANCH  20  21
ATOM     21  N   UNL A   1      34.074  31.905  27.849  1.00  0.00    -0.352 N 
ATOM     22  C   UNL A   1      34.583  30.662  27.563  1.00  0.00     0.251 C 
ATOM     23  H   UNL A   1      33.142  32.041  27.560  1.00  0.00     0.163 HD
ATOM     24  O   UNL A   1      33.946  29.917  26.820  1.00  0.00    -0.269 OA
BRANCH  22  25
ATOM     25  C   UNL A   1      35.880  30.213  28.116  1.00  0.00     0.039 A 
ATOM     26  C   UNL A   1      35.891  29.552  29.351  1.00  0.00     0.014 A 
ATOM     27  C   UNL A   1      37.087  30.476  27.465  1.00  0.00     0.014 A 
ATOM     28  C   UNL A   1      37.098  29.102  29.894  1.00  0.00     0.010 A 
ATOM     29  C   UNL A   1      38.280  29.955  27.966  1.00  0.00     0.010 A 
ATOM     30  C   UNL A   1      38.301  29.268  29.189  1.00  0.00    -0.014 A 
BRANCH  30  31
ATOM     31  C   UNL A   1      39.583  28.713  29.702  1.00  0.00     0.031 A 
ATOM     32  C   UNL A   1      40.326  29.405  30.814  1.00  0.00     0.074 A 
ATOM     33  C   UNL A   1      40.130  27.640  29.094  1.00  0.00     0.049 A 
ATOM     34  N   UNL A   1      41.488  29.108  31.337  1.00  0.00    -0.248 NA
ATOM     35  C   UNL A   1      39.700  30.603  31.396  1.00  0.00     0.031 C 
ATOM     36  C   UNL A   1      39.556  26.933  27.947  1.00  0.00     0.029 A 
ATOM     37  N   UNL A   1      41.310  26.979  29.333  1.00  0.00    -0.354 N 
ATOM     38  C   UNL A   1      41.754  30.103  32.269  1.00  0.00     0.074 A 
ATOM     39  C   UNL A   1      40.640  31.026  32.229  1.00  0.00     0.031 C 
ATOM     40  C   UNL A   1      40.387  25.947  27.576  1.00  0.00     0.029 A 
ATOM     41  C   UNL A   1      41.566  25.967  28.435  1.00  0.00     0.049 A 
ATOM     42  H   UNL A   1      41.916  27.207  30.073  1.00  0.00     0.167 HD
ATOM     43  C   UNL A   1      42.818  30.228  33.098  1.00  0.00     0.034 A 
ATOM     44  C   UNL A   1      42.634  25.155  28.306  1.00  0.00     0.034 A 
ATOM     45  C   UNL A   1      43.893  29.277  33.179  1.00  0.00     0.049 A 
ATOM     46  C   UNL A   1      43.768  25.274  29.289  1.00  0.00     0.074 A 
ATOM     47  C   UNL A   1      44.948  29.249  34.075  1.00  0.00     0.029 A 
ATOM     48  N   UNL A   1      44.062  28.196  32.329  1.00  0.00    -0.354 N 
ATOM     49  N   UNL A   1      43.906  26.109  30.290  1.00  0.00    -0.248 NA
ATOM     50  C   UNL A   1      44.874  24.315  29.151  1.00  0.00     0.031 C 
ATOM     51  C   UNL A   1      45.770  28.166  33.749  1.00  0.00     0.029 A 
ATOM     52  C   UNL A   1      45.211  27.503  32.669  1.00  0.00     0.049 A 
ATOM     53  H   UNL A   1      43.453  27.955  31.594  1.00  0.00     0.167 HD
ATOM     54  C   UNL A   1      45.095  25.756  30.919  1.00  0.00     0.074 A 
ATOM     55  C   UNL A   1      45.625  24.615  30.202  1.00  0.00     0.031 C 
ATOM     56  C   UNL A   1      45.701  26.334  31.984  1.00  0.00     0.034 A 
BRANCH  43  57
ATOM     57  C   UNL A   1      42.857  31.410  34.031  1.00  0.00     0.023 A 
ATOM     58  C   UNL A   1      43.286  32.664  33.552  1.00  0.00     0.012 A 
ATOM     59  C   UNL A   1      42.383  31.300  35.353  1.00  0.00     0.148 A 
ATOM     60  C   UNL A   1      43.266  33.785  34.380  1.00  0.00     0.002 A 
ATOM     61  C   UNL A   1      42.324  32.432  36.160  1.00  0.00     0.091 A 
ATOM     62  F   UNL A   1      41.998  30.095  35.796  1.00  0.00    -0.205 F 
ATOM     63  C   UNL A   1      42.774  33.671  35.678  1.00  0.00     0.022 A 
BRANCH  61  64
ATOM     64  S   UNL A   1      41.631  32.409  37.816  1.00  0.00     0.127 S 
ATOM     65  O   UNL A   1      42.541  31.495  38.504  1.00  0.00    -0.237 OA
ATOM     66  O   UNL A   1      41.752  33.809  38.219  1.00  0.00    -0.237 OA
ATOM     67  O   UNL A   1      40.261  31.933  37.674  1.00  0.00    -0.744 OA
ENDBRANCH  61  64
ENDBRANCH  43  57
BRANCH  44  68
ATOM     68  C   UNL A   1      42.661  24.122  27.232  1.00  0.00     0.023 A 
ATOM     69  C   UNL A   1      43.326  24.395  26.021  1.00  0.00     0.012 A 
ATOM     70  C   UNL A   1      42.047  22.866  27.409  1.00  0.00     0.148 A 
ATOM     71  C   UNL A   1      43.348  23.452  24.993  1.00  0.00     0.002 A 
ATOM     72  C   UNL A   1      42.124  21.910  26.404  1.00  0.00     0.091 A 
ATOM     73  F   UNL A   1      41.406  22.628  28.562  1.00  0.00    -0.205 F 
ATOM     74  C   UNL A   1      42.756  22.207  25.187  1.00  0.00     0.022 A 
BRANCH  72  75
ATOM     75  S   UNL A   1      41.513  20.235  26.629  1.00  0.00     0.127 S 
ATOM     76  O   UNL A   1      42.216  19.819  27.839  1.00  0.00    -0.237 OA
ATOM     77  O   UNL A   1      40.076  20.455  26.795  1.00  0.00    -0.237 OA
ATOM     78  O   UNL A   1      41.868  19.524  25.407  1.00  0.00    -0.744 OA
ENDBRANCH  72  75
ENDBRANCH  44  68
BRANCH  56  79
ATOM     79  C   UNL A   1      46.991  25.729  32.472  1.00  0.00     0.023 A 
ATOM     80  C   UNL A   1      48.216  26.154  31.922  1.00  0.00     0.012 A 
ATOM     81  C   UNL A   1      46.993  24.798  33.529  1.00  0.00     0.148 A 
ATOM     82  C   UNL A   1      49.422  25.637  32.395  1.00  0.00     0.002 A 
ATOM     83  C   UNL A   1      48.200  24.325  34.029  1.00  0.00     0.091 A 
ATOM     84  F   UNL A   1      45.816  24.393  34.027  1.00  0.00    -0.205 F 
ATOM     85  C   UNL A   1      49.415  24.734  33.455  1.00  0.00     0.022 A 
BRANCH  83  86
ATOM     86  S   UNL A   1      48.290  23.236  35.455  1.00  0.00     0.127 S 
ATOM     87  O   UNL A   1      47.778  21.982  34.905  1.00  0.00    -0.237 OA
ATOM     88  O   UNL A   1      49.723  23.232  35.753  1.00  0.00    -0.237 OA
ATOM     89  O   UNL A   1      47.462  23.854  36.483  1.00  0.00    -0.744 OA
ENDBRANCH  83  86
ENDBRANCH  56  79
ENDBRANCH  30  31
ENDBRANCH  22  25
ENDBRANCH  20  21
ENDBRANCH   1  20
TORSDOF 16
ENDMDL
MODEL 2
REMARK VINA RESULT:     -10.4      3.325      5.698
REMARK SMILES C[C@@H](Nc1cccc(Cl)c1)[C@@H](C)C(=O)NCCCNC(=O)c1ccc(-c2c3nc(c(-c4cccc(S(=O)(=O)[O-])c4F)c4ccc([nH]4)c(-c4cccc(S(=O)(=O)[O-])c4F)c4nc(c(-c5cccc(S(=O)(=O)[O-])c5F)c5ccc2[nH]5)C=C4)C=C3)cc1
REMARK SMILES IDX 17 1 16 2 15 3 13 4 14 5 11 7 12 8 2 9 1 10 3 11 4 13 5 14
REMARK SMILES IDX 10 15 6 16 8 17 7 18 9 19 18 20 19 21 20 22 21 24 22 25
REMARK SMILES IDX 23 26 84 27 24 28 83 29 25 30 26 31 27 32 77 33 28 34 82 35
REMARK SMILES IDX 76 36 78 37 29 38 81 39 75 40 74 41 30 43 62 44 42 45 61 46
REMARK SMILES IDX 43 47 46 48 60 49 79 50 44 51 45 52 59 54 80 55 47 56 31 57
REMARK SMILES IDX 32 58 40 59 33 60 35 61 41 62 34 63 36 64 37 65 38 66 39 67
REMARK SMILES IDX 63 68 64 69 72 70 65 71 67 72 73 73 66 74 68 75 69 76 70 77
REMARK SMILES IDX 71 78 48 79 49 80 57 81 50 82 52 83 58 84 51 85 53 86 54 87
REMARK SMILES IDX 55 88 56 89
REMARK H PARENT 15 6 3 12 19 23 78 42 46 53
REMARK Flexibility Score: inf
ROOT
ATOM      1  C   UNL A   1      33.237  28.240  27.150  1.00  0.00     0.042 C 
ENDROOT
BRANCH   1   2
ATOM      2  C   UNL A   1      31.719  28.336  27.279  1.00  0.00     0.117 C 
BRANCH   2   3
ATOM      3  N   UNL A   1      31.054  27.050  27.201  1.00  0.00    -0.356 N 
ATOM      4  C   UNL A   1      30.821  26.200  26.169  1.00  0.00     0.224 C 
ATOM      5  O   UNL A   1      30.395  25.080  26.479  1.00  0.00    -0.275 OA
ATOM      6  H   UNL A   1      30.704  26.730  28.064  1.00  0.00     0.163 HD
BRANCH   4   7
ATOM      7  C   UNL A   1      31.153  26.512  24.711  1.00  0.00     0.097 C 
ATOM      8  C   UNL A   1      29.895  26.167  23.900  1.00  0.00     0.020 C 
BRANCH   7   9
ATOM      9  C   UNL A   1      32.473  25.912  24.165  1.00  0.00     0.088 C 
ATOM     10  C   UNL A   1      33.338  26.978  23.464  1.00  0.00     0.031 C 
BRANCH   9  11
ATOM     11  N   UNL A   1      33.361  25.244  25.134  1.00  0.00    -0.382 N 
ATOM     12  H   UNL A   1      33.405  25.654  26.026  1.00  0.00     0.160 HD
BRANCH  11  13
ATOM     13  C   UNL A   1      34.135  24.122  24.954  1.00  0.00     0.036 A 
ATOM     14  C   UNL A   1      35.530  24.172  24.928  1.00  0.00     0.026 A 
ATOM     15  C   UNL A   1      33.522  22.873  24.802  1.00  0.00     0.046 A 
ATOM     16  C   UNL A   1      36.298  23.029  24.685  1.00  0.00     0.004 A 
ATOM     17  C   UNL A   1      34.286  21.725  24.579  1.00  0.00     0.043 A 
ATOM     18  C   UNL A   1      35.673  21.800  24.503  1.00  0.00     0.020 A 
ATOM     19  Cl  UNL A   1      33.504  20.202  24.387  1.00  0.00    -0.084 Cl
ENDBRANCH  11  13
ENDBRANCH   9  11
ENDBRANCH   7   9
ENDBRANCH   4   7
ENDBRANCH   2   3
ENDBRANCH   1   2
BRANCH   1  20
ATOM     20  C   UNL A   1      33.878  29.320  26.285  1.00  0.00     0.118 C 
BRANCH  20  21
ATOM     21  N   UNL A   1      33.845  30.638  26.901  1.00  0.00    -0.352 N 
ATOM     22  C   UNL A   1      34.630  31.197  27.879  1.00  0.00     0.251 C 
ATOM     23  H   UNL A   1      33.136  31.231  26.559  1.00  0.00     0.163 HD
ATOM     24  O   UNL A   1      34.282  32.264  28.381  1.00  0.00    -0.269 OA
BRANCH  22  25
ATOM     25  C   UNL A   1      35.870  30.536  28.345  1.00  0.00     0.039 A 
ATOM     26  C   UNL A   1      37.043  30.708  27.601  1.00  0.00     0.014 A 
ATOM     27  C   UNL A   1      35.882  29.710  29.471  1.00  0.00     0.014 A 
ATOM     28  C   UNL A   1      38.234  30.108  28.023  1.00  0.00     0.010 A 
ATOM     29  C   UNL A   1      37.086  29.181  29.936  1.00  0.00     0.010 A 
ATOM     30  C   UNL A   1      38.275  29.368  29.215  1.00  0.00    -0.014 A 
BRANCH  30  31
ATOM     31  C   UNL A   1      39.550  28.802  29.733  1.00  0.00     0.031 A 
ATOM     32  C   UNL A   1      40.290  29.485  30.854  1.00  0.00     0.074 A 
ATOM     33  C   UNL A   1      40.095  27.730  29.124  1.00  0.00     0.049 A 
ATOM     34  N   UNL A   1      41.447  29.178  31.383  1.00  0.00    -0.248 NA
ATOM     35  C   UNL A   1      39.667  30.684  31.438  1.00  0.00     0.031 C 
ATOM     36  C   UNL A   1      39.524  27.032  27.969  1.00  0.00     0.029 A 
ATOM     37  N   UNL A   1      41.269  27.060  29.366  1.00  0.00    -0.354 N 
ATOM     38  C   UNL A   1      41.713  30.167  32.321  1.00  0.00     0.074 A 
ATOM     39  C   UNL A   1      40.605  31.097  32.279  1.00  0.00     0.031 C 
ATOM     40  C   UNL A   1      40.351  26.043  27.598  1.00  0.00     0.029 A 
ATOM     41  C   UNL A   1      41.524  26.051  28.465  1.00  0.00     0.049 A 
ATOM     42  H   UNL A   1      41.871  27.281  30.112  1.00  0.00     0.167 HD
ATOM     43  C   UNL A   1      42.772  30.281  33.158  1.00  0.00     0.034 A 
ATOM     44  C   UNL A   1      42.589  25.233  28.339  1.00  0.00     0.034 A 
ATOM     45  C   UNL A   1      43.841  29.323  33.241  1.00  0.00     0.049 A 
ATOM     46  C   UNL A   1      43.717  25.341  29.330  1.00  0.00     0.074 A 
ATOM     47  C   UNL A   1      44.890  29.284  34.144  1.00  0.00     0.029 A 
ATOM     48  N   UNL A   1      44.008  28.245  32.387  1.00  0.00    -0.354 N 
ATOM     49  N   UNL A   1      43.854  26.170  30.336  1.00  0.00    -0.248 NA
ATOM     50  C   UNL A   1      44.818  24.375  29.194  1.00  0.00     0.031 C 
ATOM     51  C   UNL A   1      45.707  28.198  33.817  1.00  0.00     0.029 A 
ATOM     52  C   UNL A   1      45.152  27.544  32.731  1.00  0.00     0.049 A 
ATOM     53  H   UNL A   1      43.403  28.012  31.647  1.00  0.00     0.167 HD
ATOM     54  C   UNL A   1      45.036  25.806  30.971  1.00  0.00     0.074 A 
ATOM     55  C   UNL A   1      45.563  24.666  30.252  1.00  0.00     0.031 C 
ATOM     56  C   UNL A   1      45.639  26.376  32.043  1.00  0.00     0.034 A 
BRANCH  43  57
ATOM     57  C   UNL A   1      42.812  31.458  34.098  1.00  0.00     0.023 A 
ATOM     58  C   UNL A   1      43.396  32.669  33.674  1.00  0.00     0.012 A 
ATOM     59  C   UNL A   1      42.191  31.394  35.360  1.00  0.00     0.148 A 
ATOM     60  C   UNL A   1      43.384  33.790  34.503  1.00  0.00     0.002 A 
ATOM     61  C   UNL A   1      42.143  32.528  36.163  1.00  0.00     0.091 A 
ATOM     62  F   UNL A   1      41.658  30.227  35.752  1.00  0.00    -0.205 F 
ATOM     63  C   UNL A   1      42.747  33.723  35.740  1.00  0.00     0.022 A 
BRANCH  61  64
ATOM     64  S   UNL A   1      41.276  32.570  37.735  1.00  0.00     0.127 S 
ATOM     65  O   UNL A   1      39.960  32.057  37.361  1.00  0.00    -0.237 OA
ATOM     66  O   UNL A   1      42.077  31.659  38.552  1.00  0.00    -0.237 OA
ATOM     67  O   UNL A   1      41.301  33.960  38.172  1.00  0.00    -0.744 OA
ENDBRANCH  61  64
ENDBRANCH  43  57
BRANCH  44  68
ATOM     68  C   UNL A   1      42.616  24.206  27.260  1.00  0.00     0.023 A 
ATOM     69  C   UNL A   1      43.277  24.488  26.049  1.00  0.00     0.012 A 
ATOM     70  C   UNL A   1      42.008  22.947  27.432  1.00  0.00     0.148 A 
ATOM     71  C   UNL A   1      43.299  23.550  25.016  1.00  0.00     0.002 A 
ATOM     72  C   UNL A   1      42.085  21.996  26.423  1.00  0.00     0.091 A 
ATOM     73  F   UNL A   1      41.370  22.701  28.586  1.00  0.00    -0.205 F 
ATOM     74  C   UNL A   1      42.713  22.301  25.206  1.00  0.00     0.022 A 
BRANCH  72  75
ATOM     75  S   UNL A   1      41.481  20.318  26.641  1.00  0.00     0.127 S 
ATOM     76  O   UNL A   1      42.185  19.900  27.850  1.00  0.00    -0.237 OA
ATOM     77  O   UNL A   1      40.043  20.531  26.808  1.00  0.00    -0.237 OA
ATOM     78  O   UNL A   1      41.839  19.613  25.417  1.00  0.00    -0.744 OA
ENDBRANCH  72  75
ENDBRANCH  44  68
BRANCH  56  79
ATOM     79  C   UNL A   1      46.921  25.761  32.536  1.00  0.00     0.023 A 
ATOM     80  C   UNL A   1      48.155  26.197  32.013  1.00  0.00     0.012 A 
ATOM     81  C   UNL A   1      46.909  24.807  33.573  1.00  0.00     0.148 A 
ATOM     82  C   UNL A   1      49.354  25.670  32.492  1.00  0.00     0.002 A 
ATOM     83  C   UNL A   1      48.109  24.323  34.080  1.00  0.00     0.091 A 
ATOM     84  F   UNL A   1      45.725  24.391  34.045  1.00  0.00    -0.205 F 
ATOM     85  C   UNL A   1      49.332  24.744  33.532  1.00  0.00     0.022 A 
BRANCH  83  86
ATOM     86  S   UNL A   1      48.179  23.204  35.484  1.00  0.00     0.127 S 
ATOM     87  O   UNL A   1      49.579  22.785  35.461  1.00  0.00    -0.237 OA
ATOM     88  O   UNL A   1      47.822  24.082  36.599  1.00  0.00    -0.237 OA
ATOM     89  O   UNL A   1      47.207  22.155  35.207  1.00  0.00    -0.744 OA
ENDBRANCH  83  86
ENDBRANCH  56  79
ENDBRANCH  30  31
ENDBRANCH  22  25
ENDBRANCH  20  21
ENDBRANCH   1  20
TORSDOF 16
ENDMDL
MODEL 3
REMARK VINA RESULT:     -10.4      4.202     10.094
REMARK SMILES C[C@@H](Nc1cccc(Cl)c1)[C@@H](C)C(=O)NCCCNC(=O)c1ccc(-c2c3nc(c(-c4cccc(S(=O)(=O)[O-])c4F)c4ccc([nH]4)c(-c4cccc(S(=O)(=O)[O-])c4F)c4nc(c(-c5cccc(S(=O)(=O)[O-])c5F)c5ccc2[nH]5)C=C4)C=C3)cc1
REMARK SMILES IDX 17 1 16 2 15 3 13 4 14 5 11 7 12 8 2 9 1 10 3 11 4 13 5 14
REMARK SMILES IDX 10 15 6 16 8 17 7 18 9 19 18 20 19 21 20 22 21 24 22 25
REMARK SMILES IDX 23 26 84 27 24 28 83 29 25 30 26 31 27 32 77 33 28 34 82 35
REMARK SMILES IDX 76 36 78 37 29 38 81 39 75 40 74 41 30 43 62 44 42 45 61 46
REMARK SMILES IDX 43 47 46 48 60 49 79 50 44 51 45 52 59 54 80 55 47 56 31 57
REMARK SMILES IDX 32 58 40 59 33 60 35 61 41 62 34 63 36 64 37 65 38 66 39 67
REMARK SMILES IDX 63 68 64 69 72 70 65 71 67 72 73 73 66 74 68 75 69 76 70 77
REMARK SMILES IDX 71 78 48 79 49 80 57 81 50 82 52 83 58 84 51 85 53 86 54 87
REMARK SMILES IDX 55 88 56 89
REMARK H PARENT 15 6 3 12 19 23 78 42 46 53
REMARK Flexibility Score: inf
ROOT
ATOM      1  C   UNL A   1      31.488  31.870  26.520  1.00  0.00     0.042 C 
ENDROOT
BRANCH   1   2
ATOM      2  C   UNL A   1      31.691  30.474  25.936  1.00  0.00     0.117 C 
BRANCH   2   3
ATOM      3  N   UNL A   1      31.685  29.426  26.938  1.00  0.00    -0.356 N 
ATOM      4  C   UNL A   1      31.653  28.072  26.848  1.00  0.00     0.224 C 
ATOM      5  O   UNL A   1      31.859  27.457  27.902  1.00  0.00    -0.275 OA
ATOM      6  H   UNL A   1      31.710  29.761  27.864  1.00  0.00     0.163 HD
BRANCH   4   7
ATOM      7  C   UNL A   1      31.489  27.306  25.538  1.00  0.00     0.097 C 
ATOM      8  C   UNL A   1      30.361  26.288  25.772  1.00  0.00     0.020 C 
BRANCH   7   9
ATOM      9  C   UNL A   1      32.784  26.720  24.920  1.00  0.00     0.088 C 
ATOM     10  C   UNL A   1      33.650  27.815  24.266  1.00  0.00     0.031 C 
BRANCH   9  11
ATOM     11  N   UNL A   1      33.684  25.978  25.821  1.00  0.00    -0.382 N 
ATOM     12  H   UNL A   1      33.977  26.461  26.626  1.00  0.00     0.160 HD
BRANCH  11  13
ATOM     13  C   UNL A   1      34.169  24.698  25.683  1.00  0.00     0.036 A 
ATOM     14  C   UNL A   1      33.775  23.655  26.523  1.00  0.00     0.026 A 
ATOM     15  C   UNL A   1      35.080  24.407  24.663  1.00  0.00     0.046 A 
ATOM     16  C   UNL A   1      34.324  22.374  26.405  1.00  0.00     0.004 A 
ATOM     17  C   UNL A   1      35.616  23.124  24.527  1.00  0.00     0.043 A 
ATOM     18  C   UNL A   1      35.254  22.109  25.406  1.00  0.00     0.020 A 
ATOM     19  Cl  UNL A   1      36.743  22.797  23.266  1.00  0.00    -0.084 Cl
ENDBRANCH  11  13
ENDBRANCH   9  11
ENDBRANCH   7   9
ENDBRANCH   4   7
ENDBRANCH   2   3
ENDBRANCH   1   2
BRANCH   1  20
ATOM     20  C   UNL A   1      32.707  32.456  27.225  1.00  0.00     0.118 C 
BRANCH  20  21
ATOM     21  N   UNL A   1      32.535  33.855  27.591  1.00  0.00    -0.352 N 
ATOM     22  C   UNL A   1      33.145  34.615  28.556  1.00  0.00     0.251 C 
ATOM     23  H   UNL A   1      31.865  34.337  27.054  1.00  0.00     0.163 HD
ATOM     24  O   UNL A   1      32.689  35.729  28.810  1.00  0.00    -0.269 OA
BRANCH  22  25
ATOM     25  C   UNL A   1      34.324  34.117  29.302  1.00  0.00     0.039 A 
ATOM     26  C   UNL A   1      34.114  33.315  30.430  1.00  0.00     0.014 A 
ATOM     27  C   UNL A   1      35.625  34.469  28.937  1.00  0.00     0.014 A 
ATOM     28  C   UNL A   1      35.207  32.817  31.147  1.00  0.00     0.010 A 
ATOM     29  C   UNL A   1      36.713  33.905  29.603  1.00  0.00     0.010 A 
ATOM     30  C   UNL A   1      36.518  33.078  30.719  1.00  0.00    -0.014 A 
BRANCH  30  31
ATOM     31  C   UNL A   1      37.692  32.480  31.409  1.00  0.00     0.031 A 
ATOM     32  C   UNL A   1      38.449  31.338  30.782  1.00  0.00     0.074 A 
ATOM     33  C   UNL A   1      38.014  32.897  32.651  1.00  0.00     0.049 A 
ATOM     34  N   UNL A   1      39.448  30.647  31.269  1.00  0.00    -0.248 NA
ATOM     35  C   UNL A   1      38.010  30.894  29.449  1.00  0.00     0.031 C 
ATOM     36  C   UNL A   1      37.304  33.932  33.406  1.00  0.00     0.029 A 
ATOM     37  N   UNL A   1      38.999  32.477  33.511  1.00  0.00    -0.354 N 
ATOM     38  C   UNL A   1      39.724  29.661  30.330  1.00  0.00     0.074 A 
ATOM     39  C   UNL A   1      38.776  29.830  29.250  1.00  0.00     0.031 C 
ATOM     40  C   UNL A   1      37.868  34.058  34.618  1.00  0.00     0.029 A 
ATOM     41  C   UNL A   1      38.958  33.097  34.740  1.00  0.00     0.049 A 
ATOM     42  H   UNL A   1      39.669  31.798  33.273  1.00  0.00     0.167 HD
ATOM     43  C   UNL A   1      40.692  28.714  30.352  1.00  0.00     0.034 A 
ATOM     44  C   UNL A   1      39.703  32.904  35.847  1.00  0.00     0.034 A 
ATOM     45  C   UNL A   1      41.671  28.587  31.397  1.00  0.00     0.049 A 
ATOM     46  C   UNL A   1      40.817  31.892  35.814  1.00  0.00     0.074 A 
ATOM     47  C   UNL A   1      42.768  27.743  31.447  1.00  0.00     0.029 A 
ATOM     48  N   UNL A   1      41.670  29.310  32.578  1.00  0.00    -0.354 N 
ATOM     49  N   UNL A   1      41.181  31.099  34.836  1.00  0.00    -0.248 NA
ATOM     50  C   UNL A   1      41.647  31.775  37.022  1.00  0.00     0.031 C 
ATOM     51  C   UNL A   1      43.413  27.937  32.672  1.00  0.00     0.029 A 
ATOM     52  C   UNL A   1      42.736  28.922  33.372  1.00  0.00     0.049 A 
ATOM     53  H   UNL A   1      41.009  30.000  32.817  1.00  0.00     0.167 HD
ATOM     54  C   UNL A   1      42.301  30.415  35.297  1.00  0.00     0.074 A 
ATOM     55  C   UNL A   1      42.570  30.905  36.632  1.00  0.00     0.031 C 
ATOM     56  C   UNL A   1      43.029  29.456  34.677  1.00  0.00     0.034 A 
BRANCH  43  57
ATOM     57  C   UNL A   1      40.783  27.762  29.188  1.00  0.00     0.023 A 
ATOM     58  C   UNL A   1      39.925  26.644  29.132  1.00  0.00     0.012 A 
ATOM     59  C   UNL A   1      41.650  28.023  28.109  1.00  0.00     0.148 A 
ATOM     60  C   UNL A   1      39.945  25.789  28.031  1.00  0.00     0.002 A 
ATOM     61  C   UNL A   1      41.633  27.191  26.995  1.00  0.00     0.091 A 
ATOM     62  F   UNL A   1      42.471  29.080  28.191  1.00  0.00    -0.205 F 
ATOM     63  C   UNL A   1      40.790  26.070  26.959  1.00  0.00     0.022 A 
BRANCH  61  64
ATOM     64  S   UNL A   1      42.621  27.511  25.530  1.00  0.00     0.127 S 
ATOM     65  O   UNL A   1      42.325  26.335  24.713  1.00  0.00    -0.237 OA
ATOM     66  O   UNL A   1      42.040  28.759  25.035  1.00  0.00    -0.237 OA
ATOM     67  O   UNL A   1      43.999  27.620  25.988  1.00  0.00    -0.744 OA
ENDBRANCH  61  64
ENDBRANCH  43  57
BRANCH  44  68
ATOM     68  C   UNL A   1      39.452  33.723  37.067  1.00  0.00     0.023 A 
ATOM     69  C   UNL A   1      39.898  35.058  37.112  1.00  0.00     0.012 A 
ATOM     70  C   UNL A   1      38.759  33.194  38.173  1.00  0.00     0.148 A 
ATOM     71  C   UNL A   1      39.693  35.839  38.250  1.00  0.00     0.002 A 
ATOM     72  C   UNL A   1      38.504  33.996  39.280  1.00  0.00     0.091 A 
ATOM     73  F   UNL A   1      38.354  31.917  38.119  1.00  0.00    -0.205 F 
ATOM     74  C   UNL A   1      38.988  35.312  39.329  1.00  0.00     0.022 A 
BRANCH  72  75
ATOM     75  S   UNL A   1      37.483  33.440  40.649  1.00  0.00     0.127 S 
ATOM     76  O   UNL A   1      38.372  32.499  41.325  1.00  0.00    -0.237 OA
ATOM     77  O   UNL A   1      37.239  34.688  41.374  1.00  0.00    -0.237 OA
ATOM     78  O   UNL A   1      36.291  32.866  40.037  1.00  0.00    -0.744 OA
ENDBRANCH  72  75
ENDBRANCH  44  68
BRANCH  56  79
ATOM     79  C   UNL A   1      44.214  28.889  35.412  1.00  0.00     0.023 A 
ATOM     80  C   UNL A   1      45.484  29.479  35.256  1.00  0.00     0.012 A 
ATOM     81  C   UNL A   1      44.055  27.821  36.318  1.00  0.00     0.148 A 
ATOM     82  C   UNL A   1      46.583  28.994  35.965  1.00  0.00     0.002 A 
ATOM     83  C   UNL A   1      45.143  27.376  37.058  1.00  0.00     0.091 A 
ATOM     84  F   UNL A   1      42.842  27.261  36.439  1.00  0.00    -0.205 F 
ATOM     85  C   UNL A   1      46.410  27.953  36.874  1.00  0.00     0.022 A 
BRANCH  83  86
ATOM     86  S   UNL A   1      44.993  26.108  38.321  1.00  0.00     0.127 S 
ATOM     87  O   UNL A   1      44.590  24.947  37.531  1.00  0.00    -0.237 OA
ATOM     88  O   UNL A   1      46.354  26.039  38.857  1.00  0.00    -0.237 OA
ATOM     89  O   UNL A   1      43.998  26.599  39.265  1.00  0.00    -0.744 OA
ENDBRANCH  83  86
ENDBRANCH  56  79
ENDBRANCH  30  31
ENDBRANCH  22  25
ENDBRANCH  20  21
ENDBRANCH   1  20
TORSDOF 16
ENDMDL
