MODEL 1
REMARK VINA RESULT:     -12.5      0.000      0.000
REMARK SMILES N#Cc1cccnc1N1CC[NH+]([C@@H](C(=O)NCCCNC(=O)c2ccc(-c3c4nc(c(-c5cccc(S(=O)(=O)[O-])c5F)c5ccc([nH]5)c(-c5cccc(S(=O)(=O)[O-])c5F)c5nc(c(-c6cccc(S(=O)(=O)[O-])c6F)c6ccc3[nH]6)C=C5)C=C4)cc2)c2c[nH]c3cc(CO)ccc23)CC1
REMARK SMILES IDX 18 1 17 2 16 3 14 4 15 5 13 7 12 8 9 9 10 10 98 11 11 12
REMARK SMILES IDX 97 13 8 15 3 16 4 17 5 18 7 19 6 20 2 21 1 22 86 23 87 24
REMARK SMILES IDX 96 25 88 26 89 27 95 28 90 30 94 31 91 32 92 33 93 34 19 36
REMARK SMILES IDX 20 37 21 38 22 40 23 41 24 42 85 43 25 44 84 45 26 46 27 47
REMARK SMILES IDX 28 48 78 49 29 50 83 51 77 52 79 53 30 54 82 55 76 56 75 57
REMARK SMILES IDX 31 59 63 60 43 61 62 62 44 63 47 64 61 65 80 66 45 67 46 68
REMARK SMILES IDX 60 70 81 71 48 72 32 73 33 74 41 75 34 76 36 77 42 78 35 79
REMARK SMILES IDX 37 80 38 81 39 82 40 83 64 84 65 85 73 86 66 87 68 88 74 89
REMARK SMILES IDX 67 90 69 91 70 92 71 93 72 94 49 95 50 96 58 97 51 98 53 99
REMARK SMILES IDX 59 100 52 101 54 102 55 103 56 104 57 105
REMARK H PARENT 16 6 12 14 88 29 93 35 20 39 79 58 47 69
REMARK Flexibility Score: inf
ROOT
ATOM      1  C   UNL A   1      33.384  29.042  24.195  1.00  0.00     0.042 C 
ENDROOT
BRANCH   1   2
ATOM      2  C   UNL A   1      34.025  28.135  23.102  1.00  0.00     0.118 C 
BRANCH   2   3
ATOM      3  N   UNL A   1      33.111  27.419  22.214  1.00  0.00    -0.351 N 
ATOM      4  C   UNL A   1      32.012  26.599  22.333  1.00  0.00     0.283 C 
ATOM      5  O   UNL A   1      31.458  26.406  21.244  1.00  0.00    -0.268 OA
ATOM      6  H   UNL A   1      33.346  27.565  21.269  1.00  0.00     0.163 HD
BRANCH   4   7
ATOM      7  C   UNL A   1      31.447  26.036  23.677  1.00  0.00     0.307 C 
BRANCH   7   8
ATOM      8  N   UNL A   1      31.292  24.529  23.812  1.00  0.00    -0.318 N 
ATOM      9  N   UNL A   1      33.783  23.139  24.622  1.00  0.00    -0.344 N 
ATOM     10  C   UNL A   1      33.596  23.640  23.259  1.00  0.00     0.179 C 
ATOM     11  C   UNL A   1      32.910  23.744  25.634  1.00  0.00     0.179 C 
ATOM     12  C   UNL A   1      32.096  23.636  22.944  1.00  0.00     0.284 C 
ATOM     13  C   UNL A   1      31.445  23.951  25.148  1.00  0.00     0.284 C 
ATOM     14  H   UNL A   1      30.320  24.537  23.501  1.00  0.00     0.349 HD
BRANCH   9  15
ATOM     15  C   UNL A   1      35.119  22.985  25.008  1.00  0.00     0.146 A 
ATOM     16  C   UNL A   1      35.709  21.720  25.111  1.00  0.00     0.095 A 
ATOM     17  C   UNL A   1      37.057  21.627  25.467  1.00  0.00     0.025 A 
ATOM     18  C   UNL A   1      37.772  22.779  25.773  1.00  0.00     0.022 A 
ATOM     19  N   UNL A   1      35.825  24.111  25.292  1.00  0.00    -0.238 NA
ATOM     20  C   UNL A   1      37.114  23.989  25.678  1.00  0.00     0.113 A 
BRANCH  16  21
ATOM     21  C   UNL A   1      34.946  20.521  24.904  1.00  0.00     0.103 C 
ATOM     22  N   UNL A   1      34.237  19.632  24.711  1.00  0.00    -0.192 NA
ENDBRANCH  16  21
ENDBRANCH   9  15
ENDBRANCH   7   8
BRANCH   7  23
ATOM     23  C   UNL A   1      30.115  26.688  24.177  1.00  0.00     0.044 A 
ATOM     24  C   UNL A   1      28.982  25.970  24.544  1.00  0.00     0.094 A 
ATOM     25  C   UNL A   1      29.599  28.024  23.957  1.00  0.00     0.009 A 
ATOM     26  N   UNL A   1      27.950  26.557  23.837  1.00  0.00    -0.361 N 
ATOM     27  C   UNL A   1      28.334  27.805  23.402  1.00  0.00     0.046 A 
ATOM     28  C   UNL A   1      30.118  29.329  23.881  1.00  0.00     0.011 A 
ATOM     29  H   UNL A   1      27.071  26.145  23.671  1.00  0.00     0.166 HD
ATOM     30  C   UNL A   1      27.768  28.685  22.462  1.00  0.00     0.032 A 
ATOM     31  C   UNL A   1      29.494  30.274  23.058  1.00  0.00     0.007 A 
ATOM     32  C   UNL A   1      28.430  29.902  22.230  1.00  0.00    -0.021 A 
BRANCH  32  33
ATOM     33  C   UNL A   1      28.044  30.792  21.074  1.00  0.00     0.191 C 
BRANCH  33  34
ATOM     34  O   UNL A   1      28.987  31.846  20.886  1.00  0.00    -0.392 OA
ATOM     35  H   UNL A   1      28.773  32.581  21.481  1.00  0.00     0.211 HD
ENDBRANCH  33  34
ENDBRANCH  32  33
ENDBRANCH   7  23
ENDBRANCH   4   7
ENDBRANCH   2   3
ENDBRANCH   1   2
BRANCH   1  36
ATOM     36  C   UNL A   1      33.835  28.873  25.662  1.00  0.00     0.118 C 
BRANCH  36  37
ATOM     37  N   UNL A   1      33.712  30.106  26.417  1.00  0.00    -0.352 N 
ATOM     38  C   UNL A   1      34.462  30.599  27.461  1.00  0.00     0.251 C 
ATOM     39  H   UNL A   1      32.969  30.687  26.137  1.00  0.00     0.163 HD
ATOM     40  O   UNL A   1      34.029  31.576  28.072  1.00  0.00    -0.269 OA
BRANCH  38  41
ATOM     41  C   UNL A   1      35.768  30.016  27.875  1.00  0.00     0.039 A 
ATOM     42  C   UNL A   1      35.885  29.503  29.175  1.00  0.00     0.014 A 
ATOM     43  C   UNL A   1      36.914  30.110  27.084  1.00  0.00     0.014 A 
ATOM     44  C   UNL A   1      37.126  29.065  29.669  1.00  0.00     0.010 A 
ATOM     45  C   UNL A   1      38.152  29.661  27.580  1.00  0.00     0.010 A 
ATOM     46  C   UNL A   1      38.280  29.127  28.874  1.00  0.00    -0.014 A 
BRANCH  46  47
ATOM     47  C   UNL A   1      39.602  28.642  29.387  1.00  0.00     0.031 A 
ATOM     48  C   UNL A   1      40.322  29.360  30.506  1.00  0.00     0.074 A 
ATOM     49  C   UNL A   1      40.202  27.576  28.817  1.00  0.00     0.049 A 
ATOM     50  N   UNL A   1      41.486  29.093  31.048  1.00  0.00    -0.248 NA
ATOM     51  C   UNL A   1      39.661  30.544  31.074  1.00  0.00     0.031 C 
ATOM     52  C   UNL A   1      39.671  26.815  27.685  1.00  0.00     0.029 A 
ATOM     53  N   UNL A   1      41.401  26.957  29.095  1.00  0.00    -0.354 N 
ATOM     54  C   UNL A   1      41.712  30.088  31.992  1.00  0.00     0.074 A 
ATOM     55  C   UNL A   1      40.576  30.983  31.929  1.00  0.00     0.031 C 
ATOM     56  C   UNL A   1      40.531  25.831  27.372  1.00  0.00     0.029 A 
ATOM     57  C   UNL A   1      41.690  25.903  28.257  1.00  0.00     0.049 A 
ATOM     58  H   UNL A   1      41.996  27.242  29.826  1.00  0.00     0.167 HD
ATOM     59  C   UNL A   1      42.750  30.236  32.855  1.00  0.00     0.034 A 
ATOM     60  C   UNL A   1      42.764  25.087  28.196  1.00  0.00     0.034 A 
ATOM     61  C   UNL A   1      43.862  29.327  32.965  1.00  0.00     0.049 A 
ATOM     62  C   UNL A   1      43.887  25.251  29.186  1.00  0.00     0.074 A 
ATOM     63  C   UNL A   1      44.911  29.359  33.869  1.00  0.00     0.029 A 
ATOM     64  N   UNL A   1      44.076  28.228  32.150  1.00  0.00    -0.354 N 
ATOM     65  N   UNL A   1      44.003  26.112  30.168  1.00  0.00    -0.248 NA
ATOM     66  C   UNL A   1      45.013  24.309  29.082  1.00  0.00     0.031 C 
ATOM     67  C   UNL A   1      45.772  28.293  33.583  1.00  0.00     0.029 A 
ATOM     68  C   UNL A   1      45.245  27.581  32.521  1.00  0.00     0.049 A 
ATOM     69  H   UNL A   1      43.485  27.947  31.414  1.00  0.00     0.167 HD
ATOM     70  C   UNL A   1      45.192  25.792  30.818  1.00  0.00     0.074 A 
ATOM     71  C   UNL A   1      45.749  24.646  30.132  1.00  0.00     0.031 C 
ATOM     72  C   UNL A   1      45.773  26.405  31.879  1.00  0.00     0.034 A 
BRANCH  59  73
ATOM     73  C   UNL A   1      42.715  31.413  33.801  1.00  0.00     0.023 A 
ATOM     74  C   UNL A   1      43.253  32.650  33.391  1.00  0.00     0.012 A 
ATOM     75  C   UNL A   1      42.089  31.316  35.060  1.00  0.00     0.148 A 
ATOM     76  C   UNL A   1      43.202  33.761  34.233  1.00  0.00     0.002 A 
ATOM     77  C   UNL A   1      42.004  32.440  35.876  1.00  0.00     0.091 A 
ATOM     78  F   UNL A   1      41.597  30.129  35.441  1.00  0.00    -0.205 F 
ATOM     79  C   UNL A   1      42.571  33.658  35.469  1.00  0.00     0.022 A 
BRANCH  77  80
ATOM     80  S   UNL A   1      41.142  32.429  37.452  1.00  0.00     0.127 S 
ATOM     81  O   UNL A   1      41.998  31.552  38.250  1.00  0.00    -0.237 OA
ATOM     82  O   UNL A   1      41.187  33.840  37.839  1.00  0.00    -0.237 OA
ATOM     83  O   UNL A   1      39.807  31.920  37.175  1.00  0.00    -0.744 OA
ENDBRANCH  77  80
ENDBRANCH  59  73
BRANCH  60  84
ATOM     84  C   UNL A   1      42.806  23.986  27.188  1.00  0.00     0.023 A 
ATOM     85  C   UNL A   1      43.515  24.178  25.985  1.00  0.00     0.012 A 
ATOM     86  C   UNL A   1      42.162  22.755  27.416  1.00  0.00     0.148 A 
ATOM     87  C   UNL A   1      43.558  23.176  25.016  1.00  0.00     0.002 A 
ATOM     88  C   UNL A   1      42.254  21.740  26.469  1.00  0.00     0.091 A 
ATOM     89  F   UNL A   1      41.478  22.599  28.557  1.00  0.00    -0.205 F 
ATOM     90  C   UNL A   1      42.938  21.954  25.262  1.00  0.00     0.022 A 
BRANCH  88  91
ATOM     91  S   UNL A   1      41.584  20.096  26.741  1.00  0.00     0.127 S 
ATOM     92  O   UNL A   1      40.170  20.385  26.969  1.00  0.00    -0.237 OA
ATOM     93  O   UNL A   1      41.878  19.437  25.468  1.00  0.00    -0.237 OA
ATOM     94  O   UNL A   1      42.306  19.558  27.884  1.00  0.00    -0.744 OA
ENDBRANCH  88  91
ENDBRANCH  60  84
BRANCH  72  95
ATOM     95  C   UNL A   1      47.068  25.835  32.405  1.00  0.00     0.023 A 
ATOM     96  C   UNL A   1      47.057  24.983  33.527  1.00  0.00     0.012 A 
ATOM     97  C   UNL A   1      48.286  26.084  31.741  1.00  0.00     0.148 A 
ATOM     98  C   UNL A   1      48.240  24.414  33.999  1.00  0.00     0.002 A 
ATOM     99  C   UNL A   1      49.454  25.476  32.188  1.00  0.00     0.091 A 
ATOM    100  F   UNL A   1      48.282  26.912  30.686  1.00  0.00    -0.205 F 
ATOM    101  C   UNL A   1      49.435  24.650  33.323  1.00  0.00     0.022 A 
BRANCH  99 102
ATOM    102  S   UNL A   1      51.022  25.646  31.326  1.00  0.00     0.127 S 
ATOM    103  O   UNL A   1      50.666  25.222  29.973  1.00  0.00    -0.237 OA
ATOM    104  O   UNL A   1      51.298  27.077  31.463  1.00  0.00    -0.237 OA
ATOM    105  O   UNL A   1      51.961  24.781  32.027  1.00  0.00    -0.744 OA
ENDBRANCH  99 102
ENDBRANCH  72  95
ENDBRANCH  46  47
ENDBRANCH  38  41
ENDBRANCH  36  37
ENDBRANCH   1  36
TORSDOF 19
ENDMDL
MODEL 2
REMARK VINA RESULT:     -12.4      4.565      9.832
REMARK SMILES N#Cc1cccnc1N1CC[NH+]([C@@H](C(=O)NCCCNC(=O)c2ccc(-c3c4nc(c(-c5cccc(S(=O)(=O)[O-])c5F)c5ccc([nH]5)c(-c5cccc(S(=O)(=O)[O-])c5F)c5nc(c(-c6cccc(S(=O)(=O)[O-])c6F)c6ccc3[nH]6)C=C5)C=C4)cc2)c2c[nH]c3cc(CO)ccc23)CC1
REMARK SMILES IDX 18 1 17 2 16 3 14 4 15 5 13 7 12 8 9 9 10 10 98 11 11 12
REMARK SMILES IDX 97 13 8 15 3 16 4 17 5 18 7 19 6 20 2 21 1 22 86 23 87 24
REMARK SMILES IDX 96 25 88 26 89 27 95 28 90 30 94 31 91 32 92 33 93 34 19 36
REMARK SMILES IDX 20 37 21 38 22 40 23 41 24 42 85 43 25 44 84 45 26 46 27 47
REMARK SMILES IDX 28 48 78 49 29 50 83 51 77 52 79 53 30 54 82 55 76 56 75 57
REMARK SMILES IDX 31 59 63 60 43 61 62 62 44 63 47 64 61 65 80 66 45 67 46 68
REMARK SMILES IDX 60 70 81 71 48 72 32 73 33 74 41 75 34 76 36 77 42 78 35 79
REMARK SMILES IDX 37 80 38 81 39 82 40 83 64 84 65 85 73 86 66 87 68 88 74 89
REMARK SMILES IDX 67 90 69 91 70 92 71 93 72 94 49 95 50 96 58 97 51 98 53 99
REMARK SMILES IDX 59 100 52 101 54 102 55 103 56 104 57 105
REMARK H PARENT 16 6 12 14 88 29 93 35 20 39 79 58 47 69
REMARK Flexibility Score: inf
ROOT
ATOM      1  C   UNL A   1      37.135  21.643  24.122  1.00  0.00     0.042 C 
ENDROOT
BRANCH   1   2
ATOM      2  C   UNL A   1      36.655  22.984  23.492  1.00  0.00     0.118 C 
BRANCH   2   3
ATOM      3  N   UNL A   1      35.650  23.744  24.234  1.00  0.00    -0.351 N 
ATOM      4  C   UNL A   1      34.279  23.777  24.346  1.00  0.00     0.283 C 
ATOM      5  O   UNL A   1      33.907  24.489  25.287  1.00  0.00    -0.268 OA
ATOM      6  H   UNL A   1      36.071  24.417  24.816  1.00  0.00     0.163 HD
BRANCH   4   7
ATOM      7  C   UNL A   1      33.281  22.955  23.467  1.00  0.00     0.307 C 
BRANCH   7   8
ATOM      8  N   UNL A   1      32.317  23.720  22.574  1.00  0.00    -0.318 N 
ATOM      9  N   UNL A   1      31.795  26.494  23.481  1.00  0.00    -0.344 N 
ATOM     10  C   UNL A   1      31.196  25.343  24.160  1.00  0.00     0.179 C 
ATOM     11  C   UNL A   1      32.974  26.192  22.663  1.00  0.00     0.179 C 
ATOM     12  C   UNL A   1      31.037  24.210  23.141  1.00  0.00     0.284 C 
ATOM     13  C   UNL A   1      32.842  24.874  21.845  1.00  0.00     0.284 C 
ATOM     14  H   UNL A   1      32.146  22.920  21.965  1.00  0.00     0.349 HD
BRANCH   9  15
ATOM     15  C   UNL A   1      31.900  27.646  24.269  1.00  0.00     0.146 A 
ATOM     16  C   UNL A   1      31.110  28.774  24.022  1.00  0.00     0.095 A 
ATOM     17  C   UNL A   1      31.230  29.885  24.863  1.00  0.00     0.025 A 
ATOM     18  C   UNL A   1      32.171  29.877  25.886  1.00  0.00     0.022 A 
ATOM     19  N   UNL A   1      32.807  27.635  25.281  1.00  0.00    -0.238 NA
ATOM     20  C   UNL A   1      32.935  28.739  26.050  1.00  0.00     0.113 A 
BRANCH  16  21
ATOM     21  C   UNL A   1      30.216  28.831  22.899  1.00  0.00     0.103 C 
ATOM     22  N   UNL A   1      29.584  28.948  21.942  1.00  0.00    -0.192 NA
ENDBRANCH  16  21
ENDBRANCH   9  15
ENDBRANCH   7   8
BRANCH   7  23
ATOM     23  C   UNL A   1      32.450  21.867  24.226  1.00  0.00     0.044 A 
ATOM     24  C   UNL A   1      32.104  21.944  25.571  1.00  0.00     0.094 A 
ATOM     25  C   UNL A   1      32.267  20.463  23.920  1.00  0.00     0.009 A 
ATOM     26  N   UNL A   1      32.490  20.729  26.104  1.00  0.00    -0.361 N 
ATOM     27  C   UNL A   1      32.666  19.812  25.092  1.00  0.00     0.046 A 
ATOM     28  C   UNL A   1      32.104  19.671  22.769  1.00  0.00     0.011 A 
ATOM     29  H   UNL A   1      32.620  20.547  27.062  1.00  0.00     0.166 HD
ATOM     30  C   UNL A   1      33.276  18.545  25.073  1.00  0.00     0.032 A 
ATOM     31  C   UNL A   1      32.576  18.354  22.763  1.00  0.00     0.007 A 
ATOM     32  C   UNL A   1      33.304  17.856  23.848  1.00  0.00    -0.021 A 
BRANCH  32  33
ATOM     33  C   UNL A   1      34.144  16.615  23.671  1.00  0.00     0.191 C 
BRANCH  33  34
ATOM     34  O   UNL A   1      33.611  15.513  24.403  1.00  0.00    -0.392 OA
ATOM     35  H   UNL A   1      32.644  15.580  24.430  1.00  0.00     0.211 HD
ENDBRANCH  33  34
ENDBRANCH  32  33
ENDBRANCH   7  23
ENDBRANCH   4   7
ENDBRANCH   2   3
ENDBRANCH   1   2
BRANCH   1  36
ATOM     36  C   UNL A   1      37.358  21.574  25.648  1.00  0.00     0.118 C 
BRANCH  36  37
ATOM     37  N   UNL A   1      38.445  20.680  26.002  1.00  0.00    -0.352 N 
ATOM     38  C   UNL A   1      39.719  20.948  26.451  1.00  0.00     0.251 C 
ATOM     39  H   UNL A   1      38.238  19.722  25.906  1.00  0.00     0.163 HD
ATOM     40  O   UNL A   1      40.526  20.019  26.485  1.00  0.00    -0.269 OA
BRANCH  38  41
ATOM     41  C   UNL A   1      40.159  22.296  26.905  1.00  0.00     0.039 A 
ATOM     42  C   UNL A   1      39.730  23.416  26.178  1.00  0.00     0.014 A 
ATOM     43  C   UNL A   1      41.105  22.473  27.916  1.00  0.00     0.014 A 
ATOM     44  C   UNL A   1      40.220  24.699  26.473  1.00  0.00     0.010 A 
ATOM     45  C   UNL A   1      41.584  23.762  28.214  1.00  0.00     0.010 A 
ATOM     46  C   UNL A   1      41.148  24.895  27.506  1.00  0.00    -0.014 A 
BRANCH  46  47
ATOM     47  C   UNL A   1      41.659  26.264  27.840  1.00  0.00     0.031 A 
ATOM     48  C   UNL A   1      43.070  26.683  27.496  1.00  0.00     0.074 A 
ATOM     49  C   UNL A   1      40.874  27.137  28.508  1.00  0.00     0.049 A 
ATOM     50  N   UNL A   1      43.681  27.817  27.741  1.00  0.00    -0.248 NA
ATOM     51  C   UNL A   1      43.911  25.692  26.809  1.00  0.00     0.031 C 
ATOM     52  C   UNL A   1      39.514  26.864  28.971  1.00  0.00     0.029 A 
ATOM     53  N   UNL A   1      41.114  28.425  28.934  1.00  0.00    -0.354 N 
ATOM     54  C   UNL A   1      44.981  27.667  27.271  1.00  0.00     0.074 A 
ATOM     55  C   UNL A   1      45.080  26.319  26.752  1.00  0.00     0.031 C 
ATOM     56  C   UNL A   1      39.037  27.948  29.606  1.00  0.00     0.029 A 
ATOM     57  C   UNL A   1      40.063  28.987  29.625  1.00  0.00     0.049 A 
ATOM     58  H   UNL A   1      41.959  28.900  28.760  1.00  0.00     0.167 HD
ATOM     59  C   UNL A   1      45.996  28.568  27.244  1.00  0.00     0.034 A 
ATOM     60  C   UNL A   1      39.934  30.194  30.215  1.00  0.00     0.034 A 
ATOM     61  C   UNL A   1      45.899  29.927  27.711  1.00  0.00     0.049 A 
ATOM     62  C   UNL A   1      41.062  31.189  30.141  1.00  0.00     0.074 A 
ATOM     63  C   UNL A   1      46.853  30.930  27.642  1.00  0.00     0.029 A 
ATOM     64  N   UNL A   1      44.791  30.479  28.331  1.00  0.00    -0.354 N 
ATOM     65  N   UNL A   1      42.230  31.071  29.558  1.00  0.00    -0.248 NA
ATOM     66  C   UNL A   1      40.842  32.497  30.779  1.00  0.00     0.031 C 
ATOM     67  C   UNL A   1      46.331  32.079  28.245  1.00  0.00     0.029 A 
ATOM     68  C   UNL A   1      45.040  31.803  28.663  1.00  0.00     0.049 A 
ATOM     69  H   UNL A   1      43.948  30.002  28.512  1.00  0.00     0.167 HD
ATOM     70  C   UNL A   1      42.866  32.298  29.726  1.00  0.00     0.074 A 
ATOM     71  C   UNL A   1      41.947  33.151  30.447  1.00  0.00     0.031 C 
ATOM     72  C   UNL A   1      44.107  32.674  29.329  1.00  0.00     0.034 A 
BRANCH  59  73
ATOM     73  C   UNL A   1      47.309  28.131  26.639  1.00  0.00     0.023 A 
ATOM     74  C   UNL A   1      48.379  27.773  27.485  1.00  0.00     0.012 A 
ATOM     75  C   UNL A   1      47.461  28.005  25.244  1.00  0.00     0.148 A 
ATOM     76  C   UNL A   1      49.591  27.333  26.952  1.00  0.00     0.002 A 
ATOM     77  C   UNL A   1      48.657  27.523  24.722  1.00  0.00     0.091 A 
ATOM     78  F   UNL A   1      46.439  28.363  24.453  1.00  0.00    -0.205 F 
ATOM     79  C   UNL A   1      49.726  27.200  25.573  1.00  0.00     0.022 A 
BRANCH  77  80
ATOM     80  S   UNL A   1      48.903  27.241  22.965  1.00  0.00     0.127 S 
ATOM     81  O   UNL A   1      50.362  27.208  22.873  1.00  0.00    -0.237 OA
ATOM     82  O   UNL A   1      48.251  25.945  22.765  1.00  0.00    -0.237 OA
ATOM     83  O   UNL A   1      48.257  28.355  22.286  1.00  0.00    -0.744 OA
ENDBRANCH  77  80
ENDBRANCH  59  73
BRANCH  60  84
ATOM     84  C   UNL A   1      38.650  30.562  30.883  1.00  0.00     0.023 A 
ATOM     85  C   UNL A   1      38.462  30.242  32.243  1.00  0.00     0.012 A 
ATOM     86  C   UNL A   1      37.625  31.232  30.187  1.00  0.00     0.148 A 
ATOM     87  C   UNL A   1      37.267  30.557  32.889  1.00  0.00     0.002 A 
ATOM     88  C   UNL A   1      36.457  31.590  30.853  1.00  0.00     0.091 A 
ATOM     89  F   UNL A   1      37.814  31.510  28.890  1.00  0.00    -0.205 F 
ATOM     90  C   UNL A   1      36.270  31.240  32.199  1.00  0.00     0.022 A 
BRANCH  88  91
ATOM     91  S   UNL A   1      35.162  32.566  30.082  1.00  0.00     0.127 S 
ATOM     92  O   UNL A   1      34.232  32.760  31.193  1.00  0.00    -0.237 OA
ATOM     93  O   UNL A   1      35.891  33.768  29.676  1.00  0.00    -0.237 OA
ATOM     94  O   UNL A   1      34.660  31.759  28.979  1.00  0.00    -0.744 OA
ENDBRANCH  88  91
ENDBRANCH  60  84
BRANCH  72  95
ATOM     95  C   UNL A   1      44.548  34.086  29.625  1.00  0.00     0.023 A 
ATOM     96  C   UNL A   1      45.136  34.394  30.868  1.00  0.00     0.012 A 
ATOM     97  C   UNL A   1      44.449  35.092  28.642  1.00  0.00     0.148 A 
ATOM     98  C   UNL A   1      45.589  35.685  31.140  1.00  0.00     0.002 A 
ATOM     99  C   UNL A   1      44.946  36.365  28.903  1.00  0.00     0.091 A 
ATOM    100  F   UNL A   1      43.870  34.789  27.472  1.00  0.00    -0.205 F 
ATOM    101  C   UNL A   1      45.506  36.667  30.155  1.00  0.00     0.022 A 
BRANCH  99 102
ATOM    102  S   UNL A   1      44.967  37.666  27.663  1.00  0.00     0.127 S 
ATOM    103  O   UNL A   1      45.557  38.778  28.407  1.00  0.00    -0.237 OA
ATOM    104  O   UNL A   1      45.832  37.096  26.629  1.00  0.00    -0.237 OA
ATOM    105  O   UNL A   1      43.581  37.852  27.254  1.00  0.00    -0.744 OA
ENDBRANCH  99 102
ENDBRANCH  72  95
ENDBRANCH  46  47
ENDBRANCH  38  41
ENDBRANCH  36  37
ENDBRANCH   1  36
TORSDOF 19
ENDMDL
MODEL 3
REMARK VINA RESULT:     -12.3      2.334      2.882
REMARK SMILES N#Cc1cccnc1N1CC[NH+]([C@@H](C(=O)NCCCNC(=O)c2ccc(-c3c4nc(c(-c5cccc(S(=O)(=O)[O-])c5F)c5ccc([nH]5)c(-c5cccc(S(=O)(=O)[O-])c5F)c5nc(c(-c6cccc(S(=O)(=O)[O-])c6F)c6ccc3[nH]6)C=C5)C=C4)cc2)c2c[nH]c3cc(CO)ccc23)CC1
REMARK SMILES IDX 18 1 17 2 16 3 14 4 15 5 13 7 12 8 9 9 10 10 98 11 11 12
REMARK SMILES IDX 97 13 8 15 3 16 4 17 5 18 7 19 6 20 2 21 1 22 86 23 87 24
REMARK SMILES IDX 96 25 88 26 89 27 95 28 90 30 94 31 91 32 92 33 93 34 19 36
REMARK SMILES IDX 20 37 21 38 22 40 23 41 24 42 85 43 25 44 84 45 26 46 27 47
REMARK SMILES IDX 28 48 78 49 29 50 83 51 77 52 79 53 30 54 82 55 76 56 75 57
REMARK SMILES IDX 31 59 63 60 43 61 62 62 44 63 47 64 61 65 80 66 45 67 46 68
REMARK SMILES IDX 60 70 81 71 48 72 32 73 33 74 41 75 34 76 36 77 42 78 35 79
REMARK SMILES IDX 37 80 38 81 39 82 40 83 64 84 65 85 73 86 66 87 68 88 74 89
REMARK SMILES IDX 67 90 69 91 70 92 71 93 72 94 49 95 50 96 58 97 51 98 53 99
REMARK SMILES IDX 59 100 52 101 54 102 55 103 56 104 57 105
REMARK H PARENT 16 6 12 14 88 29 93 35 20 39 79 58 47 69
REMARK Flexibility Score: inf
ROOT
ATOM      1  C   UNL A   1      33.634  29.110  23.474  1.00  0.00     0.042 C 
ENDROOT
BRANCH   1   2
ATOM      2  C   UNL A   1      33.983  27.800  22.706  1.00  0.00     0.118 C 
BRANCH   2   3
ATOM      3  N   UNL A   1      32.921  27.200  21.900  1.00  0.00    -0.351 N 
ATOM      4  C   UNL A   1      31.737  26.532  22.114  1.00  0.00     0.283 C 
ATOM      5  O   UNL A   1      31.084  26.401  21.072  1.00  0.00    -0.268 OA
ATOM      6  H   UNL A   1      33.104  27.303  20.938  1.00  0.00     0.163 HD
BRANCH   4   7
ATOM      7  C   UNL A   1      31.203  26.064  23.507  1.00  0.00     0.307 C 
BRANCH   7   8
ATOM      8  N   UNL A   1      30.946  24.579  23.711  1.00  0.00    -0.318 N 
ATOM      9  N   UNL A   1      33.373  23.035  24.432  1.00  0.00    -0.344 N 
ATOM     10  C   UNL A   1      33.142  23.499  23.063  1.00  0.00     0.179 C 
ATOM     11  C   UNL A   1      32.610  23.740  25.467  1.00  0.00     0.179 C 
ATOM     12  C   UNL A   1      31.629  23.597  22.835  1.00  0.00     0.284 C 
ATOM     13  C   UNL A   1      31.138  24.040  25.059  1.00  0.00     0.284 C 
ATOM     14  H   UNL A   1      29.961  24.649  23.457  1.00  0.00     0.349 HD
BRANCH   9  15
ATOM     15  C   UNL A   1      34.715  22.795  24.747  1.00  0.00     0.146 A 
ATOM     16  C   UNL A   1      35.219  21.494  24.855  1.00  0.00     0.095 A 
ATOM     17  C   UNL A   1      36.576  21.312  25.136  1.00  0.00     0.025 A 
ATOM     18  C   UNL A   1      37.387  22.417  25.366  1.00  0.00     0.022 A 
ATOM     19  N   UNL A   1      35.515  23.874  24.956  1.00  0.00    -0.238 NA
ATOM     20  C   UNL A   1      36.813  23.669  25.271  1.00  0.00     0.113 A 
BRANCH  16  21
ATOM     21  C   UNL A   1      34.363  20.348  24.728  1.00  0.00     0.103 C 
ATOM     22  N   UNL A   1      33.606  19.478  24.718  1.00  0.00    -0.192 NA
ENDBRANCH  16  21
ENDBRANCH   9  15
ENDBRANCH   7   8
BRANCH   7  23
ATOM     23  C   UNL A   1      29.950  26.832  24.044  1.00  0.00     0.044 A 
ATOM     24  C   UNL A   1      28.788  26.214  24.497  1.00  0.00     0.094 A 
ATOM     25  C   UNL A   1      29.520  28.192  23.793  1.00  0.00     0.009 A 
ATOM     26  N   UNL A   1      27.765  26.848  23.818  1.00  0.00    -0.361 N 
ATOM     27  C   UNL A   1      28.215  28.046  23.312  1.00  0.00     0.046 A 
ATOM     28  C   UNL A   1      30.126  29.452  23.635  1.00  0.00     0.011 A 
ATOM     29  H   UNL A   1      26.852  26.495  23.713  1.00  0.00     0.166 HD
ATOM     30  C   UNL A   1      27.665  28.927  22.364  1.00  0.00     0.032 A 
ATOM     31  C   UNL A   1      29.529  30.407  22.805  1.00  0.00     0.007 A 
ATOM     32  C   UNL A   1      28.399  30.083  22.047  1.00  0.00    -0.021 A 
BRANCH  32  33
ATOM     33  C   UNL A   1      28.017  30.953  20.875  1.00  0.00     0.191 C 
BRANCH  33  34
ATOM     34  O   UNL A   1      28.012  32.335  21.228  1.00  0.00    -0.392 OA
ATOM     35  H   UNL A   1      27.158  32.726  20.989  1.00  0.00     0.211 HD
ENDBRANCH  33  34
ENDBRANCH  32  33
ENDBRANCH   7  23
ENDBRANCH   4   7
ENDBRANCH   2   3
ENDBRANCH   1   2
BRANCH   1  36
ATOM     36  C   UNL A   1      33.358  29.034  24.991  1.00  0.00     0.118 C 
BRANCH  36  37
ATOM     37  N   UNL A   1      32.865  30.292  25.521  1.00  0.00    -0.352 N 
ATOM     38  C   UNL A   1      33.198  30.976  26.668  1.00  0.00     0.251 C 
ATOM     39  H   UNL A   1      32.178  30.729  24.968  1.00  0.00     0.163 HD
ATOM     40  O   UNL A   1      32.487  31.924  27.002  1.00  0.00    -0.269 OA
BRANCH  38  41
ATOM     41  C   UNL A   1      34.378  30.633  27.510  1.00  0.00     0.039 A 
ATOM     42  C   UNL A   1      35.395  31.588  27.651  1.00  0.00     0.014 A 
ATOM     43  C   UNL A   1      34.583  29.351  28.024  1.00  0.00     0.014 A 
ATOM     44  C   UNL A   1      36.591  31.275  28.318  1.00  0.00     0.010 A 
ATOM     45  C   UNL A   1      35.778  29.047  28.700  1.00  0.00     0.010 A 
ATOM     46  C   UNL A   1      36.798  30.000  28.864  1.00  0.00    -0.014 A 
BRANCH  46  47
ATOM     47  C   UNL A   1      38.063  29.665  29.596  1.00  0.00     0.031 A 
ATOM     48  C   UNL A   1      38.362  30.251  30.957  1.00  0.00     0.074 A 
ATOM     49  C   UNL A   1      38.989  28.868  29.022  1.00  0.00     0.049 A 
ATOM     50  N   UNL A   1      39.421  30.090  31.714  1.00  0.00    -0.248 NA
ATOM     51  C   UNL A   1      37.352  31.150  31.534  1.00  0.00     0.031 C 
ATOM     52  C   UNL A   1      38.884  28.279  27.687  1.00  0.00     0.029 A 
ATOM     53  N   UNL A   1      40.214  28.432  29.478  1.00  0.00    -0.354 N 
ATOM     54  C   UNL A   1      39.222  30.890  32.835  1.00  0.00     0.074 A 
ATOM     55  C   UNL A   1      37.951  31.558  32.645  1.00  0.00     0.031 C 
ATOM     56  C   UNL A   1      39.987  27.554  27.436  1.00  0.00     0.029 A 
ATOM     57  C   UNL A   1      40.896  27.647  28.575  1.00  0.00     0.049 A 
ATOM     58  H   UNL A   1      40.569  28.660  30.367  1.00  0.00     0.167 HD
ATOM     59  C   UNL A   1      40.003  31.039  33.935  1.00  0.00     0.034 A 
ATOM     60  C   UNL A   1      42.115  27.070  28.643  1.00  0.00     0.034 A 
ATOM     61  C   UNL A   1      41.243  30.344  34.161  1.00  0.00     0.049 A 
ATOM     62  C   UNL A   1      42.947  27.223  29.889  1.00  0.00     0.074 A 
ATOM     63  C   UNL A   1      42.053  30.374  35.285  1.00  0.00     0.029 A 
ATOM     64  N   UNL A   1      41.858  29.497  33.255  1.00  0.00    -0.354 N 
ATOM     65  N   UNL A   1      42.666  27.866  30.996  1.00  0.00    -0.248 NA
ATOM     66  C   UNL A   1      44.252  26.543  29.908  1.00  0.00     0.031 C 
ATOM     67  C   UNL A   1      43.170  29.565  35.047  1.00  0.00     0.029 A 
ATOM     68  C   UNL A   1      43.043  29.008  33.787  1.00  0.00     0.049 A 
ATOM     69  H   UNL A   1      41.508  29.274  32.362  1.00  0.00     0.167 HD
ATOM     70  C   UNL A   1      43.739  27.636  31.854  1.00  0.00     0.074 A 
ATOM     71  C   UNL A   1      44.665  26.780  31.146  1.00  0.00     0.031 C 
ATOM     72  C   UNL A   1      43.939  28.108  33.109  1.00  0.00     0.034 A 
BRANCH  59  73
ATOM     73  C   UNL A   1      39.514  31.965  35.024  1.00  0.00     0.023 A 
ATOM     74  C   UNL A   1      39.701  33.356  34.888  1.00  0.00     0.012 A 
ATOM     75  C   UNL A   1      38.809  31.469  36.139  1.00  0.00     0.148 A 
ATOM     76  C   UNL A   1      39.228  34.235  35.863  1.00  0.00     0.002 A 
ATOM     77  C   UNL A   1      38.303  32.356  37.084  1.00  0.00     0.091 A 
ATOM     78  F   UNL A   1      38.653  30.143  36.260  1.00  0.00    -0.205 F 
ATOM     79  C   UNL A   1      38.523  33.736  36.954  1.00  0.00     0.022 A 
BRANCH  77  80
ATOM     80  S   UNL A   1      37.313  31.818  38.484  1.00  0.00     0.127 S 
ATOM     81  O   UNL A   1      38.205  32.110  39.605  1.00  0.00    -0.237 OA
ATOM     82  O   UNL A   1      36.144  32.695  38.391  1.00  0.00    -0.237 OA
ATOM     83  O   UNL A   1      37.032  30.408  38.257  1.00  0.00    -0.744 OA
ENDBRANCH  77  80
ENDBRANCH  59  73
BRANCH  60  84
ATOM     84  C   UNL A   1      42.606  26.231  27.510  1.00  0.00     0.023 A 
ATOM     85  C   UNL A   1      43.475  26.799  26.556  1.00  0.00     0.012 A 
ATOM     86  C   UNL A   1      42.229  24.881  27.377  1.00  0.00     0.148 A 
ATOM     87  C   UNL A   1      43.936  26.046  25.476  1.00  0.00     0.002 A 
ATOM     88  C   UNL A   1      42.736  24.121  26.328  1.00  0.00     0.091 A 
ATOM     89  F   UNL A   1      41.387  24.365  28.283  1.00  0.00    -0.205 F 
ATOM     90  C   UNL A   1      43.576  24.706  25.368  1.00  0.00     0.022 A 
BRANCH  88  91
ATOM     91  S   UNL A   1      42.420  22.361  26.164  1.00  0.00     0.127 S 
ATOM     92  O   UNL A   1      43.038  22.065  24.873  1.00  0.00    -0.237 OA
ATOM     93  O   UNL A   1      43.128  21.818  27.323  1.00  0.00    -0.237 OA
ATOM     94  O   UNL A   1      40.972  22.212  26.214  1.00  0.00    -0.744 OA
ENDBRANCH  88  91
ENDBRANCH  60  84
BRANCH  72  95
ATOM     95  C   UNL A   1      45.194  27.685  33.833  1.00  0.00     0.023 A 
ATOM     96  C   UNL A   1      46.351  28.486  33.764  1.00  0.00     0.012 A 
ATOM     97  C   UNL A   1      45.202  26.531  34.644  1.00  0.00     0.148 A 
ATOM     98  C   UNL A   1      47.504  28.130  34.463  1.00  0.00     0.002 A 
ATOM     99  C   UNL A   1      46.340  26.209  35.376  1.00  0.00     0.091 A 
ATOM    100  F   UNL A   1      44.100  25.770  34.684  1.00  0.00    -0.205 F 
ATOM    101  C   UNL A   1      47.496  27.000  35.277  1.00  0.00     0.022 A 
BRANCH  99 102
ATOM    102  S   UNL A   1      46.391  24.826  36.522  1.00  0.00     0.127 S 
ATOM    103  O   UNL A   1      47.786  24.851  36.959  1.00  0.00    -0.237 OA
ATOM    104  O   UNL A   1      45.425  25.234  37.544  1.00  0.00    -0.237 OA
ATOM    105  O   UNL A   1      45.996  23.653  35.754  1.00  0.00    -0.744 OA
ENDBRANCH  99 102
ENDBRANCH  72  95
ENDBRANCH  46  47
ENDBRANCH  38  41
ENDBRANCH  36  37
ENDBRANCH   1  36
TORSDOF 19
ENDMDL
