MODEL 1
REMARK VINA RESULT:     -11.3      0.000      0.000
REMARK SMILES Cc1nn(C)c(C)c1CN(C)C(=O)[C@@H]1CC=CC[C@@H]1C(=O)NCCCNC(=O)c1ccc(-c2c3nc(c(-c4cccc(S(=O)(=O)[O-])c4F)c4ccc([nH]4)c(-c4cccc(S(=O)(=O)[O-])c4F)c4nc(c(-c5cccc(S(=O)(=O)[O-])c5F)c5ccc2[nH]5)C=C4)C=C3)cc1
REMARK SMILES IDX 23 1 22 2 20 3 21 4 19 6 14 7 15 8 16 9 18 10 17 11 12 12
REMARK SMILES IDX 13 13 10 14 11 15 9 16 8 17 1 18 2 19 3 20 4 21 6 22 5 23
REMARK SMILES IDX 7 24 24 25 25 26 26 27 27 28 28 30 29 31 30 32 91 33 31 34
REMARK SMILES IDX 90 35 32 36 33 37 34 38 84 39 35 40 89 41 83 42 85 43 36 44
REMARK SMILES IDX 88 45 82 46 81 47 37 49 69 50 49 51 68 52 50 53 53 54 67 55
REMARK SMILES IDX 86 56 51 57 52 58 66 60 87 61 54 62 38 63 39 64 47 65 40 66
REMARK SMILES IDX 42 67 48 68 41 69 43 70 44 71 45 72 46 73 70 74 71 75 79 76
REMARK SMILES IDX 72 77 74 78 80 79 73 80 75 81 76 82 77 83 78 84 55 85 56 86
REMARK SMILES IDX 64 87 57 88 59 89 65 90 58 91 60 92 61 93 62 94 63 95
REMARK H PARENT 22 5 26 29 85 48 53 59
REMARK Flexibility Score: inf
ROOT
ATOM      1  C   UNL A   1      34.077  26.138  24.495  1.00  0.00     0.117 C 
ENDROOT
BRANCH   1   2
ATOM      2  N   UNL A   1      34.435  25.233  25.571  1.00  0.00    -0.356 N 
ATOM      3  C   UNL A   1      35.010  23.998  25.535  1.00  0.00     0.224 C 
ATOM      4  O   UNL A   1      35.316  23.499  26.615  1.00  0.00    -0.275 OA
ATOM      5  H   UNL A   1      34.229  25.564  26.475  1.00  0.00     0.163 HD
BRANCH   3   6
ATOM      6  C   UNL A   1      35.253  23.325  24.184  1.00  0.00     0.095 C 
ATOM      7  C   UNL A   1      34.455  22.013  23.989  1.00  0.00     0.095 C 
ATOM      8  C   UNL A   1      34.927  20.906  24.951  1.00  0.00     0.041 C 
ATOM      9  C   UNL A   1      36.425  20.847  25.088  1.00  0.00    -0.030 C 
ATOM     10  C   UNL A   1      36.757  23.062  23.982  1.00  0.00     0.041 C 
ATOM     11  C   UNL A   1      37.246  21.803  24.635  1.00  0.00    -0.030 C 
BRANCH   7  12
ATOM     12  C   UNL A   1      32.948  22.279  24.099  1.00  0.00     0.226 C 
ATOM     13  O   UNL A   1      32.293  21.841  25.044  1.00  0.00    -0.275 OA
BRANCH  12  14
ATOM     14  N   UNL A   1      32.367  23.086  23.120  1.00  0.00    -0.341 N 
ATOM     15  C   UNL A   1      33.044  23.514  21.905  1.00  0.00     0.147 C 
BRANCH  14  16
ATOM     16  C   UNL A   1      30.973  23.495  23.304  1.00  0.00     0.158 C 
BRANCH  16  17
ATOM     17  C   UNL A   1      30.832  24.859  23.904  1.00  0.00     0.015 A 
ATOM     18  C   UNL A   1      30.463  24.220  26.435  1.00  0.00     0.069 C 
ATOM     19  C   UNL A   1      30.612  25.151  25.285  1.00  0.00     0.065 A 
ATOM     20  N   UNL A   1      30.562  26.467  25.515  1.00  0.00    -0.178 NA
ATOM     21  N   UNL A   1      30.709  27.020  24.304  1.00  0.00    -0.272 N 
ATOM     22  C   UNL A   1      30.938  26.109  23.305  1.00  0.00     0.040 A 
ATOM     23  C   UNL A   1      30.617  28.458  24.210  1.00  0.00     0.174 C 
ATOM     24  C   UNL A   1      31.218  26.504  21.904  1.00  0.00     0.067 C 
ENDBRANCH  16  17
ENDBRANCH  14  16
ENDBRANCH  12  14
ENDBRANCH   7  12
ENDBRANCH   3   6
ENDBRANCH   1   2
BRANCH   1  25
ATOM     25  C   UNL A   1      34.246  27.601  24.875  1.00  0.00     0.042 C 
BRANCH  25  26
ATOM     26  C   UNL A   1      34.150  27.892  26.368  1.00  0.00     0.118 C 
BRANCH  26  27
ATOM     27  N   UNL A   1      33.706  29.249  26.668  1.00  0.00    -0.352 N 
ATOM     28  C   UNL A   1      34.278  30.221  27.453  1.00  0.00     0.251 C 
ATOM     29  H   UNL A   1      32.861  29.510  26.237  1.00  0.00     0.163 HD
ATOM     30  O   UNL A   1      33.658  31.257  27.686  1.00  0.00    -0.269 OA
BRANCH  28  31
ATOM     31  C   UNL A   1      35.613  30.011  28.052  1.00  0.00     0.039 A 
ATOM     32  C   UNL A   1      35.699  29.624  29.392  1.00  0.00     0.014 A 
ATOM     33  C   UNL A   1      36.776  30.173  27.296  1.00  0.00     0.014 A 
ATOM     34  C   UNL A   1      36.941  29.295  29.941  1.00  0.00     0.010 A 
ATOM     35  C   UNL A   1      38.001  29.763  27.816  1.00  0.00     0.010 A 
ATOM     36  C   UNL A   1      38.095  29.306  29.139  1.00  0.00    -0.014 A 
BRANCH  36  37
ATOM     37  C   UNL A   1      39.394  28.789  29.642  1.00  0.00     0.031 A 
ATOM     38  C   UNL A   1      40.132  29.507  30.739  1.00  0.00     0.074 A 
ATOM     39  C   UNL A   1      39.968  27.736  29.023  1.00  0.00     0.049 A 
ATOM     40  N   UNL A   1      41.313  29.252  31.240  1.00  0.00    -0.248 NA
ATOM     41  C   UNL A   1      39.471  30.682  31.332  1.00  0.00     0.031 C 
ATOM     42  C   UNL A   1      39.397  27.011  27.884  1.00  0.00     0.029 A 
ATOM     43  N   UNL A   1      41.172  27.114  29.239  1.00  0.00    -0.354 N 
ATOM     44  C   UNL A   1      41.554  30.252  32.175  1.00  0.00     0.074 A 
ATOM     45  C   UNL A   1      40.409  31.135  32.151  1.00  0.00     0.031 C 
ATOM     46  C   UNL A   1      40.249  26.045  27.505  1.00  0.00     0.029 A 
ATOM     47  C   UNL A   1      41.438  26.100  28.348  1.00  0.00     0.049 A 
ATOM     48  H   UNL A   1      41.787  27.369  29.965  1.00  0.00     0.167 HD
ATOM     49  C   UNL A   1      42.617  30.402  33.000  1.00  0.00     0.034 A 
ATOM     50  C   UNL A   1      42.521  25.310  28.214  1.00  0.00     0.034 A 
ATOM     51  C   UNL A   1      43.729  29.491  33.059  1.00  0.00     0.049 A 
ATOM     52  C   UNL A   1      43.668  25.471  29.175  1.00  0.00     0.074 A 
ATOM     53  C   UNL A   1      44.798  29.497  33.937  1.00  0.00     0.029 A 
ATOM     54  N   UNL A   1      43.920  28.420  32.203  1.00  0.00    -0.354 N 
ATOM     55  N   UNL A   1      43.794  26.312  30.173  1.00  0.00    -0.248 NA
ATOM     56  C   UNL A   1      44.807  24.555  29.013  1.00  0.00     0.031 C 
ATOM     57  C   UNL A   1      45.646  28.438  33.601  1.00  0.00     0.029 A 
ATOM     58  C   UNL A   1      45.097  27.763  32.521  1.00  0.00     0.049 A 
ATOM     59  H   UNL A   1      43.310  28.162  31.475  1.00  0.00     0.167 HD
ATOM     60  C   UNL A   1      45.011  26.011  30.772  1.00  0.00     0.074 A 
ATOM     61  C   UNL A   1      45.571  24.892  30.043  1.00  0.00     0.031 C 
ATOM     62  C   UNL A   1      45.620  26.620  31.818  1.00  0.00     0.034 A 
BRANCH  49  63
ATOM     63  C   UNL A   1      42.600  31.563  33.958  1.00  0.00     0.023 A 
ATOM     64  C   UNL A   1      43.103  32.812  33.540  1.00  0.00     0.012 A 
ATOM     65  C   UNL A   1      42.029  31.443  35.240  1.00  0.00     0.148 A 
ATOM     66  C   UNL A   1      43.066  33.915  34.390  1.00  0.00     0.002 A 
ATOM     67  C   UNL A   1      41.959  32.558  36.068  1.00  0.00     0.091 A 
ATOM     68  F   UNL A   1      41.576  30.243  35.630  1.00  0.00    -0.205 F 
ATOM     69  C   UNL A   1      42.485  33.792  35.648  1.00  0.00     0.022 A 
BRANCH  67  70
ATOM     70  S   UNL A   1      41.162  32.521  37.678  1.00  0.00     0.127 S 
ATOM     71  O   UNL A   1      39.842  31.990  37.342  1.00  0.00    -0.237 OA
ATOM     72  O   UNL A   1      42.019  31.599  38.425  1.00  0.00    -0.237 OA
ATOM     73  O   UNL A   1      41.181  33.893  38.165  1.00  0.00    -0.744 OA
ENDBRANCH  67  70
ENDBRANCH  49  63
BRANCH  50  74
ATOM     74  C   UNL A   1      42.543  24.250  27.166  1.00  0.00     0.023 A 
ATOM     75  C   UNL A   1      43.229  24.488  25.960  1.00  0.00     0.012 A 
ATOM     76  C   UNL A   1      41.925  23.000  27.369  1.00  0.00     0.148 A 
ATOM     77  C   UNL A   1      43.275  23.513  24.963  1.00  0.00     0.002 A 
ATOM     78  C   UNL A   1      42.022  22.013  26.394  1.00  0.00     0.091 A 
ATOM     79  F   UNL A   1      41.262  22.797  28.517  1.00  0.00    -0.205 F 
ATOM     80  C   UNL A   1      42.683  22.273  25.184  1.00  0.00     0.022 A 
BRANCH  78  81
ATOM     81  S   UNL A   1      41.411  20.344  26.659  1.00  0.00     0.127 S 
ATOM     82  O   UNL A   1      41.803  19.680  25.420  1.00  0.00    -0.237 OA
ATOM     83  O   UNL A   1      42.161  19.928  27.846  1.00  0.00    -0.237 OA
ATOM     84  O   UNL A   1      39.978  20.485  26.883  1.00  0.00    -0.744 OA
ENDBRANCH  78  81
ENDBRANCH  50  74
BRANCH  62  85
ATOM     85  C   UNL A   1      46.960  26.087  32.253  1.00  0.00     0.023 A 
ATOM     86  C   UNL A   1      48.134  26.609  31.675  1.00  0.00     0.012 A 
ATOM     87  C   UNL A   1      47.061  25.129  33.281  1.00  0.00     0.148 A 
ATOM     88  C   UNL A   1      49.388  26.165  32.094  1.00  0.00     0.002 A 
ATOM     89  C   UNL A   1      48.314  24.725  33.725  1.00  0.00     0.091 A 
ATOM     90  F   UNL A   1      45.930  24.631  33.804  1.00  0.00    -0.205 F 
ATOM     91  C   UNL A   1      49.478  25.234  33.126  1.00  0.00     0.022 A 
BRANCH  89  92
ATOM     92  S   UNL A   1      48.528  23.599  35.108  1.00  0.00     0.127 S 
ATOM     93  O   UNL A   1      47.841  24.314  36.183  1.00  0.00    -0.237 OA
ATOM     94  O   UNL A   1      47.842  22.395  34.639  1.00  0.00    -0.237 OA
ATOM     95  O   UNL A   1      49.967  23.445  35.279  1.00  0.00    -0.744 OA
ENDBRANCH  89  92
ENDBRANCH  62  85
ENDBRANCH  36  37
ENDBRANCH  28  31
ENDBRANCH  26  27
ENDBRANCH  25  26
ENDBRANCH   1  25
TORSDOF 17
ENDMDL
MODEL 2
REMARK VINA RESULT:     -11.1      2.802      8.605
REMARK SMILES Cc1nn(C)c(C)c1CN(C)C(=O)[C@@H]1CC=CC[C@@H]1C(=O)NCCCNC(=O)c1ccc(-c2c3nc(c(-c4cccc(S(=O)(=O)[O-])c4F)c4ccc([nH]4)c(-c4cccc(S(=O)(=O)[O-])c4F)c4nc(c(-c5cccc(S(=O)(=O)[O-])c5F)c5ccc2[nH]5)C=C4)C=C3)cc1
REMARK SMILES IDX 23 1 22 2 20 3 21 4 19 6 14 7 15 8 16 9 18 10 17 11 12 12
REMARK SMILES IDX 13 13 10 14 11 15 9 16 8 17 1 18 2 19 3 20 4 21 6 22 5 23
REMARK SMILES IDX 7 24 24 25 25 26 26 27 27 28 28 30 29 31 30 32 91 33 31 34
REMARK SMILES IDX 90 35 32 36 33 37 34 38 84 39 35 40 89 41 83 42 85 43 36 44
REMARK SMILES IDX 88 45 82 46 81 47 37 49 69 50 49 51 68 52 50 53 53 54 67 55
REMARK SMILES IDX 86 56 51 57 52 58 66 60 87 61 54 62 38 63 39 64 47 65 40 66
REMARK SMILES IDX 42 67 48 68 41 69 43 70 44 71 45 72 46 73 70 74 71 75 79 76
REMARK SMILES IDX 72 77 74 78 80 79 73 80 75 81 76 82 77 83 78 84 55 85 56 86
REMARK SMILES IDX 64 87 57 88 59 89 65 90 58 91 60 92 61 93 62 94 63 95
REMARK H PARENT 22 5 26 29 85 48 53 59
REMARK Flexibility Score: inf
ROOT
ATOM      1  C   UNL A   1      32.356  30.313  27.047  1.00  0.00     0.117 C 
ENDROOT
BRANCH   1   2
ATOM      2  N   UNL A   1      32.896  29.839  25.787  1.00  0.00    -0.356 N 
ATOM      3  C   UNL A   1      32.267  29.327  24.691  1.00  0.00     0.224 C 
ATOM      4  O   UNL A   1      32.964  29.115  23.703  1.00  0.00    -0.275 OA
ATOM      5  H   UNL A   1      33.875  29.896  25.709  1.00  0.00     0.163 HD
BRANCH   3   6
ATOM      6  C   UNL A   1      30.761  29.067  24.746  1.00  0.00     0.095 C 
ATOM      7  C   UNL A   1      30.361  27.633  24.324  1.00  0.00     0.095 C 
ATOM      8  C   UNL A   1      30.644  27.374  22.831  1.00  0.00     0.041 C 
ATOM      9  C   UNL A   1      30.267  28.536  21.952  1.00  0.00    -0.030 C 
ATOM     10  C   UNL A   1      30.010  30.099  23.884  1.00  0.00     0.041 C 
ATOM     11  C   UNL A   1      29.962  29.752  22.426  1.00  0.00    -0.030 C 
BRANCH   7  12
ATOM     12  C   UNL A   1      31.033  26.597  25.233  1.00  0.00     0.226 C 
ATOM     13  O   UNL A   1      30.924  26.661  26.458  1.00  0.00    -0.275 OA
BRANCH  12  14
ATOM     14  N   UNL A   1      31.717  25.549  24.616  1.00  0.00    -0.341 N 
ATOM     15  C   UNL A   1      33.167  25.423  24.589  1.00  0.00     0.147 C 
BRANCH  14  16
ATOM     16  C   UNL A   1      30.929  24.485  23.993  1.00  0.00     0.158 C 
BRANCH  16  17
ATOM     17  C   UNL A   1      31.347  23.112  24.420  1.00  0.00     0.015 A 
ATOM     18  C   UNL A   1      30.288  23.031  26.833  1.00  0.00     0.069 C 
ATOM     19  C   UNL A   1      31.049  22.495  25.674  1.00  0.00     0.065 A 
ATOM     20  N   UNL A   1      31.534  21.251  25.745  1.00  0.00    -0.178 NA
ATOM     21  N   UNL A   1      32.167  21.076  24.577  1.00  0.00    -0.272 N 
ATOM     22  C   UNL A   1      32.038  22.133  23.715  1.00  0.00     0.040 A 
ATOM     23  C   UNL A   1      32.875  19.833  24.381  1.00  0.00     0.174 C 
ATOM     24  C   UNL A   1      32.581  22.118  22.335  1.00  0.00     0.067 C 
ENDBRANCH  16  17
ENDBRANCH  14  16
ENDBRANCH  12  14
ENDBRANCH   7  12
ENDBRANCH   3   6
ENDBRANCH   1   2
BRANCH   1  25
ATOM     25  C   UNL A   1      31.641  31.649  26.918  1.00  0.00     0.042 C 
BRANCH  25  26
ATOM     26  C   UNL A   1      32.540  32.825  26.554  1.00  0.00     0.118 C 
BRANCH  26  27
ATOM     27  N   UNL A   1      32.391  33.968  27.448  1.00  0.00    -0.352 N 
ATOM     28  C   UNL A   1      33.117  34.334  28.556  1.00  0.00     0.251 C 
ATOM     29  H   UNL A   1      31.652  34.576  27.220  1.00  0.00     0.163 HD
ATOM     30  O   UNL A   1      32.729  35.268  29.255  1.00  0.00    -0.269 OA
BRANCH  28  31
ATOM     31  C   UNL A   1      34.334  33.585  28.935  1.00  0.00     0.039 A 
ATOM     32  C   UNL A   1      35.584  34.153  28.674  1.00  0.00     0.014 A 
ATOM     33  C   UNL A   1      34.249  32.341  29.561  1.00  0.00     0.014 A 
ATOM     34  C   UNL A   1      36.742  33.524  29.139  1.00  0.00     0.010 A 
ATOM     35  C   UNL A   1      35.394  31.758  30.099  1.00  0.00     0.010 A 
ATOM     36  C   UNL A   1      36.651  32.351  29.906  1.00  0.00    -0.014 A 
BRANCH  36  37
ATOM     37  C   UNL A   1      37.845  31.761  30.565  1.00  0.00     0.031 A 
ATOM     38  C   UNL A   1      38.655  30.696  29.875  1.00  0.00     0.074 A 
ATOM     39  C   UNL A   1      38.128  32.100  31.840  1.00  0.00     0.049 A 
ATOM     40  N   UNL A   1      39.670  30.009  30.332  1.00  0.00    -0.248 NA
ATOM     41  C   UNL A   1      38.255  30.336  28.505  1.00  0.00     0.031 C 
ATOM     42  C   UNL A   1      37.363  33.050  32.652  1.00  0.00     0.029 A 
ATOM     43  N   UNL A   1      39.113  31.660  32.689  1.00  0.00    -0.354 N 
ATOM     44  C   UNL A   1      40.005  29.112  29.326  1.00  0.00     0.074 A 
ATOM     45  C   UNL A   1      39.067  29.321  28.245  1.00  0.00     0.031 C 
ATOM     46  C   UNL A   1      37.907  33.122  33.878  1.00  0.00     0.029 A 
ATOM     47  C   UNL A   1      39.037  32.202  33.951  1.00  0.00     0.049 A 
ATOM     48  H   UNL A   1      39.809  31.019  32.420  1.00  0.00     0.167 HD
ATOM     49  C   UNL A   1      41.021  28.217  29.291  1.00  0.00     0.034 A 
ATOM     50  C   UNL A   1      39.783  31.978  35.051  1.00  0.00     0.034 A 
ATOM     51  C   UNL A   1      41.985  28.050  30.346  1.00  0.00     0.049 A 
ATOM     52  C   UNL A   1      40.934  31.011  34.969  1.00  0.00     0.074 A 
ATOM     53  C   UNL A   1      43.114  27.250  30.358  1.00  0.00     0.029 A 
ATOM     54  N   UNL A   1      41.931  28.684  31.576  1.00  0.00    -0.354 N 
ATOM     55  N   UNL A   1      41.344  30.305  33.944  1.00  0.00    -0.248 NA
ATOM     56  C   UNL A   1      41.744  30.835  36.184  1.00  0.00     0.031 C 
ATOM     57  C   UNL A   1      43.734  27.387  31.604  1.00  0.00     0.029 A 
ATOM     58  C   UNL A   1      42.999  28.285  32.362  1.00  0.00     0.049 A 
ATOM     59  H   UNL A   1      41.237  29.325  31.851  1.00  0.00     0.167 HD
ATOM     60  C   UNL A   1      42.472  29.620  34.381  1.00  0.00     0.074 A 
ATOM     61  C   UNL A   1      42.698  30.019  35.755  1.00  0.00     0.031 C 
ATOM     62  C   UNL A   1      43.239  28.726  33.711  1.00  0.00     0.034 A 
BRANCH  49  63
ATOM     63  C   UNL A   1      41.185  27.392  28.043  1.00  0.00     0.023 A 
ATOM     64  C   UNL A   1      41.765  27.977  26.899  1.00  0.00     0.012 A 
ATOM     65  C   UNL A   1      40.834  26.028  28.018  1.00  0.00     0.148 A 
ATOM     66  C   UNL A   1      41.965  27.229  25.741  1.00  0.00     0.002 A 
ATOM     67  C   UNL A   1      41.075  25.277  26.873  1.00  0.00     0.091 A 
ATOM     68  F   UNL A   1      40.264  25.494  29.108  1.00  0.00    -0.205 F 
ATOM     69  C   UNL A   1      41.631  25.878  25.731  1.00  0.00     0.022 A 
BRANCH  67  70
ATOM     70  S   UNL A   1      40.749  23.512  26.785  1.00  0.00     0.127 S 
ATOM     71  O   UNL A   1      39.318  23.491  26.486  1.00  0.00    -0.237 OA
ATOM     72  O   UNL A   1      41.611  23.094  25.678  1.00  0.00    -0.237 OA
ATOM     73  O   UNL A   1      41.127  22.971  28.083  1.00  0.00    -0.744 OA
ENDBRANCH  67  70
ENDBRANCH  49  63
BRANCH  50  74
ATOM     74  C   UNL A   1      39.504  32.732  36.306  1.00  0.00     0.023 A 
ATOM     75  C   UNL A   1      40.109  33.988  36.503  1.00  0.00     0.012 A 
ATOM     76  C   UNL A   1      38.619  32.237  37.283  1.00  0.00     0.148 A 
ATOM     77  C   UNL A   1      39.862  34.724  37.662  1.00  0.00     0.002 A 
ATOM     78  C   UNL A   1      38.333  32.999  38.410  1.00  0.00     0.091 A 
ATOM     79  F   UNL A   1      38.064  31.032  37.086  1.00  0.00    -0.205 F 
ATOM     80  C   UNL A   1      38.965  34.236  38.609  1.00  0.00     0.022 A 
BRANCH  78  81
ATOM     81  S   UNL A   1      37.084  32.509  39.605  1.00  0.00     0.127 S 
ATOM     82  O   UNL A   1      37.213  33.551  40.619  1.00  0.00    -0.237 OA
ATOM     83  O   UNL A   1      35.856  32.571  38.809  1.00  0.00    -0.237 OA
ATOM     84  O   UNL A   1      37.452  31.162  40.023  1.00  0.00    -0.744 OA
ENDBRANCH  78  81
ENDBRANCH  50  74
BRANCH  62  85
ATOM     85  C   UNL A   1      44.407  28.121  34.446  1.00  0.00     0.023 A 
ATOM     86  C   UNL A   1      45.649  28.786  34.441  1.00  0.00     0.012 A 
ATOM     87  C   UNL A   1      44.257  26.940  35.199  1.00  0.00     0.148 A 
ATOM     88  C   UNL A   1      46.732  28.271  35.152  1.00  0.00     0.002 A 
ATOM     89  C   UNL A   1      45.327  26.457  35.942  1.00  0.00     0.091 A 
ATOM     90  F   UNL A   1      43.072  26.313  35.175  1.00  0.00    -0.205 F 
ATOM     91  C   UNL A   1      46.567  27.114  35.912  1.00  0.00     0.022 A 
BRANCH  89  92
ATOM     92  S   UNL A   1      45.183  25.027  37.020  1.00  0.00     0.127 S 
ATOM     93  O   UNL A   1      44.716  23.999  36.090  1.00  0.00    -0.237 OA
ATOM     94  O   UNL A   1      46.558  24.848  37.486  1.00  0.00    -0.237 OA
ATOM     95  O   UNL A   1      44.237  25.405  38.062  1.00  0.00    -0.744 OA
ENDBRANCH  89  92
ENDBRANCH  62  85
ENDBRANCH  36  37
ENDBRANCH  28  31
ENDBRANCH  26  27
ENDBRANCH  25  26
ENDBRANCH   1  25
TORSDOF 17
ENDMDL
MODEL 3
REMARK VINA RESULT:     -11.1      1.250      2.991
REMARK SMILES Cc1nn(C)c(C)c1CN(C)C(=O)[C@@H]1CC=CC[C@@H]1C(=O)NCCCNC(=O)c1ccc(-c2c3nc(c(-c4cccc(S(=O)(=O)[O-])c4F)c4ccc([nH]4)c(-c4cccc(S(=O)(=O)[O-])c4F)c4nc(c(-c5cccc(S(=O)(=O)[O-])c5F)c5ccc2[nH]5)C=C4)C=C3)cc1
REMARK SMILES IDX 23 1 22 2 20 3 21 4 19 6 14 7 15 8 16 9 18 10 17 11 12 12
REMARK SMILES IDX 13 13 10 14 11 15 9 16 8 17 1 18 2 19 3 20 4 21 6 22 5 23
REMARK SMILES IDX 7 24 24 25 25 26 26 27 27 28 28 30 29 31 30 32 91 33 31 34
REMARK SMILES IDX 90 35 32 36 33 37 34 38 84 39 35 40 89 41 83 42 85 43 36 44
REMARK SMILES IDX 88 45 82 46 81 47 37 49 69 50 49 51 68 52 50 53 53 54 67 55
REMARK SMILES IDX 86 56 51 57 52 58 66 60 87 61 54 62 38 63 39 64 47 65 40 66
REMARK SMILES IDX 42 67 48 68 41 69 43 70 44 71 45 72 46 73 70 74 71 75 79 76
REMARK SMILES IDX 72 77 74 78 80 79 73 80 75 81 76 82 77 83 78 84 55 85 56 86
REMARK SMILES IDX 64 87 57 88 59 89 65 90 58 91 60 92 61 93 62 94 63 95
REMARK H PARENT 22 5 26 29 85 48 53 59
REMARK Flexibility Score: inf
ROOT
ATOM      1  C   UNL A   1      33.272  29.197  24.935  1.00  0.00     0.117 C 
ENDROOT
BRANCH   1   2
ATOM      2  N   UNL A   1      33.972  28.689  23.770  1.00  0.00    -0.356 N 
ATOM      3  C   UNL A   1      33.642  27.689  22.905  1.00  0.00     0.224 C 
ATOM      4  O   UNL A   1      34.366  27.547  21.923  1.00  0.00    -0.275 OA
ATOM      5  H   UNL A   1      34.825  29.140  23.572  1.00  0.00     0.163 HD
BRANCH   3   6
ATOM      6  C   UNL A   1      32.409  26.832  23.188  1.00  0.00     0.095 C 
ATOM      7  C   UNL A   1      32.740  25.357  23.523  1.00  0.00     0.095 C 
ATOM      8  C   UNL A   1      33.335  24.613  22.313  1.00  0.00     0.041 C 
ATOM      9  C   UNL A   1      32.635  24.939  21.021  1.00  0.00    -0.030 C 
ATOM     10  C   UNL A   1      31.430  26.896  22.001  1.00  0.00     0.041 C 
ATOM     11  C   UNL A   1      31.765  25.949  20.887  1.00  0.00    -0.030 C 
BRANCH   7  12
ATOM     12  C   UNL A   1      33.642  25.276  24.761  1.00  0.00     0.226 C 
ATOM     13  O   UNL A   1      34.815  25.646  24.716  1.00  0.00    -0.275 OA
BRANCH  12  14
ATOM     14  N   UNL A   1      33.063  24.826  25.948  1.00  0.00    -0.341 N 
ATOM     15  C   UNL A   1      31.841  25.372  26.520  1.00  0.00     0.147 C 
BRANCH  14  16
ATOM     16  C   UNL A   1      33.699  23.706  26.643  1.00  0.00     0.158 C 
BRANCH  16  17
ATOM     17  C   UNL A   1      33.709  22.442  25.841  1.00  0.00     0.015 A 
ATOM     18  C   UNL A   1      36.302  21.976  25.735  1.00  0.00     0.069 C 
ATOM     19  C   UNL A   1      34.868  21.698  25.458  1.00  0.00     0.065 A 
ATOM     20  N   UNL A   1      34.548  20.596  24.772  1.00  0.00    -0.178 NA
ATOM     21  N   UNL A   1      33.213  20.641  24.677  1.00  0.00    -0.272 N 
ATOM     22  C   UNL A   1      32.646  21.691  25.352  1.00  0.00     0.040 A 
ATOM     23  C   UNL A   1      32.562  19.607  23.908  1.00  0.00     0.174 C 
ATOM     24  C   UNL A   1      31.180  21.883  25.457  1.00  0.00     0.067 C 
ENDBRANCH  16  17
ENDBRANCH  14  16
ENDBRANCH  12  14
ENDBRANCH   7  12
ENDBRANCH   3   6
ENDBRANCH   1   2
BRANCH   1  25
ATOM     25  C   UNL A   1      33.782  28.598  26.237  1.00  0.00     0.042 C 
BRANCH  25  26
ATOM     26  C   UNL A   1      33.189  29.212  27.500  1.00  0.00     0.118 C 
BRANCH  26  27
ATOM     27  N   UNL A   1      33.487  30.632  27.650  1.00  0.00    -0.352 N 
ATOM     28  C   UNL A   1      34.613  31.263  28.120  1.00  0.00     0.251 C 
ATOM     29  H   UNL A   1      32.763  31.237  27.367  1.00  0.00     0.163 HD
ATOM     30  O   UNL A   1      34.600  32.479  28.296  1.00  0.00    -0.269 OA
BRANCH  28  31
ATOM     31  C   UNL A   1      35.824  30.483  28.453  1.00  0.00     0.039 A 
ATOM     32  C   UNL A   1      36.933  30.562  27.606  1.00  0.00     0.014 A 
ATOM     33  C   UNL A   1      35.879  29.693  29.603  1.00  0.00     0.014 A 
ATOM     34  C   UNL A   1      38.129  29.936  27.968  1.00  0.00     0.010 A 
ATOM     35  C   UNL A   1      37.093  29.144  30.007  1.00  0.00     0.010 A 
ATOM     36  C   UNL A   1      38.235  29.272  29.201  1.00  0.00    -0.014 A 
BRANCH  36  37
ATOM     37  C   UNL A   1      39.538  28.756  29.695  1.00  0.00     0.031 A 
ATOM     38  C   UNL A   1      40.282  29.473  30.789  1.00  0.00     0.074 A 
ATOM     39  C   UNL A   1      40.110  27.706  29.070  1.00  0.00     0.049 A 
ATOM     40  N   UNL A   1      41.466  29.219  31.282  1.00  0.00    -0.248 NA
ATOM     41  C   UNL A   1      39.622  30.645  31.389  1.00  0.00     0.031 C 
ATOM     42  C   UNL A   1      39.534  26.982  27.933  1.00  0.00     0.029 A 
ATOM     43  N   UNL A   1      41.317  27.085  29.277  1.00  0.00    -0.354 N 
ATOM     44  C   UNL A   1      41.711  30.217  32.218  1.00  0.00     0.074 A 
ATOM     45  C   UNL A   1      40.564  31.098  32.203  1.00  0.00     0.031 C 
ATOM     46  C   UNL A   1      40.385  26.019  27.546  1.00  0.00     0.029 A 
ATOM     47  C   UNL A   1      41.579  26.074  28.382  1.00  0.00     0.049 A 
ATOM     48  H   UNL A   1      41.936  27.339  29.999  1.00  0.00     0.167 HD
ATOM     49  C   UNL A   1      42.779  30.367  33.037  1.00  0.00     0.034 A 
ATOM     50  C   UNL A   1      42.663  25.286  28.239  1.00  0.00     0.034 A 
ATOM     51  C   UNL A   1      43.893  29.458  33.087  1.00  0.00     0.049 A 
ATOM     52  C   UNL A   1      43.815  25.447  29.193  1.00  0.00     0.074 A 
ATOM     53  C   UNL A   1      44.967  29.464  33.958  1.00  0.00     0.029 A 
ATOM     54  N   UNL A   1      44.081  28.389  32.227  1.00  0.00    -0.354 N 
ATOM     55  N   UNL A   1      43.946  26.286  30.192  1.00  0.00    -0.248 NA
ATOM     56  C   UNL A   1      44.955  24.533  29.022  1.00  0.00     0.031 C 
ATOM     57  C   UNL A   1      45.816  28.407  33.614  1.00  0.00     0.029 A 
ATOM     58  C   UNL A   1      45.261  27.734  32.536  1.00  0.00     0.049 A 
ATOM     59  H   UNL A   1      43.466  28.132  31.502  1.00  0.00     0.167 HD
ATOM     60  C   UNL A   1      45.167  25.986  30.783  1.00  0.00     0.074 A 
ATOM     61  C   UNL A   1      45.725  24.869  30.049  1.00  0.00     0.031 C 
ATOM     62  C   UNL A   1      45.781  26.593  31.828  1.00  0.00     0.034 A 
BRANCH  49  63
ATOM     63  C   UNL A   1      42.766  31.526  33.998  1.00  0.00     0.023 A 
ATOM     64  C   UNL A   1      43.336  32.754  33.606  1.00  0.00     0.012 A 
ATOM     65  C   UNL A   1      42.135  31.426  35.253  1.00  0.00     0.148 A 
ATOM     66  C   UNL A   1      43.305  33.857  34.459  1.00  0.00     0.002 A 
ATOM     67  C   UNL A   1      42.072  32.541  36.081  1.00  0.00     0.091 A 
ATOM     68  F   UNL A   1      41.618  30.244  35.618  1.00  0.00    -0.205 F 
ATOM     69  C   UNL A   1      42.665  33.754  35.690  1.00  0.00     0.022 A 
BRANCH  67  70
ATOM     70  S   UNL A   1      41.205  32.532  37.655  1.00  0.00     0.127 S 
ATOM     71  O   UNL A   1      42.052  31.647  38.453  1.00  0.00    -0.237 OA
ATOM     72  O   UNL A   1      41.257  33.942  38.044  1.00  0.00    -0.237 OA
ATOM     73  O   UNL A   1      39.867  32.032  37.371  1.00  0.00    -0.744 OA
ENDBRANCH  67  70
ENDBRANCH  49  63
BRANCH  50  74
ATOM     74  C   UNL A   1      42.680  24.229  27.189  1.00  0.00     0.023 A 
ATOM     75  C   UNL A   1      43.363  24.468  25.981  1.00  0.00     0.012 A 
ATOM     76  C   UNL A   1      42.060  22.979  27.390  1.00  0.00     0.148 A 
ATOM     77  C   UNL A   1      43.405  23.496  24.981  1.00  0.00     0.002 A 
ATOM     78  C   UNL A   1      42.153  21.994  26.413  1.00  0.00     0.091 A 
ATOM     79  F   UNL A   1      41.400  22.774  28.539  1.00  0.00    -0.205 F 
ATOM     80  C   UNL A   1      42.812  22.256  25.202  1.00  0.00     0.022 A 
BRANCH  78  81
ATOM     81  S   UNL A   1      41.541  20.326  26.676  1.00  0.00     0.127 S 
ATOM     82  O   UNL A   1      42.285  19.915  27.862  1.00  0.00    -0.237 OA
ATOM     83  O   UNL A   1      40.111  20.555  26.893  1.00  0.00    -0.237 OA
ATOM     84  O   UNL A   1      41.845  19.601  25.448  1.00  0.00    -0.744 OA
ENDBRANCH  78  81
ENDBRANCH  50  74
BRANCH  62  85
ATOM     85  C   UNL A   1      47.125  26.061  32.253  1.00  0.00     0.023 A 
ATOM     86  C   UNL A   1      48.294  26.580  31.662  1.00  0.00     0.012 A 
ATOM     87  C   UNL A   1      47.235  25.109  33.284  1.00  0.00     0.148 A 
ATOM     88  C   UNL A   1      49.551  26.138  32.071  1.00  0.00     0.002 A 
ATOM     89  C   UNL A   1      48.492  24.706  33.718  1.00  0.00     0.091 A 
ATOM     90  F   UNL A   1      46.109  24.614  33.820  1.00  0.00    -0.205 F 
ATOM     91  C   UNL A   1      49.650  25.212  33.107  1.00  0.00     0.022 A 
BRANCH  89  92
ATOM     92  S   UNL A   1      48.718  23.586  35.105  1.00  0.00     0.127 S 
ATOM     93  O   UNL A   1      48.282  22.313  34.533  1.00  0.00    -0.237 OA
ATOM     94  O   UNL A   1      50.157  23.683  35.353  1.00  0.00    -0.237 OA
ATOM     95  O   UNL A   1      47.884  24.108  36.181  1.00  0.00    -0.744 OA
ENDBRANCH  89  92
ENDBRANCH  62  85
ENDBRANCH  36  37
ENDBRANCH  28  31
ENDBRANCH  26  27
ENDBRANCH  25  26
ENDBRANCH   1  25
TORSDOF 17
ENDMDL
