MODEL 1
REMARK VINA RESULT:     -12.7      0.000      0.000
REMARK SMILES COc1cccc(CC2(CO)CCN(c3nc(C)ccc3C(=O)NCCCNC(=O)c3ccc(-c4c5nc(c(-c6cccc(S(=O)(=O)[O-])c6F)c6ccc([nH]6)c(-c6cccc(S(=O)(=O)[O-])c6F)c6nc(c(-c7cccc(S(=O)(=O)[O-])c7F)c7ccc4[nH]7)C=C6)C=C5)cc3)CC2)c1
REMARK SMILES IDX 25 1 24 2 22 3 23 4 21 6 15 7 16 8 17 9 20 10 18 11 19 12
REMARK SMILES IDX 14 13 9 14 12 15 95 16 13 17 94 18 8 19 7 20 3 21 4 22 96 23
REMARK SMILES IDX 5 24 6 25 2 26 1 27 10 28 11 29 26 31 27 32 28 33 29 34
REMARK SMILES IDX 30 36 31 37 32 38 93 39 33 40 92 41 34 42 35 43 36 44 86 45
REMARK SMILES IDX 37 46 91 47 85 48 87 49 38 50 90 51 84 52 83 53 39 55 71 56
REMARK SMILES IDX 51 57 70 58 52 59 55 60 69 61 88 62 53 63 54 64 68 66 89 67
REMARK SMILES IDX 56 68 40 69 41 70 49 71 42 72 44 73 50 74 43 75 45 76 46 77
REMARK SMILES IDX 47 78 48 79 72 80 73 81 81 82 74 83 76 84 82 85 75 86 77 87
REMARK SMILES IDX 78 88 79 89 80 90 57 91 58 92 66 93 59 94 61 95 67 96 60 97
REMARK SMILES IDX 62 98 63 99 64 100 65 101
REMARK H PARENT 24 5 11 30 28 35 87 54 55 65
REMARK Flexibility Score: inf
ROOT
ATOM      1  C   UNL A   1      33.414  29.012  25.299  1.00  0.00     0.118 C 
ENDROOT
BRANCH   1   2
ATOM      2  N   UNL A   1      33.599  28.960  23.857  1.00  0.00    -0.352 N 
ATOM      3  C   UNL A   1      32.828  28.282  22.936  1.00  0.00     0.255 C 
ATOM      4  O   UNL A   1      33.413  27.561  22.132  1.00  0.00    -0.269 OA
ATOM      5  H   UNL A   1      34.362  29.467  23.498  1.00  0.00     0.163 HD
BRANCH   3   6
ATOM      6  C   UNL A   1      31.350  28.409  22.915  1.00  0.00     0.082 A 
ATOM      7  C   UNL A   1      30.489  27.467  23.516  1.00  0.00     0.141 A 
ATOM      8  N   UNL A   1      29.138  27.605  23.412  1.00  0.00    -0.235 NA
ATOM      9  C   UNL A   1      28.616  28.709  22.830  1.00  0.00     0.040 A 
ATOM     10  C   UNL A   1      30.788  29.545  22.321  1.00  0.00     0.019 A 
ATOM     11  C   UNL A   1      27.129  28.862  22.909  1.00  0.00     0.067 C 
ATOM     12  C   UNL A   1      29.409  29.705  22.285  1.00  0.00     0.024 A 
BRANCH   7  13
ATOM     13  N   UNL A   1      30.859  26.397  24.304  1.00  0.00    -0.356 N 
ATOM     14  C   UNL A   1      31.277  23.982  25.926  1.00  0.00     0.001 C 
ATOM     15  C   UNL A   1      31.339  23.981  24.371  1.00  0.00     0.031 C 
ATOM     16  C   UNL A   1      30.465  25.209  26.405  1.00  0.00     0.031 C 
ATOM     17  C   UNL A   1      31.617  25.327  23.691  1.00  0.00     0.119 C 
ATOM     18  C   UNL A   1      30.856  26.528  25.747  1.00  0.00     0.119 C 
BRANCH  14  19
ATOM     19  C   UNL A   1      32.690  23.847  26.602  1.00  0.00     0.045 C 
BRANCH  19  20
ATOM     20  C   UNL A   1      33.840  23.248  25.828  1.00  0.00    -0.044 A 
ATOM     21  C   UNL A   1      34.974  21.297  24.909  1.00  0.00     0.119 A 
ATOM     22  C   UNL A   1      36.073  22.095  24.597  1.00  0.00     0.046 A 
ATOM     23  C   UNL A   1      33.855  21.874  25.515  1.00  0.00     0.050 A 
ATOM     24  C   UNL A   1      36.041  23.467  24.834  1.00  0.00     0.004 A 
ATOM     25  C   UNL A   1      34.920  24.044  25.431  1.00  0.00     0.004 A 
BRANCH  21  26
ATOM     26  O   UNL A   1      35.142  19.965  24.655  1.00  0.00    -0.497 OA
ATOM     27  C   UNL A   1      33.982  19.151  24.766  1.00  0.00     0.278 C 
ENDBRANCH  21  26
ENDBRANCH  19  20
ENDBRANCH  14  19
BRANCH  14  28
ATOM     28  C   UNL A   1      30.467  22.727  26.379  1.00  0.00     0.163 C 
BRANCH  28  29
ATOM     29  O   UNL A   1      29.868  22.904  27.658  1.00  0.00    -0.396 OA
ATOM     30  H   UNL A   1      29.938  23.835  27.922  1.00  0.00     0.210 HD
ENDBRANCH  28  29
ENDBRANCH  14  28
ENDBRANCH   7  13
ENDBRANCH   3   6
ENDBRANCH   1   2
BRANCH   1  31
ATOM     31  C   UNL A   1      32.367  30.073  25.670  1.00  0.00     0.042 C 
BRANCH  31  32
ATOM     32  C   UNL A   1      32.534  30.645  27.082  1.00  0.00     0.118 C 
BRANCH  32  33
ATOM     33  N   UNL A   1      32.793  32.080  27.061  1.00  0.00    -0.352 N 
ATOM     34  C   UNL A   1      33.780  32.808  27.681  1.00  0.00     0.251 C 
ATOM     35  H   UNL A   1      32.163  32.608  26.520  1.00  0.00     0.163 HD
ATOM     36  O   UNL A   1      33.682  34.032  27.722  1.00  0.00    -0.269 OA
BRANCH  34  37
ATOM     37  C   UNL A   1      34.952  32.145  28.303  1.00  0.00     0.039 A 
ATOM     38  C   UNL A   1      36.172  32.831  28.343  1.00  0.00     0.014 A 
ATOM     39  C   UNL A   1      34.880  30.834  28.783  1.00  0.00     0.014 A 
ATOM     40  C   UNL A   1      37.300  32.227  28.912  1.00  0.00     0.010 A 
ATOM     41  C   UNL A   1      35.991  30.253  29.397  1.00  0.00     0.010 A 
ATOM     42  C   UNL A   1      37.213  30.941  29.467  1.00  0.00    -0.014 A 
BRANCH  42  43
ATOM     43  C   UNL A   1      38.376  30.308  30.146  1.00  0.00     0.031 A 
ATOM     44  C   UNL A   1      38.769  30.721  31.539  1.00  0.00     0.074 A 
ATOM     45  C   UNL A   1      39.143  29.430  29.467  1.00  0.00     0.049 A 
ATOM     46  N   UNL A   1      39.801  30.346  32.252  1.00  0.00    -0.248 NA
ATOM     47  C   UNL A   1      37.901  31.700  32.212  1.00  0.00     0.031 C 
ATOM     48  C   UNL A   1      38.914  28.998  28.088  1.00  0.00     0.029 A 
ATOM     49  N   UNL A   1      40.292  28.772  29.834  1.00  0.00    -0.354 N 
ATOM     50  C   UNL A   1      39.732  31.071  33.436  1.00  0.00     0.074 A 
ATOM     51  C   UNL A   1      38.565  31.921  33.339  1.00  0.00     0.031 C 
ATOM     52  C   UNL A   1      39.894  28.158  27.720  1.00  0.00     0.029 A 
ATOM     53  C   UNL A   1      40.837  28.012  28.825  1.00  0.00     0.049 A 
ATOM     54  H   UNL A   1      40.688  28.839  30.733  1.00  0.00     0.167 HD
ATOM     55  C   UNL A   1      40.549  31.017  34.515  1.00  0.00     0.034 A 
ATOM     56  C   UNL A   1      41.973  27.286  28.787  1.00  0.00     0.034 A 
ATOM     57  C   UNL A   1      41.678  30.133  34.632  1.00  0.00     0.049 A 
ATOM     58  C   UNL A   1      42.838  27.209  30.015  1.00  0.00     0.074 A 
ATOM     59  C   UNL A   1      42.506  29.935  35.724  1.00  0.00     0.029 A 
ATOM     60  N   UNL A   1      42.143  29.302  33.624  1.00  0.00    -0.354 N 
ATOM     61  N   UNL A   1      42.662  27.775  31.184  1.00  0.00    -0.248 NA
ATOM     62  C   UNL A   1      44.039  26.365  29.932  1.00  0.00     0.031 C 
ATOM     63  C   UNL A   1      43.479  28.993  35.371  1.00  0.00     0.029 A 
ATOM     64  C   UNL A   1      43.250  28.596  34.064  1.00  0.00     0.049 A 
ATOM     65  H   UNL A   1      41.744  29.226  32.728  1.00  0.00     0.167 HD
ATOM     66  C   UNL A   1      43.710  27.332  31.984  1.00  0.00     0.074 A 
ATOM     67  C   UNL A   1      44.504  26.433  31.173  1.00  0.00     0.031 C 
ATOM     68  C   UNL A   1      43.998  27.657  33.268  1.00  0.00     0.034 A 
BRANCH  55  69
ATOM     69  C   UNL A   1      40.217  31.897  35.691  1.00  0.00     0.023 A 
ATOM     70  C   UNL A   1      40.970  33.069  35.911  1.00  0.00     0.012 A 
ATOM     71  C   UNL A   1      39.126  31.610  36.536  1.00  0.00     0.148 A 
ATOM     72  C   UNL A   1      40.663  33.924  36.968  1.00  0.00     0.002 A 
ATOM     73  C   UNL A   1      38.803  32.487  37.565  1.00  0.00     0.091 A 
ATOM     74  F   UNL A   1      38.433  30.481  36.325  1.00  0.00    -0.205 F 
ATOM     75  C   UNL A   1      39.575  33.639  37.788  1.00  0.00     0.022 A 
BRANCH  73  76
ATOM     76  S   UNL A   1      37.375  32.245  38.629  1.00  0.00     0.127 S 
ATOM     77  O   UNL A   1      37.831  32.851  39.878  1.00  0.00    -0.237 OA
ATOM     78  O   UNL A   1      36.334  33.002  37.929  1.00  0.00    -0.237 OA
ATOM     79  O   UNL A   1      37.149  30.807  38.672  1.00  0.00    -0.744 OA
ENDBRANCH  73  76
ENDBRANCH  55  69
BRANCH  56  80
ATOM     80  C   UNL A   1      42.318  26.518  27.558  1.00  0.00     0.023 A 
ATOM     81  C   UNL A   1      43.006  27.166  26.513  1.00  0.00     0.012 A 
ATOM     82  C   UNL A   1      42.009  25.150  27.430  1.00  0.00     0.148 A 
ATOM     83  C   UNL A   1      43.357  26.474  25.354  1.00  0.00     0.002 A 
ATOM     84  C   UNL A   1      42.410  24.452  26.295  1.00  0.00     0.091 A 
ATOM     85  F   UNL A   1      41.338  24.554  28.426  1.00  0.00    -0.205 F 
ATOM     86  C   UNL A   1      43.071  25.116  25.250  1.00  0.00     0.022 A 
BRANCH  84  87
ATOM     87  S   UNL A   1      42.201  22.674  26.141  1.00  0.00     0.127 S 
ATOM     88  O   UNL A   1      42.927  22.184  27.309  1.00  0.00    -0.237 OA
ATOM     89  O   UNL A   1      40.746  22.530  26.215  1.00  0.00    -0.237 OA
ATOM     90  O   UNL A   1      42.767  22.328  24.844  1.00  0.00    -0.744 OA
ENDBRANCH  84  87
ENDBRANCH  56  80
BRANCH  68  91
ATOM     91  C   UNL A   1      45.210  27.021  33.896  1.00  0.00     0.023 A 
ATOM     92  C   UNL A   1      46.440  27.709  33.886  1.00  0.00     0.012 A 
ATOM     93  C   UNL A   1      45.113  25.785  34.565  1.00  0.00     0.148 A 
ATOM     94  C   UNL A   1      47.561  27.165  34.511  1.00  0.00     0.002 A 
ATOM     95  C   UNL A   1      46.225  25.269  35.223  1.00  0.00     0.091 A 
ATOM     96  F   UNL A   1      43.941  25.136  34.546  1.00  0.00    -0.205 F 
ATOM     97  C   UNL A   1      47.451  25.953  35.188  1.00  0.00     0.022 A 
BRANCH  95  98
ATOM     98  S   UNL A   1      46.148  23.760  36.195  1.00  0.00     0.127 S 
ATOM     99  O   UNL A   1      46.182  22.733  35.153  1.00  0.00    -0.237 OA
ATOM    100  O   UNL A   1      47.367  23.846  37.003  1.00  0.00    -0.237 OA
ATOM    101  O   UNL A   1      44.915  23.839  36.960  1.00  0.00    -0.744 OA
ENDBRANCH  95  98
ENDBRANCH  68  91
ENDBRANCH  42  43
ENDBRANCH  34  37
ENDBRANCH  32  33
ENDBRANCH  31  32
ENDBRANCH   1  31
TORSDOF 19
ENDMDL
MODEL 2
REMARK VINA RESULT:     -12.3      4.694      9.130
REMARK SMILES COc1cccc(CC2(CO)CCN(c3nc(C)ccc3C(=O)NCCCNC(=O)c3ccc(-c4c5nc(c(-c6cccc(S(=O)(=O)[O-])c6F)c6ccc([nH]6)c(-c6cccc(S(=O)(=O)[O-])c6F)c6nc(c(-c7cccc(S(=O)(=O)[O-])c7F)c7ccc4[nH]7)C=C6)C=C5)cc3)CC2)c1
REMARK SMILES IDX 25 1 24 2 22 3 23 4 21 6 15 7 16 8 17 9 20 10 18 11 19 12
REMARK SMILES IDX 14 13 9 14 12 15 95 16 13 17 94 18 8 19 7 20 3 21 4 22 96 23
REMARK SMILES IDX 5 24 6 25 2 26 1 27 10 28 11 29 26 31 27 32 28 33 29 34
REMARK SMILES IDX 30 36 31 37 32 38 93 39 33 40 92 41 34 42 35 43 36 44 86 45
REMARK SMILES IDX 37 46 91 47 85 48 87 49 38 50 90 51 84 52 83 53 39 55 71 56
REMARK SMILES IDX 51 57 70 58 52 59 55 60 69 61 88 62 53 63 54 64 68 66 89 67
REMARK SMILES IDX 56 68 40 69 41 70 49 71 42 72 44 73 50 74 43 75 45 76 46 77
REMARK SMILES IDX 47 78 48 79 72 80 73 81 81 82 74 83 76 84 82 85 75 86 77 87
REMARK SMILES IDX 78 88 79 89 80 90 57 91 58 92 66 93 59 94 61 95 67 96 60 97
REMARK SMILES IDX 62 98 63 99 64 100 65 101
REMARK H PARENT 24 5 11 30 28 35 87 54 55 65
REMARK Flexibility Score: inf
ROOT
ATOM      1  C   UNL A   1      34.518  25.110  24.828  1.00  0.00     0.118 C 
ENDROOT
BRANCH   1   2
ATOM      2  N   UNL A   1      34.442  25.782  23.540  1.00  0.00    -0.352 N 
ATOM      3  C   UNL A   1      33.423  25.709  22.613  1.00  0.00     0.255 C 
ATOM      4  O   UNL A   1      33.733  25.460  21.451  1.00  0.00    -0.269 OA
ATOM      5  H   UNL A   1      35.206  26.356  23.303  1.00  0.00     0.163 HD
BRANCH   3   6
ATOM      6  C   UNL A   1      32.006  25.916  22.999  1.00  0.00     0.082 A 
ATOM      7  C   UNL A   1      31.219  24.913  23.604  1.00  0.00     0.141 A 
ATOM      8  N   UNL A   1      29.906  25.142  23.881  1.00  0.00    -0.235 NA
ATOM      9  C   UNL A   1      29.379  26.372  23.682  1.00  0.00     0.040 A 
ATOM     10  C   UNL A   1      31.441  27.182  22.805  1.00  0.00     0.019 A 
ATOM     11  C   UNL A   1      27.979  26.583  24.169  1.00  0.00     0.067 C 
ATOM     12  C   UNL A   1      30.119  27.419  23.157  1.00  0.00     0.024 A 
BRANCH   7  13
ATOM     13  N   UNL A   1      31.653  23.680  24.044  1.00  0.00    -0.356 N 
ATOM     14  C   UNL A   1      32.926  21.230  25.051  1.00  0.00     0.001 C 
ATOM     15  C   UNL A   1      32.361  22.338  25.986  1.00  0.00     0.031 C 
ATOM     16  C   UNL A   1      33.208  21.834  23.655  1.00  0.00     0.031 C 
ATOM     17  C   UNL A   1      31.300  23.271  25.387  1.00  0.00     0.119 C 
ATOM     18  C   UNL A   1      32.075  22.679  23.085  1.00  0.00     0.119 C 
BRANCH  14  19
ATOM     19  C   UNL A   1      32.038  19.934  25.019  1.00  0.00     0.045 C 
BRANCH  19  20
ATOM     20  C   UNL A   1      32.584  18.663  24.413  1.00  0.00    -0.044 A 
ATOM     21  C   UNL A   1      33.782  16.556  24.654  1.00  0.00     0.119 A 
ATOM     22  C   UNL A   1      33.798  16.417  23.267  1.00  0.00     0.046 A 
ATOM     23  C   UNL A   1      33.168  17.672  25.227  1.00  0.00     0.050 A 
ATOM     24  C   UNL A   1      33.160  17.352  22.456  1.00  0.00     0.004 A 
ATOM     25  C   UNL A   1      32.539  18.461  23.028  1.00  0.00     0.004 A 
BRANCH  21  26
ATOM     26  O   UNL A   1      34.468  15.589  25.335  1.00  0.00    -0.497 OA
ATOM     27  C   UNL A   1      35.857  15.819  25.527  1.00  0.00     0.278 C 
ENDBRANCH  21  26
ENDBRANCH  19  20
ENDBRANCH  14  19
BRANCH  14  28
ATOM     28  C   UNL A   1      34.312  20.783  25.614  1.00  0.00     0.163 C 
BRANCH  28  29
ATOM     29  O   UNL A   1      34.441  21.051  27.006  1.00  0.00    -0.396 OA
ATOM     30  H   UNL A   1      35.214  20.580  27.356  1.00  0.00     0.210 HD
ENDBRANCH  28  29
ENDBRANCH  14  28
ENDBRANCH   7  13
ENDBRANCH   3   6
ENDBRANCH   1   2
BRANCH   1  31
ATOM     31  C   UNL A   1      35.661  24.084  24.834  1.00  0.00     0.042 C 
BRANCH  31  32
ATOM     32  C   UNL A   1      36.120  23.673  26.237  1.00  0.00     0.118 C 
BRANCH  32  33
ATOM     33  N   UNL A   1      37.225  22.723  26.191  1.00  0.00    -0.352 N 
ATOM     34  C   UNL A   1      38.576  22.933  26.330  1.00  0.00     0.251 C 
ATOM     35  H   UNL A   1      36.963  21.787  26.036  1.00  0.00     0.163 HD
ATOM     36  O   UNL A   1      39.355  22.030  26.027  1.00  0.00    -0.269 OA
BRANCH  34  37
ATOM     37  C   UNL A   1      39.109  24.223  26.831  1.00  0.00     0.039 A 
ATOM     38  C   UNL A   1      39.831  25.041  25.953  1.00  0.00     0.014 A 
ATOM     39  C   UNL A   1      38.965  24.602  28.168  1.00  0.00     0.014 A 
ATOM     40  C   UNL A   1      40.357  26.259  26.400  1.00  0.00     0.010 A 
ATOM     41  C   UNL A   1      39.445  25.840  28.599  1.00  0.00     0.010 A 
ATOM     42  C   UNL A   1      40.148  26.682  27.722  1.00  0.00    -0.014 A 
BRANCH  42  43
ATOM     43  C   UNL A   1      40.630  28.006  28.200  1.00  0.00     0.031 A 
ATOM     44  C   UNL A   1      42.103  28.310  28.258  1.00  0.00     0.074 A 
ATOM     45  C   UNL A   1      39.742  28.901  28.678  1.00  0.00     0.049 A 
ATOM     46  N   UNL A   1      42.709  29.370  28.728  1.00  0.00    -0.248 NA
ATOM     47  C   UNL A   1      43.016  27.279  27.741  1.00  0.00     0.031 C 
ATOM     48  C   UNL A   1      38.294  28.703  28.745  1.00  0.00     0.029 A 
ATOM     49  N   UNL A   1      39.932  30.143  29.236  1.00  0.00    -0.354 N 
ATOM     50  C   UNL A   1      44.071  29.120  28.604  1.00  0.00     0.074 A 
ATOM     51  C   UNL A   1      44.202  27.798  28.028  1.00  0.00     0.031 C 
ATOM     52  C   UNL A   1      37.728  29.776  29.318  1.00  0.00     0.029 A 
ATOM     53  C   UNL A   1      38.772  30.727  29.687  1.00  0.00     0.049 A 
ATOM     54  H   UNL A   1      40.815  30.573  29.305  1.00  0.00     0.167 HD
ATOM     55  C   UNL A   1      45.116  29.924  28.915  1.00  0.00     0.034 A 
ATOM     56  C   UNL A   1      38.568  31.893  30.334  1.00  0.00     0.034 A 
ATOM     57  C   UNL A   1      44.983  31.258  29.437  1.00  0.00     0.049 A 
ATOM     58  C   UNL A   1      39.743  32.786  30.627  1.00  0.00     0.074 A 
ATOM     59  C   UNL A   1      45.979  32.185  29.691  1.00  0.00     0.029 A 
ATOM     60  N   UNL A   1      43.783  31.856  29.790  1.00  0.00    -0.354 N 
ATOM     61  N   UNL A   1      41.010  32.599  30.349  1.00  0.00    -0.248 NA
ATOM     62  C   UNL A   1      39.457  34.066  31.292  1.00  0.00     0.031 C 
ATOM     63  C   UNL A   1      45.382  33.340  30.209  1.00  0.00     0.029 A 
ATOM     64  C   UNL A   1      44.013  33.136  30.266  1.00  0.00     0.049 A 
ATOM     65  H   UNL A   1      42.898  31.433  29.713  1.00  0.00     0.167 HD
ATOM     66  C   UNL A   1      41.667  33.748  30.773  1.00  0.00     0.074 A 
ATOM     67  C   UNL A   1      40.655  34.635  31.309  1.00  0.00     0.031 C 
ATOM     68  C   UNL A   1      42.992  34.034  30.741  1.00  0.00     0.034 A 
BRANCH  55  69
ATOM     69  C   UNL A   1      46.504  29.408  28.641  1.00  0.00     0.023 A 
ATOM     70  C   UNL A   1      47.171  29.812  27.466  1.00  0.00     0.012 A 
ATOM     71  C   UNL A   1      47.176  28.585  29.567  1.00  0.00     0.148 A 
ATOM     72  C   UNL A   1      48.470  29.382  27.201  1.00  0.00     0.002 A 
ATOM     73  C   UNL A   1      48.486  28.191  29.314  1.00  0.00     0.091 A 
ATOM     74  F   UNL A   1      46.520  28.194  30.669  1.00  0.00    -0.205 F 
ATOM     75  C   UNL A   1      49.131  28.581  28.129  1.00  0.00     0.022 A 
BRANCH  73  76
ATOM     76  S   UNL A   1      49.445  27.220  30.483  1.00  0.00     0.127 S 
ATOM     77  O   UNL A   1      49.404  28.067  31.674  1.00  0.00    -0.237 OA
ATOM     78  O   UNL A   1      48.658  25.989  30.584  1.00  0.00    -0.237 OA
ATOM     79  O   UNL A   1      50.757  27.049  29.877  1.00  0.00    -0.744 OA
ENDBRANCH  73  76
ENDBRANCH  55  69
BRANCH  56  80
ATOM     80  C   UNL A   1      37.182  32.311  30.686  1.00  0.00     0.023 A 
ATOM     81  C   UNL A   1      36.729  32.143  32.009  1.00  0.00     0.012 A 
ATOM     82  C   UNL A   1      36.327  32.906  29.738  1.00  0.00     0.148 A 
ATOM     83  C   UNL A   1      35.442  32.536  32.376  1.00  0.00     0.002 A 
ATOM     84  C   UNL A   1      35.064  33.345  30.124  1.00  0.00     0.091 A 
ATOM     85  F   UNL A   1      36.768  33.042  28.480  1.00  0.00    -0.205 F 
ATOM     86  C   UNL A   1      34.615  33.148  31.439  1.00  0.00     0.022 A 
BRANCH  84  87
ATOM     87  S   UNL A   1      33.990  34.264  29.015  1.00  0.00     0.127 S 
ATOM     88  O   UNL A   1      32.983  34.785  29.936  1.00  0.00    -0.237 OA
ATOM     89  O   UNL A   1      34.903  35.269  28.468  1.00  0.00    -0.237 OA
ATOM     90  O   UNL A   1      33.519  33.292  28.037  1.00  0.00    -0.744 OA
ENDBRANCH  84  87
ENDBRANCH  56  80
BRANCH  68  91
ATOM     91  C   UNL A   1      43.434  35.371  31.275  1.00  0.00     0.023 A 
ATOM     92  C   UNL A   1      43.794  35.493  32.632  1.00  0.00     0.012 A 
ATOM     93  C   UNL A   1      43.570  36.483  30.420  1.00  0.00     0.148 A 
ATOM     94  C   UNL A   1      44.259  36.707  33.135  1.00  0.00     0.002 A 
ATOM     95  C   UNL A   1      44.076  37.678  30.920  1.00  0.00     0.091 A 
ATOM     96  F   UNL A   1      43.202  36.353  29.138  1.00  0.00    -0.205 F 
ATOM     97  C   UNL A   1      44.411  37.794  32.278  1.00  0.00     0.022 A 
BRANCH  95  98
ATOM     98  S   UNL A   1      44.388  39.100  29.867  1.00  0.00     0.127 S 
ATOM     99  O   UNL A   1      43.040  39.425  29.398  1.00  0.00    -0.237 OA
ATOM    100  O   UNL A   1      44.953  40.068  30.810  1.00  0.00    -0.237 OA
ATOM    101  O   UNL A   1      45.315  38.645  28.844  1.00  0.00    -0.744 OA
ENDBRANCH  95  98
ENDBRANCH  68  91
ENDBRANCH  42  43
ENDBRANCH  34  37
ENDBRANCH  32  33
ENDBRANCH  31  32
ENDBRANCH   1  31
TORSDOF 19
ENDMDL
MODEL 3
REMARK VINA RESULT:     -12.2      0.674      7.315
REMARK SMILES COc1cccc(CC2(CO)CCN(c3nc(C)ccc3C(=O)NCCCNC(=O)c3ccc(-c4c5nc(c(-c6cccc(S(=O)(=O)[O-])c6F)c6ccc([nH]6)c(-c6cccc(S(=O)(=O)[O-])c6F)c6nc(c(-c7cccc(S(=O)(=O)[O-])c7F)c7ccc4[nH]7)C=C6)C=C5)cc3)CC2)c1
REMARK SMILES IDX 25 1 24 2 22 3 23 4 21 6 15 7 16 8 17 9 20 10 18 11 19 12
REMARK SMILES IDX 14 13 9 14 12 15 95 16 13 17 94 18 8 19 7 20 3 21 4 22 96 23
REMARK SMILES IDX 5 24 6 25 2 26 1 27 10 28 11 29 26 31 27 32 28 33 29 34
REMARK SMILES IDX 30 36 31 37 32 38 93 39 33 40 92 41 34 42 35 43 36 44 86 45
REMARK SMILES IDX 37 46 91 47 85 48 87 49 38 50 90 51 84 52 83 53 39 55 71 56
REMARK SMILES IDX 51 57 70 58 52 59 55 60 69 61 88 62 53 63 54 64 68 66 89 67
REMARK SMILES IDX 56 68 40 69 41 70 49 71 42 72 44 73 50 74 43 75 45 76 46 77
REMARK SMILES IDX 47 78 48 79 72 80 73 81 81 82 74 83 76 84 82 85 75 86 77 87
REMARK SMILES IDX 78 88 79 89 80 90 57 91 58 92 66 93 59 94 61 95 67 96 60 97
REMARK SMILES IDX 62 98 63 99 64 100 65 101
REMARK H PARENT 24 5 11 30 28 35 87 54 55 65
REMARK Flexibility Score: inf
ROOT
ATOM      1  C   UNL A   1      33.399  28.586  25.164  1.00  0.00     0.118 C 
ENDROOT
BRANCH   1   2
ATOM      2  N   UNL A   1      33.500  28.520  23.714  1.00  0.00    -0.352 N 
ATOM      3  C   UNL A   1      32.645  27.880  22.841  1.00  0.00     0.255 C 
ATOM      4  O   UNL A   1      33.145  27.128  22.010  1.00  0.00    -0.269 OA
ATOM      5  H   UNL A   1      34.267  28.986  23.311  1.00  0.00     0.163 HD
BRANCH   3   6
ATOM      6  C   UNL A   1      31.177  28.085  22.901  1.00  0.00     0.082 A 
ATOM      7  C   UNL A   1      30.307  27.212  23.589  1.00  0.00     0.141 A 
ATOM      8  N   UNL A   1      28.961  27.417  23.558  1.00  0.00    -0.235 NA
ATOM      9  C   UNL A   1      28.461  28.526  22.965  1.00  0.00     0.040 A 
ATOM     10  C   UNL A   1      30.638  29.227  22.297  1.00  0.00     0.019 A 
ATOM     11  C   UNL A   1      26.991  28.760  23.124  1.00  0.00     0.067 C 
ATOM     12  C   UNL A   1      29.269  29.458  22.336  1.00  0.00     0.024 A 
BRANCH   7  13
ATOM     13  N   UNL A   1      30.669  26.154  24.395  1.00  0.00    -0.356 N 
ATOM     14  C   UNL A   1      31.073  23.761  26.054  1.00  0.00     0.001 C 
ATOM     15  C   UNL A   1      31.156  23.740  24.500  1.00  0.00     0.031 C 
ATOM     16  C   UNL A   1      30.250  24.991  26.506  1.00  0.00     0.031 C 
ATOM     17  C   UNL A   1      31.440  25.079  23.806  1.00  0.00     0.119 C 
ATOM     18  C   UNL A   1      30.646  26.303  25.836  1.00  0.00     0.119 C 
BRANCH  14  19
ATOM     19  C   UNL A   1      32.476  23.640  26.751  1.00  0.00     0.045 C 
BRANCH  19  20
ATOM     20  C   UNL A   1      33.509  22.684  26.202  1.00  0.00    -0.044 A 
ATOM     21  C   UNL A   1      35.619  22.294  25.050  1.00  0.00     0.119 A 
ATOM     22  C   UNL A   1      35.318  20.934  24.979  1.00  0.00     0.046 A 
ATOM     23  C   UNL A   1      34.721  23.166  25.669  1.00  0.00     0.050 A 
ATOM     24  C   UNL A   1      34.158  20.436  25.567  1.00  0.00     0.004 A 
ATOM     25  C   UNL A   1      33.266  21.306  26.192  1.00  0.00     0.004 A 
BRANCH  21  26
ATOM     26  O   UNL A   1      36.770  22.660  24.410  1.00  0.00    -0.497 OA
ATOM     27  C   UNL A   1      36.651  22.967  23.027  1.00  0.00     0.278 C 
ENDBRANCH  21  26
ENDBRANCH  19  20
ENDBRANCH  14  19
BRANCH  14  28
ATOM     28  C   UNL A   1      30.260  22.509  26.511  1.00  0.00     0.163 C 
BRANCH  28  29
ATOM     29  O   UNL A   1      29.528  22.749  27.708  1.00  0.00    -0.396 OA
ATOM     30  H   UNL A   1      29.737  23.635  28.043  1.00  0.00     0.210 HD
ENDBRANCH  28  29
ENDBRANCH  14  28
ENDBRANCH   7  13
ENDBRANCH   3   6
ENDBRANCH   1   2
BRANCH   1  31
ATOM     31  C   UNL A   1      32.447  29.715  25.587  1.00  0.00     0.042 C 
BRANCH  31  32
ATOM     32  C   UNL A   1      32.730  30.275  26.986  1.00  0.00     0.118 C 
BRANCH  32  33
ATOM     33  N   UNL A   1      32.798  31.732  26.985  1.00  0.00    -0.352 N 
ATOM     34  C   UNL A   1      33.682  32.574  27.616  1.00  0.00     0.251 C 
ATOM     35  H   UNL A   1      32.104  32.180  26.451  1.00  0.00     0.163 HD
ATOM     36  O   UNL A   1      33.423  33.775  27.674  1.00  0.00    -0.269 OA
BRANCH  34  37
ATOM     37  C   UNL A   1      34.931  32.062  28.229  1.00  0.00     0.039 A 
ATOM     38  C   UNL A   1      36.093  32.839  28.141  1.00  0.00     0.014 A 
ATOM     39  C   UNL A   1      34.987  30.801  28.828  1.00  0.00     0.014 A 
ATOM     40  C   UNL A   1      37.291  32.378  28.699  1.00  0.00     0.010 A 
ATOM     41  C   UNL A   1      36.170  30.365  29.429  1.00  0.00     0.010 A 
ATOM     42  C   UNL A   1      37.335  31.146  29.370  1.00  0.00    -0.014 A 
BRANCH  42  43
ATOM     43  C   UNL A   1      38.576  30.669  30.037  1.00  0.00     0.031 A 
ATOM     44  C   UNL A   1      39.447  29.630  29.384  1.00  0.00     0.074 A 
ATOM     45  C   UNL A   1      38.866  31.097  31.283  1.00  0.00     0.049 A 
ATOM     46  N   UNL A   1      40.513  29.032  29.853  1.00  0.00    -0.248 NA
ATOM     47  C   UNL A   1      39.060  29.190  28.034  1.00  0.00     0.031 C 
ATOM     48  C   UNL A   1      38.066  32.048  32.057  1.00  0.00     0.029 A 
ATOM     49  N   UNL A   1      39.892  30.760  32.132  1.00  0.00    -0.354 N 
ATOM     50  C   UNL A   1      40.898  28.117  28.880  1.00  0.00     0.074 A 
ATOM     51  C   UNL A   1      39.942  28.228  27.799  1.00  0.00     0.031 C 
ATOM     52  C   UNL A   1      38.623  32.210  33.267  1.00  0.00     0.029 A 
ATOM     53  C   UNL A   1      39.802  31.355  33.369  1.00  0.00     0.049 A 
ATOM     54  H   UNL A   1      40.623  30.150  31.879  1.00  0.00     0.167 HD
ATOM     55  C   UNL A   1      41.964  27.280  28.874  1.00  0.00     0.034 A 
ATOM     56  C   UNL A   1      40.574  31.223  34.466  1.00  0.00     0.034 A 
ATOM     57  C   UNL A   1      42.944  27.209  29.924  1.00  0.00     0.049 A 
ATOM     58  C   UNL A   1      41.776  30.320  34.415  1.00  0.00     0.074 A 
ATOM     59  C   UNL A   1      44.110  26.464  29.964  1.00  0.00     0.029 A 
ATOM     60  N   UNL A   1      42.873  27.902  31.123  1.00  0.00    -0.354 N 
ATOM     61  N   UNL A   1      42.216  29.588  33.421  1.00  0.00    -0.248 NA
ATOM     62  C   UNL A   1      42.609  30.251  35.625  1.00  0.00     0.031 C 
ATOM     63  C   UNL A   1      44.739  26.699  31.191  1.00  0.00     0.029 A 
ATOM     64  C   UNL A   1      43.970  27.598  31.912  1.00  0.00     0.049 A 
ATOM     65  H   UNL A   1      42.150  28.520  31.375  1.00  0.00     0.167 HD
ATOM     66  C   UNL A   1      43.391  28.998  33.872  1.00  0.00     0.074 A 
ATOM     67  C   UNL A   1      43.607  29.474  35.222  1.00  0.00     0.031 C 
ATOM     68  C   UNL A   1      44.206  28.124  33.232  1.00  0.00     0.034 A 
BRANCH  55  69
ATOM     69  C   UNL A   1      42.166  26.412  27.659  1.00  0.00     0.023 A 
ATOM     70  C   UNL A   1      42.889  26.919  26.560  1.00  0.00     0.012 A 
ATOM     71  C   UNL A   1      41.708  25.080  27.628  1.00  0.00     0.148 A 
ATOM     72  C   UNL A   1      43.125  26.128  25.437  1.00  0.00     0.002 A 
ATOM     73  C   UNL A   1      41.980  24.284  26.520  1.00  0.00     0.091 A 
ATOM     74  F   UNL A   1      41.005  24.619  28.673  1.00  0.00    -0.205 F 
ATOM     75  C   UNL A   1      42.681  24.809  25.421  1.00  0.00     0.022 A 
BRANCH  73  76
ATOM     76  S   UNL A   1      41.513  22.551  26.437  1.00  0.00     0.127 S 
ATOM     77  O   UNL A   1      42.191  22.121  25.215  1.00  0.00    -0.237 OA
ATOM     78  O   UNL A   1      42.087  22.015  27.673  1.00  0.00    -0.237 OA
ATOM     79  O   UNL A   1      40.058  22.531  26.389  1.00  0.00    -0.744 OA
ENDBRANCH  73  76
ENDBRANCH  55  69
BRANCH  56  80
ATOM     80  C   UNL A   1      40.268  32.023  35.686  1.00  0.00     0.023 A 
ATOM     81  C   UNL A   1      41.117  33.091  36.037  1.00  0.00     0.012 A 
ATOM     82  C   UNL A   1      39.131  31.762  36.475  1.00  0.00     0.148 A 
ATOM     83  C   UNL A   1      40.854  33.870  37.164  1.00  0.00     0.002 A 
ATOM     84  C   UNL A   1      38.845  32.576  37.566  1.00  0.00     0.091 A 
ATOM     85  F   UNL A   1      38.345  30.731  36.137  1.00  0.00    -0.205 F 
ATOM     86  C   UNL A   1      39.713  33.620  37.921  1.00  0.00     0.022 A 
BRANCH  84  87
ATOM     87  S   UNL A   1      37.327  32.409  38.512  1.00  0.00     0.127 S 
ATOM     88  O   UNL A   1      36.359  33.079  37.648  1.00  0.00    -0.237 OA
ATOM     89  O   UNL A   1      37.176  30.955  38.595  1.00  0.00    -0.237 OA
ATOM     90  O   UNL A   1      37.594  33.053  39.792  1.00  0.00    -0.744 OA
ENDBRANCH  84  87
ENDBRANCH  56  80
BRANCH  68  91
ATOM     91  C   UNL A   1      45.428  27.639  33.967  1.00  0.00     0.023 A 
ATOM     92  C   UNL A   1      46.661  28.291  33.772  1.00  0.00     0.012 A 
ATOM     93  C   UNL A   1      45.338  26.593  34.907  1.00  0.00     0.148 A 
ATOM     94  C   UNL A   1      47.793  27.895  34.484  1.00  0.00     0.002 A 
ATOM     95  C   UNL A   1      46.461  26.232  35.645  1.00  0.00     0.091 A 
ATOM     96  F   UNL A   1      44.161  25.971  35.062  1.00  0.00    -0.205 F 
ATOM     97  C   UNL A   1      47.690  26.875  35.427  1.00  0.00     0.022 A 
BRANCH  95  98
ATOM     98  S   UNL A   1      46.395  24.992  36.943  1.00  0.00     0.127 S 
ATOM     99  O   UNL A   1      45.412  25.572  37.859  1.00  0.00    -0.237 OA
ATOM    100  O   UNL A   1      45.926  23.807  36.219  1.00  0.00    -0.237 OA
ATOM    101  O   UNL A   1      47.748  24.882  37.461  1.00  0.00    -0.744 OA
ENDBRANCH  95  98
ENDBRANCH  68  91
ENDBRANCH  42  43
ENDBRANCH  34  37
ENDBRANCH  32  33
ENDBRANCH  31  32
ENDBRANCH   1  31
TORSDOF 19
ENDMDL
