MODEL 1
REMARK VINA RESULT:     -12.2      0.000      0.000
REMARK SMILES Nc1nn(-c2ccc(Cl)cc2)nc1C(=O)NCCCNC(=O)c1ccc(-c2c3nc(c(-c4cccc(S(=O)(=O)[O-])c4F)c4ccc([nH]4)c(-c4cccc(S(=O)(=O)[O-])c4F)c4nc(c(-c5cccc(S(=O)(=O)[O-])c5F)c5ccc2[nH]5)C=C4)C=C3)cc1
REMARK SMILES IDX 19 1 18 2 17 3 16 4 14 5 15 6 13 8 2 9 3 10 4 11 12 12 1 13
REMARK SMILES IDX 5 16 6 17 11 18 7 19 10 20 8 21 9 22 20 23 21 24 22 26 23 27
REMARK SMILES IDX 24 28 85 29 25 30 84 31 26 32 27 33 28 34 78 35 29 36 83 37
REMARK SMILES IDX 77 38 79 39 30 40 82 41 76 42 75 43 31 45 63 46 43 47 62 48
REMARK SMILES IDX 44 49 47 50 61 51 80 52 45 53 46 54 60 56 81 57 48 58 32 59
REMARK SMILES IDX 33 60 41 61 34 62 36 63 42 64 35 65 37 66 38 67 39 68 40 69
REMARK SMILES IDX 64 70 65 71 73 72 66 73 68 74 74 75 67 76 69 77 70 78 71 79
REMARK SMILES IDX 72 80 49 81 50 82 58 83 51 84 53 85 59 86 52 87 54 88 55 89
REMARK SMILES IDX 56 90 57 91
REMARK H PARENT 16 7 1 14 1 15 20 25 79 44 47 55
REMARK Flexibility Score: inf
ROOT
ATOM      1  C   UNL A   1      39.072  20.233  25.685  1.00  0.00     0.118 C 
ENDROOT
BRANCH   1   2
ATOM      2  C   UNL A   1      37.874  19.759  24.871  1.00  0.00     0.042 C 
BRANCH   2   3
ATOM      3  C   UNL A   1      36.686  20.707  25.053  1.00  0.00     0.118 C 
BRANCH   3   4
ATOM      4  N   UNL A   1      35.422  20.013  25.067  1.00  0.00    -0.350 N 
ATOM      5  C   UNL A   1      34.130  20.404  25.302  1.00  0.00     0.275 C 
ATOM      6  O   UNL A   1      33.298  19.513  25.100  1.00  0.00    -0.267 OA
ATOM      7  H   UNL A   1      35.507  19.054  24.863  1.00  0.00     0.163 HD
BRANCH   5   8
ATOM      8  C   UNL A   1      33.695  21.756  25.697  1.00  0.00     0.194 A 
ATOM      9  C   UNL A   1      33.162  22.385  26.863  1.00  0.00     0.179 A 
ATOM     10  N   UNL A   1      33.136  23.708  26.708  1.00  0.00    -0.130 NA
ATOM     11  N   UNL A   1      33.478  23.842  25.414  1.00  0.00    -0.149 N 
ATOM     12  N   UNL A   1      33.763  22.721  24.749  1.00  0.00    -0.141 NA
BRANCH   9  13
ATOM     13  N   UNL A   1      32.716  21.858  28.017  1.00  0.00    -0.380 N 
ATOM     14  H   UNL A   1      32.777  20.887  28.171  1.00  0.00     0.158 HD
ATOM     15  H   UNL A   1      32.329  22.443  28.708  1.00  0.00     0.158 HD
ENDBRANCH   9  13
BRANCH  11  16
ATOM     16  C   UNL A   1      33.560  25.105  24.788  1.00  0.00     0.086 A 
ATOM     17  C   UNL A   1      33.676  26.259  25.575  1.00  0.00     0.032 A 
ATOM     18  C   UNL A   1      33.502  25.195  23.392  1.00  0.00     0.032 A 
ATOM     19  C   UNL A   1      33.770  27.506  24.956  1.00  0.00     0.023 A 
ATOM     20  C   UNL A   1      33.531  26.452  22.785  1.00  0.00     0.023 A 
ATOM     21  C   UNL A   1      33.683  27.599  23.567  1.00  0.00     0.041 A 
ATOM     22  Cl  UNL A   1      33.759  29.142  22.807  1.00  0.00    -0.084 Cl
ENDBRANCH  11  16
ENDBRANCH   5   8
ENDBRANCH   3   4
ENDBRANCH   2   3
ENDBRANCH   1   2
BRANCH   1  23
ATOM     23  N   UNL A   1      40.079  19.170  25.840  1.00  0.00    -0.352 N 
ATOM     24  C   UNL A   1      41.444  19.284  26.038  1.00  0.00     0.251 C 
ATOM     25  H   UNL A   1      39.733  18.250  25.796  1.00  0.00     0.163 HD
ATOM     26  O   UNL A   1      42.187  18.337  25.848  1.00  0.00    -0.269 OA
BRANCH  24  27
ATOM     27  C   UNL A   1      41.972  20.580  26.494  1.00  0.00     0.039 A 
ATOM     28  C   UNL A   1      42.511  21.511  25.598  1.00  0.00     0.014 A 
ATOM     29  C   UNL A   1      41.854  20.867  27.847  1.00  0.00     0.014 A 
ATOM     30  C   UNL A   1      42.842  22.778  26.071  1.00  0.00     0.010 A 
ATOM     31  C   UNL A   1      42.001  22.157  28.267  1.00  0.00     0.010 A 
ATOM     32  C   UNL A   1      42.558  23.099  27.404  1.00  0.00    -0.014 A 
BRANCH  32  33
ATOM     33  C   UNL A   1      42.668  24.464  27.911  1.00  0.00     0.031 A 
ATOM     34  C   UNL A   1      41.395  25.238  27.832  1.00  0.00     0.074 A 
ATOM     35  C   UNL A   1      43.742  24.830  28.649  1.00  0.00     0.049 A 
ATOM     36  N   UNL A   1      41.183  26.346  27.202  1.00  0.00    -0.248 NA
ATOM     37  C   UNL A   1      40.164  24.631  28.374  1.00  0.00     0.031 C 
ATOM     38  C   UNL A   1      44.901  23.995  29.004  1.00  0.00     0.029 A 
ATOM     39  N   UNL A   1      43.942  25.941  29.409  1.00  0.00    -0.354 N 
ATOM     40  C   UNL A   1      39.870  26.705  27.506  1.00  0.00     0.074 A 
ATOM     41  C   UNL A   1      39.236  25.515  28.002  1.00  0.00     0.031 C 
ATOM     42  C   UNL A   1      45.497  24.495  30.106  1.00  0.00     0.029 A 
ATOM     43  C   UNL A   1      44.871  25.758  30.440  1.00  0.00     0.049 A 
ATOM     44  H   UNL A   1      43.476  26.794  29.251  1.00  0.00     0.167 HD
ATOM     45  C   UNL A   1      39.510  28.014  27.618  1.00  0.00     0.034 A 
ATOM     46  C   UNL A   1      45.064  26.548  31.527  1.00  0.00     0.034 A 
ATOM     47  C   UNL A   1      40.515  28.873  27.039  1.00  0.00     0.049 A 
ATOM     48  C   UNL A   1      44.458  27.862  31.221  1.00  0.00     0.074 A 
ATOM     49  C   UNL A   1      41.106  28.980  25.796  1.00  0.00     0.029 A 
ATOM     50  N   UNL A   1      41.352  29.520  27.917  1.00  0.00    -0.354 N 
ATOM     51  N   UNL A   1      44.917  28.658  30.297  1.00  0.00    -0.248 NA
ATOM     52  C   UNL A   1      43.072  28.074  31.602  1.00  0.00     0.031 C 
ATOM     53  C   UNL A   1      42.478  29.252  26.068  1.00  0.00     0.029 A 
ATOM     54  C   UNL A   1      42.630  29.394  27.448  1.00  0.00     0.049 A 
ATOM     55  H   UNL A   1      41.078  29.991  28.738  1.00  0.00     0.167 HD
ATOM     56  C   UNL A   1      43.776  29.102  29.644  1.00  0.00     0.074 A 
ATOM     57  C   UNL A   1      42.673  28.811  30.562  1.00  0.00     0.031 C 
ATOM     58  C   UNL A   1      43.796  29.362  28.303  1.00  0.00     0.034 A 
BRANCH  45  59
ATOM     59  C   UNL A   1      38.493  28.567  28.599  1.00  0.00     0.023 A 
ATOM     60  C   UNL A   1      37.517  29.448  28.077  1.00  0.00     0.012 A 
ATOM     61  C   UNL A   1      38.611  28.517  30.008  1.00  0.00     0.148 A 
ATOM     62  C   UNL A   1      36.767  30.293  28.902  1.00  0.00     0.002 A 
ATOM     63  C   UNL A   1      37.812  29.306  30.829  1.00  0.00     0.091 A 
ATOM     64  F   UNL A   1      39.584  27.806  30.580  1.00  0.00    -0.205 F 
ATOM     65  C   UNL A   1      36.915  30.223  30.280  1.00  0.00     0.022 A 
BRANCH  63  66
ATOM     66  S   UNL A   1      37.934  29.227  32.622  1.00  0.00     0.127 S 
ATOM     67  O   UNL A   1      39.300  29.694  32.841  1.00  0.00    -0.237 OA
ATOM     68  O   UNL A   1      36.884  30.160  33.032  1.00  0.00    -0.237 OA
ATOM     69  O   UNL A   1      37.669  27.837  32.974  1.00  0.00    -0.744 OA
ENDBRANCH  63  66
ENDBRANCH  45  59
BRANCH  46  70
ATOM     70  C   UNL A   1      45.523  26.199  32.895  1.00  0.00     0.023 A 
ATOM     71  C   UNL A   1      46.492  26.995  33.541  1.00  0.00     0.012 A 
ATOM     72  C   UNL A   1      44.819  25.256  33.676  1.00  0.00     0.148 A 
ATOM     73  C   UNL A   1      46.731  26.875  34.918  1.00  0.00     0.002 A 
ATOM     74  C   UNL A   1      45.066  25.135  35.041  1.00  0.00     0.091 A 
ATOM     75  F   UNL A   1      43.839  24.547  33.101  1.00  0.00    -0.205 F 
ATOM     76  C   UNL A   1      46.013  25.950  35.669  1.00  0.00     0.022 A 
BRANCH  74  77
ATOM     77  S   UNL A   1      44.152  23.978  36.072  1.00  0.00     0.127 S 
ATOM     78  O   UNL A   1      44.503  22.692  35.469  1.00  0.00    -0.237 OA
ATOM     79  O   UNL A   1      44.741  24.222  37.386  1.00  0.00    -0.237 OA
ATOM     80  O   UNL A   1      42.750  24.348  35.922  1.00  0.00    -0.744 OA
ENDBRANCH  74  77
ENDBRANCH  46  70
BRANCH  58  81
ATOM     81  C   UNL A   1      45.132  29.379  27.601  1.00  0.00     0.023 A 
ATOM     82  C   UNL A   1      46.052  30.441  27.731  1.00  0.00     0.012 A 
ATOM     83  C   UNL A   1      45.542  28.206  26.947  1.00  0.00     0.148 A 
ATOM     84  C   UNL A   1      47.344  30.342  27.206  1.00  0.00     0.002 A 
ATOM     85  C   UNL A   1      46.841  28.091  26.471  1.00  0.00     0.091 A 
ATOM     86  F   UNL A   1      44.658  27.204  26.835  1.00  0.00    -0.205 F 
ATOM     87  C   UNL A   1      47.744  29.160  26.588  1.00  0.00     0.022 A 
BRANCH  85  88
ATOM     88  S   UNL A   1      47.447  26.548  25.791  1.00  0.00     0.127 S 
ATOM     89  O   UNL A   1      47.226  25.619  26.896  1.00  0.00    -0.237 OA
ATOM     90  O   UNL A   1      46.570  26.347  24.636  1.00  0.00    -0.237 OA
ATOM     91  O   UNL A   1      48.842  26.785  25.439  1.00  0.00    -0.744 OA
ENDBRANCH  85  88
ENDBRANCH  58  81
ENDBRANCH  32  33
ENDBRANCH  24  27
ENDBRANCH   1  23
TORSDOF 15
ENDMDL
MODEL 2
REMARK VINA RESULT:     -12.1      4.712      9.960
REMARK SMILES Nc1nn(-c2ccc(Cl)cc2)nc1C(=O)NCCCNC(=O)c1ccc(-c2c3nc(c(-c4cccc(S(=O)(=O)[O-])c4F)c4ccc([nH]4)c(-c4cccc(S(=O)(=O)[O-])c4F)c4nc(c(-c5cccc(S(=O)(=O)[O-])c5F)c5ccc2[nH]5)C=C4)C=C3)cc1
REMARK SMILES IDX 19 1 18 2 17 3 16 4 14 5 15 6 13 8 2 9 3 10 4 11 12 12 1 13
REMARK SMILES IDX 5 16 6 17 11 18 7 19 10 20 8 21 9 22 20 23 21 24 22 26 23 27
REMARK SMILES IDX 24 28 85 29 25 30 84 31 26 32 27 33 28 34 78 35 29 36 83 37
REMARK SMILES IDX 77 38 79 39 30 40 82 41 76 42 75 43 31 45 63 46 43 47 62 48
REMARK SMILES IDX 44 49 47 50 61 51 80 52 45 53 46 54 60 56 81 57 48 58 32 59
REMARK SMILES IDX 33 60 41 61 34 62 36 63 42 64 35 65 37 66 38 67 39 68 40 69
REMARK SMILES IDX 64 70 65 71 73 72 66 73 68 74 74 75 67 76 69 77 70 78 71 79
REMARK SMILES IDX 72 80 49 81 50 82 58 83 51 84 53 85 59 86 52 87 54 88 55 89
REMARK SMILES IDX 56 90 57 91
REMARK H PARENT 16 7 1 14 1 15 20 25 79 44 47 55
REMARK Flexibility Score: inf
ROOT
ATOM      1  C   UNL A   1      32.678  32.868  27.378  1.00  0.00     0.118 C 
ENDROOT
BRANCH   1   2
ATOM      2  C   UNL A   1      31.495  32.319  26.591  1.00  0.00     0.042 C 
BRANCH   2   3
ATOM      3  C   UNL A   1      31.637  30.809  26.383  1.00  0.00     0.118 C 
BRANCH   3   4
ATOM      4  N   UNL A   1      32.678  30.234  27.199  1.00  0.00    -0.350 N 
ATOM      5  C   UNL A   1      33.538  29.180  27.033  1.00  0.00     0.275 C 
ATOM      6  O   UNL A   1      34.378  29.079  27.933  1.00  0.00    -0.267 OA
ATOM      7  H   UNL A   1      32.795  30.699  28.059  1.00  0.00     0.163 HD
BRANCH   5   8
ATOM      8  C   UNL A   1      33.558  28.255  25.885  1.00  0.00     0.194 A 
ATOM      9  C   UNL A   1      33.604  28.353  24.461  1.00  0.00     0.179 A 
ATOM     10  N   UNL A   1      33.801  27.153  23.918  1.00  0.00    -0.130 NA
ATOM     11  N   UNL A   1      33.696  26.344  24.987  1.00  0.00    -0.149 N 
ATOM     12  N   UNL A   1      33.494  26.932  26.168  1.00  0.00    -0.141 NA
BRANCH   9  13
ATOM     13  N   UNL A   1      33.484  29.420  23.653  1.00  0.00    -0.380 N 
ATOM     14  H   UNL A   1      32.605  29.848  23.529  1.00  0.00     0.158 HD
ATOM     15  H   UNL A   1      34.274  29.776  23.186  1.00  0.00     0.158 HD
ENDBRANCH   9  13
BRANCH  11  16
ATOM     16  C   UNL A   1      33.818  24.941  24.879  1.00  0.00     0.086 A 
ATOM     17  C   UNL A   1      34.331  24.382  23.701  1.00  0.00     0.032 A 
ATOM     18  C   UNL A   1      33.405  24.123  25.937  1.00  0.00     0.032 A 
ATOM     19  C   UNL A   1      34.464  22.996  23.598  1.00  0.00     0.023 A 
ATOM     20  C   UNL A   1      33.481  22.735  25.800  1.00  0.00     0.023 A 
ATOM     21  C   UNL A   1      34.026  22.179  24.641  1.00  0.00     0.041 A 
ATOM     22  Cl  UNL A   1      34.152  20.469  24.497  1.00  0.00    -0.084 Cl
ENDBRANCH  11  16
ENDBRANCH   5   8
ENDBRANCH   3   4
ENDBRANCH   2   3
ENDBRANCH   1   2
BRANCH   1  23
ATOM     23  N   UNL A   1      32.456  34.264  27.790  1.00  0.00    -0.352 N 
ATOM     24  C   UNL A   1      33.060  34.979  28.809  1.00  0.00     0.251 C 
ATOM     25  H   UNL A   1      31.784  34.757  27.267  1.00  0.00     0.163 HD
ATOM     26  O   UNL A   1      32.571  36.015  29.226  1.00  0.00    -0.269 OA
BRANCH  24  27
ATOM     27  C   UNL A   1      34.318  34.459  29.370  1.00  0.00     0.039 A 
ATOM     28  C   UNL A   1      34.351  33.775  30.590  1.00  0.00     0.014 A 
ATOM     29  C   UNL A   1      35.464  34.620  28.602  1.00  0.00     0.014 A 
ATOM     30  C   UNL A   1      35.541  33.168  30.983  1.00  0.00     0.010 A 
ATOM     31  C   UNL A   1      36.568  33.873  28.895  1.00  0.00     0.010 A 
ATOM     32  C   UNL A   1      36.638  33.202  30.114  1.00  0.00    -0.014 A 
BRANCH  32  33
ATOM     33  C   UNL A   1      37.838  32.406  30.353  1.00  0.00     0.031 A 
ATOM     34  C   UNL A   1      37.835  31.088  29.654  1.00  0.00     0.074 A 
ATOM     35  C   UNL A   1      38.937  32.980  30.898  1.00  0.00     0.049 A 
ATOM     36  N   UNL A   1      37.925  29.913  30.184  1.00  0.00    -0.248 NA
ATOM     37  C   UNL A   1      37.526  31.055  28.211  1.00  0.00     0.031 C 
ATOM     38  C   UNL A   1      39.082  34.377  31.339  1.00  0.00     0.029 A 
ATOM     39  N   UNL A   1      40.213  32.515  30.987  1.00  0.00    -0.354 N 
ATOM     40  C   UNL A   1      37.963  29.021  29.113  1.00  0.00     0.074 A 
ATOM     41  C   UNL A   1      37.467  29.742  27.975  1.00  0.00     0.031 C 
ATOM     42  C   UNL A   1      40.388  34.713  31.356  1.00  0.00     0.029 A 
ATOM     43  C   UNL A   1      41.175  33.527  31.086  1.00  0.00     0.049 A 
ATOM     44  H   UNL A   1      40.439  31.557  30.982  1.00  0.00     0.167 HD
ATOM     45  C   UNL A   1      38.689  27.870  29.186  1.00  0.00     0.034 A 
ATOM     46  C   UNL A   1      42.514  33.414  30.891  1.00  0.00     0.034 A 
ATOM     47  C   UNL A   1      39.045  27.576  30.554  1.00  0.00     0.049 A 
ATOM     48  C   UNL A   1      42.849  31.977  31.003  1.00  0.00     0.074 A 
ATOM     49  C   UNL A   1      38.339  27.388  31.725  1.00  0.00     0.029 A 
ATOM     50  N   UNL A   1      40.338  27.855  30.926  1.00  0.00    -0.354 N 
ATOM     51  N   UNL A   1      42.741  31.308  32.117  1.00  0.00    -0.248 NA
ATOM     52  C   UNL A   1      42.839  31.182  29.787  1.00  0.00     0.031 C 
ATOM     53  C   UNL A   1      39.119  28.037  32.726  1.00  0.00     0.029 A 
ATOM     54  C   UNL A   1      40.298  28.494  32.134  1.00  0.00     0.049 A 
ATOM     55  H   UNL A   1      41.149  27.632  30.414  1.00  0.00     0.167 HD
ATOM     56  C   UNL A   1      42.151  30.114  31.729  1.00  0.00     0.074 A 
ATOM     57  C   UNL A   1      42.348  30.042  30.280  1.00  0.00     0.031 C 
ATOM     58  C   UNL A   1      41.285  29.461  32.560  1.00  0.00     0.034 A 
BRANCH  45  59
ATOM     59  C   UNL A   1      39.443  27.230  28.035  1.00  0.00     0.023 A 
ATOM     60  C   UNL A   1      39.277  25.835  27.862  1.00  0.00     0.012 A 
ATOM     61  C   UNL A   1      40.504  27.834  27.323  1.00  0.00     0.148 A 
ATOM     62  C   UNL A   1      40.168  25.075  27.097  1.00  0.00     0.002 A 
ATOM     63  C   UNL A   1      41.344  27.086  26.503  1.00  0.00     0.091 A 
ATOM     64  F   UNL A   1      40.806  29.118  27.520  1.00  0.00    -0.205 F 
ATOM     65  C   UNL A   1      41.203  25.701  26.416  1.00  0.00     0.022 A 
BRANCH  63  66
ATOM     66  S   UNL A   1      42.677  27.851  25.569  1.00  0.00     0.127 S 
ATOM     67  O   UNL A   1      43.077  26.759  24.686  1.00  0.00    -0.237 OA
ATOM     68  O   UNL A   1      41.981  28.959  24.913  1.00  0.00    -0.237 OA
ATOM     69  O   UNL A   1      43.663  28.269  26.558  1.00  0.00    -0.744 OA
ENDBRANCH  63  66
ENDBRANCH  45  59
BRANCH  46  70
ATOM     70  C   UNL A   1      43.496  34.408  30.387  1.00  0.00     0.023 A 
ATOM     71  C   UNL A   1      44.679  34.662  31.112  1.00  0.00     0.012 A 
ATOM     72  C   UNL A   1      43.411  34.904  29.068  1.00  0.00     0.148 A 
ATOM     73  C   UNL A   1      45.749  35.361  30.533  1.00  0.00     0.002 A 
ATOM     74  C   UNL A   1      44.473  35.605  28.502  1.00  0.00     0.091 A 
ATOM     75  F   UNL A   1      42.331  34.605  28.335  1.00  0.00    -0.205 F 
ATOM     76  C   UNL A   1      45.649  35.826  29.226  1.00  0.00     0.022 A 
BRANCH  74  77
ATOM     77  S   UNL A   1      44.416  36.207  26.808  1.00  0.00     0.127 S 
ATOM     78  O   UNL A   1      44.258  34.965  26.050  1.00  0.00    -0.237 OA
ATOM     79  O   UNL A   1      43.234  37.064  26.836  1.00  0.00    -0.237 OA
ATOM     80  O   UNL A   1      45.690  36.882  26.592  1.00  0.00    -0.744 OA
ENDBRANCH  74  77
ENDBRANCH  46  70
BRANCH  58  81
ATOM     81  C   UNL A   1      41.166  29.944  33.985  1.00  0.00     0.023 A 
ATOM     82  C   UNL A   1      42.154  29.698  34.962  1.00  0.00     0.012 A 
ATOM     83  C   UNL A   1      40.120  30.828  34.291  1.00  0.00     0.148 A 
ATOM     84  C   UNL A   1      42.090  30.306  36.219  1.00  0.00     0.002 A 
ATOM     85  C   UNL A   1      40.085  31.470  35.522  1.00  0.00     0.091 A 
ATOM     86  F   UNL A   1      39.190  31.056  33.351  1.00  0.00    -0.205 F 
ATOM     87  C   UNL A   1      41.063  31.204  36.495  1.00  0.00     0.022 A 
BRANCH  85  88
ATOM     88  S   UNL A   1      38.865  32.733  35.877  1.00  0.00     0.127 S 
ATOM     89  O   UNL A   1      37.625  31.962  35.899  1.00  0.00    -0.237 OA
ATOM     90  O   UNL A   1      39.301  33.231  37.184  1.00  0.00    -0.237 OA
ATOM     91  O   UNL A   1      38.978  33.713  34.804  1.00  0.00    -0.744 OA
ENDBRANCH  85  88
ENDBRANCH  58  81
ENDBRANCH  32  33
ENDBRANCH  24  27
ENDBRANCH   1  23
TORSDOF 15
ENDMDL
MODEL 3
REMARK VINA RESULT:     -12.0      4.640      9.683
REMARK SMILES Nc1nn(-c2ccc(Cl)cc2)nc1C(=O)NCCCNC(=O)c1ccc(-c2c3nc(c(-c4cccc(S(=O)(=O)[O-])c4F)c4ccc([nH]4)c(-c4cccc(S(=O)(=O)[O-])c4F)c4nc(c(-c5cccc(S(=O)(=O)[O-])c5F)c5ccc2[nH]5)C=C4)C=C3)cc1
REMARK SMILES IDX 19 1 18 2 17 3 16 4 14 5 15 6 13 8 2 9 3 10 4 11 12 12 1 13
REMARK SMILES IDX 5 16 6 17 11 18 7 19 10 20 8 21 9 22 20 23 21 24 22 26 23 27
REMARK SMILES IDX 24 28 85 29 25 30 84 31 26 32 27 33 28 34 78 35 29 36 83 37
REMARK SMILES IDX 77 38 79 39 30 40 82 41 76 42 75 43 31 45 63 46 43 47 62 48
REMARK SMILES IDX 44 49 47 50 61 51 80 52 45 53 46 54 60 56 81 57 48 58 32 59
REMARK SMILES IDX 33 60 41 61 34 62 36 63 42 64 35 65 37 66 38 67 39 68 40 69
REMARK SMILES IDX 64 70 65 71 73 72 66 73 68 74 74 75 67 76 69 77 70 78 71 79
REMARK SMILES IDX 72 80 49 81 50 82 58 83 51 84 53 85 59 86 52 87 54 88 55 89
REMARK SMILES IDX 56 90 57 91
REMARK H PARENT 16 7 1 14 1 15 20 25 79 44 47 55
REMARK Flexibility Score: inf
ROOT
ATOM      1  C   UNL A   1      32.636  32.049  27.227  1.00  0.00     0.118 C 
ENDROOT
BRANCH   1   2
ATOM      2  C   UNL A   1      31.464  31.380  26.521  1.00  0.00     0.042 C 
BRANCH   2   3
ATOM      3  C   UNL A   1      31.925  30.123  25.779  1.00  0.00     0.118 C 
BRANCH   3   4
ATOM      4  N   UNL A   1      31.297  29.980  24.489  1.00  0.00    -0.350 N 
ATOM      5  C   UNL A   1      30.930  28.901  23.728  1.00  0.00     0.275 C 
ATOM      6  O   UNL A   1      30.300  29.202  22.710  1.00  0.00    -0.267 OA
ATOM      7  H   UNL A   1      31.086  30.843  24.065  1.00  0.00     0.163 HD
BRANCH   5   8
ATOM      8  C   UNL A   1      31.177  27.486  24.062  1.00  0.00     0.194 A 
ATOM      9  C   UNL A   1      30.394  26.325  24.346  1.00  0.00     0.179 A 
ATOM     10  N   UNL A   1      31.168  25.241  24.390  1.00  0.00    -0.130 NA
ATOM     11  N   UNL A   1      32.399  25.776  24.310  1.00  0.00    -0.149 N 
ATOM     12  N   UNL A   1      32.471  27.102  24.174  1.00  0.00    -0.141 NA
BRANCH   9  13
ATOM     13  N   UNL A   1      29.074  26.190  24.560  1.00  0.00    -0.380 N 
ATOM     14  H   UNL A   1      28.459  26.920  24.319  1.00  0.00     0.158 HD
ATOM     15  H   UNL A   1      28.722  25.360  24.955  1.00  0.00     0.158 HD
ENDBRANCH   9  13
BRANCH  11  16
ATOM     16  C   UNL A   1      33.565  24.980  24.342  1.00  0.00     0.086 A 
ATOM     17  C   UNL A   1      33.828  24.100  23.283  1.00  0.00     0.032 A 
ATOM     18  C   UNL A   1      34.433  25.059  25.436  1.00  0.00     0.032 A 
ATOM     19  C   UNL A   1      34.987  23.322  23.307  1.00  0.00     0.023 A 
ATOM     20  C   UNL A   1      35.556  24.230  25.483  1.00  0.00     0.023 A 
ATOM     21  C   UNL A   1      35.837  23.380  24.411  1.00  0.00     0.041 A 
ATOM     22  Cl  UNL A   1      37.245  22.390  24.459  1.00  0.00    -0.084 Cl
ENDBRANCH  11  16
ENDBRANCH   5   8
ENDBRANCH   3   4
ENDBRANCH   2   3
ENDBRANCH   1   2
BRANCH   1  23
ATOM     23  N   UNL A   1      32.386  33.483  27.456  1.00  0.00    -0.352 N 
ATOM     24  C   UNL A   1      33.017  34.349  28.331  1.00  0.00     0.251 C 
ATOM     25  H   UNL A   1      31.670  33.879  26.910  1.00  0.00     0.163 HD
ATOM     26  O   UNL A   1      32.514  35.418  28.629  1.00  0.00    -0.269 OA
BRANCH  24  27
ATOM     27  C   UNL A   1      34.321  33.947  28.885  1.00  0.00     0.039 A 
ATOM     28  C   UNL A   1      34.432  33.367  30.154  1.00  0.00     0.014 A 
ATOM     29  C   UNL A   1      35.430  34.109  28.066  1.00  0.00     0.014 A 
ATOM     30  C   UNL A   1      35.669  32.862  30.550  1.00  0.00     0.010 A 
ATOM     31  C   UNL A   1      36.585  33.452  28.376  1.00  0.00     0.010 A 
ATOM     32  C   UNL A   1      36.733  32.886  29.641  1.00  0.00    -0.014 A 
BRANCH  32  33
ATOM     33  C   UNL A   1      37.985  32.182  29.899  1.00  0.00     0.031 A 
ATOM     34  C   UNL A   1      38.000  30.779  29.391  1.00  0.00     0.074 A 
ATOM     35  C   UNL A   1      39.088  32.870  30.276  1.00  0.00     0.049 A 
ATOM     36  N   UNL A   1      38.185  29.696  30.070  1.00  0.00    -0.248 NA
ATOM     37  C   UNL A   1      37.597  30.529  27.993  1.00  0.00     0.031 C 
ATOM     38  C   UNL A   1      39.192  34.321  30.508  1.00  0.00     0.029 A 
ATOM     39  N   UNL A   1      40.389  32.475  30.335  1.00  0.00    -0.354 N 
ATOM     40  C   UNL A   1      38.195  28.663  29.133  1.00  0.00     0.074 A 
ATOM     41  C   UNL A   1      37.588  29.196  27.946  1.00  0.00     0.031 C 
ATOM     42  C   UNL A   1      40.478  34.707  30.381  1.00  0.00     0.029 A 
ATOM     43  C   UNL A   1      41.304  33.528  30.221  1.00  0.00     0.049 A 
ATOM     44  H   UNL A   1      40.662  31.535  30.445  1.00  0.00     0.167 HD
ATOM     45  C   UNL A   1      38.981  27.564  29.310  1.00  0.00     0.034 A 
ATOM     46  C   UNL A   1      42.631  33.442  29.945  1.00  0.00     0.034 A 
ATOM     47  C   UNL A   1      39.443  27.480  30.675  1.00  0.00     0.049 A 
ATOM     48  C   UNL A   1      43.044  32.051  30.230  1.00  0.00     0.074 A 
ATOM     49  C   UNL A   1      38.828  27.433  31.910  1.00  0.00     0.029 A 
ATOM     50  N   UNL A   1      40.743  27.861  30.909  1.00  0.00    -0.354 N 
ATOM     51  N   UNL A   1      43.045  31.542  31.430  1.00  0.00    -0.248 NA
ATOM     52  C   UNL A   1      42.991  31.092  29.139  1.00  0.00     0.031 C 
ATOM     53  C   UNL A   1      39.641  28.247  32.751  1.00  0.00     0.029 A 
ATOM     54  C   UNL A   1      40.752  28.663  32.016  1.00  0.00     0.049 A 
ATOM     55  H   UNL A   1      41.528  27.601  30.374  1.00  0.00     0.167 HD
ATOM     56  C   UNL A   1      42.490  30.282  31.256  1.00  0.00     0.074 A 
ATOM     57  C   UNL A   1      42.592  30.014  29.820  1.00  0.00     0.031 C 
ATOM     58  C   UNL A   1      41.716  29.719  32.231  1.00  0.00     0.034 A 
BRANCH  45  59
ATOM     59  C   UNL A   1      39.687  26.798  28.206  1.00  0.00     0.023 A 
ATOM     60  C   UNL A   1      39.487  25.398  28.174  1.00  0.00     0.012 A 
ATOM     61  C   UNL A   1      40.739  27.306  27.409  1.00  0.00     0.148 A 
ATOM     62  C   UNL A   1      40.338  24.546  27.462  1.00  0.00     0.002 A 
ATOM     63  C   UNL A   1      41.538  26.462  26.643  1.00  0.00     0.091 A 
ATOM     64  F   UNL A   1      41.073  28.595  27.473  1.00  0.00    -0.205 F 
ATOM     65  C   UNL A   1      41.365  25.079  26.695  1.00  0.00     0.022 A 
BRANCH  63  66
ATOM     66  S   UNL A   1      42.857  27.103  25.602  1.00  0.00     0.127 S 
ATOM     67  O   UNL A   1      43.778  27.643  26.599  1.00  0.00    -0.237 OA
ATOM     68  O   UNL A   1      43.315  25.889  24.924  1.00  0.00    -0.237 OA
ATOM     69  O   UNL A   1      42.226  28.076  24.720  1.00  0.00    -0.744 OA
ENDBRANCH  63  66
ENDBRANCH  45  59
BRANCH  46  70
ATOM     70  C   UNL A   1      43.525  34.393  29.238  1.00  0.00     0.023 A 
ATOM     71  C   UNL A   1      44.134  35.450  29.946  1.00  0.00     0.012 A 
ATOM     72  C   UNL A   1      44.000  34.110  27.938  1.00  0.00     0.148 A 
ATOM     73  C   UNL A   1      45.196  36.179  29.391  1.00  0.00     0.002 A 
ATOM     74  C   UNL A   1      45.049  34.843  27.388  1.00  0.00     0.091 A 
ATOM     75  F   UNL A   1      43.491  33.061  27.281  1.00  0.00    -0.205 F 
ATOM     76  C   UNL A   1      45.658  35.871  28.115  1.00  0.00     0.022 A 
BRANCH  74  77
ATOM     77  S   UNL A   1      45.710  34.476  25.757  1.00  0.00     0.127 S 
ATOM     78  O   UNL A   1      46.634  35.590  25.546  1.00  0.00    -0.237 OA
ATOM     79  O   UNL A   1      46.349  33.181  25.979  1.00  0.00    -0.237 OA
ATOM     80  O   UNL A   1      44.559  34.474  24.862  1.00  0.00    -0.744 OA
ENDBRANCH  74  77
ENDBRANCH  46  70
BRANCH  58  81
ATOM     81  C   UNL A   1      41.670  30.394  33.580  1.00  0.00     0.023 A 
ATOM     82  C   UNL A   1      42.694  30.255  34.541  1.00  0.00     0.012 A 
ATOM     83  C   UNL A   1      40.657  31.339  33.805  1.00  0.00     0.148 A 
ATOM     84  C   UNL A   1      42.698  31.029  35.705  1.00  0.00     0.002 A 
ATOM     85  C   UNL A   1      40.690  32.141  34.937  1.00  0.00     0.091 A 
ATOM     86  F   UNL A   1      39.692  31.462  32.881  1.00  0.00    -0.205 F 
ATOM     87  C   UNL A   1      41.703  31.984  35.896  1.00  0.00     0.022 A 
BRANCH  85  88
ATOM     88  S   UNL A   1      39.514  33.474  35.166  1.00  0.00     0.127 S 
ATOM     89  O   UNL A   1      38.242  32.755  35.203  1.00  0.00    -0.237 OA
ATOM     90  O   UNL A   1      39.932  34.046  36.447  1.00  0.00    -0.237 OA
ATOM     91  O   UNL A   1      39.696  34.370  34.030  1.00  0.00    -0.744 OA
ENDBRANCH  85  88
ENDBRANCH  58  81
ENDBRANCH  32  33
ENDBRANCH  24  27
ENDBRANCH   1  23
TORSDOF 15
ENDMDL
