MODEL 1
REMARK VINA RESULT:     -12.1      0.000      0.000
REMARK SMILES O=C(NCCCNC(=O)[C@H](F)Sc1cc2ccccc2[nH]1)c1ccc(-c2c3nc(c(-c4cccc(S(=O)(=O)[O-])c4F)c4ccc([nH]4)c(-c4cccc(S(=O)(=O)[O-])c4F)c4nc(c(-c5cccc(S(=O)(=O)[O-])c5F)c5ccc2[nH]5)C=C4)C=C3)cc1
REMARK SMILES IDX 4 1 3 2 1 3 2 4 22 6 23 7 84 8 24 9 83 10 25 11 26 12 27 13
REMARK SMILES IDX 77 14 28 15 82 16 76 17 78 18 29 19 81 20 75 21 74 22 30 24
REMARK SMILES IDX 62 25 42 26 61 27 43 28 46 29 60 30 79 31 44 32 45 33 59 35
REMARK SMILES IDX 80 36 47 37 31 38 32 39 40 40 33 41 35 42 41 43 34 44 36 45
REMARK SMILES IDX 37 46 38 47 39 48 63 49 64 50 72 51 65 52 67 53 73 54 66 55
REMARK SMILES IDX 68 56 69 57 70 58 71 59 48 60 49 61 57 62 50 63 52 64 58 65
REMARK SMILES IDX 51 66 53 67 54 68 55 69 56 70 5 71 6 72 7 73 8 74 9 76 10 77
REMARK SMILES IDX 11 78 12 79 13 80 14 81 21 82 15 83 20 84 16 86 19 87 17 88
REMARK SMILES IDX 18 89
REMARK H PARENT 3 5 78 23 46 34 7 75 21 85
REMARK Flexibility Score: inf
ROOT
ATOM      1  C   UNL A   1      32.837  29.134  25.254  1.00  0.00     0.118 C 
ENDROOT
BRANCH   1   2
ATOM      2  N   UNL A   1      32.475  30.446  25.785  1.00  0.00    -0.352 N 
ATOM      3  O   UNL A   1      32.301  32.181  27.180  1.00  0.00    -0.269 OA
ATOM      4  C   UNL A   1      32.970  31.209  26.819  1.00  0.00     0.251 C 
ATOM      5  H   UNL A   1      31.725  30.870  25.308  1.00  0.00     0.163 HD
BRANCH   4   6
ATOM      6  C   UNL A   1      34.247  30.904  27.519  1.00  0.00     0.039 A 
ATOM      7  C   UNL A   1      34.574  29.624  27.950  1.00  0.00     0.014 A 
ATOM      8  C   UNL A   1      35.194  31.926  27.690  1.00  0.00     0.014 A 
ATOM      9  C   UNL A   1      35.710  29.406  28.726  1.00  0.00     0.010 A 
ATOM     10  C   UNL A   1      36.407  31.677  28.352  1.00  0.00     0.010 A 
ATOM     11  C   UNL A   1      36.654  30.423  28.922  1.00  0.00    -0.014 A 
BRANCH  11  12
ATOM     12  C   UNL A   1      37.913  30.097  29.651  1.00  0.00     0.031 A 
ATOM     13  C   UNL A   1      38.166  30.579  31.055  1.00  0.00     0.074 A 
ATOM     14  C   UNL A   1      38.823  29.308  29.043  1.00  0.00     0.049 A 
ATOM     15  N   UNL A   1      39.140  30.271  31.873  1.00  0.00    -0.248 NA
ATOM     16  C   UNL A   1      37.205  31.536  31.617  1.00  0.00     0.031 C 
ATOM     17  C   UNL A   1      38.721  28.814  27.667  1.00  0.00     0.029 A 
ATOM     18  N   UNL A   1      39.997  28.767  29.501  1.00  0.00    -0.354 N 
ATOM     19  C   UNL A   1      38.926  31.016  33.027  1.00  0.00     0.074 A 
ATOM     20  C   UNL A   1      37.731  31.799  32.806  1.00  0.00     0.031 C 
ATOM     21  C   UNL A   1      39.757  28.005  27.409  1.00  0.00     0.029 A 
ATOM     22  C   UNL A   1      40.629  27.969  28.576  1.00  0.00     0.049 A 
ATOM     23  H   UNL A   1      40.352  28.935  30.403  1.00  0.00     0.167 HD
ATOM     24  C   UNL A   1      39.654  31.045  34.170  1.00  0.00     0.034 A 
ATOM     25  C   UNL A   1      41.789  27.289  28.651  1.00  0.00     0.034 A 
ATOM     26  C   UNL A   1      40.843  30.264  34.385  1.00  0.00     0.049 A 
ATOM     27  C   UNL A   1      42.566  27.326  29.935  1.00  0.00     0.074 A 
ATOM     28  C   UNL A   1      41.624  30.180  35.525  1.00  0.00     0.029 A 
ATOM     29  N   UNL A   1      41.438  29.450  33.433  1.00  0.00    -0.354 N 
ATOM     30  N   UNL A   1      42.268  27.924  31.063  1.00  0.00    -0.248 NA
ATOM     31  C   UNL A   1      43.824  26.568  29.967  1.00  0.00     0.031 C 
ATOM     32  C   UNL A   1      42.713  29.346  35.247  1.00  0.00     0.029 A 
ATOM     33  C   UNL A   1      42.585  28.874  33.951  1.00  0.00     0.049 A 
ATOM     34  H   UNL A   1      41.095  29.304  32.522  1.00  0.00     0.167 HD
ATOM     35  C   UNL A   1      43.281  27.585  31.950  1.00  0.00     0.074 A 
ATOM     36  C   UNL A   1      44.188  26.711  31.234  1.00  0.00     0.031 C 
ATOM     37  C   UNL A   1      43.451  27.969  33.240  1.00  0.00     0.034 A 
BRANCH  24  38
ATOM     38  C   UNL A   1      39.184  31.947  35.285  1.00  0.00     0.023 A 
ATOM     39  C   UNL A   1      38.260  31.467  36.237  1.00  0.00     0.012 A 
ATOM     40  C   UNL A   1      39.702  33.250  35.425  1.00  0.00     0.148 A 
ATOM     41  C   UNL A   1      37.837  32.279  37.289  1.00  0.00     0.002 A 
ATOM     42  C   UNL A   1      39.308  34.037  36.501  1.00  0.00     0.091 A 
ATOM     43  F   UNL A   1      40.562  33.698  34.499  1.00  0.00    -0.205 F 
ATOM     44  C   UNL A   1      38.367  33.559  37.426  1.00  0.00     0.022 A 
BRANCH  42  45
ATOM     45  S   UNL A   1      39.995  35.669  36.808  1.00  0.00     0.127 S 
ATOM     46  O   UNL A   1      39.355  36.024  38.075  1.00  0.00    -0.237 OA
ATOM     47  O   UNL A   1      41.428  35.384  36.911  1.00  0.00    -0.237 OA
ATOM     48  O   UNL A   1      39.619  36.487  35.667  1.00  0.00    -0.744 OA
ENDBRANCH  42  45
ENDBRANCH  24  38
BRANCH  25  49
ATOM     49  C   UNL A   1      42.251  26.481  27.489  1.00  0.00     0.023 A 
ATOM     50  C   UNL A   1      43.043  27.083  26.492  1.00  0.00     0.012 A 
ATOM     51  C   UNL A   1      41.944  25.110  27.389  1.00  0.00     0.148 A 
ATOM     52  C   UNL A   1      43.494  26.341  25.400  1.00  0.00     0.002 A 
ATOM     53  C   UNL A   1      42.447  24.363  26.331  1.00  0.00     0.091 A 
ATOM     54  F   UNL A   1      41.180  24.560  28.343  1.00  0.00    -0.205 F 
ATOM     55  C   UNL A   1      43.207  24.980  25.325  1.00  0.00     0.022 A 
BRANCH  53  56
ATOM     56  S   UNL A   1      42.246  22.582  26.233  1.00  0.00     0.127 S 
ATOM     57  O   UNL A   1      40.792  22.445  26.231  1.00  0.00    -0.237 OA
ATOM     58  O   UNL A   1      42.896  22.275  24.959  1.00  0.00    -0.237 OA
ATOM     59  O   UNL A   1      42.932  22.044  27.400  1.00  0.00    -0.744 OA
ENDBRANCH  53  56
ENDBRANCH  25  49
BRANCH  37  60
ATOM     60  C   UNL A   1      44.635  27.405  33.980  1.00  0.00     0.023 A 
ATOM     61  C   UNL A   1      45.877  28.067  33.943  1.00  0.00     0.012 A 
ATOM     62  C   UNL A   1      44.495  26.238  34.757  1.00  0.00     0.148 A 
ATOM     63  C   UNL A   1      46.974  27.554  34.634  1.00  0.00     0.002 A 
ATOM     64  C   UNL A   1      45.576  25.764  35.487  1.00  0.00     0.091 A 
ATOM     65  F   UNL A   1      43.310  25.609  34.762  1.00  0.00    -0.205 F 
ATOM     66  C   UNL A   1      46.821  26.410  35.414  1.00  0.00     0.022 A 
BRANCH  64  67
ATOM     67  S   UNL A   1      45.437  24.359  36.598  1.00  0.00     0.127 S 
ATOM     68  O   UNL A   1      44.389  24.807  37.515  1.00  0.00    -0.237 OA
ATOM     69  O   UNL A   1      45.034  23.284  35.690  1.00  0.00    -0.237 OA
ATOM     70  O   UNL A   1      46.756  24.185  37.189  1.00  0.00    -0.744 OA
ENDBRANCH  64  67
ENDBRANCH  37  60
ENDBRANCH  11  12
ENDBRANCH   4   6
ENDBRANCH   1   2
BRANCH   1  71
ATOM     71  C   UNL A   1      31.830  28.066  25.646  1.00  0.00     0.042 C 
BRANCH  71  72
ATOM     72  C   UNL A   1      32.421  26.953  26.505  1.00  0.00     0.118 C 
BRANCH  72  73
ATOM     73  N   UNL A   1      31.495  25.839  26.607  1.00  0.00    -0.353 N 
ATOM     74  C   UNL A   1      31.741  24.497  26.492  1.00  0.00     0.265 C 
ATOM     75  H   UNL A   1      30.558  26.083  26.785  1.00  0.00     0.163 HD
ATOM     76  O   UNL A   1      30.750  23.755  26.437  1.00  0.00    -0.271 OA
BRANCH  74  77
ATOM     77  C   UNL A   1      33.163  23.916  26.466  1.00  0.00     0.319 C 
ATOM     78  F   UNL A   1      33.779  24.041  25.257  1.00  0.00    -0.224 F 
BRANCH  77  79
ATOM     79  S   UNL A   1      33.259  22.225  27.131  1.00  0.00    -0.061 SA
BRANCH  79  80
ATOM     80  C   UNL A   1      33.325  21.195  25.744  1.00  0.00     0.076 A 
ATOM     81  C   UNL A   1      32.538  21.058  24.626  1.00  0.00     0.043 A 
ATOM     82  N   UNL A   1      34.320  20.255  25.668  1.00  0.00    -0.350 N 
ATOM     83  C   UNL A   1      32.867  19.806  24.040  1.00  0.00     0.001 A 
ATOM     84  C   UNL A   1      34.003  19.328  24.697  1.00  0.00     0.046 A 
ATOM     85  H   UNL A   1      35.135  20.244  26.220  1.00  0.00     0.167 HD
ATOM     86  C   UNL A   1      32.243  18.994  23.074  1.00  0.00     0.010 A 
ATOM     87  C   UNL A   1      34.585  18.094  24.395  1.00  0.00     0.027 A 
ATOM     88  C   UNL A   1      32.772  17.730  22.807  1.00  0.00     0.001 A 
ATOM     89  C   UNL A   1      33.934  17.302  23.442  1.00  0.00     0.002 A 
ENDBRANCH  79  80
ENDBRANCH  77  79
ENDBRANCH  74  77
ENDBRANCH  72  73
ENDBRANCH  71  72
ENDBRANCH   1  71
TORSDOF 15
ENDMDL
MODEL 2
REMARK VINA RESULT:     -12.1      4.806     10.248
REMARK SMILES O=C(NCCCNC(=O)[C@H](F)Sc1cc2ccccc2[nH]1)c1ccc(-c2c3nc(c(-c4cccc(S(=O)(=O)[O-])c4F)c4ccc([nH]4)c(-c4cccc(S(=O)(=O)[O-])c4F)c4nc(c(-c5cccc(S(=O)(=O)[O-])c5F)c5ccc2[nH]5)C=C4)C=C3)cc1
REMARK SMILES IDX 4 1 3 2 1 3 2 4 22 6 23 7 84 8 24 9 83 10 25 11 26 12 27 13
REMARK SMILES IDX 77 14 28 15 82 16 76 17 78 18 29 19 81 20 75 21 74 22 30 24
REMARK SMILES IDX 62 25 42 26 61 27 43 28 46 29 60 30 79 31 44 32 45 33 59 35
REMARK SMILES IDX 80 36 47 37 31 38 32 39 40 40 33 41 35 42 41 43 34 44 36 45
REMARK SMILES IDX 37 46 38 47 39 48 63 49 64 50 72 51 65 52 67 53 73 54 66 55
REMARK SMILES IDX 68 56 69 57 70 58 71 59 48 60 49 61 57 62 50 63 52 64 58 65
REMARK SMILES IDX 51 66 53 67 54 68 55 69 56 70 5 71 6 72 7 73 8 74 9 76 10 77
REMARK SMILES IDX 11 78 12 79 13 80 14 81 21 82 15 83 20 84 16 86 19 87 17 88
REMARK SMILES IDX 18 89
REMARK H PARENT 3 5 78 23 46 34 7 75 21 85
REMARK Flexibility Score: inf
ROOT
ATOM      1  C   UNL A   1      35.859  22.061  25.483  1.00  0.00     0.118 C 
ENDROOT
BRANCH   1   2
ATOM      2  N   UNL A   1      36.908  21.045  25.511  1.00  0.00    -0.352 N 
ATOM      3  O   UNL A   1      38.929  20.099  25.426  1.00  0.00    -0.269 OA
ATOM      4  C   UNL A   1      38.271  21.109  25.689  1.00  0.00     0.251 C 
ATOM      5  H   UNL A   1      36.572  20.130  25.373  1.00  0.00     0.163 HD
BRANCH   4   6
ATOM      6  C   UNL A   1      38.976  22.332  26.161  1.00  0.00     0.039 A 
ATOM      7  C   UNL A   1      38.586  23.611  25.781  1.00  0.00     0.014 A 
ATOM      8  C   UNL A   1      40.028  22.204  27.081  1.00  0.00     0.014 A 
ATOM      9  C   UNL A   1      39.355  24.719  26.126  1.00  0.00     0.010 A 
ATOM     10  C   UNL A   1      40.721  23.335  27.542  1.00  0.00     0.010 A 
ATOM     11  C   UNL A   1      40.422  24.603  27.028  1.00  0.00    -0.014 A 
BRANCH  11  12
ATOM     12  C   UNL A   1      41.128  25.841  27.463  1.00  0.00     0.031 A 
ATOM     13  C   UNL A   1      42.538  26.146  27.028  1.00  0.00     0.074 A 
ATOM     14  C   UNL A   1      40.459  26.728  28.228  1.00  0.00     0.049 A 
ATOM     15  N   UNL A   1      43.239  27.236  27.203  1.00  0.00    -0.248 NA
ATOM     16  C   UNL A   1      43.259  25.090  26.307  1.00  0.00     0.031 C 
ATOM     17  C   UNL A   1      39.107  26.530  28.756  1.00  0.00     0.029 A 
ATOM     18  N   UNL A   1      40.810  27.975  28.678  1.00  0.00    -0.354 N 
ATOM     19  C   UNL A   1      44.488  26.986  26.644  1.00  0.00     0.074 A 
ATOM     20  C   UNL A   1      44.454  25.637  26.126  1.00  0.00     0.031 C 
ATOM     21  C   UNL A   1      38.724  27.633  29.414  1.00  0.00     0.029 A 
ATOM     22  C   UNL A   1      39.821  28.592  29.408  1.00  0.00     0.049 A 
ATOM     23  H   UNL A   1      41.685  28.387  28.497  1.00  0.00     0.167 HD
ATOM     24  C   UNL A   1      45.565  27.805  26.563  1.00  0.00     0.034 A 
ATOM     25  C   UNL A   1      39.798  29.793  30.015  1.00  0.00     0.034 A 
ATOM     26  C   UNL A   1      45.594  29.148  27.080  1.00  0.00     0.049 A 
ATOM     27  C   UNL A   1      40.999  30.685  29.895  1.00  0.00     0.074 A 
ATOM     28  C   UNL A   1      46.617  30.078  27.004  1.00  0.00     0.029 A 
ATOM     29  N   UNL A   1      44.564  29.744  27.792  1.00  0.00    -0.354 N 
ATOM     30  N   UNL A   1      42.115  30.484  29.238  1.00  0.00    -0.248 NA
ATOM     31  C   UNL A   1      40.925  31.986  30.575  1.00  0.00     0.031 C 
ATOM     32  C   UNL A   1      46.218  31.222  27.705  1.00  0.00     0.029 A 
ATOM     33  C   UNL A   1      44.931  31.022  28.177  1.00  0.00     0.049 A 
ATOM     34  H   UNL A   1      43.699  29.320  27.994  1.00  0.00     0.167 HD
ATOM     35  C   UNL A   1      42.862  31.644  29.393  1.00  0.00     0.074 A 
ATOM     36  C   UNL A   1      42.060  32.553  30.188  1.00  0.00     0.031 C 
ATOM     37  C   UNL A   1      44.102  31.931  28.927  1.00  0.00     0.034 A 
BRANCH  24  38
ATOM     38  C   UNL A   1      46.806  27.277  25.885  1.00  0.00     0.023 A 
ATOM     39  C   UNL A   1      46.962  27.425  24.491  1.00  0.00     0.012 A 
ATOM     40  C   UNL A   1      47.842  26.688  26.636  1.00  0.00     0.148 A 
ATOM     41  C   UNL A   1      48.115  26.966  23.853  1.00  0.00     0.002 A 
ATOM     42  C   UNL A   1      49.006  26.273  25.998  1.00  0.00     0.091 A 
ATOM     43  F   UNL A   1      47.667  26.535  27.956  1.00  0.00    -0.205 F 
ATOM     44  C   UNL A   1      49.139  26.400  24.606  1.00  0.00     0.022 A 
BRANCH  42  45
ATOM     45  S   UNL A   1      50.414  25.606  26.894  1.00  0.00     0.127 S 
ATOM     46  O   UNL A   1      51.341  25.306  25.802  1.00  0.00    -0.237 OA
ATOM     47  O   UNL A   1      50.810  26.739  27.731  1.00  0.00    -0.237 OA
ATOM     48  O   UNL A   1      49.917  24.453  27.626  1.00  0.00    -0.744 OA
ENDBRANCH  42  45
ENDBRANCH  24  38
BRANCH  25  49
ATOM     49  C   UNL A   1      38.577  30.232  30.746  1.00  0.00     0.023 A 
ATOM     50  C   UNL A   1      38.436  29.928  32.113  1.00  0.00     0.012 A 
ATOM     51  C   UNL A   1      37.575  30.983  30.101  1.00  0.00     0.148 A 
ATOM     52  C   UNL A   1      37.303  30.338  32.817  1.00  0.00     0.002 A 
ATOM     53  C   UNL A   1      36.480  31.441  30.823  1.00  0.00     0.091 A 
ATOM     54  F   UNL A   1      37.724  31.252  28.796  1.00  0.00    -0.205 F 
ATOM     55  C   UNL A   1      36.332  31.104  32.177  1.00  0.00     0.022 A 
BRANCH  53  56
ATOM     56  S   UNL A   1      35.258  32.548  30.115  1.00  0.00     0.127 S 
ATOM     57  O   UNL A   1      34.349  32.750  31.239  1.00  0.00    -0.237 OA
ATOM     58  O   UNL A   1      36.072  33.712  29.763  1.00  0.00    -0.237 OA
ATOM     59  O   UNL A   1      34.703  31.839  28.969  1.00  0.00    -0.744 OA
ENDBRANCH  53  56
ENDBRANCH  25  49
BRANCH  37  60
ATOM     60  C   UNL A   1      44.652  33.302  29.218  1.00  0.00     0.023 A 
ATOM     61  C   UNL A   1      45.332  33.552  30.426  1.00  0.00     0.012 A 
ATOM     62  C   UNL A   1      44.536  34.331  28.263  1.00  0.00     0.148 A 
ATOM     63  C   UNL A   1      45.851  34.818  30.697  1.00  0.00     0.002 A 
ATOM     64  C   UNL A   1      45.104  35.572  28.515  1.00  0.00     0.091 A 
ATOM     65  F   UNL A   1      43.865  34.079  27.128  1.00  0.00    -0.205 F 
ATOM     66  C   UNL A   1      45.747  35.823  29.738  1.00  0.00     0.022 A 
BRANCH  64  67
ATOM     67  S   UNL A   1      45.106  36.888  27.293  1.00  0.00     0.127 S 
ATOM     68  O   UNL A   1      45.670  38.001  28.055  1.00  0.00    -0.237 OA
ATOM     69  O   UNL A   1      45.989  36.349  26.257  1.00  0.00    -0.237 OA
ATOM     70  O   UNL A   1      43.720  37.049  26.878  1.00  0.00    -0.744 OA
ENDBRANCH  64  67
ENDBRANCH  37  60
ENDBRANCH  11  12
ENDBRANCH   4   6
ENDBRANCH   1   2
BRANCH   1  71
ATOM     71  C   UNL A   1      35.560  22.531  24.069  1.00  0.00     0.042 C 
BRANCH  71  72
ATOM     72  C   UNL A   1      34.072  22.684  23.776  1.00  0.00     0.118 C 
BRANCH  72  73
ATOM     73  N   UNL A   1      33.368  21.442  24.042  1.00  0.00    -0.353 N 
ATOM     74  C   UNL A   1      32.262  21.224  24.819  1.00  0.00     0.265 C 
ATOM     75  H   UNL A   1      33.738  20.643  23.600  1.00  0.00     0.163 HD
ATOM     76  O   UNL A   1      31.959  20.042  25.032  1.00  0.00    -0.271 OA
BRANCH  74  77
ATOM     77  C   UNL A   1      31.405  22.371  25.378  1.00  0.00     0.319 C 
ATOM     78  F   UNL A   1      31.051  23.291  24.437  1.00  0.00    -0.224 F 
BRANCH  77  79
ATOM     79  S   UNL A   1      32.110  23.131  26.873  1.00  0.00    -0.061 SA
BRANCH  79  80
ATOM     80  C   UNL A   1      32.331  24.799  26.473  1.00  0.00     0.076 A 
ATOM     81  C   UNL A   1      33.323  25.495  25.827  1.00  0.00     0.043 A 
ATOM     82  N   UNL A   1      31.384  25.703  26.876  1.00  0.00    -0.350 N 
ATOM     83  C   UNL A   1      33.133  26.869  26.138  1.00  0.00     0.001 A 
ATOM     84  C   UNL A   1      31.897  26.980  26.780  1.00  0.00     0.046 A 
ATOM     85  H   UNL A   1      30.477  25.477  27.186  1.00  0.00     0.167 HD
ATOM     86  C   UNL A   1      33.945  28.013  26.014  1.00  0.00     0.010 A 
ATOM     87  C   UNL A   1      31.403  28.197  27.258  1.00  0.00     0.027 A 
ATOM     88  C   UNL A   1      33.496  29.223  26.546  1.00  0.00     0.001 A 
ATOM     89  C   UNL A   1      32.239  29.312  27.136  1.00  0.00     0.002 A 
ENDBRANCH  79  80
ENDBRANCH  77  79
ENDBRANCH  74  77
ENDBRANCH  72  73
ENDBRANCH  71  72
ENDBRANCH   1  71
TORSDOF 15
ENDMDL
MODEL 3
REMARK VINA RESULT:     -12.1      1.997      3.490
REMARK SMILES O=C(NCCCNC(=O)[C@H](F)Sc1cc2ccccc2[nH]1)c1ccc(-c2c3nc(c(-c4cccc(S(=O)(=O)[O-])c4F)c4ccc([nH]4)c(-c4cccc(S(=O)(=O)[O-])c4F)c4nc(c(-c5cccc(S(=O)(=O)[O-])c5F)c5ccc2[nH]5)C=C4)C=C3)cc1
REMARK SMILES IDX 4 1 3 2 1 3 2 4 22 6 23 7 84 8 24 9 83 10 25 11 26 12 27 13
REMARK SMILES IDX 77 14 28 15 82 16 76 17 78 18 29 19 81 20 75 21 74 22 30 24
REMARK SMILES IDX 62 25 42 26 61 27 43 28 46 29 60 30 79 31 44 32 45 33 59 35
REMARK SMILES IDX 80 36 47 37 31 38 32 39 40 40 33 41 35 42 41 43 34 44 36 45
REMARK SMILES IDX 37 46 38 47 39 48 63 49 64 50 72 51 65 52 67 53 73 54 66 55
REMARK SMILES IDX 68 56 69 57 70 58 71 59 48 60 49 61 57 62 50 63 52 64 58 65
REMARK SMILES IDX 51 66 53 67 54 68 55 69 56 70 5 71 6 72 7 73 8 74 9 76 10 77
REMARK SMILES IDX 11 78 12 79 13 80 14 81 21 82 15 83 20 84 16 86 19 87 17 88
REMARK SMILES IDX 18 89
REMARK H PARENT 3 5 78 23 46 34 7 75 21 85
REMARK Flexibility Score: inf
ROOT
ATOM      1  C   UNL A   1      32.577  29.383  25.520  1.00  0.00     0.118 C 
ENDROOT
BRANCH   1   2
ATOM      2  N   UNL A   1      32.314  30.752  25.955  1.00  0.00    -0.352 N 
ATOM      3  O   UNL A   1      32.288  32.594  27.217  1.00  0.00    -0.269 OA
ATOM      4  C   UNL A   1      32.883  31.556  26.917  1.00  0.00     0.251 C 
ATOM      5  H   UNL A   1      31.581  31.188  25.462  1.00  0.00     0.163 HD
BRANCH   4   6
ATOM      6  C   UNL A   1      34.155  31.220  27.613  1.00  0.00     0.039 A 
ATOM      7  C   UNL A   1      34.471  29.925  28.006  1.00  0.00     0.014 A 
ATOM      8  C   UNL A   1      35.108  32.230  27.819  1.00  0.00     0.014 A 
ATOM      9  C   UNL A   1      35.602  29.675  28.779  1.00  0.00     0.010 A 
ATOM     10  C   UNL A   1      36.316  31.951  28.478  1.00  0.00     0.010 A 
ATOM     11  C   UNL A   1      36.553  30.679  29.011  1.00  0.00    -0.014 A 
BRANCH  11  12
ATOM     12  C   UNL A   1      37.806  30.322  29.734  1.00  0.00     0.031 A 
ATOM     13  C   UNL A   1      38.079  30.802  31.135  1.00  0.00     0.074 A 
ATOM     14  C   UNL A   1      38.691  29.507  29.124  1.00  0.00     0.049 A 
ATOM     15  N   UNL A   1      39.048  30.470  31.949  1.00  0.00    -0.248 NA
ATOM     16  C   UNL A   1      37.147  31.786  31.699  1.00  0.00     0.031 C 
ATOM     17  C   UNL A   1      38.568  29.012  27.750  1.00  0.00     0.029 A 
ATOM     18  N   UNL A   1      39.852  28.936  29.578  1.00  0.00    -0.354 N 
ATOM     19  C   UNL A   1      38.860  31.225  33.102  1.00  0.00     0.074 A 
ATOM     20  C   UNL A   1      37.686  32.039  32.884  1.00  0.00     0.031 C 
ATOM     21  C   UNL A   1      39.582  28.174  27.490  1.00  0.00     0.029 A 
ATOM     22  C   UNL A   1      40.459  28.119  28.653  1.00  0.00     0.049 A 
ATOM     23  H   UNL A   1      40.216  29.098  30.478  1.00  0.00     0.167 HD
ATOM     24  C   UNL A   1      39.594  31.237  34.241  1.00  0.00     0.034 A 
ATOM     25  C   UNL A   1      41.600  27.408  28.725  1.00  0.00     0.034 A 
ATOM     26  C   UNL A   1      40.763  30.425  34.453  1.00  0.00     0.049 A 
ATOM     27  C   UNL A   1      42.384  27.428  30.004  1.00  0.00     0.074 A 
ATOM     28  C   UNL A   1      41.548  30.325  35.589  1.00  0.00     0.029 A 
ATOM     29  N   UNL A   1      41.331  29.593  33.501  1.00  0.00    -0.354 N 
ATOM     30  N   UNL A   1      42.109  28.038  31.132  1.00  0.00    -0.248 NA
ATOM     31  C   UNL A   1      43.621  26.637  30.033  1.00  0.00     0.031 C 
ATOM     32  C   UNL A   1      42.612  29.461  35.309  1.00  0.00     0.029 A 
ATOM     33  C   UNL A   1      42.465  28.989  34.015  1.00  0.00     0.049 A 
ATOM     34  H   UNL A   1      40.980  29.454  32.592  1.00  0.00     0.167 HD
ATOM     35  C   UNL A   1      43.116  27.675  32.015  1.00  0.00     0.074 A 
ATOM     36  C   UNL A   1      43.996  26.774  31.297  1.00  0.00     0.031 C 
ATOM     37  C   UNL A   1      43.303  28.058  33.302  1.00  0.00     0.034 A 
BRANCH  24  38
ATOM     38  C   UNL A   1      39.154  32.156  35.356  1.00  0.00     0.023 A 
ATOM     39  C   UNL A   1      38.249  31.692  36.332  1.00  0.00     0.012 A 
ATOM     40  C   UNL A   1      39.684  33.456  35.469  1.00  0.00     0.148 A 
ATOM     41  C   UNL A   1      37.853  32.520  37.384  1.00  0.00     0.002 A 
ATOM     42  C   UNL A   1      39.318  34.259  36.544  1.00  0.00     0.091 A 
ATOM     43  F   UNL A   1      40.526  33.888  34.520  1.00  0.00    -0.205 F 
ATOM     44  C   UNL A   1      38.394  33.797  37.495  1.00  0.00     0.022 A 
BRANCH  42  45
ATOM     45  S   UNL A   1      40.023  35.889  36.817  1.00  0.00     0.127 S 
ATOM     46  O   UNL A   1      41.444  35.574  36.965  1.00  0.00    -0.237 OA
ATOM     47  O   UNL A   1      39.681  36.583  35.574  1.00  0.00    -0.237 OA
ATOM     48  O   UNL A   1      39.372  36.416  38.006  1.00  0.00    -0.744 OA
ENDBRANCH  42  45
ENDBRANCH  24  38
BRANCH  25  49
ATOM     49  C   UNL A   1      42.035  26.584  27.563  1.00  0.00     0.023 A 
ATOM     50  C   UNL A   1      42.811  27.169  26.545  1.00  0.00     0.012 A 
ATOM     51  C   UNL A   1      41.716  25.215  27.483  1.00  0.00     0.148 A 
ATOM     52  C   UNL A   1      43.236  26.412  25.453  1.00  0.00     0.002 A 
ATOM     53  C   UNL A   1      42.194  24.452  26.425  1.00  0.00     0.091 A 
ATOM     54  F   UNL A   1      40.966  24.680  28.458  1.00  0.00    -0.205 F 
ATOM     55  C   UNL A   1      42.939  25.053  25.398  1.00  0.00     0.022 A 
BRANCH  53  56
ATOM     56  S   UNL A   1      41.978  22.672  26.350  1.00  0.00     0.127 S 
ATOM     57  O   UNL A   1      40.524  22.546  26.356  1.00  0.00    -0.237 OA
ATOM     58  O   UNL A   1      42.621  22.343  25.077  1.00  0.00    -0.237 OA
ATOM     59  O   UNL A   1      42.665  22.143  27.521  1.00  0.00    -0.744 OA
ENDBRANCH  53  56
ENDBRANCH  25  49
BRANCH  37  60
ATOM     60  C   UNL A   1      44.475  27.465  34.038  1.00  0.00     0.023 A 
ATOM     61  C   UNL A   1      45.726  28.112  34.021  1.00  0.00     0.012 A 
ATOM     62  C   UNL A   1      44.316  26.285  34.793  1.00  0.00     0.148 A 
ATOM     63  C   UNL A   1      46.812  27.571  34.709  1.00  0.00     0.002 A 
ATOM     64  C   UNL A   1      45.386  25.784  35.520  1.00  0.00     0.091 A 
ATOM     65  F   UNL A   1      43.123  25.671  34.778  1.00  0.00    -0.205 F 
ATOM     66  C   UNL A   1      46.639  26.415  35.467  1.00  0.00     0.022 A 
BRANCH  64  67
ATOM     67  S   UNL A   1      45.222  24.360  36.603  1.00  0.00     0.127 S 
ATOM     68  O   UNL A   1      46.616  24.088  36.950  1.00  0.00    -0.237 OA
ATOM     69  O   UNL A   1      44.414  24.895  37.699  1.00  0.00    -0.237 OA
ATOM     70  O   UNL A   1      44.560  23.332  35.813  1.00  0.00    -0.744 OA
ENDBRANCH  64  67
ENDBRANCH  37  60
ENDBRANCH  11  12
ENDBRANCH   4   6
ENDBRANCH   1   2
BRANCH   1  71
ATOM     71  C   UNL A   1      31.769  28.369  26.312  1.00  0.00     0.042 C 
BRANCH  71  72
ATOM     72  C   UNL A   1      32.365  26.966  26.300  1.00  0.00     0.118 C 
BRANCH  72  73
ATOM     73  N   UNL A   1      31.405  25.998  26.800  1.00  0.00    -0.353 N 
ATOM     74  C   UNL A   1      30.979  24.828  26.228  1.00  0.00     0.265 C 
ATOM     75  H   UNL A   1      31.004  26.211  27.673  1.00  0.00     0.163 HD
ATOM     76  O   UNL A   1      30.016  24.267  26.768  1.00  0.00    -0.271 OA
BRANCH  74  77
ATOM     77  C   UNL A   1      31.668  24.208  25.003  1.00  0.00     0.319 C 
ATOM     78  F   UNL A   1      32.958  24.618  24.840  1.00  0.00    -0.224 F 
BRANCH  77  79
ATOM     79  S   UNL A   1      30.687  24.354  23.477  1.00  0.00    -0.061 SA
BRANCH  79  80
ATOM     80  C   UNL A   1      30.043  25.958  23.504  1.00  0.00     0.076 A 
ATOM     81  C   UNL A   1      28.827  26.485  23.865  1.00  0.00     0.043 A 
ATOM     82  N   UNL A   1      30.825  26.990  23.054  1.00  0.00    -0.350 N 
ATOM     83  C   UNL A   1      28.764  27.794  23.313  1.00  0.00     0.001 A 
ATOM     84  C   UNL A   1      30.037  28.098  22.826  1.00  0.00     0.046 A 
ATOM     85  H   UNL A   1      31.799  26.946  22.914  1.00  0.00     0.167 HD
ATOM     86  C   UNL A   1      27.713  28.706  23.100  1.00  0.00     0.010 A 
ATOM     87  C   UNL A   1      30.328  29.304  22.182  1.00  0.00     0.027 A 
ATOM     88  C   UNL A   1      27.972  29.886  22.400  1.00  0.00     0.001 A 
ATOM     89  C   UNL A   1      29.262  30.184  21.971  1.00  0.00     0.002 A 
ENDBRANCH  79  80
ENDBRANCH  77  79
ENDBRANCH  74  77
ENDBRANCH  72  73
ENDBRANCH  71  72
ENDBRANCH   1  71
TORSDOF 15
ENDMDL
