MODEL 1
REMARK VINA RESULT:     -11.9      0.000      0.000
REMARK SMILES Cc1cccc(Cl)c1Nc1ccccc1CC(=O)NCCCNC(=O)c1ccc(-c2c3nc(c(-c4cccc(S(=O)(=O)[O-])c4F)c4ccc([nH]4)c(-c4cccc(S(=O)(=O)[O-])c4F)c4nc(c(-c5cccc(S(=O)(=O)[O-])c5F)c5ccc2[nH]5)C=C4)C=C3)cc1
REMARK SMILES IDX 21 1 20 2 19 3 17 4 18 5 16 7 15 8 10 9 11 10 12 11 14 12
REMARK SMILES IDX 13 13 9 14 8 16 1 17 2 18 3 19 4 20 6 21 5 22 7 23 22 24
REMARK SMILES IDX 23 25 24 26 25 28 26 29 27 30 88 31 28 32 87 33 29 34 30 35
REMARK SMILES IDX 31 36 81 37 32 38 86 39 80 40 82 41 33 42 85 43 79 44 78 45
REMARK SMILES IDX 34 47 66 48 46 49 65 50 47 51 50 52 64 53 83 54 48 55 49 56
REMARK SMILES IDX 63 58 84 59 51 60 35 61 36 62 44 63 37 64 39 65 45 66 38 67
REMARK SMILES IDX 40 68 41 69 42 70 43 71 67 72 68 73 76 74 69 75 71 76 77 77
REMARK SMILES IDX 70 78 72 79 73 80 74 81 75 82 52 83 53 84 61 85 54 86 56 87
REMARK SMILES IDX 62 88 55 89 57 90 58 91 59 92 60 93
REMARK H PARENT 19 6 9 15 23 27 82 46 50 57
REMARK Flexibility Score: inf
ROOT
ATOM      1  C   UNL A   1      33.070  27.868  26.933  1.00  0.00     0.042 C 
ENDROOT
BRANCH   1   2
ATOM      2  C   UNL A   1      32.073  27.050  26.120  1.00  0.00     0.117 C 
BRANCH   2   3
ATOM      3  N   UNL A   1      31.568  25.909  26.860  1.00  0.00    -0.356 N 
ATOM      4  C   UNL A   1      31.545  24.597  26.479  1.00  0.00     0.224 C 
ATOM      5  O   UNL A   1      31.014  23.777  27.231  1.00  0.00    -0.275 OA
ATOM      6  H   UNL A   1      31.194  26.105  27.748  1.00  0.00     0.163 HD
BRANCH   4   7
ATOM      7  C   UNL A   1      32.222  24.173  25.186  1.00  0.00     0.137 C 
BRANCH   7   8
ATOM      8  C   UNL A   1      33.534  23.442  25.379  1.00  0.00    -0.015 A 
ATOM      9  C   UNL A   1      33.641  22.033  25.415  1.00  0.00     0.042 A 
ATOM     10  C   UNL A   1      34.894  21.460  25.708  1.00  0.00     0.026 A 
ATOM     11  C   UNL A   1      36.024  22.247  25.927  1.00  0.00     0.002 A 
ATOM     12  C   UNL A   1      34.694  24.221  25.573  1.00  0.00     0.006 A 
ATOM     13  C   UNL A   1      35.926  23.630  25.844  1.00  0.00     0.000 A 
BRANCH   9  14
ATOM     14  N   UNL A   1      32.587  21.140  25.127  1.00  0.00    -0.354 N 
ATOM     15  H   UNL A   1      31.785  21.285  25.679  1.00  0.00     0.167 HD
BRANCH  14  16
ATOM     16  C   UNL A   1      32.458  20.078  24.200  1.00  0.00     0.060 A 
ATOM     17  C   UNL A   1      32.017  21.826  22.380  1.00  0.00     0.046 C 
ATOM     18  C   UNL A   1      32.214  20.402  22.838  1.00  0.00    -0.026 A 
ATOM     19  C   UNL A   1      32.190  19.388  21.864  1.00  0.00     0.005 A 
ATOM     20  C   UNL A   1      32.392  18.057  22.213  1.00  0.00     0.002 A 
ATOM     21  C   UNL A   1      32.621  18.713  24.533  1.00  0.00     0.064 A 
ATOM     22  C   UNL A   1      32.598  17.721  23.545  1.00  0.00     0.023 A 
ATOM     23  Cl  UNL A   1      32.748  18.137  26.163  1.00  0.00    -0.082 Cl
ENDBRANCH  14  16
ENDBRANCH   9  14
ENDBRANCH   7   8
ENDBRANCH   4   7
ENDBRANCH   2   3
ENDBRANCH   1   2
BRANCH   1  24
ATOM     24  C   UNL A   1      33.889  28.841  26.094  1.00  0.00     0.118 C 
BRANCH  24  25
ATOM     25  N   UNL A   1      33.776  30.214  26.570  1.00  0.00    -0.352 N 
ATOM     26  C   UNL A   1      34.524  30.883  27.503  1.00  0.00     0.251 C 
ATOM     27  H   UNL A   1      33.052  30.740  26.159  1.00  0.00     0.163 HD
ATOM     28  O   UNL A   1      34.134  31.978  27.914  1.00  0.00    -0.269 OA
BRANCH  26  29
ATOM     29  C   UNL A   1      35.780  30.303  28.020  1.00  0.00     0.039 A 
ATOM     30  C   UNL A   1      36.935  30.389  27.238  1.00  0.00     0.014 A 
ATOM     31  C   UNL A   1      35.818  29.647  29.254  1.00  0.00     0.014 A 
ATOM     32  C   UNL A   1      38.135  29.856  27.714  1.00  0.00     0.010 A 
ATOM     33  C   UNL A   1      37.030  29.192  29.762  1.00  0.00     0.010 A 
ATOM     34  C   UNL A   1      38.198  29.275  28.990  1.00  0.00    -0.014 A 
BRANCH  34  35
ATOM     35  C   UNL A   1      39.473  28.737  29.533  1.00  0.00     0.031 A 
ATOM     36  C   UNL A   1      40.147  29.421  30.693  1.00  0.00     0.074 A 
ATOM     37  C   UNL A   1      40.061  27.684  28.932  1.00  0.00     0.049 A 
ATOM     38  N   UNL A   1      41.291  29.141  31.263  1.00  0.00    -0.248 NA
ATOM     39  C   UNL A   1      39.462  30.588  31.274  1.00  0.00     0.031 C 
ATOM     40  C   UNL A   1      39.543  26.982  27.756  1.00  0.00     0.029 A 
ATOM     41  N   UNL A   1      41.240  27.038  29.210  1.00  0.00    -0.354 N 
ATOM     42  C   UNL A   1      41.482  30.117  32.234  1.00  0.00     0.074 A 
ATOM     43  C   UNL A   1      40.351  31.015  32.160  1.00  0.00     0.031 C 
ATOM     44  C   UNL A   1      40.396  26.002  27.416  1.00  0.00     0.029 A 
ATOM     45  C   UNL A   1      41.538  26.027  28.325  1.00  0.00     0.049 A 
ATOM     46  H   UNL A   1      41.818  27.275  29.970  1.00  0.00     0.167 HD
ATOM     47  C   UNL A   1      42.493  30.240  33.127  1.00  0.00     0.034 A 
ATOM     48  C   UNL A   1      42.615  25.221  28.246  1.00  0.00     0.034 A 
ATOM     49  C   UNL A   1      43.591  29.318  33.228  1.00  0.00     0.049 A 
ATOM     50  C   UNL A   1      43.704  25.359  29.276  1.00  0.00     0.074 A 
ATOM     51  C   UNL A   1      44.616  29.303  34.156  1.00  0.00     0.029 A 
ATOM     52  N   UNL A   1      43.813  28.253  32.369  1.00  0.00    -0.354 N 
ATOM     53  N   UNL A   1      43.788  26.191  30.285  1.00  0.00    -0.248 NA
ATOM     54  C   UNL A   1      44.833  24.420  29.179  1.00  0.00     0.031 C 
ATOM     55  C   UNL A   1      45.477  28.248  33.838  1.00  0.00     0.029 A 
ATOM     56  C   UNL A   1      44.964  27.581  32.738  1.00  0.00     0.049 A 
ATOM     57  H   UNL A   1      43.236  28.012  31.608  1.00  0.00     0.167 HD
ATOM     58  C   UNL A   1      44.949  25.849  30.967  1.00  0.00     0.074 A 
ATOM     59  C   UNL A   1      45.527  24.720  30.267  1.00  0.00     0.031 C 
ATOM     60  C   UNL A   1      45.495  26.423  32.068  1.00  0.00     0.034 A 
BRANCH  47  61
ATOM     61  C   UNL A   1      42.439  31.388  34.101  1.00  0.00     0.023 A 
ATOM     62  C   UNL A   1      43.208  32.545  33.861  1.00  0.00     0.012 A 
ATOM     63  C   UNL A   1      41.570  31.354  35.209  1.00  0.00     0.148 A 
ATOM     64  C   UNL A   1      43.137  33.637  34.725  1.00  0.00     0.002 A 
ATOM     65  C   UNL A   1      41.467  32.464  36.038  1.00  0.00     0.091 A 
ATOM     66  F   UNL A   1      40.860  30.238  35.430  1.00  0.00    -0.205 F 
ATOM     67  C   UNL A   1      42.259  33.601  35.806  1.00  0.00     0.022 A 
BRANCH  65  68
ATOM     68  S   UNL A   1      40.306  32.553  37.405  1.00  0.00     0.127 S 
ATOM     69  O   UNL A   1      41.163  32.213  38.542  1.00  0.00    -0.237 OA
ATOM     70  O   UNL A   1      39.884  33.953  37.357  1.00  0.00    -0.237 OA
ATOM     71  O   UNL A   1      39.257  31.588  37.108  1.00  0.00    -0.744 OA
ENDBRANCH  65  68
ENDBRANCH  47  61
BRANCH  48  72
ATOM     72  C   UNL A   1      42.696  24.175  27.188  1.00  0.00     0.023 A 
ATOM     73  C   UNL A   1      43.401  24.446  25.998  1.00  0.00     0.012 A 
ATOM     74  C   UNL A   1      42.083  22.918  27.350  1.00  0.00     0.148 A 
ATOM     75  C   UNL A   1      43.456  23.501  24.972  1.00  0.00     0.002 A 
ATOM     76  C   UNL A   1      42.192  21.960  26.350  1.00  0.00     0.091 A 
ATOM     77  F   UNL A   1      41.409  22.681  28.485  1.00  0.00    -0.205 F 
ATOM     78  C   UNL A   1      42.859  22.257  25.150  1.00  0.00     0.022 A 
BRANCH  76  79
ATOM     79  S   UNL A   1      41.569  20.287  26.547  1.00  0.00     0.127 S 
ATOM     80  O   UNL A   1      42.128  19.910  27.843  1.00  0.00    -0.237 OA
ATOM     81  O   UNL A   1      40.122  20.500  26.538  1.00  0.00    -0.237 OA
ATOM     82  O   UNL A   1      42.071  19.543  25.398  1.00  0.00    -0.744 OA
ENDBRANCH  76  79
ENDBRANCH  48  72
BRANCH  60  83
ATOM     83  C   UNL A   1      46.753  25.811  32.627  1.00  0.00     0.023 A 
ATOM     84  C   UNL A   1      48.013  26.307  32.241  1.00  0.00     0.012 A 
ATOM     85  C   UNL A   1      46.677  24.791  33.597  1.00  0.00     0.148 A 
ATOM     86  C   UNL A   1      49.181  25.771  32.784  1.00  0.00     0.002 A 
ATOM     87  C   UNL A   1      47.842  24.301  34.173  1.00  0.00     0.091 A 
ATOM     88  F   UNL A   1      45.469  24.322  33.938  1.00  0.00    -0.205 F 
ATOM     89  C   UNL A   1      49.095  24.780  33.759  1.00  0.00     0.022 A 
BRANCH  87  90
ATOM     90  S   UNL A   1      47.823  23.098  35.507  1.00  0.00     0.127 S 
ATOM     91  O   UNL A   1      47.242  21.931  34.847  1.00  0.00    -0.237 OA
ATOM     92  O   UNL A   1      49.245  22.971  35.830  1.00  0.00    -0.237 OA
ATOM     93  O   UNL A   1      47.013  23.683  36.566  1.00  0.00    -0.744 OA
ENDBRANCH  87  90
ENDBRANCH  60  83
ENDBRANCH  34  35
ENDBRANCH  26  29
ENDBRANCH  24  25
ENDBRANCH   1  24
TORSDOF 16
ENDMDL
MODEL 2
REMARK VINA RESULT:     -11.9      1.240      2.004
REMARK SMILES Cc1cccc(Cl)c1Nc1ccccc1CC(=O)NCCCNC(=O)c1ccc(-c2c3nc(c(-c4cccc(S(=O)(=O)[O-])c4F)c4ccc([nH]4)c(-c4cccc(S(=O)(=O)[O-])c4F)c4nc(c(-c5cccc(S(=O)(=O)[O-])c5F)c5ccc2[nH]5)C=C4)C=C3)cc1
REMARK SMILES IDX 21 1 20 2 19 3 17 4 18 5 16 7 15 8 10 9 11 10 12 11 14 12
REMARK SMILES IDX 13 13 9 14 8 16 1 17 2 18 3 19 4 20 6 21 5 22 7 23 22 24
REMARK SMILES IDX 23 25 24 26 25 28 26 29 27 30 88 31 28 32 87 33 29 34 30 35
REMARK SMILES IDX 31 36 81 37 32 38 86 39 80 40 82 41 33 42 85 43 79 44 78 45
REMARK SMILES IDX 34 47 66 48 46 49 65 50 47 51 50 52 64 53 83 54 48 55 49 56
REMARK SMILES IDX 63 58 84 59 51 60 35 61 36 62 44 63 37 64 39 65 45 66 38 67
REMARK SMILES IDX 40 68 41 69 42 70 43 71 67 72 68 73 76 74 69 75 71 76 77 77
REMARK SMILES IDX 70 78 72 79 73 80 74 81 75 82 52 83 53 84 61 85 54 86 56 87
REMARK SMILES IDX 62 88 55 89 57 90 58 91 59 92 60 93
REMARK H PARENT 19 6 9 15 23 27 82 46 50 57
REMARK Flexibility Score: inf
ROOT
ATOM      1  C   UNL A   1      32.781  27.876  25.720  1.00  0.00     0.042 C 
ENDROOT
BRANCH   1   2
ATOM      2  C   UNL A   1      31.415  27.362  26.160  1.00  0.00     0.117 C 
BRANCH   2   3
ATOM      3  N   UNL A   1      31.511  26.117  26.898  1.00  0.00    -0.356 N 
ATOM      4  C   UNL A   1      31.111  24.870  26.508  1.00  0.00     0.224 C 
ATOM      5  O   UNL A   1      31.225  23.940  27.310  1.00  0.00    -0.275 OA
ATOM      6  H   UNL A   1      31.914  26.179  27.793  1.00  0.00     0.163 HD
BRANCH   4   7
ATOM      7  C   UNL A   1      30.605  24.646  25.093  1.00  0.00     0.137 C 
BRANCH   7   8
ATOM      8  C   UNL A   1      31.641  24.879  24.014  1.00  0.00    -0.015 A 
ATOM      9  C   UNL A   1      32.985  24.456  24.122  1.00  0.00     0.042 A 
ATOM     10  C   UNL A   1      33.890  24.820  23.107  1.00  0.00     0.026 A 
ATOM     11  C   UNL A   1      33.482  25.554  21.994  1.00  0.00     0.002 A 
ATOM     12  C   UNL A   1      31.240  25.594  22.867  1.00  0.00     0.006 A 
ATOM     13  C   UNL A   1      32.151  25.928  21.866  1.00  0.00     0.000 A 
BRANCH   9  14
ATOM     14  N   UNL A   1      33.489  23.641  25.159  1.00  0.00    -0.354 N 
ATOM     15  H   UNL A   1      33.219  23.934  26.058  1.00  0.00     0.167 HD
BRANCH  14  16
ATOM     16  C   UNL A   1      34.308  22.486  25.157  1.00  0.00     0.060 A 
ATOM     17  C   UNL A   1      32.186  21.081  24.861  1.00  0.00     0.046 C 
ATOM     18  C   UNL A   1      33.684  21.222  24.974  1.00  0.00    -0.026 A 
ATOM     19  C   UNL A   1      34.466  20.059  24.853  1.00  0.00     0.005 A 
ATOM     20  C   UNL A   1      35.853  20.121  24.920  1.00  0.00     0.002 A 
ATOM     21  C   UNL A   1      35.718  22.515  25.261  1.00  0.00     0.064 A 
ATOM     22  C   UNL A   1      36.476  21.345  25.132  1.00  0.00     0.023 A 
ATOM     23  Cl  UNL A   1      36.616  23.943  25.659  1.00  0.00    -0.082 Cl
ENDBRANCH  14  16
ENDBRANCH   9  14
ENDBRANCH   7   8
ENDBRANCH   4   7
ENDBRANCH   2   3
ENDBRANCH   1   2
BRANCH   1  24
ATOM     24  C   UNL A   1      33.639  28.391  26.870  1.00  0.00     0.118 C 
BRANCH  24  25
ATOM     25  N   UNL A   1      33.578  29.843  26.998  1.00  0.00    -0.352 N 
ATOM     26  C   UNL A   1      34.425  30.701  27.648  1.00  0.00     0.251 C 
ATOM     27  H   UNL A   1      32.813  30.270  26.549  1.00  0.00     0.163 HD
ATOM     28  O   UNL A   1      34.082  31.874  27.812  1.00  0.00    -0.269 OA
BRANCH  26  29
ATOM     29  C   UNL A   1      35.731  30.234  28.154  1.00  0.00     0.039 A 
ATOM     30  C   UNL A   1      35.804  29.699  29.443  1.00  0.00     0.014 A 
ATOM     31  C   UNL A   1      36.888  30.349  27.378  1.00  0.00     0.014 A 
ATOM     32  C   UNL A   1      37.029  29.242  29.935  1.00  0.00     0.010 A 
ATOM     33  C   UNL A   1      38.089  29.818  27.838  1.00  0.00     0.010 A 
ATOM     34  C   UNL A   1      38.176  29.274  29.128  1.00  0.00    -0.014 A 
BRANCH  34  35
ATOM     35  C   UNL A   1      39.481  28.757  29.617  1.00  0.00     0.031 A 
ATOM     36  C   UNL A   1      40.207  29.471  30.727  1.00  0.00     0.074 A 
ATOM     37  C   UNL A   1      40.047  27.696  29.010  1.00  0.00     0.049 A 
ATOM     38  N   UNL A   1      41.380  29.213  31.244  1.00  0.00    -0.248 NA
ATOM     39  C   UNL A   1      39.542  30.646  31.316  1.00  0.00     0.031 C 
ATOM     40  C   UNL A   1      39.476  26.964  27.877  1.00  0.00     0.029 A 
ATOM     41  N   UNL A   1      41.244  27.065  29.242  1.00  0.00    -0.354 N 
ATOM     42  C   UNL A   1      41.611  30.211  32.183  1.00  0.00     0.074 A 
ATOM     43  C   UNL A   1      40.471  31.099  32.147  1.00  0.00     0.031 C 
ATOM     44  C   UNL A   1      40.319  25.983  27.516  1.00  0.00     0.029 A 
ATOM     45  C   UNL A   1      41.505  26.037  28.366  1.00  0.00     0.049 A 
ATOM     46  H   UNL A   1      41.857  27.322  29.967  1.00  0.00     0.167 HD
ATOM     47  C   UNL A   1      42.665  30.361  33.021  1.00  0.00     0.034 A 
ATOM     48  C   UNL A   1      42.583  25.237  28.250  1.00  0.00     0.034 A 
ATOM     49  C   UNL A   1      43.775  29.449  33.087  1.00  0.00     0.049 A 
ATOM     50  C   UNL A   1      43.722  25.405  29.220  1.00  0.00     0.074 A 
ATOM     51  C   UNL A   1      44.845  29.462  33.962  1.00  0.00     0.029 A 
ATOM     52  N   UNL A   1      43.962  28.367  32.241  1.00  0.00    -0.354 N 
ATOM     53  N   UNL A   1      43.849  26.260  30.206  1.00  0.00    -0.248 NA
ATOM     54  C   UNL A   1      44.852  24.472  29.087  1.00  0.00     0.031 C 
ATOM     55  C   UNL A   1      45.697  28.406  33.624  1.00  0.00     0.029 A 
ATOM     56  C   UNL A   1      45.136  27.712  32.565  1.00  0.00     0.049 A 
ATOM     57  H   UNL A   1      43.349  28.105  31.515  1.00  0.00     0.167 HD
ATOM     58  C   UNL A   1      45.046  25.941  30.836  1.00  0.00     0.074 A 
ATOM     59  C   UNL A   1      45.598  24.802  30.132  1.00  0.00     0.031 C 
ATOM     60  C   UNL A   1      45.642  26.543  31.895  1.00  0.00     0.034 A 
BRANCH  47  61
ATOM     61  C   UNL A   1      42.651  31.529  33.971  1.00  0.00     0.023 A 
ATOM     62  C   UNL A   1      43.168  32.774  33.558  1.00  0.00     0.012 A 
ATOM     63  C   UNL A   1      42.054  31.418  35.243  1.00  0.00     0.148 A 
ATOM     64  C   UNL A   1      43.123  33.880  34.406  1.00  0.00     0.002 A 
ATOM     65  C   UNL A   1      41.968  32.536  36.063  1.00  0.00     0.091 A 
ATOM     66  F   UNL A   1      41.583  30.222  35.625  1.00  0.00    -0.205 F 
ATOM     67  C   UNL A   1      42.512  33.764  35.652  1.00  0.00     0.022 A 
BRANCH  65  68
ATOM     68  S   UNL A   1      41.127  32.515  37.650  1.00  0.00     0.127 S 
ATOM     69  O   UNL A   1      42.000  31.641  38.435  1.00  0.00    -0.237 OA
ATOM     70  O   UNL A   1      41.169  33.926  38.037  1.00  0.00    -0.237 OA
ATOM     71  O   UNL A   1      39.793  31.992  37.394  1.00  0.00    -0.744 OA
ENDBRANCH  65  68
ENDBRANCH  47  61
BRANCH  48  72
ATOM     72  C   UNL A   1      42.619  24.168  27.212  1.00  0.00     0.023 A 
ATOM     73  C   UNL A   1      43.280  24.411  25.990  1.00  0.00     0.012 A 
ATOM     74  C   UNL A   1      42.009  22.918  27.424  1.00  0.00     0.148 A 
ATOM     75  C   UNL A   1      43.292  23.445  24.983  1.00  0.00     0.002 A 
ATOM     76  C   UNL A   1      42.075  21.938  26.440  1.00  0.00     0.091 A 
ATOM     77  F   UNL A   1      41.378  22.708  28.588  1.00  0.00    -0.205 F 
ATOM     78  C   UNL A   1      42.698  22.207  25.210  1.00  0.00     0.022 A 
BRANCH  76  79
ATOM     79  S   UNL A   1      41.454  20.273  26.697  1.00  0.00     0.127 S 
ATOM     80  O   UNL A   1      40.022  20.509  26.859  1.00  0.00    -0.237 OA
ATOM     81  O   UNL A   1      41.832  19.613  25.447  1.00  0.00    -0.237 OA
ATOM     82  O   UNL A   1      42.152  19.771  27.873  1.00  0.00    -0.744 OA
ENDBRANCH  76  79
ENDBRANCH  48  72
BRANCH  60  83
ATOM     83  C   UNL A   1      46.932  25.952  32.402  1.00  0.00     0.023 A 
ATOM     84  C   UNL A   1      48.166  26.433  31.925  1.00  0.00     0.012 A 
ATOM     85  C   UNL A   1      46.914  24.970  33.413  1.00  0.00     0.148 A 
ATOM     86  C   UNL A   1      49.364  25.918  32.420  1.00  0.00     0.002 A 
ATOM     87  C   UNL A   1      48.112  24.502  33.940  1.00  0.00     0.091 A 
ATOM     88  F   UNL A   1      45.728  24.515  33.842  1.00  0.00    -0.205 F 
ATOM     89  C   UNL A   1      49.338  24.965  33.435  1.00  0.00     0.022 A 
BRANCH  87  90
ATOM     90  S   UNL A   1      48.172  23.351  35.317  1.00  0.00     0.127 S 
ATOM     91  O   UNL A   1      47.602  22.144  34.722  1.00  0.00    -0.237 OA
ATOM     92  O   UNL A   1      49.607  23.275  35.593  1.00  0.00    -0.237 OA
ATOM     93  O   UNL A   1      47.383  23.955  36.382  1.00  0.00    -0.744 OA
ENDBRANCH  87  90
ENDBRANCH  60  83
ENDBRANCH  34  35
ENDBRANCH  26  29
ENDBRANCH  24  25
ENDBRANCH   1  24
TORSDOF 16
ENDMDL
MODEL 3
REMARK VINA RESULT:     -11.8      4.645      9.618
REMARK SMILES Cc1cccc(Cl)c1Nc1ccccc1CC(=O)NCCCNC(=O)c1ccc(-c2c3nc(c(-c4cccc(S(=O)(=O)[O-])c4F)c4ccc([nH]4)c(-c4cccc(S(=O)(=O)[O-])c4F)c4nc(c(-c5cccc(S(=O)(=O)[O-])c5F)c5ccc2[nH]5)C=C4)C=C3)cc1
REMARK SMILES IDX 21 1 20 2 19 3 17 4 18 5 16 7 15 8 10 9 11 10 12 11 14 12
REMARK SMILES IDX 13 13 9 14 8 16 1 17 2 18 3 19 4 20 6 21 5 22 7 23 22 24
REMARK SMILES IDX 23 25 24 26 25 28 26 29 27 30 88 31 28 32 87 33 29 34 30 35
REMARK SMILES IDX 31 36 81 37 32 38 86 39 80 40 82 41 33 42 85 43 79 44 78 45
REMARK SMILES IDX 34 47 66 48 46 49 65 50 47 51 50 52 64 53 83 54 48 55 49 56
REMARK SMILES IDX 63 58 84 59 51 60 35 61 36 62 44 63 37 64 39 65 45 66 38 67
REMARK SMILES IDX 40 68 41 69 42 70 43 71 67 72 68 73 76 74 69 75 71 76 77 77
REMARK SMILES IDX 70 78 72 79 73 80 74 81 75 82 52 83 53 84 61 85 54 86 56 87
REMARK SMILES IDX 62 88 55 89 57 90 58 91 59 92 60 93
REMARK H PARENT 19 6 9 15 23 27 82 46 50 57
REMARK Flexibility Score: inf
ROOT
ATOM      1  C   UNL A   1      36.187  23.478  24.290  1.00  0.00     0.042 C 
ENDROOT
BRANCH   1   2
ATOM      2  C   UNL A   1      34.683  23.626  24.094  1.00  0.00     0.117 C 
BRANCH   2   3
ATOM      3  N   UNL A   1      34.328  24.915  23.533  1.00  0.00    -0.356 N 
ATOM      4  C   UNL A   1      33.975  26.058  24.194  1.00  0.00     0.224 C 
ATOM      5  O   UNL A   1      33.647  27.043  23.529  1.00  0.00    -0.275 OA
ATOM      6  H   UNL A   1      34.342  24.974  22.551  1.00  0.00     0.163 HD
BRANCH   4   7
ATOM      7  C   UNL A   1      34.057  26.110  25.711  1.00  0.00     0.137 C 
BRANCH   7   8
ATOM      8  C   UNL A   1      33.444  27.350  26.327  1.00  0.00    -0.015 A 
ATOM      9  C   UNL A   1      32.067  27.475  26.616  1.00  0.00     0.042 A 
ATOM     10  C   UNL A   1      31.587  28.712  27.088  1.00  0.00     0.026 A 
ATOM     11  C   UNL A   1      32.442  29.792  27.305  1.00  0.00     0.002 A 
ATOM     12  C   UNL A   1      34.299  28.443  26.581  1.00  0.00     0.006 A 
ATOM     13  C   UNL A   1      33.802  29.652  27.065  1.00  0.00     0.000 A 
BRANCH   9  14
ATOM     14  N   UNL A   1      31.127  26.427  26.515  1.00  0.00    -0.354 N 
ATOM     15  H   UNL A   1      30.483  26.401  27.259  1.00  0.00     0.167 HD
BRANCH  14  16
ATOM     16  C   UNL A   1      30.930  25.406  25.554  1.00  0.00     0.060 A 
ATOM     17  C   UNL A   1      29.973  27.185  23.979  1.00  0.00     0.046 C 
ATOM     18  C   UNL A   1      30.398  25.771  24.288  1.00  0.00    -0.026 A 
ATOM     19  C   UNL A   1      30.290  24.812  23.264  1.00  0.00     0.005 A 
ATOM     20  C   UNL A   1      30.690  23.497  23.472  1.00  0.00     0.002 A 
ATOM     21  C   UNL A   1      31.292  24.053  25.751  1.00  0.00     0.064 A 
ATOM     22  C   UNL A   1      31.181  23.117  24.716  1.00  0.00     0.023 A 
ATOM     23  Cl  UNL A   1      31.788  23.411  27.283  1.00  0.00    -0.082 Cl
ENDBRANCH  14  16
ENDBRANCH   9  14
ENDBRANCH   7   8
ENDBRANCH   4   7
ENDBRANCH   2   3
ENDBRANCH   1   2
BRANCH   1  24
ATOM     24  C   UNL A   1      36.619  23.521  25.751  1.00  0.00     0.118 C 
BRANCH  24  25
ATOM     25  N   UNL A   1      37.646  22.531  26.054  1.00  0.00    -0.352 N 
ATOM     26  C   UNL A   1      38.939  22.709  26.472  1.00  0.00     0.251 C 
ATOM     27  H   UNL A   1      37.368  21.594  25.941  1.00  0.00     0.163 HD
ATOM     28  O   UNL A   1      39.708  21.745  26.473  1.00  0.00    -0.269 OA
BRANCH  26  29
ATOM     29  C   UNL A   1      39.414  24.036  26.912  1.00  0.00     0.039 A 
ATOM     30  C   UNL A   1      40.005  24.887  25.974  1.00  0.00     0.014 A 
ATOM     31  C   UNL A   1      39.310  24.432  28.249  1.00  0.00     0.014 A 
ATOM     32  C   UNL A   1      40.450  26.150  26.369  1.00  0.00     0.010 A 
ATOM     33  C   UNL A   1      39.679  25.721  28.622  1.00  0.00     0.010 A 
ATOM     34  C   UNL A   1      40.269  26.588  27.690  1.00  0.00    -0.014 A 
BRANCH  34  35
ATOM     35  C   UNL A   1      40.700  27.942  28.123  1.00  0.00     0.031 A 
ATOM     36  C   UNL A   1      42.164  28.295  28.151  1.00  0.00     0.074 A 
ATOM     37  C   UNL A   1      39.782  28.825  28.565  1.00  0.00     0.049 A 
ATOM     38  N   UNL A   1      42.739  29.398  28.556  1.00  0.00    -0.248 NA
ATOM     39  C   UNL A   1      43.110  27.266  27.686  1.00  0.00     0.031 C 
ATOM     40  C   UNL A   1      38.342  28.575  28.656  1.00  0.00     0.029 A 
ATOM     41  N   UNL A   1      39.927  30.100  29.050  1.00  0.00    -0.354 N 
ATOM     42  C   UNL A   1      44.106  29.180  28.439  1.00  0.00     0.074 A 
ATOM     43  C   UNL A   1      44.280  27.831  27.950  1.00  0.00     0.031 C 
ATOM     44  C   UNL A   1      37.736  29.662  29.160  1.00  0.00     0.029 A 
ATOM     45  C   UNL A   1      38.746  30.672  29.463  1.00  0.00     0.049 A 
ATOM     46  H   UNL A   1      40.795  30.563  29.098  1.00  0.00     0.167 HD
ATOM     47  C   UNL A   1      45.126  30.036  28.687  1.00  0.00     0.034 A 
ATOM     48  C   UNL A   1      38.504  31.869  30.033  1.00  0.00     0.034 A 
ATOM     49  C   UNL A   1      44.947  31.393  29.127  1.00  0.00     0.049 A 
ATOM     50  C   UNL A   1      39.655  32.812  30.262  1.00  0.00     0.074 A 
ATOM     51  C   UNL A   1      45.909  32.367  29.320  1.00  0.00     0.029 A 
ATOM     52  N   UNL A   1      43.727  31.965  29.451  1.00  0.00    -0.354 N 
ATOM     53  N   UNL A   1      40.927  32.644  29.996  1.00  0.00    -0.248 NA
ATOM     54  C   UNL A   1      39.332  34.127  30.837  1.00  0.00     0.031 C 
ATOM     55  C   UNL A   1      45.274  33.520  29.792  1.00  0.00     0.029 A 
ATOM     56  C   UNL A   1      43.913  33.276  29.853  1.00  0.00     0.049 A 
ATOM     57  H   UNL A   1      42.857  31.506  29.403  1.00  0.00     0.167 HD
ATOM     58  C   UNL A   1      41.548  33.843  30.327  1.00  0.00     0.074 A 
ATOM     59  C   UNL A   1      40.509  34.735  30.796  1.00  0.00     0.031 C 
ATOM     60  C   UNL A   1      42.862  34.172  30.260  1.00  0.00     0.034 A 
BRANCH  47  61
ATOM     61  C   UNL A   1      46.531  29.550  28.445  1.00  0.00     0.023 A 
ATOM     62  C   UNL A   1      47.136  29.756  27.189  1.00  0.00     0.012 A 
ATOM     63  C   UNL A   1      47.279  28.960  29.483  1.00  0.00     0.148 A 
ATOM     64  C   UNL A   1      48.451  29.355  26.958  1.00  0.00     0.002 A 
ATOM     65  C   UNL A   1      48.606  28.608  29.262  1.00  0.00     0.091 A 
ATOM     66  F   UNL A   1      46.682  28.757  30.666  1.00  0.00    -0.205 F 
ATOM     67  C   UNL A   1      49.189  28.793  27.997  1.00  0.00     0.022 A 
BRANCH  65  68
ATOM     68  S   UNL A   1      49.668  27.956  30.555  1.00  0.00     0.127 S 
ATOM     69  O   UNL A   1      49.576  29.007  31.569  1.00  0.00    -0.237 OA
ATOM     70  O   UNL A   1      48.990  26.708  30.907  1.00  0.00    -0.237 OA
ATOM     71  O   UNL A   1      50.982  27.788  29.952  1.00  0.00    -0.744 OA
ENDBRANCH  65  68
ENDBRANCH  47  61
BRANCH  48  72
ATOM     72  C   UNL A   1      37.111  32.270  30.379  1.00  0.00     0.023 A 
ATOM     73  C   UNL A   1      36.623  32.031  31.679  1.00  0.00     0.012 A 
ATOM     74  C   UNL A   1      36.268  32.885  29.433  1.00  0.00     0.148 A 
ATOM     75  C   UNL A   1      35.309  32.356  32.018  1.00  0.00     0.002 A 
ATOM     76  C   UNL A   1      34.980  33.261  29.794  1.00  0.00     0.091 A 
ATOM     77  F   UNL A   1      36.746  33.096  28.199  1.00  0.00    -0.205 F 
ATOM     78  C   UNL A   1      34.490  32.978  31.080  1.00  0.00     0.022 A 
BRANCH  76  79
ATOM     79  S   UNL A   1      33.902  34.183  28.693  1.00  0.00     0.127 S 
ATOM     80  O   UNL A   1      32.813  34.564  29.589  1.00  0.00    -0.237 OA
ATOM     81  O   UNL A   1      34.770  35.284  28.274  1.00  0.00    -0.237 OA
ATOM     82  O   UNL A   1      33.551  33.259  27.622  1.00  0.00    -0.744 OA
ENDBRANCH  76  79
ENDBRANCH  48  72
BRANCH  60  83
ATOM     83  C   UNL A   1      43.253  35.574  30.647  1.00  0.00     0.023 A 
ATOM     84  C   UNL A   1      43.643  35.861  31.969  1.00  0.00     0.012 A 
ATOM     85  C   UNL A   1      43.307  36.591  29.672  1.00  0.00     0.148 A 
ATOM     86  C   UNL A   1      44.045  37.149  32.325  1.00  0.00     0.002 A 
ATOM     87  C   UNL A   1      43.760  37.857  30.022  1.00  0.00     0.091 A 
ATOM     88  F   UNL A   1      42.916  36.302  28.423  1.00  0.00    -0.205 F 
ATOM     89  C   UNL A   1      44.116  38.142  31.350  1.00  0.00     0.022 A 
BRANCH  87  90
ATOM     90  S   UNL A   1      43.982  39.168  28.814  1.00  0.00     0.127 S 
ATOM     91  O   UNL A   1      42.678  39.827  28.847  1.00  0.00    -0.237 OA
ATOM     92  O   UNL A   1      45.074  39.946  29.399  1.00  0.00    -0.237 OA
ATOM     93  O   UNL A   1      44.316  38.508  27.560  1.00  0.00    -0.744 OA
ENDBRANCH  87  90
ENDBRANCH  60  83
ENDBRANCH  34  35
ENDBRANCH  26  29
ENDBRANCH  24  25
ENDBRANCH   1  24
TORSDOF 16
ENDMDL
