MODEL 1
REMARK VINA RESULT:     -13.5      0.000      0.000
REMARK SMILES O=C(NCCCNC(=O)[C@H](c1c[nH]c2ccc(Cl)cc12)[NH+]1CCN(c2cccc(Cl)c2)CC1)c1ccc(-c2c3nc(c(-c4cccc(S(=O)(=O)[O-])c4F)c4ccc([nH]4)c(-c4cccc(S(=O)(=O)[O-])c4F)c4nc(c(-c5cccc(S(=O)(=O)[O-])c5F)c5ccc2[nH]5)C=C4)C=C3)cc1
REMARK SMILES IDX 4 1 3 2 1 3 2 4 34 6 35 7 96 8 36 9 95 10 37 11 38 12 39 13
REMARK SMILES IDX 89 14 40 15 94 16 88 17 90 18 41 19 93 20 87 21 86 22 42 24
REMARK SMILES IDX 74 25 54 26 73 27 55 28 58 29 72 30 91 31 56 32 57 33 71 35
REMARK SMILES IDX 92 36 59 37 43 38 44 39 52 40 45 41 47 42 53 43 46 44 48 45
REMARK SMILES IDX 49 46 50 47 51 48 75 49 76 50 84 51 77 52 79 53 85 54 78 55
REMARK SMILES IDX 80 56 81 57 82 58 83 59 60 60 61 61 69 62 62 63 64 64 70 65
REMARK SMILES IDX 63 66 65 67 66 68 67 69 68 70 5 71 6 72 7 73 8 74 9 76 10 77
REMARK SMILES IDX 21 78 22 79 33 80 23 82 32 83 24 84 25 85 26 86 31 87 27 88
REMARK SMILES IDX 29 89 28 90 30 91 11 92 12 93 20 94 13 95 14 96 19 97 15 99
REMARK SMILES IDX 17 100 16 101 18 102
REMARK H PARENT 3 5 90 23 58 34 7 75 21 81 13 98
REMARK Flexibility Score: inf
ROOT
ATOM      1  C   UNL A   1      32.168  30.893  26.862  1.00  0.00     0.118 C 
ENDROOT
BRANCH   1   2
ATOM      2  N   UNL A   1      32.426  32.324  26.977  1.00  0.00    -0.352 N 
ATOM      3  O   UNL A   1      33.204  34.304  27.615  1.00  0.00    -0.269 OA
ATOM      4  C   UNL A   1      33.374  33.083  27.622  1.00  0.00     0.251 C 
ATOM      5  H   UNL A   1      31.773  32.870  26.481  1.00  0.00     0.163 HD
BRANCH   4   6
ATOM      6  C   UNL A   1      34.553  32.523  28.339  1.00  0.00     0.039 A 
ATOM      7  C   UNL A   1      34.469  31.501  29.279  1.00  0.00     0.014 A 
ATOM      8  C   UNL A   1      35.831  32.985  27.981  1.00  0.00     0.014 A 
ATOM      9  C   UNL A   1      35.601  31.067  29.970  1.00  0.00     0.010 A 
ATOM     10  C   UNL A   1      36.985  32.460  28.585  1.00  0.00     0.010 A 
ATOM     11  C   UNL A   1      36.879  31.523  29.618  1.00  0.00    -0.014 A 
BRANCH  11  12
ATOM     12  C   UNL A   1      38.074  30.914  30.269  1.00  0.00     0.031 A 
ATOM     13  C   UNL A   1      38.510  31.300  31.657  1.00  0.00     0.074 A 
ATOM     14  C   UNL A   1      38.769  29.976  29.595  1.00  0.00     0.049 A 
ATOM     15  N   UNL A   1      39.401  30.739  32.435  1.00  0.00    -0.248 NA
ATOM     16  C   UNL A   1      37.848  32.458  32.263  1.00  0.00     0.031 C 
ATOM     17  C   UNL A   1      38.485  29.542  28.224  1.00  0.00     0.029 A 
ATOM     18  N   UNL A   1      39.860  29.231  29.959  1.00  0.00    -0.354 N 
ATOM     19  C   UNL A   1      39.372  31.456  33.628  1.00  0.00     0.074 A 
ATOM     20  C   UNL A   1      38.379  32.493  33.475  1.00  0.00     0.031 C 
ATOM     21  C   UNL A   1      39.375  28.607  27.865  1.00  0.00     0.029 A 
ATOM     22  C   UNL A   1      40.324  28.415  28.954  1.00  0.00     0.049 A 
ATOM     23  H   UNL A   1      40.272  29.274  30.853  1.00  0.00     0.167 HD
ATOM     24  C   UNL A   1      40.119  31.289  34.744  1.00  0.00     0.034 A 
ATOM     25  C   UNL A   1      41.413  27.625  28.900  1.00  0.00     0.034 A 
ATOM     26  C   UNL A   1      41.202  30.352  34.845  1.00  0.00     0.049 A 
ATOM     27  C   UNL A   1      42.283  27.509  30.116  1.00  0.00     0.074 A 
ATOM     28  C   UNL A   1      42.048  30.122  35.914  1.00  0.00     0.029 A 
ATOM     29  N   UNL A   1      41.629  29.536  33.808  1.00  0.00    -0.354 N 
ATOM     30  N   UNL A   1      42.133  28.074  31.290  1.00  0.00    -0.248 NA
ATOM     31  C   UNL A   1      43.454  26.629  30.015  1.00  0.00     0.031 C 
ATOM     32  C   UNL A   1      43.018  29.200  35.506  1.00  0.00     0.029 A 
ATOM     33  C   UNL A   1      42.748  28.823  34.198  1.00  0.00     0.049 A 
ATOM     34  H   UNL A   1      41.198  29.471  32.925  1.00  0.00     0.167 HD
ATOM     35  C   UNL A   1      43.171  27.597  32.079  1.00  0.00     0.074 A 
ATOM     36  C   UNL A   1      43.937  26.686  31.251  1.00  0.00     0.031 C 
ATOM     37  C   UNL A   1      43.468  27.891  33.369  1.00  0.00     0.034 A 
BRANCH  24  38
ATOM     38  C   UNL A   1      39.801  32.166  35.928  1.00  0.00     0.023 A 
ATOM     39  C   UNL A   1      40.537  33.353  36.129  1.00  0.00     0.012 A 
ATOM     40  C   UNL A   1      38.775  31.830  36.832  1.00  0.00     0.148 A 
ATOM     41  C   UNL A   1      40.275  34.177  37.223  1.00  0.00     0.002 A 
ATOM     42  C   UNL A   1      38.500  32.672  37.906  1.00  0.00     0.091 A 
ATOM     43  F   UNL A   1      38.106  30.684  36.644  1.00  0.00    -0.205 F 
ATOM     44  C   UNL A   1      39.254  33.840  38.107  1.00  0.00     0.022 A 
BRANCH  42  45
ATOM     45  S   UNL A   1      37.174  32.347  39.074  1.00  0.00     0.127 S 
ATOM     46  O   UNL A   1      37.524  33.243  40.174  1.00  0.00    -0.237 OA
ATOM     47  O   UNL A   1      35.988  32.746  38.316  1.00  0.00    -0.237 OA
ATOM     48  O   UNL A   1      37.249  30.923  39.375  1.00  0.00    -0.744 OA
ENDBRANCH  42  45
ENDBRANCH  24  38
BRANCH  25  49
ATOM     49  C   UNL A   1      41.703  26.882  27.643  1.00  0.00     0.023 A 
ATOM     50  C   UNL A   1      42.295  27.548  26.555  1.00  0.00     0.012 A 
ATOM     51  C   UNL A   1      41.486  25.490  27.564  1.00  0.00     0.148 A 
ATOM     52  C   UNL A   1      42.659  26.842  25.407  1.00  0.00     0.002 A 
ATOM     53  C   UNL A   1      41.906  24.785  26.445  1.00  0.00     0.091 A 
ATOM     54  F   UNL A   1      40.907  24.878  28.608  1.00  0.00    -0.205 F 
ATOM     55  C   UNL A   1      42.481  25.461  25.358  1.00  0.00     0.022 A 
BRANCH  53  56
ATOM     56  S   UNL A   1      41.858  22.991  26.362  1.00  0.00     0.127 S 
ATOM     57  O   UNL A   1      40.423  22.729  26.376  1.00  0.00    -0.237 OA
ATOM     58  O   UNL A   1      42.523  22.728  25.087  1.00  0.00    -0.237 OA
ATOM     59  O   UNL A   1      42.598  22.524  27.530  1.00  0.00    -0.744 OA
ENDBRANCH  53  56
ENDBRANCH  25  49
BRANCH  37  60
ATOM     60  C   UNL A   1      44.651  27.199  33.989  1.00  0.00     0.023 A 
ATOM     61  C   UNL A   1      45.932  27.775  33.894  1.00  0.00     0.012 A 
ATOM     62  C   UNL A   1      44.465  26.033  34.757  1.00  0.00     0.148 A 
ATOM     63  C   UNL A   1      47.017  27.188  34.542  1.00  0.00     0.002 A 
ATOM     64  C   UNL A   1      45.541  25.483  35.440  1.00  0.00     0.091 A 
ATOM     65  F   UNL A   1      43.239  25.491  34.812  1.00  0.00    -0.205 F 
ATOM     66  C   UNL A   1      46.819  26.053  35.326  1.00  0.00     0.022 A 
BRANCH  64  67
ATOM     67  S   UNL A   1      45.349  24.087  36.554  1.00  0.00     0.127 S 
ATOM     68  O   UNL A   1      46.716  23.915  37.051  1.00  0.00    -0.237 OA
ATOM     69  O   UNL A   1      44.405  24.613  37.548  1.00  0.00    -0.237 OA
ATOM     70  O   UNL A   1      44.833  22.998  35.751  1.00  0.00    -0.744 OA
ENDBRANCH  64  67
ENDBRANCH  37  60
ENDBRANCH  11  12
ENDBRANCH   4   6
ENDBRANCH   1   2
BRANCH   1  71
ATOM     71  C   UNL A   1      33.272  30.139  26.137  1.00  0.00     0.042 C 
BRANCH  71  72
ATOM     72  C   UNL A   1      33.257  28.642  26.390  1.00  0.00     0.118 C 
BRANCH  72  73
ATOM     73  N   UNL A   1      31.954  28.014  26.411  1.00  0.00    -0.351 N 
ATOM     74  C   UNL A   1      31.560  26.906  25.695  1.00  0.00     0.283 C 
ATOM     75  H   UNL A   1      31.278  28.422  26.999  1.00  0.00     0.163 HD
ATOM     76  O   UNL A   1      30.756  26.166  26.273  1.00  0.00    -0.268 OA
BRANCH  74  77
ATOM     77  C   UNL A   1      32.005  26.703  24.203  1.00  0.00     0.307 C 
BRANCH  77  78
ATOM     78  N   UNL A   1      31.508  25.520  23.491  1.00  0.00    -0.318 N 
ATOM     79  C   UNL A   1      32.324  25.003  22.405  1.00  0.00     0.284 C 
ATOM     80  C   UNL A   1      30.629  24.531  24.072  1.00  0.00     0.284 C 
ATOM     81  H   UNL A   1      30.763  26.121  23.139  1.00  0.00     0.349 HD
ATOM     82  C   UNL A   1      33.221  23.861  22.877  1.00  0.00     0.178 C 
ATOM     83  C   UNL A   1      31.202  23.098  24.268  1.00  0.00     0.178 C 
ATOM     84  N   UNL A   1      32.481  22.797  23.582  1.00  0.00    -0.360 N 
BRANCH  84  85
ATOM     85  C   UNL A   1      33.190  21.676  24.029  1.00  0.00     0.038 A 
ATOM     86  C   UNL A   1      34.492  21.774  24.546  1.00  0.00     0.026 A 
ATOM     87  C   UNL A   1      32.644  20.389  23.959  1.00  0.00     0.046 A 
ATOM     88  C   UNL A   1      35.224  20.642  24.937  1.00  0.00     0.004 A 
ATOM     89  C   UNL A   1      33.374  19.262  24.328  1.00  0.00     0.043 A 
ATOM     90  C   UNL A   1      34.666  19.375  24.813  1.00  0.00     0.020 A 
ATOM     91  Cl  UNL A   1      32.627  17.735  24.149  1.00  0.00    -0.084 Cl
ENDBRANCH  84  85
ENDBRANCH  77  78
BRANCH  77  92
ATOM     92  C   UNL A   1      31.548  27.890  23.358  1.00  0.00     0.044 A 
ATOM     93  C   UNL A   1      32.379  28.763  22.670  1.00  0.00     0.094 A 
ATOM     94  C   UNL A   1      30.206  28.342  23.115  1.00  0.00     0.011 A 
ATOM     95  N   UNL A   1      31.614  29.684  22.020  1.00  0.00    -0.361 N 
ATOM     96  C   UNL A   1      30.283  29.457  22.273  1.00  0.00     0.046 A 
ATOM     97  C   UNL A   1      28.926  27.912  23.529  1.00  0.00     0.031 A 
ATOM     98  H   UNL A   1      31.964  30.406  21.451  1.00  0.00     0.166 HD
ATOM     99  C   UNL A   1      29.160  30.156  21.817  1.00  0.00     0.028 A 
ATOM    100  C   UNL A   1      27.796  28.606  23.081  1.00  0.00     0.041 A 
ATOM    101  C   UNL A   1      27.906  29.708  22.237  1.00  0.00     0.022 A 
ATOM    102  Cl  UNL A   1      26.231  28.086  23.583  1.00  0.00    -0.084 Cl
ENDBRANCH  77  92
ENDBRANCH  74  77
ENDBRANCH  72  73
ENDBRANCH  71  72
ENDBRANCH   1  71
TORSDOF 16
ENDMDL
MODEL 2
REMARK VINA RESULT:     -13.5      1.274      1.659
REMARK SMILES O=C(NCCCNC(=O)[C@H](c1c[nH]c2ccc(Cl)cc12)[NH+]1CCN(c2cccc(Cl)c2)CC1)c1ccc(-c2c3nc(c(-c4cccc(S(=O)(=O)[O-])c4F)c4ccc([nH]4)c(-c4cccc(S(=O)(=O)[O-])c4F)c4nc(c(-c5cccc(S(=O)(=O)[O-])c5F)c5ccc2[nH]5)C=C4)C=C3)cc1
REMARK SMILES IDX 4 1 3 2 1 3 2 4 34 6 35 7 96 8 36 9 95 10 37 11 38 12 39 13
REMARK SMILES IDX 89 14 40 15 94 16 88 17 90 18 41 19 93 20 87 21 86 22 42 24
REMARK SMILES IDX 74 25 54 26 73 27 55 28 58 29 72 30 91 31 56 32 57 33 71 35
REMARK SMILES IDX 92 36 59 37 43 38 44 39 52 40 45 41 47 42 53 43 46 44 48 45
REMARK SMILES IDX 49 46 50 47 51 48 75 49 76 50 84 51 77 52 79 53 85 54 78 55
REMARK SMILES IDX 80 56 81 57 82 58 83 59 60 60 61 61 69 62 62 63 64 64 70 65
REMARK SMILES IDX 63 66 65 67 66 68 67 69 68 70 5 71 6 72 7 73 8 74 9 76 10 77
REMARK SMILES IDX 21 78 22 79 33 80 23 82 32 83 24 84 25 85 26 86 31 87 27 88
REMARK SMILES IDX 29 89 28 90 30 91 11 92 12 93 20 94 13 95 14 96 19 97 15 99
REMARK SMILES IDX 17 100 16 101 18 102
REMARK H PARENT 3 5 90 23 58 34 7 75 21 81 13 98
REMARK Flexibility Score: inf
ROOT
ATOM      1  C   UNL A   1      31.967  31.008  26.936  1.00  0.00     0.118 C 
ENDROOT
BRANCH   1   2
ATOM      2  N   UNL A   1      32.283  32.431  26.981  1.00  0.00    -0.352 N 
ATOM      3  O   UNL A   1      33.187  34.399  27.476  1.00  0.00    -0.269 OA
ATOM      4  C   UNL A   1      33.316  33.173  27.505  1.00  0.00     0.251 C 
ATOM      5  H   UNL A   1      31.603  32.986  26.535  1.00  0.00     0.163 HD
BRANCH   4   6
ATOM      6  C   UNL A   1      34.541  32.590  28.120  1.00  0.00     0.039 A 
ATOM      7  C   UNL A   1      35.775  33.233  28.139  1.00  0.00     0.014 A 
ATOM      8  C   UNL A   1      34.426  31.365  28.800  1.00  0.00     0.014 A 
ATOM      9  C   UNL A   1      36.902  32.604  28.666  1.00  0.00     0.010 A 
ATOM     10  C   UNL A   1      35.533  30.789  29.442  1.00  0.00     0.010 A 
ATOM     11  C   UNL A   1      36.796  31.383  29.347  1.00  0.00    -0.014 A 
BRANCH  11  12
ATOM     12  C   UNL A   1      37.995  30.826  30.036  1.00  0.00     0.031 A 
ATOM     13  C   UNL A   1      38.405  31.276  31.412  1.00  0.00     0.074 A 
ATOM     14  C   UNL A   1      38.716  29.877  29.408  1.00  0.00     0.049 A 
ATOM     15  N   UNL A   1      39.298  30.765  32.223  1.00  0.00    -0.248 NA
ATOM     16  C   UNL A   1      37.712  32.442  31.964  1.00  0.00     0.031 C 
ATOM     17  C   UNL A   1      38.459  29.383  28.052  1.00  0.00     0.029 A 
ATOM     18  N   UNL A   1      39.818  29.169  29.814  1.00  0.00    -0.354 N 
ATOM     19  C   UNL A   1      39.239  31.528  33.385  1.00  0.00     0.074 A 
ATOM     20  C   UNL A   1      38.227  32.537  33.179  1.00  0.00     0.031 C 
ATOM     21  C   UNL A   1      39.372  28.453  27.741  1.00  0.00     0.029 A 
ATOM     22  C   UNL A   1      40.311  28.324  28.848  1.00  0.00     0.049 A 
ATOM     23  H   UNL A   1      40.218  29.257  30.710  1.00  0.00     0.167 HD
ATOM     24  C   UNL A   1      39.976  31.421  34.516  1.00  0.00     0.034 A 
ATOM     25  C   UNL A   1      41.417  27.556  28.838  1.00  0.00     0.034 A 
ATOM     26  C   UNL A   1      41.076  30.512  34.666  1.00  0.00     0.049 A 
ATOM     27  C   UNL A   1      42.274  27.506  30.068  1.00  0.00     0.074 A 
ATOM     28  C   UNL A   1      41.914  30.341  35.753  1.00  0.00     0.029 A 
ATOM     29  N   UNL A   1      41.532  29.664  33.668  1.00  0.00    -0.354 N 
ATOM     30  N   UNL A   1      42.098  28.114  31.216  1.00  0.00    -0.248 NA
ATOM     31  C   UNL A   1      43.463  26.648  30.016  1.00  0.00     0.031 C 
ATOM     32  C   UNL A   1      42.907  29.424  35.394  1.00  0.00     0.029 A 
ATOM     33  C   UNL A   1      42.661  28.991  34.099  1.00  0.00     0.049 A 
ATOM     34  H   UNL A   1      41.114  29.555  32.784  1.00  0.00     0.167 HD
ATOM     35  C   UNL A   1      43.136  27.690  32.036  1.00  0.00     0.074 A 
ATOM     36  C   UNL A   1      43.930  26.764  31.253  1.00  0.00     0.031 C 
ATOM     37  C   UNL A   1      43.410  28.041  33.316  1.00  0.00     0.034 A 
BRANCH  24  38
ATOM     38  C   UNL A   1      39.625  32.337  35.660  1.00  0.00     0.023 A 
ATOM     39  C   UNL A   1      38.837  31.848  36.722  1.00  0.00     0.012 A 
ATOM     40  C   UNL A   1      40.078  33.671  35.695  1.00  0.00     0.148 A 
ATOM     41  C   UNL A   1      38.483  32.676  37.788  1.00  0.00     0.002 A 
ATOM     42  C   UNL A   1      39.745  34.483  36.775  1.00  0.00     0.091 A 
ATOM     43  F   UNL A   1      40.799  34.129  34.662  1.00  0.00    -0.205 F 
ATOM     44  C   UNL A   1      38.942  33.990  37.817  1.00  0.00     0.022 A 
BRANCH  42  45
ATOM     45  S   UNL A   1      40.326  36.176  36.924  1.00  0.00     0.127 S 
ATOM     46  O   UNL A   1      39.608  36.630  38.113  1.00  0.00    -0.237 OA
ATOM     47  O   UNL A   1      41.765  35.996  37.113  1.00  0.00    -0.237 OA
ATOM     48  O   UNL A   1      39.957  36.836  35.678  1.00  0.00    -0.744 OA
ENDBRANCH  42  45
ENDBRANCH  24  38
BRANCH  25  49
ATOM     49  C   UNL A   1      41.737  26.769  27.615  1.00  0.00     0.023 A 
ATOM     50  C   UNL A   1      42.428  27.377  26.552  1.00  0.00     0.012 A 
ATOM     51  C   UNL A   1      41.448  25.391  27.550  1.00  0.00     0.148 A 
ATOM     52  C   UNL A   1      42.819  26.627  25.441  1.00  0.00     0.002 A 
ATOM     53  C   UNL A   1      41.893  24.638  26.472  1.00  0.00     0.091 A 
ATOM     54  F   UNL A   1      40.776  24.835  28.570  1.00  0.00    -0.205 F 
ATOM     55  C   UNL A   1      42.567  25.257  25.408  1.00  0.00     0.022 A 
BRANCH  53  56
ATOM     56  S   UNL A   1      41.749  22.848  26.422  1.00  0.00     0.127 S 
ATOM     57  O   UNL A   1      42.428  22.528  25.170  1.00  0.00    -0.237 OA
ATOM     58  O   UNL A   1      42.466  22.453  27.634  1.00  0.00    -0.237 OA
ATOM     59  O   UNL A   1      40.317  22.567  26.455  1.00  0.00    -0.744 OA
ENDBRANCH  53  56
ENDBRANCH  25  49
BRANCH  37  60
ATOM     60  C   UNL A   1      44.600  27.400  33.977  1.00  0.00     0.023 A 
ATOM     61  C   UNL A   1      45.857  28.029  33.926  1.00  0.00     0.012 A 
ATOM     62  C   UNL A   1      44.436  26.226  34.739  1.00  0.00     0.148 A 
ATOM     63  C   UNL A   1      46.943  27.488  34.611  1.00  0.00     0.002 A 
ATOM     64  C   UNL A   1      45.511  25.722  35.459  1.00  0.00     0.091 A 
ATOM     65  F   UNL A   1      43.233  25.634  34.752  1.00  0.00    -0.205 F 
ATOM     66  C   UNL A   1      46.766  26.345  35.388  1.00  0.00     0.022 A 
BRANCH  64  67
ATOM     67  S   UNL A   1      45.339  24.318  36.567  1.00  0.00     0.127 S 
ATOM     68  O   UNL A   1      44.369  24.827  37.540  1.00  0.00    -0.237 OA
ATOM     69  O   UNL A   1      44.812  23.281  35.672  1.00  0.00    -0.237 OA
ATOM     70  O   UNL A   1      46.664  24.049  37.086  1.00  0.00    -0.744 OA
ENDBRANCH  64  67
ENDBRANCH  37  60
ENDBRANCH  11  12
ENDBRANCH   4   6
ENDBRANCH   1   2
BRANCH   1  71
ATOM     71  C   UNL A   1      32.678  30.269  25.813  1.00  0.00     0.042 C 
BRANCH  71  72
ATOM     72  C   UNL A   1      32.942  28.805  26.116  1.00  0.00     0.118 C 
BRANCH  72  73
ATOM     73  N   UNL A   1      31.790  27.930  26.078  1.00  0.00    -0.351 N 
ATOM     74  C   UNL A   1      31.625  26.817  25.285  1.00  0.00     0.283 C 
ATOM     75  H   UNL A   1      31.047  28.154  26.683  1.00  0.00     0.163 HD
ATOM     76  O   UNL A   1      30.985  25.894  25.801  1.00  0.00    -0.268 OA
BRANCH  74  77
ATOM     77  C   UNL A   1      32.101  26.809  23.788  1.00  0.00     0.307 C 
BRANCH  77  78
ATOM     78  N   UNL A   1      31.757  25.646  22.963  1.00  0.00    -0.318 N 
ATOM     79  C   UNL A   1      32.786  25.128  22.077  1.00  0.00     0.284 C 
ATOM     80  C   UNL A   1      30.754  24.666  23.315  1.00  0.00     0.284 C 
ATOM     81  H   UNL A   1      31.119  26.266  22.463  1.00  0.00     0.349 HD
ATOM     82  C   UNL A   1      33.537  23.962  22.718  1.00  0.00     0.178 C 
ATOM     83  C   UNL A   1      31.246  23.220  23.609  1.00  0.00     0.178 C 
ATOM     84  N   UNL A   1      32.640  22.903  23.220  1.00  0.00    -0.360 N 
BRANCH  84  85
ATOM     85  C   UNL A   1      33.214  21.763  23.795  1.00  0.00     0.038 A 
ATOM     86  C   UNL A   1      34.498  21.778  24.363  1.00  0.00     0.026 A 
ATOM     87  C   UNL A   1      32.542  20.534  23.809  1.00  0.00     0.046 A 
ATOM     88  C   UNL A   1      35.095  20.620  24.884  1.00  0.00     0.004 A 
ATOM     89  C   UNL A   1      33.139  19.379  24.307  1.00  0.00     0.043 A 
ATOM     90  C   UNL A   1      34.416  19.407  24.842  1.00  0.00     0.020 A 
ATOM     91  Cl  UNL A   1      32.248  17.922  24.223  1.00  0.00    -0.084 Cl
ENDBRANCH  84  85
ENDBRANCH  77  78
BRANCH  77  92
ATOM     92  C   UNL A   1      31.507  28.004  23.047  1.00  0.00     0.044 A 
ATOM     93  C   UNL A   1      32.225  28.952  22.331  1.00  0.00     0.094 A 
ATOM     94  C   UNL A   1      30.127  28.392  22.948  1.00  0.00     0.011 A 
ATOM     95  N   UNL A   1      31.357  29.857  21.799  1.00  0.00    -0.361 N 
ATOM     96  C   UNL A   1      30.069  29.546  22.159  1.00  0.00     0.046 A 
ATOM     97  C   UNL A   1      28.915  27.873  23.454  1.00  0.00     0.031 A 
ATOM     98  H   UNL A   1      31.616  30.623  21.237  1.00  0.00     0.166 HD
ATOM     99  C   UNL A   1      28.874  30.201  21.841  1.00  0.00     0.028 A 
ATOM    100  C   UNL A   1      27.713  28.522  23.144  1.00  0.00     0.041 A 
ATOM    101  C   UNL A   1      27.689  29.665  22.349  1.00  0.00     0.022 A 
ATOM    102  Cl  UNL A   1      26.230  27.895  23.758  1.00  0.00    -0.084 Cl
ENDBRANCH  77  92
ENDBRANCH  74  77
ENDBRANCH  72  73
ENDBRANCH  71  72
ENDBRANCH   1  71
TORSDOF 16
ENDMDL
MODEL 3
REMARK VINA RESULT:     -13.3      2.229      2.934
REMARK SMILES O=C(NCCCNC(=O)[C@H](c1c[nH]c2ccc(Cl)cc12)[NH+]1CCN(c2cccc(Cl)c2)CC1)c1ccc(-c2c3nc(c(-c4cccc(S(=O)(=O)[O-])c4F)c4ccc([nH]4)c(-c4cccc(S(=O)(=O)[O-])c4F)c4nc(c(-c5cccc(S(=O)(=O)[O-])c5F)c5ccc2[nH]5)C=C4)C=C3)cc1
REMARK SMILES IDX 4 1 3 2 1 3 2 4 34 6 35 7 96 8 36 9 95 10 37 11 38 12 39 13
REMARK SMILES IDX 89 14 40 15 94 16 88 17 90 18 41 19 93 20 87 21 86 22 42 24
REMARK SMILES IDX 74 25 54 26 73 27 55 28 58 29 72 30 91 31 56 32 57 33 71 35
REMARK SMILES IDX 92 36 59 37 43 38 44 39 52 40 45 41 47 42 53 43 46 44 48 45
REMARK SMILES IDX 49 46 50 47 51 48 75 49 76 50 84 51 77 52 79 53 85 54 78 55
REMARK SMILES IDX 80 56 81 57 82 58 83 59 60 60 61 61 69 62 62 63 64 64 70 65
REMARK SMILES IDX 63 66 65 67 66 68 67 69 68 70 5 71 6 72 7 73 8 74 9 76 10 77
REMARK SMILES IDX 21 78 22 79 33 80 23 82 32 83 24 84 25 85 26 86 31 87 27 88
REMARK SMILES IDX 29 89 28 90 30 91 11 92 12 93 20 94 13 95 14 96 19 97 15 99
REMARK SMILES IDX 17 100 16 101 18 102
REMARK H PARENT 3 5 90 23 58 34 7 75 21 81 13 98
REMARK Flexibility Score: inf
ROOT
ATOM      1  C   UNL A   1      33.655  29.661  26.393  1.00  0.00     0.118 C 
ENDROOT
BRANCH   1   2
ATOM      2  N   UNL A   1      33.624  30.890  27.177  1.00  0.00    -0.352 N 
ATOM      3  O   UNL A   1      34.039  32.466  28.686  1.00  0.00    -0.269 OA
ATOM      4  C   UNL A   1      34.457  31.458  28.113  1.00  0.00     0.251 C 
ATOM      5  H   UNL A   1      32.825  31.437  26.996  1.00  0.00     0.163 HD
BRANCH   4   6
ATOM      6  C   UNL A   1      35.794  30.917  28.486  1.00  0.00     0.039 A 
ATOM      7  C   UNL A   1      36.996  31.466  28.051  1.00  0.00     0.014 A 
ATOM      8  C   UNL A   1      35.848  29.852  29.401  1.00  0.00     0.014 A 
ATOM      9  C   UNL A   1      38.214  30.870  28.376  1.00  0.00     0.010 A 
ATOM     10  C   UNL A   1      37.079  29.331  29.830  1.00  0.00     0.010 A 
ATOM     11  C   UNL A   1      38.278  29.809  29.289  1.00  0.00    -0.014 A 
BRANCH  11  12
ATOM     12  C   UNL A   1      39.610  29.309  29.734  1.00  0.00     0.031 A 
ATOM     13  C   UNL A   1      40.387  29.979  30.834  1.00  0.00     0.074 A 
ATOM     14  C   UNL A   1      40.118  28.211  29.140  1.00  0.00     0.049 A 
ATOM     15  N   UNL A   1      41.458  29.568  31.466  1.00  0.00    -0.248 NA
ATOM     16  C   UNL A   1      39.889  31.274  31.306  1.00  0.00     0.031 C 
ATOM     17  C   UNL A   1      39.493  27.492  28.026  1.00  0.00     0.029 A 
ATOM     18  N   UNL A   1      41.278  27.518  29.373  1.00  0.00    -0.354 N 
ATOM     19  C   UNL A   1      41.730  30.538  32.427  1.00  0.00     0.074 A 
ATOM     20  C   UNL A   1      40.717  31.558  32.298  1.00  0.00     0.031 C 
ATOM     21  C   UNL A   1      40.272  26.459  27.677  1.00  0.00     0.029 A 
ATOM     22  C   UNL A   1      41.476  26.475  28.499  1.00  0.00     0.049 A 
ATOM     23  H   UNL A   1      41.907  27.744  30.096  1.00  0.00     0.167 HD
ATOM     24  C   UNL A   1      42.746  30.594  33.321  1.00  0.00     0.034 A 
ATOM     25  C   UNL A   1      42.524  25.644  28.351  1.00  0.00     0.034 A 
ATOM     26  C   UNL A   1      43.830  29.656  33.353  1.00  0.00     0.049 A 
ATOM     27  C   UNL A   1      43.683  25.766  29.296  1.00  0.00     0.074 A 
ATOM     28  C   UNL A   1      44.930  29.634  34.192  1.00  0.00     0.029 A 
ATOM     29  N   UNL A   1      43.985  28.606  32.460  1.00  0.00    -0.354 N 
ATOM     30  N   UNL A   1      43.836  26.589  30.305  1.00  0.00    -0.248 NA
ATOM     31  C   UNL A   1      44.800  24.833  29.103  1.00  0.00     0.031 C 
ATOM     32  C   UNL A   1      45.773  28.600  33.773  1.00  0.00     0.029 A 
ATOM     33  C   UNL A   1      45.177  27.949  32.703  1.00  0.00     0.049 A 
ATOM     34  H   UNL A   1      43.339  28.363  31.757  1.00  0.00     0.167 HD
ATOM     35  C   UNL A   1      45.051  26.256  30.889  1.00  0.00     0.074 A 
ATOM     36  C   UNL A   1      45.588  25.146  30.125  1.00  0.00     0.031 C 
ATOM     37  C   UNL A   1      45.669  26.821  31.955  1.00  0.00     0.034 A 
BRANCH  24  38
ATOM     38  C   UNL A   1      42.734  31.731  34.311  1.00  0.00     0.023 A 
ATOM     39  C   UNL A   1      43.345  32.955  33.967  1.00  0.00     0.012 A 
ATOM     40  C   UNL A   1      42.115  31.599  35.569  1.00  0.00     0.148 A 
ATOM     41  C   UNL A   1      43.363  34.020  34.867  1.00  0.00     0.002 A 
ATOM     42  C   UNL A   1      42.112  32.675  36.451  1.00  0.00     0.091 A 
ATOM     43  F   UNL A   1      41.567  30.419  35.892  1.00  0.00    -0.205 F 
ATOM     44  C   UNL A   1      42.742  33.882  36.106  1.00  0.00     0.022 A 
BRANCH  42  45
ATOM     45  S   UNL A   1      41.300  32.609  38.052  1.00  0.00     0.127 S 
ATOM     46  O   UNL A   1      42.083  31.584  38.738  1.00  0.00    -0.237 OA
ATOM     47  O   UNL A   1      41.498  33.968  38.557  1.00  0.00    -0.237 OA
ATOM     48  O   UNL A   1      39.910  32.261  37.781  1.00  0.00    -0.744 OA
ENDBRANCH  42  45
ENDBRANCH  24  38
BRANCH  25  49
ATOM     49  C   UNL A   1      42.487  24.622  27.268  1.00  0.00     0.023 A 
ATOM     50  C   UNL A   1      43.056  24.908  26.015  1.00  0.00     0.012 A 
ATOM     51  C   UNL A   1      41.980  23.329  27.517  1.00  0.00     0.148 A 
ATOM     52  C   UNL A   1      43.113  23.927  25.023  1.00  0.00     0.002 A 
ATOM     53  C   UNL A   1      42.096  22.341  26.549  1.00  0.00     0.091 A 
ATOM     54  F   UNL A   1      41.430  23.083  28.716  1.00  0.00    -0.205 F 
ATOM     55  C   UNL A   1      42.649  22.641  25.295  1.00  0.00     0.022 A 
BRANCH  53  56
ATOM     56  S   UNL A   1      41.669  20.626  26.869  1.00  0.00     0.127 S 
ATOM     57  O   UNL A   1      40.256  20.728  27.218  1.00  0.00    -0.237 OA
ATOM     58  O   UNL A   1      41.944  19.999  25.576  1.00  0.00    -0.237 OA
ATOM     59  O   UNL A   1      42.557  20.193  27.943  1.00  0.00    -0.744 OA
ENDBRANCH  53  56
ENDBRANCH  25  49
BRANCH  37  60
ATOM     60  C   UNL A   1      46.983  26.233  32.392  1.00  0.00     0.023 A 
ATOM     61  C   UNL A   1      48.190  26.771  31.908  1.00  0.00     0.012 A 
ATOM     62  C   UNL A   1      47.014  25.219  33.369  1.00  0.00     0.148 A 
ATOM     63  C   UNL A   1      49.412  26.293  32.377  1.00  0.00     0.002 A 
ATOM     64  C   UNL A   1      48.234  24.783  33.868  1.00  0.00     0.091 A 
ATOM     65  F   UNL A   1      45.850  24.708  33.797  1.00  0.00    -0.205 F 
ATOM     66  C   UNL A   1      49.433  25.311  33.366  1.00  0.00     0.022 A 
BRANCH  64  67
ATOM     67  S   UNL A   1      48.344  23.602  35.216  1.00  0.00     0.127 S 
ATOM     68  O   UNL A   1      47.586  24.284  36.269  1.00  0.00    -0.237 OA
ATOM     69  O   UNL A   1      47.671  22.426  34.652  1.00  0.00    -0.237 OA
ATOM     70  O   UNL A   1      49.756  23.420  35.480  1.00  0.00    -0.744 OA
ENDBRANCH  64  67
ENDBRANCH  37  60
ENDBRANCH  11  12
ENDBRANCH   4   6
ENDBRANCH   1   2
BRANCH   1  71
ATOM     71  C   UNL A   1      33.338  28.417  27.209  1.00  0.00     0.042 C 
BRANCH  71  72
ATOM     72  C   UNL A   1      31.854  28.208  27.450  1.00  0.00     0.118 C 
BRANCH  72  73
ATOM     73  N   UNL A   1      31.346  26.881  27.173  1.00  0.00    -0.351 N 
ATOM     74  C   UNL A   1      31.521  26.154  26.017  1.00  0.00     0.283 C 
ATOM     75  H   UNL A   1      30.820  26.454  27.887  1.00  0.00     0.163 HD
ATOM     76  O   UNL A   1      31.623  24.933  26.175  1.00  0.00    -0.268 OA
BRANCH  74  77
ATOM     77  C   UNL A   1      31.446  26.842  24.607  1.00  0.00     0.307 C 
BRANCH  77  78
ATOM     78  N   UNL A   1      32.077  26.157  23.473  1.00  0.00    -0.318 N 
ATOM     79  C   UNL A   1      33.522  26.258  23.351  1.00  0.00     0.284 C 
ATOM     80  C   UNL A   1      31.524  24.996  22.814  1.00  0.00     0.284 C 
ATOM     81  H   UNL A   1      31.609  26.842  22.879  1.00  0.00     0.349 HD
ATOM     82  C   UNL A   1      34.218  25.046  23.969  1.00  0.00     0.178 C 
ATOM     83  C   UNL A   1      32.316  23.663  22.939  1.00  0.00     0.178 C 
ATOM     84  N   UNL A   1      33.698  23.762  23.464  1.00  0.00    -0.360 N 
BRANCH  84  85
ATOM     85  C   UNL A   1      34.285  22.578  23.927  1.00  0.00     0.038 A 
ATOM     86  C   UNL A   1      33.526  21.432  24.216  1.00  0.00     0.026 A 
ATOM     87  C   UNL A   1      35.664  22.483  24.151  1.00  0.00     0.046 A 
ATOM     88  C   UNL A   1      34.108  20.266  24.737  1.00  0.00     0.004 A 
ATOM     89  C   UNL A   1      36.242  21.335  24.686  1.00  0.00     0.043 A 
ATOM     90  C   UNL A   1      35.475  20.222  24.988  1.00  0.00     0.020 A 
ATOM     91  Cl  UNL A   1      37.927  21.350  24.970  1.00  0.00    -0.084 Cl
ENDBRANCH  84  85
ENDBRANCH  77  78
BRANCH  77  92
ATOM     92  C   UNL A   1      29.988  27.025  24.193  1.00  0.00     0.044 A 
ATOM     93  C   UNL A   1      29.003  26.049  24.242  1.00  0.00     0.094 A 
ATOM     94  C   UNL A   1      29.354  28.206  23.673  1.00  0.00     0.011 A 
ATOM     95  N   UNL A   1      27.828  26.583  23.807  1.00  0.00    -0.361 N 
ATOM     96  C   UNL A   1      28.008  27.897  23.449  1.00  0.00     0.046 A 
ATOM     97  C   UNL A   1      29.794  29.512  23.369  1.00  0.00     0.031 A 
ATOM     98  H   UNL A   1      26.973  26.098  23.758  1.00  0.00     0.166 HD
ATOM     99  C   UNL A   1      27.080  28.818  22.951  1.00  0.00     0.028 A 
ATOM    100  C   UNL A   1      28.874  30.441  22.867  1.00  0.00     0.041 A 
ATOM    101  C   UNL A   1      27.538  30.104  22.663  1.00  0.00     0.022 A 
ATOM    102  Cl  UNL A   1      29.403  32.039  22.494  1.00  0.00    -0.084 Cl
ENDBRANCH  77  92
ENDBRANCH  74  77
ENDBRANCH  72  73
ENDBRANCH  71  72
ENDBRANCH   1  71
TORSDOF 16
ENDMDL
