MODEL 1
REMARK VINA RESULT:     -13.3      0.000      0.000
REMARK SMILES O=C(NCCCNC(=O)[C@@]12CN(CC3CC3)C(=O)[C@@H]1CN(c1nc3ccccc3o1)C2)c1ccc(-c2c3nc(c(-c4cccc(S(=O)(=O)[O-])c4F)c4ccc([nH]4)c(-c4cccc(S(=O)(=O)[O-])c4F)c4nc(c(-c5cccc(S(=O)(=O)[O-])c5F)c5ccc2[nH]5)C=C4)C=C3)cc1
REMARK SMILES IDX 4 1 3 2 1 3 2 4 32 6 33 7 94 8 34 9 93 10 35 11 36 12 37 13
REMARK SMILES IDX 87 14 38 15 92 16 86 17 88 18 39 19 91 20 85 21 84 22 40 24
REMARK SMILES IDX 72 25 52 26 71 27 53 28 56 29 70 30 89 31 54 32 55 33 69 35
REMARK SMILES IDX 90 36 57 37 41 38 42 39 50 40 43 41 45 42 51 43 44 44 46 45
REMARK SMILES IDX 47 46 48 47 49 48 73 49 74 50 82 51 75 52 77 53 83 54 76 55
REMARK SMILES IDX 78 56 79 57 80 58 81 59 58 60 59 61 67 62 60 63 62 64 68 65
REMARK SMILES IDX 61 66 63 67 64 68 65 69 66 70 5 71 6 72 7 73 8 74 9 76 10 77
REMARK SMILES IDX 11 78 19 79 31 80 12 81 17 82 20 83 21 84 18 85 13 86 14 87
REMARK SMILES IDX 15 88 16 89 22 90 23 91 30 92 24 93 29 94 25 95 28 96 26 97
REMARK SMILES IDX 27 98
REMARK H PARENT 3 5 88 23 56 34 7 75
REMARK Flexibility Score: inf
ROOT
ATOM      1  C   UNL A   1      33.995  29.011  26.059  1.00  0.00     0.118 C 
ENDROOT
BRANCH   1   2
ATOM      2  N   UNL A   1      33.951  30.343  26.634  1.00  0.00    -0.352 N 
ATOM      3  O   UNL A   1      34.194  31.819  28.301  1.00  0.00    -0.269 OA
ATOM      4  C   UNL A   1      34.645  30.842  27.709  1.00  0.00     0.251 C 
ATOM      5  H   UNL A   1      33.340  30.976  26.192  1.00  0.00     0.163 HD
BRANCH   4   6
ATOM      6  C   UNL A   1      35.916  30.217  28.147  1.00  0.00     0.039 A 
ATOM      7  C   UNL A   1      37.086  30.358  27.395  1.00  0.00     0.014 A 
ATOM      8  C   UNL A   1      35.959  29.550  29.375  1.00  0.00     0.014 A 
ATOM      9  C   UNL A   1      38.260  29.735  27.798  1.00  0.00     0.010 A 
ATOM     10  C   UNL A   1      37.165  29.018  29.834  1.00  0.00     0.010 A 
ATOM     11  C   UNL A   1      38.323  29.096  29.042  1.00  0.00    -0.014 A 
BRANCH  11  12
ATOM     12  C   UNL A   1      39.623  28.601  29.553  1.00  0.00     0.031 A 
ATOM     13  C   UNL A   1      40.338  29.324  30.655  1.00  0.00     0.074 A 
ATOM     14  C   UNL A   1      40.182  27.525  28.966  1.00  0.00     0.049 A 
ATOM     15  N   UNL A   1      41.528  29.105  31.146  1.00  0.00    -0.248 NA
ATOM     16  C   UNL A   1      39.628  30.454  31.276  1.00  0.00     0.031 C 
ATOM     17  C   UNL A   1      39.584  26.761  27.867  1.00  0.00     0.029 A 
ATOM     18  N   UNL A   1      41.386  26.904  29.183  1.00  0.00    -0.354 N 
ATOM     19  C   UNL A   1      41.737  30.098  32.093  1.00  0.00     0.074 A 
ATOM     20  C   UNL A   1      40.549  30.923  32.107  1.00  0.00     0.031 C 
ATOM     21  C   UNL A   1      40.423  25.783  27.502  1.00  0.00     0.029 A 
ATOM     22  C   UNL A   1      41.645  25.894  28.288  1.00  0.00     0.049 A 
ATOM     23  H   UNL A   1      42.002  27.157  29.908  1.00  0.00     0.167 HD
ATOM     24  C   UNL A   1      42.822  30.297  32.879  1.00  0.00     0.034 A 
ATOM     25  C   UNL A   1      42.759  25.168  28.081  1.00  0.00     0.034 A 
ATOM     26  C   UNL A   1      43.990  29.457  32.858  1.00  0.00     0.049 A 
ATOM     27  C   UNL A   1      43.951  25.409  28.957  1.00  0.00     0.074 A 
ATOM     28  C   UNL A   1      45.116  29.529  33.657  1.00  0.00     0.029 A 
ATOM     29  N   UNL A   1      44.192  28.403  31.977  1.00  0.00    -0.354 N 
ATOM     30  N   UNL A   1      44.095  26.286  29.920  1.00  0.00    -0.248 NA
ATOM     31  C   UNL A   1      45.122  24.551  28.742  1.00  0.00     0.031 C 
ATOM     32  C   UNL A   1      46.019  28.551  33.227  1.00  0.00     0.029 A 
ATOM     33  C   UNL A   1      45.432  27.830  32.198  1.00  0.00     0.049 A 
ATOM     34  H   UNL A   1      43.547  28.106  31.294  1.00  0.00     0.167 HD
ATOM     35  C   UNL A   1      45.356  26.061  30.456  1.00  0.00     0.074 A 
ATOM     36  C   UNL A   1      45.935  24.962  29.708  1.00  0.00     0.031 C 
ATOM     37  C   UNL A   1      45.973  26.705  31.476  1.00  0.00     0.034 A 
BRANCH  24  38
ATOM     38  C   UNL A   1      42.797  31.478  33.815  1.00  0.00     0.023 A 
ATOM     39  C   UNL A   1      43.271  32.735  33.386  1.00  0.00     0.012 A 
ATOM     40  C   UNL A   1      42.283  31.346  35.121  1.00  0.00     0.148 A 
ATOM     41  C   UNL A   1      43.286  33.825  34.256  1.00  0.00     0.002 A 
ATOM     42  C   UNL A   1      42.254  32.450  35.966  1.00  0.00     0.091 A 
ATOM     43  F   UNL A   1      41.854  30.141  35.522  1.00  0.00    -0.205 F 
ATOM     44  C   UNL A   1      42.770  33.685  35.541  1.00  0.00     0.022 A 
BRANCH  42  45
ATOM     45  S   UNL A   1      41.535  32.385  37.609  1.00  0.00     0.127 S 
ATOM     46  O   UNL A   1      40.161  31.980  37.313  1.00  0.00    -0.237 OA
ATOM     47  O   UNL A   1      42.346  31.357  38.262  1.00  0.00    -0.237 OA
ATOM     48  O   UNL A   1      41.689  33.721  38.168  1.00  0.00    -0.744 OA
ENDBRANCH  42  45
ENDBRANCH  24  38
BRANCH  25  49
ATOM     49  C   UNL A   1      42.769  24.142  27.002  1.00  0.00     0.023 A 
ATOM     50  C   UNL A   1      43.494  24.382  25.820  1.00  0.00     0.012 A 
ATOM     51  C   UNL A   1      42.142  22.893  27.185  1.00  0.00     0.148 A 
ATOM     52  C   UNL A   1      43.580  23.401  24.831  1.00  0.00     0.002 A 
ATOM     53  C   UNL A   1      42.279  21.901  26.223  1.00  0.00     0.091 A 
ATOM     54  F   UNL A   1      41.460  22.690  28.321  1.00  0.00    -0.205 F 
ATOM     55  C   UNL A   1      42.984  22.159  25.037  1.00  0.00     0.022 A 
BRANCH  53  56
ATOM     56  S   UNL A   1      41.670  20.229  26.463  1.00  0.00     0.127 S 
ATOM     57  O   UNL A   1      42.218  19.898  27.777  1.00  0.00    -0.237 OA
ATOM     58  O   UNL A   1      40.221  20.433  26.432  1.00  0.00    -0.237 OA
ATOM     59  O   UNL A   1      42.195  19.450  25.351  1.00  0.00    -0.744 OA
ENDBRANCH  53  56
ENDBRANCH  25  49
BRANCH  37  60
ATOM     60  C   UNL A   1      47.327  26.207  31.904  1.00  0.00     0.023 A 
ATOM     61  C   UNL A   1      48.495  26.710  31.302  1.00  0.00     0.012 A 
ATOM     62  C   UNL A   1      47.432  25.318  32.993  1.00  0.00     0.148 A 
ATOM     63  C   UNL A   1      49.751  26.323  31.770  1.00  0.00     0.002 A 
ATOM     64  C   UNL A   1      48.684  24.981  33.488  1.00  0.00     0.091 A 
ATOM     65  F   UNL A   1      46.304  24.838  33.535  1.00  0.00    -0.205 F 
ATOM     66  C   UNL A   1      49.845  25.474  32.871  1.00  0.00     0.022 A 
BRANCH  64  67
ATOM     67  S   UNL A   1      48.899  23.983  34.966  1.00  0.00     0.127 S 
ATOM     68  O   UNL A   1      48.096  24.720  35.941  1.00  0.00    -0.237 OA
ATOM     69  O   UNL A   1      48.333  22.698  34.554  1.00  0.00    -0.237 OA
ATOM     70  O   UNL A   1      50.330  23.960  35.234  1.00  0.00    -0.744 OA
ENDBRANCH  64  67
ENDBRANCH  37  60
ENDBRANCH  11  12
ENDBRANCH   4   6
ENDBRANCH   1   2
BRANCH   1  71
ATOM     71  C   UNL A   1      33.390  28.000  27.014  1.00  0.00     0.042 C 
BRANCH  71  72
ATOM     72  C   UNL A   1      31.852  28.051  27.042  1.00  0.00     0.117 C 
BRANCH  72  73
ATOM     73  N   UNL A   1      31.264  26.684  26.988  1.00  0.00    -0.355 N 
ATOM     74  C   UNL A   1      30.747  25.836  25.990  1.00  0.00     0.230 C 
ATOM     75  H   UNL A   1      31.226  26.266  27.878  1.00  0.00     0.163 HD
ATOM     76  O   UNL A   1      29.972  24.977  26.416  1.00  0.00    -0.274 OA
BRANCH  74  77
ATOM     77  C   UNL A   1      31.303  25.838  24.511  1.00  0.00     0.097 C 
ATOM     78  C   UNL A   1      32.486  24.931  25.091  1.00  0.00     0.139 C 
ATOM     79  C   UNL A   1      31.758  25.543  23.034  1.00  0.00     0.117 C 
ATOM     80  C   UNL A   1      31.033  27.289  24.245  1.00  0.00     0.141 C 
ATOM     81  N   UNL A   1      33.637  25.035  24.267  1.00  0.00    -0.341 N 
ATOM     82  C   UNL A   1      33.300  25.586  23.058  1.00  0.00     0.228 C 
ATOM     83  C   UNL A   1      31.287  26.631  22.039  1.00  0.00     0.136 C 
ATOM     84  N   UNL A   1      30.550  27.494  22.904  1.00  0.00    -0.324 N 
ATOM     85  O   UNL A   1      34.055  25.910  22.178  1.00  0.00    -0.274 OA
BRANCH  81  86
ATOM     86  C   UNL A   1      34.931  24.501  24.652  1.00  0.00     0.123 C 
BRANCH  86  87
ATOM     87  C   UNL A   1      35.236  23.132  24.095  1.00  0.00     0.008 C 
ATOM     88  C   UNL A   1      36.582  22.655  23.590  1.00  0.00     0.006 C 
ATOM     89  C   UNL A   1      36.072  22.178  24.918  1.00  0.00     0.006 C 
ENDBRANCH  86  87
ENDBRANCH  81  86
BRANCH  84  90
ATOM     90  C   UNL A   1      30.166  28.750  22.588  1.00  0.00     0.298 A 
ATOM     91  N   UNL A   1      29.734  29.257  21.454  1.00  0.00    -0.193 NA
ATOM     92  O   UNL A   1      30.013  29.583  23.670  1.00  0.00    -0.423 OA
ATOM     93  C   UNL A   1      29.175  30.466  21.829  1.00  0.00     0.111 A 
ATOM     94  C   UNL A   1      29.370  30.670  23.183  1.00  0.00     0.156 A 
ATOM     95  C   UNL A   1      28.463  31.441  21.116  1.00  0.00     0.032 A 
ATOM     96  C   UNL A   1      28.944  31.771  23.912  1.00  0.00     0.049 A 
ATOM     97  C   UNL A   1      27.999  32.572  21.816  1.00  0.00     0.003 A 
ATOM     98  C   UNL A   1      28.241  32.735  23.186  1.00  0.00     0.004 A 
ENDBRANCH  84  90
ENDBRANCH  74  77
ENDBRANCH  72  73
ENDBRANCH  71  72
ENDBRANCH   1  71
TORSDOF 16
ENDMDL
MODEL 2
REMARK VINA RESULT:     -12.9      2.151      7.864
REMARK SMILES O=C(NCCCNC(=O)[C@@]12CN(CC3CC3)C(=O)[C@@H]1CN(c1nc3ccccc3o1)C2)c1ccc(-c2c3nc(c(-c4cccc(S(=O)(=O)[O-])c4F)c4ccc([nH]4)c(-c4cccc(S(=O)(=O)[O-])c4F)c4nc(c(-c5cccc(S(=O)(=O)[O-])c5F)c5ccc2[nH]5)C=C4)C=C3)cc1
REMARK SMILES IDX 4 1 3 2 1 3 2 4 32 6 33 7 94 8 34 9 93 10 35 11 36 12 37 13
REMARK SMILES IDX 87 14 38 15 92 16 86 17 88 18 39 19 91 20 85 21 84 22 40 24
REMARK SMILES IDX 72 25 52 26 71 27 53 28 56 29 70 30 89 31 54 32 55 33 69 35
REMARK SMILES IDX 90 36 57 37 41 38 42 39 50 40 43 41 45 42 51 43 44 44 46 45
REMARK SMILES IDX 47 46 48 47 49 48 73 49 74 50 82 51 75 52 77 53 83 54 76 55
REMARK SMILES IDX 78 56 79 57 80 58 81 59 58 60 59 61 67 62 60 63 62 64 68 65
REMARK SMILES IDX 61 66 63 67 64 68 65 69 66 70 5 71 6 72 7 73 8 74 9 76 10 77
REMARK SMILES IDX 11 78 19 79 31 80 12 81 17 82 20 83 21 84 18 85 13 86 14 87
REMARK SMILES IDX 15 88 16 89 22 90 23 91 30 92 24 93 29 94 25 95 28 96 26 97
REMARK SMILES IDX 27 98
REMARK H PARENT 3 5 88 23 56 34 7 75
REMARK Flexibility Score: inf
ROOT
ATOM      1  C   UNL A   1      32.666  30.023  26.019  1.00  0.00     0.118 C 
ENDROOT
BRANCH   1   2
ATOM      2  N   UNL A   1      32.497  31.440  26.286  1.00  0.00    -0.352 N 
ATOM      3  O   UNL A   1      32.568  33.259  27.590  1.00  0.00    -0.269 OA
ATOM      4  C   UNL A   1      33.114  32.219  27.234  1.00  0.00     0.251 C 
ATOM      5  H   UNL A   1      31.852  31.906  25.707  1.00  0.00     0.163 HD
BRANCH   4   6
ATOM      6  C   UNL A   1      34.416  31.815  27.817  1.00  0.00     0.039 A 
ATOM      7  C   UNL A   1      35.470  32.727  27.929  1.00  0.00     0.014 A 
ATOM      8  C   UNL A   1      34.557  30.526  28.341  1.00  0.00     0.014 A 
ATOM      9  C   UNL A   1      36.697  32.325  28.442  1.00  0.00     0.010 A 
ATOM     10  C   UNL A   1      35.754  30.156  28.957  1.00  0.00     0.010 A 
ATOM     11  C   UNL A   1      36.838  31.048  29.001  1.00  0.00    -0.014 A 
BRANCH  11  12
ATOM     12  C   UNL A   1      38.084  30.691  29.718  1.00  0.00     0.031 A 
ATOM     13  C   UNL A   1      39.073  29.742  29.109  1.00  0.00     0.074 A 
ATOM     14  C   UNL A   1      38.283  31.185  30.955  1.00  0.00     0.049 A 
ATOM     15  N   UNL A   1      40.152  29.230  29.636  1.00  0.00    -0.248 NA
ATOM     16  C   UNL A   1      38.803  29.297  27.732  1.00  0.00     0.031 C 
ATOM     17  C   UNL A   1      37.372  32.096  31.654  1.00  0.00     0.029 A 
ATOM     18  N   UNL A   1      39.292  30.970  31.859  1.00  0.00    -0.354 N 
ATOM     19  C   UNL A   1      40.664  28.360  28.682  1.00  0.00     0.074 A 
ATOM     20  C   UNL A   1      39.774  28.414  27.542  1.00  0.00     0.031 C 
ATOM     21  C   UNL A   1      37.857  32.356  32.875  1.00  0.00     0.029 A 
ATOM     22  C   UNL A   1      39.071  31.576  33.074  1.00  0.00     0.049 A 
ATOM     23  H   UNL A   1      40.095  30.437  31.658  1.00  0.00     0.167 HD
ATOM     24  C   UNL A   1      41.777  27.591  28.754  1.00  0.00     0.034 A 
ATOM     25  C   UNL A   1      39.738  31.477  34.238  1.00  0.00     0.034 A 
ATOM     26  C   UNL A   1      42.656  27.562  29.892  1.00  0.00     0.049 A 
ATOM     27  C   UNL A   1      40.963  30.615  34.298  1.00  0.00     0.074 A 
ATOM     28  C   UNL A   1      43.844  26.870  30.044  1.00  0.00     0.029 A 
ATOM     29  N   UNL A   1      42.431  28.237  31.084  1.00  0.00    -0.354 N 
ATOM     30  N   UNL A   1      41.493  29.878  33.352  1.00  0.00    -0.248 NA
ATOM     31  C   UNL A   1      41.699  30.588  35.568  1.00  0.00     0.031 C 
ATOM     32  C   UNL A   1      44.312  27.088  31.344  1.00  0.00     0.029 A 
ATOM     33  C   UNL A   1      43.446  27.963  31.984  1.00  0.00     0.049 A 
ATOM     34  H   UNL A   1      41.662  28.825  31.264  1.00  0.00     0.167 HD
ATOM     35  C   UNL A   1      42.647  29.331  33.897  1.00  0.00     0.074 A 
ATOM     36  C   UNL A   1      42.738  29.823  35.257  1.00  0.00     0.031 C 
ATOM     37  C   UNL A   1      43.547  28.499  33.319  1.00  0.00     0.034 A 
BRANCH  24  38
ATOM     38  C   UNL A   1      42.094  26.712  27.572  1.00  0.00     0.023 A 
ATOM     39  C   UNL A   1      42.763  27.245  26.450  1.00  0.00     0.012 A 
ATOM     40  C   UNL A   1      41.746  25.347  27.580  1.00  0.00     0.148 A 
ATOM     41  C   UNL A   1      43.029  26.449  25.336  1.00  0.00     0.002 A 
ATOM     42  C   UNL A   1      42.060  24.547  26.487  1.00  0.00     0.091 A 
ATOM     43  F   UNL A   1      41.094  24.858  28.644  1.00  0.00    -0.205 F 
ATOM     44  C   UNL A   1      42.686  25.100  25.358  1.00  0.00     0.022 A 
BRANCH  42  45
ATOM     45  S   UNL A   1      41.730  22.783  26.458  1.00  0.00     0.127 S 
ATOM     46  O   UNL A   1      42.356  22.346  27.705  1.00  0.00    -0.237 OA
ATOM     47  O   UNL A   1      40.268  22.741  26.463  1.00  0.00    -0.237 OA
ATOM     48  O   UNL A   1      42.345  22.280  25.237  1.00  0.00    -0.744 OA
ENDBRANCH  42  45
ENDBRANCH  24  38
BRANCH  25  49
ATOM     49  C   UNL A   1      39.249  32.234  35.424  1.00  0.00     0.023 A 
ATOM     50  C   UNL A   1      38.398  31.604  36.350  1.00  0.00     0.012 A 
ATOM     51  C   UNL A   1      39.702  33.544  35.682  1.00  0.00     0.148 A 
ATOM     52  C   UNL A   1      37.993  32.271  37.506  1.00  0.00     0.002 A 
ATOM     53  C   UNL A   1      39.341  34.181  36.862  1.00  0.00     0.091 A 
ATOM     54  F   UNL A   1      40.514  34.121  34.785  1.00  0.00    -0.205 F 
ATOM     55  C   UNL A   1      38.473  33.553  37.768  1.00  0.00     0.022 A 
BRANCH  53  56
ATOM     56  S   UNL A   1      40.022  35.768  37.352  1.00  0.00     0.127 S 
ATOM     57  O   UNL A   1      39.280  36.045  38.580  1.00  0.00    -0.237 OA
ATOM     58  O   UNL A   1      41.435  35.439  37.546  1.00  0.00    -0.237 OA
ATOM     59  O   UNL A   1      39.759  36.675  36.243  1.00  0.00    -0.744 OA
ENDBRANCH  53  56
ENDBRANCH  25  49
BRANCH  37  60
ATOM     60  C   UNL A   1      44.758  28.108  34.122  1.00  0.00     0.023 A 
ATOM     61  C   UNL A   1      45.891  28.942  34.157  1.00  0.00     0.012 A 
ATOM     62  C   UNL A   1      44.716  26.957  34.935  1.00  0.00     0.148 A 
ATOM     63  C   UNL A   1      46.972  28.628  34.980  1.00  0.00     0.002 A 
ATOM     64  C   UNL A   1      45.771  26.681  35.792  1.00  0.00     0.091 A 
ATOM     65  F   UNL A   1      43.634  26.168  34.867  1.00  0.00    -0.205 F 
ATOM     66  C   UNL A   1      46.905  27.509  35.809  1.00  0.00     0.022 A 
BRANCH  64  67
ATOM     67  S   UNL A   1      45.726  25.326  36.970  1.00  0.00     0.127 S 
ATOM     68  O   UNL A   1      45.702  24.163  36.084  1.00  0.00    -0.237 OA
ATOM     69  O   UNL A   1      46.981  25.511  37.700  1.00  0.00    -0.237 OA
ATOM     70  O   UNL A   1      44.523  25.521  37.767  1.00  0.00    -0.744 OA
ENDBRANCH  64  67
ENDBRANCH  37  60
ENDBRANCH  11  12
ENDBRANCH   4   6
ENDBRANCH   1   2
BRANCH   1  71
ATOM     71  C   UNL A   1      31.796  29.200  26.948  1.00  0.00     0.042 C 
BRANCH  71  72
ATOM     72  C   UNL A   1      32.430  27.847  27.318  1.00  0.00     0.117 C 
BRANCH  72  73
ATOM     73  N   UNL A   1      31.446  26.736  27.192  1.00  0.00    -0.355 N 
ATOM     74  C   UNL A   1      30.706  26.143  26.152  1.00  0.00     0.230 C 
ATOM     75  H   UNL A   1      31.267  26.305  28.059  1.00  0.00     0.163 HD
ATOM     76  O   UNL A   1      29.696  25.548  26.533  1.00  0.00    -0.274 OA
BRANCH  74  77
ATOM     77  C   UNL A   1      31.257  26.046  24.674  1.00  0.00     0.097 C 
ATOM     78  C   UNL A   1      32.437  25.172  25.307  1.00  0.00     0.139 C 
ATOM     79  C   UNL A   1      31.705  25.655  23.217  1.00  0.00     0.117 C 
ATOM     80  C   UNL A   1      30.994  27.479  24.317  1.00  0.00     0.141 C 
ATOM     81  N   UNL A   1      33.586  25.216  24.475  1.00  0.00    -0.341 N 
ATOM     82  C   UNL A   1      33.247  25.691  23.234  1.00  0.00     0.228 C 
ATOM     83  C   UNL A   1      31.236  26.680  22.157  1.00  0.00     0.136 C 
ATOM     84  N   UNL A   1      30.507  27.600  22.967  1.00  0.00    -0.324 N 
ATOM     85  O   UNL A   1      34.000  25.953  22.332  1.00  0.00    -0.274 OA
BRANCH  81  86
ATOM     86  C   UNL A   1      34.878  24.700  24.889  1.00  0.00     0.123 C 
BRANCH  86  87
ATOM     87  C   UNL A   1      35.188  23.311  24.390  1.00  0.00     0.008 C 
ATOM     88  C   UNL A   1      35.920  22.967  23.109  1.00  0.00     0.006 C 
ATOM     89  C   UNL A   1      36.619  22.823  24.429  1.00  0.00     0.006 C 
ENDBRANCH  86  87
ENDBRANCH  81  86
BRANCH  84  90
ATOM     90  C   UNL A   1      30.130  28.836  22.572  1.00  0.00     0.298 A 
ATOM     91  N   UNL A   1      29.607  29.254  21.440  1.00  0.00    -0.193 NA
ATOM     92  O   UNL A   1      30.101  29.767  23.582  1.00  0.00    -0.423 OA
ATOM     93  C   UNL A   1      29.118  30.511  21.751  1.00  0.00     0.111 A 
ATOM     94  C   UNL A   1      29.444  30.828  23.057  1.00  0.00     0.156 A 
ATOM     95  C   UNL A   1      28.368  31.442  21.018  1.00  0.00     0.032 A 
ATOM     96  C   UNL A   1      29.118  32.005  23.717  1.00  0.00     0.049 A 
ATOM     97  C   UNL A   1      28.003  32.647  21.650  1.00  0.00     0.003 A 
ATOM     98  C   UNL A   1      28.376  32.923  22.972  1.00  0.00     0.004 A 
ENDBRANCH  84  90
ENDBRANCH  74  77
ENDBRANCH  72  73
ENDBRANCH  71  72
ENDBRANCH   1  71
TORSDOF 16
ENDMDL
MODEL 3
REMARK VINA RESULT:     -12.9      1.377      1.687
REMARK SMILES O=C(NCCCNC(=O)[C@@]12CN(CC3CC3)C(=O)[C@@H]1CN(c1nc3ccccc3o1)C2)c1ccc(-c2c3nc(c(-c4cccc(S(=O)(=O)[O-])c4F)c4ccc([nH]4)c(-c4cccc(S(=O)(=O)[O-])c4F)c4nc(c(-c5cccc(S(=O)(=O)[O-])c5F)c5ccc2[nH]5)C=C4)C=C3)cc1
REMARK SMILES IDX 4 1 3 2 1 3 2 4 32 6 33 7 94 8 34 9 93 10 35 11 36 12 37 13
REMARK SMILES IDX 87 14 38 15 92 16 86 17 88 18 39 19 91 20 85 21 84 22 40 24
REMARK SMILES IDX 72 25 52 26 71 27 53 28 56 29 70 30 89 31 54 32 55 33 69 35
REMARK SMILES IDX 90 36 57 37 41 38 42 39 50 40 43 41 45 42 51 43 44 44 46 45
REMARK SMILES IDX 47 46 48 47 49 48 73 49 74 50 82 51 75 52 77 53 83 54 76 55
REMARK SMILES IDX 78 56 79 57 80 58 81 59 58 60 59 61 67 62 60 63 62 64 68 65
REMARK SMILES IDX 61 66 63 67 64 68 65 69 66 70 5 71 6 72 7 73 8 74 9 76 10 77
REMARK SMILES IDX 11 78 19 79 31 80 12 81 17 82 20 83 21 84 18 85 13 86 14 87
REMARK SMILES IDX 15 88 16 89 22 90 23 91 30 92 24 93 29 94 25 95 28 96 26 97
REMARK SMILES IDX 27 98
REMARK H PARENT 3 5 88 23 56 34 7 75
REMARK Flexibility Score: inf
ROOT
ATOM      1  C   UNL A   1      33.870  28.960  26.022  1.00  0.00     0.118 C 
ENDROOT
BRANCH   1   2
ATOM      2  N   UNL A   1      33.813  30.296  26.589  1.00  0.00    -0.352 N 
ATOM      3  O   UNL A   1      34.036  31.783  28.248  1.00  0.00    -0.269 OA
ATOM      4  C   UNL A   1      34.498  30.807  27.665  1.00  0.00     0.251 C 
ATOM      5  H   UNL A   1      33.199  30.920  26.141  1.00  0.00     0.163 HD
BRANCH   4   6
ATOM      6  C   UNL A   1      35.771  30.194  28.113  1.00  0.00     0.039 A 
ATOM      7  C   UNL A   1      36.937  30.314  27.349  1.00  0.00     0.014 A 
ATOM      8  C   UNL A   1      35.822  29.564  29.359  1.00  0.00     0.014 A 
ATOM      9  C   UNL A   1      38.114  29.703  27.762  1.00  0.00     0.010 A 
ATOM     10  C   UNL A   1      37.032  29.046  29.825  1.00  0.00     0.010 A 
ATOM     11  C   UNL A   1      38.185  29.100  29.024  1.00  0.00    -0.014 A 
BRANCH  11  12
ATOM     12  C   UNL A   1      39.489  28.621  29.541  1.00  0.00     0.031 A 
ATOM     13  C   UNL A   1      40.195  29.359  30.638  1.00  0.00     0.074 A 
ATOM     14  C   UNL A   1      40.057  27.545  28.963  1.00  0.00     0.049 A 
ATOM     15  N   UNL A   1      41.386  29.154  31.132  1.00  0.00    -0.248 NA
ATOM     16  C   UNL A   1      39.475  30.488  31.249  1.00  0.00     0.031 C 
ATOM     17  C   UNL A   1      39.468  26.768  27.869  1.00  0.00     0.029 A 
ATOM     18  N   UNL A   1      41.266  26.937  29.186  1.00  0.00    -0.354 N 
ATOM     19  C   UNL A   1      41.585  30.156  32.071  1.00  0.00     0.074 A 
ATOM     20  C   UNL A   1      40.390  30.971  32.077  1.00  0.00     0.031 C 
ATOM     21  C   UNL A   1      40.315  25.794  27.513  1.00  0.00     0.029 A 
ATOM     22  C   UNL A   1      41.535  25.921  28.299  1.00  0.00     0.049 A 
ATOM     23  H   UNL A   1      41.879  27.200  29.910  1.00  0.00     0.167 HD
ATOM     24  C   UNL A   1      42.668  30.371  32.858  1.00  0.00     0.034 A 
ATOM     25  C   UNL A   1      42.655  25.203  28.100  1.00  0.00     0.034 A 
ATOM     26  C   UNL A   1      43.843  29.540  32.845  1.00  0.00     0.049 A 
ATOM     27  C   UNL A   1      43.845  25.462  28.976  1.00  0.00     0.074 A 
ATOM     28  C   UNL A   1      44.967  29.629  33.645  1.00  0.00     0.029 A 
ATOM     29  N   UNL A   1      44.055  28.481  31.973  1.00  0.00    -0.354 N 
ATOM     30  N   UNL A   1      43.980  26.348  29.933  1.00  0.00    -0.248 NA
ATOM     31  C   UNL A   1      45.023  24.612  28.770  1.00  0.00     0.031 C 
ATOM     32  C   UNL A   1      45.879  28.655  33.224  1.00  0.00     0.029 A 
ATOM     33  C   UNL A   1      45.300  27.921  32.200  1.00  0.00     0.049 A 
ATOM     34  H   UNL A   1      43.413  28.174  31.291  1.00  0.00     0.167 HD
ATOM     35  C   UNL A   1      45.241  26.138  30.472  1.00  0.00     0.074 A 
ATOM     36  C   UNL A   1      45.831  25.038  29.734  1.00  0.00     0.031 C 
ATOM     37  C   UNL A   1      45.852  26.795  31.487  1.00  0.00     0.034 A 
BRANCH  24  38
ATOM     38  C   UNL A   1      42.631  31.558  33.784  1.00  0.00     0.023 A 
ATOM     39  C   UNL A   1      43.012  32.834  33.319  1.00  0.00     0.012 A 
ATOM     40  C   UNL A   1      42.199  31.413  35.118  1.00  0.00     0.148 A 
ATOM     41  C   UNL A   1      43.016  33.933  34.178  1.00  0.00     0.002 A 
ATOM     42  C   UNL A   1      42.157  32.523  35.955  1.00  0.00     0.091 A 
ATOM     43  F   UNL A   1      41.860  30.192  35.553  1.00  0.00    -0.205 F 
ATOM     44  C   UNL A   1      42.581  33.780  35.492  1.00  0.00     0.022 A 
BRANCH  42  45
ATOM     45  S   UNL A   1      41.536  32.438  37.637  1.00  0.00     0.127 S 
ATOM     46  O   UNL A   1      40.129  32.112  37.414  1.00  0.00    -0.237 OA
ATOM     47  O   UNL A   1      42.332  31.350  38.205  1.00  0.00    -0.237 OA
ATOM     48  O   UNL A   1      41.792  33.745  38.226  1.00  0.00    -0.744 OA
ENDBRANCH  42  45
ENDBRANCH  24  38
BRANCH  25  49
ATOM     49  C   UNL A   1      42.677  24.169  27.029  1.00  0.00     0.023 A 
ATOM     50  C   UNL A   1      43.369  24.421  25.831  1.00  0.00     0.012 A 
ATOM     51  C   UNL A   1      42.092  22.903  27.235  1.00  0.00     0.148 A 
ATOM     52  C   UNL A   1      43.466  23.435  24.848  1.00  0.00     0.002 A 
ATOM     53  C   UNL A   1      42.241  21.907  26.279  1.00  0.00     0.091 A 
ATOM     54  F   UNL A   1      41.440  22.688  28.386  1.00  0.00    -0.205 F 
ATOM     55  C   UNL A   1      42.914  22.177  25.076  1.00  0.00     0.022 A 
BRANCH  53  56
ATOM     56  S   UNL A   1      41.691  20.220  26.545  1.00  0.00     0.127 S 
ATOM     57  O   UNL A   1      40.238  20.377  26.546  1.00  0.00    -0.237 OA
ATOM     58  O   UNL A   1      42.237  19.540  25.369  1.00  0.00    -0.237 OA
ATOM     59  O   UNL A   1      42.277  19.803  27.811  1.00  0.00    -0.744 OA
ENDBRANCH  53  56
ENDBRANCH  25  49
BRANCH  37  60
ATOM     60  C   UNL A   1      47.209  26.312  31.922  1.00  0.00     0.023 A 
ATOM     61  C   UNL A   1      47.336  25.415  32.998  1.00  0.00     0.012 A 
ATOM     62  C   UNL A   1      48.350  26.669  31.175  1.00  0.00     0.148 A 
ATOM     63  C   UNL A   1      48.584  24.891  33.335  1.00  0.00     0.002 A 
ATOM     64  C   UNL A   1      49.578  26.101  31.480  1.00  0.00     0.091 A 
ATOM     65  F   UNL A   1      48.205  27.542  30.167  1.00  0.00    -0.205 F 
ATOM     66  C   UNL A   1      49.700  25.220  32.567  1.00  0.00     0.022 A 
BRANCH  64  67
ATOM     67  S   UNL A   1      51.045  26.381  30.482  1.00  0.00     0.127 S 
ATOM     68  O   UNL A   1      52.037  25.561  31.175  1.00  0.00    -0.237 OA
ATOM     69  O   UNL A   1      50.631  25.866  29.176  1.00  0.00    -0.237 OA
ATOM     70  O   UNL A   1      51.293  27.815  30.519  1.00  0.00    -0.744 OA
ENDBRANCH  64  67
ENDBRANCH  37  60
ENDBRANCH  11  12
ENDBRANCH   4   6
ENDBRANCH   1   2
BRANCH   1  71
ATOM     71  C   UNL A   1      33.412  27.932  27.038  1.00  0.00     0.042 C 
BRANCH  71  72
ATOM     72  C   UNL A   1      31.884  27.912  27.219  1.00  0.00     0.117 C 
BRANCH  72  73
ATOM     73  N   UNL A   1      31.340  26.533  27.079  1.00  0.00    -0.355 N 
ATOM     74  C   UNL A   1      30.732  25.775  26.060  1.00  0.00     0.230 C 
ATOM     75  H   UNL A   1      31.427  26.018  27.914  1.00  0.00     0.163 HD
ATOM     76  O   UNL A   1      30.045  24.839  26.475  1.00  0.00    -0.274 OA
BRANCH  74  77
ATOM     77  C   UNL A   1      31.101  25.964  24.536  1.00  0.00     0.097 C 
ATOM     78  C   UNL A   1      32.440  25.166  24.892  1.00  0.00     0.139 C 
ATOM     79  C   UNL A   1      31.403  25.848  22.995  1.00  0.00     0.117 C 
ATOM     80  C   UNL A   1      30.638  27.388  24.440  1.00  0.00     0.141 C 
ATOM     81  N   UNL A   1      33.463  25.477  23.959  1.00  0.00    -0.341 N 
ATOM     82  C   UNL A   1      32.921  26.079  22.852  1.00  0.00     0.228 C 
ATOM     83  C   UNL A   1      30.695  26.947  22.167  1.00  0.00     0.136 C 
ATOM     84  N   UNL A   1      29.976  27.639  23.186  1.00  0.00    -0.324 N 
ATOM     85  O   UNL A   1      33.522  26.563  21.928  1.00  0.00    -0.274 OA
BRANCH  81  86
ATOM     86  C   UNL A   1      34.846  25.077  24.145  1.00  0.00     0.123 C 
BRANCH  86  87
ATOM     87  C   UNL A   1      35.053  23.989  25.169  1.00  0.00     0.008 C 
ATOM     88  C   UNL A   1      35.913  22.755  24.997  1.00  0.00     0.006 C 
ATOM     89  C   UNL A   1      36.393  23.882  25.863  1.00  0.00     0.006 C 
ENDBRANCH  86  87
ENDBRANCH  81  86
BRANCH  84  90
ATOM     90  C   UNL A   1      29.417  28.860  23.035  1.00  0.00     0.298 A 
ATOM     91  N   UNL A   1      29.523  29.950  23.764  1.00  0.00    -0.193 NA
ATOM     92  O   UNL A   1      28.800  29.053  21.823  1.00  0.00    -0.423 OA
ATOM     93  C   UNL A   1      29.028  30.944  22.939  1.00  0.00     0.111 A 
ATOM     94  C   UNL A   1      28.566  30.385  21.761  1.00  0.00     0.156 A 
ATOM     95  C   UNL A   1      28.950  32.337  23.077  1.00  0.00     0.032 A 
ATOM     96  C   UNL A   1      28.003  31.075  20.696  1.00  0.00     0.049 A 
ATOM     97  C   UNL A   1      28.398  33.082  22.017  1.00  0.00     0.003 A 
ATOM     98  C   UNL A   1      27.929  32.460  20.852  1.00  0.00     0.004 A 
ENDBRANCH  84  90
ENDBRANCH  74  77
ENDBRANCH  72  73
ENDBRANCH  71  72
ENDBRANCH   1  71
TORSDOF 16
ENDMDL
