MODEL 1
REMARK VINA RESULT:     -13.7      0.000      0.000
REMARK SMILES O=C(NCCCNC(=O)c1ccc(N2C(=O)[C@@H]3N=NC(c4ccccc4)=C3[C@H]2c2cccc(Br)c2)cc1)c1ccc(-c2c3nc(c(-c4cccc(S(=O)(=O)[O-])c4F)c4ccc([nH]4)c(-c4cccc(S(=O)(=O)[O-])c4F)c4nc(c(-c5cccc(S(=O)(=O)[O-])c5F)c5ccc2[nH]5)C=C4)C=C3)cc1
REMARK SMILES IDX 4 1 3 2 1 3 2 4 38 6 39 7 100 8 40 9 99 10 41 11 42 12 43 13
REMARK SMILES IDX 93 14 44 15 98 16 92 17 94 18 45 19 97 20 91 21 90 22 46 24
REMARK SMILES IDX 78 25 58 26 77 27 59 28 62 29 76 30 95 31 60 32 61 33 75 35
REMARK SMILES IDX 96 36 63 37 47 38 48 39 56 40 49 41 51 42 57 43 50 44 52 45
REMARK SMILES IDX 53 46 54 47 55 48 79 49 80 50 88 51 81 52 83 53 89 54 82 55
REMARK SMILES IDX 84 56 85 57 86 58 87 59 64 60 65 61 73 62 66 63 68 64 74 65
REMARK SMILES IDX 67 66 69 67 70 68 71 69 72 70 5 71 6 72 7 73 8 74 9 76 10 77
REMARK SMILES IDX 11 78 37 79 12 80 36 81 13 82 14 83 15 84 28 85 17 86 16 87
REMARK SMILES IDX 27 88 18 89 20 90 19 91 29 92 30 93 35 94 31 95 33 96 32 97
REMARK SMILES IDX 34 98 21 99 22 100 26 101 23 102 25 103 24 104
REMARK H PARENT 3 5 94 23 62 34 7 75
REMARK Flexibility Score: inf
ROOT
ATOM      1  C   UNL A   1      38.086  23.395  26.312  1.00  0.00     0.118 C 
ENDROOT
BRANCH   1   2
ATOM      2  N   UNL A   1      39.481  23.046  26.127  1.00  0.00    -0.352 N 
ATOM      3  O   UNL A   1      41.674  22.907  26.329  1.00  0.00    -0.269 OA
ATOM      4  C   UNL A   1      40.673  23.605  26.502  1.00  0.00     0.251 C 
ATOM      5  H   UNL A   1      39.598  22.214  25.612  1.00  0.00     0.163 HD
BRANCH   4   6
ATOM      6  C   UNL A   1      40.839  24.989  27.022  1.00  0.00     0.039 A 
ATOM      7  C   UNL A   1      40.358  26.145  26.406  1.00  0.00     0.014 A 
ATOM      8  C   UNL A   1      41.542  25.113  28.235  1.00  0.00     0.014 A 
ATOM      9  C   UNL A   1      40.645  27.400  26.939  1.00  0.00     0.010 A 
ATOM     10  C   UNL A   1      41.811  26.361  28.785  1.00  0.00     0.010 A 
ATOM     11  C   UNL A   1      41.380  27.508  28.122  1.00  0.00    -0.014 A 
BRANCH  11  12
ATOM     12  C   UNL A   1      41.480  28.824  28.753  1.00  0.00     0.031 A 
ATOM     13  C   UNL A   1      42.740  29.556  28.439  1.00  0.00     0.074 A 
ATOM     14  C   UNL A   1      40.464  29.423  29.407  1.00  0.00     0.049 A 
ATOM     15  N   UNL A   1      43.643  29.988  29.258  1.00  0.00    -0.248 NA
ATOM     16  C   UNL A   1      43.094  29.717  27.019  1.00  0.00     0.031 C 
ATOM     17  C   UNL A   1      39.087  28.936  29.507  1.00  0.00     0.029 A 
ATOM     18  N   UNL A   1      40.404  30.665  29.981  1.00  0.00    -0.354 N 
ATOM     19  C   UNL A   1      44.553  30.691  28.465  1.00  0.00     0.074 A 
ATOM     20  C   UNL A   1      44.281  30.314  27.106  1.00  0.00     0.031 C 
ATOM     21  C   UNL A   1      38.285  29.960  29.872  1.00  0.00     0.029 A 
ATOM     22  C   UNL A   1      39.101  31.133  30.132  1.00  0.00     0.049 A 
ATOM     23  H   UNL A   1      41.200  31.174  30.258  1.00  0.00     0.167 HD
ATOM     24  C   UNL A   1      45.258  31.744  28.962  1.00  0.00     0.034 A 
ATOM     25  C   UNL A   1      38.709  32.411  30.362  1.00  0.00     0.034 A 
ATOM     26  C   UNL A   1      45.288  31.726  30.404  1.00  0.00     0.049 A 
ATOM     27  C   UNL A   1      39.869  33.157  30.895  1.00  0.00     0.074 A 
ATOM     28  C   UNL A   1      45.702  30.847  31.383  1.00  0.00     0.029 A 
ATOM     29  N   UNL A   1      44.517  32.666  31.036  1.00  0.00    -0.354 N 
ATOM     30  N   UNL A   1      40.373  32.973  32.082  1.00  0.00    -0.248 NA
ATOM     31  C   UNL A   1      40.691  33.926  29.976  1.00  0.00     0.031 C 
ATOM     32  C   UNL A   1      44.829  31.074  32.488  1.00  0.00     0.029 A 
ATOM     33  C   UNL A   1      43.950  32.101  32.139  1.00  0.00     0.049 A 
ATOM     34  H   UNL A   1      44.393  33.598  30.742  1.00  0.00     0.167 HD
ATOM     35  C   UNL A   1      41.732  33.192  31.912  1.00  0.00     0.074 A 
ATOM     36  C   UNL A   1      41.838  33.932  30.660  1.00  0.00     0.031 C 
ATOM     37  C   UNL A   1      42.646  32.481  32.636  1.00  0.00     0.034 A 
BRANCH  24  38
ATOM     38  C   UNL A   1      45.521  33.043  28.201  1.00  0.00     0.023 A 
ATOM     39  C   UNL A   1      46.868  33.475  28.131  1.00  0.00     0.012 A 
ATOM     40  C   UNL A   1      44.535  34.002  27.869  1.00  0.00     0.148 A 
ATOM     41  C   UNL A   1      47.205  34.811  27.884  1.00  0.00     0.002 A 
ATOM     42  C   UNL A   1      44.880  35.313  27.551  1.00  0.00     0.091 A 
ATOM     43  F   UNL A   1      43.239  33.705  27.965  1.00  0.00    -0.205 F 
ATOM     44  C   UNL A   1      46.208  35.733  27.602  1.00  0.00     0.022 A 
BRANCH  42  45
ATOM     45  S   UNL A   1      43.626  36.534  27.131  1.00  0.00     0.127 S 
ATOM     46  O   UNL A   1      42.918  36.665  28.409  1.00  0.00    -0.237 OA
ATOM     47  O   UNL A   1      44.454  37.690  26.767  1.00  0.00    -0.237 OA
ATOM     48  O   UNL A   1      42.872  35.970  26.035  1.00  0.00    -0.744 OA
ENDBRANCH  42  45
ENDBRANCH  24  38
BRANCH  25  49
ATOM     49  C   UNL A   1      37.455  33.109  29.990  1.00  0.00     0.023 A 
ATOM     50  C   UNL A   1      37.031  33.110  28.645  1.00  0.00     0.012 A 
ATOM     51  C   UNL A   1      36.539  33.548  30.971  1.00  0.00     0.148 A 
ATOM     52  C   UNL A   1      35.734  33.502  28.293  1.00  0.00     0.002 A 
ATOM     53  C   UNL A   1      35.257  33.955  30.616  1.00  0.00     0.091 A 
ATOM     54  F   UNL A   1      36.888  33.476  32.263  1.00  0.00    -0.205 F 
ATOM     55  C   UNL A   1      34.845  33.919  29.279  1.00  0.00     0.022 A 
BRANCH  53  56
ATOM     56  S   UNL A   1      34.063  34.512  31.840  1.00  0.00     0.127 S 
ATOM     57  O   UNL A   1      34.806  35.565  32.535  1.00  0.00    -0.237 OA
ATOM     58  O   UNL A   1      32.967  34.989  31.002  1.00  0.00    -0.237 OA
ATOM     59  O   UNL A   1      33.773  33.347  32.667  1.00  0.00    -0.744 OA
ENDBRANCH  53  56
ENDBRANCH  25  49
BRANCH  37  60
ATOM     60  C   UNL A   1      42.186  31.810  33.901  1.00  0.00     0.023 A 
ATOM     61  C   UNL A   1      41.675  30.497  33.925  1.00  0.00     0.012 A 
ATOM     62  C   UNL A   1      42.401  32.480  35.118  1.00  0.00     0.148 A 
ATOM     63  C   UNL A   1      41.351  29.880  35.135  1.00  0.00     0.002 A 
ATOM     64  C   UNL A   1      42.127  31.843  36.322  1.00  0.00     0.091 A 
ATOM     65  F   UNL A   1      42.887  33.730  35.082  1.00  0.00    -0.205 F 
ATOM     66  C   UNL A   1      41.588  30.548  36.334  1.00  0.00     0.022 A 
BRANCH  64  67
ATOM     67  S   UNL A   1      42.538  32.609  37.891  1.00  0.00     0.127 S 
ATOM     68  O   UNL A   1      41.809  33.873  37.816  1.00  0.00    -0.237 OA
ATOM     69  O   UNL A   1      42.004  31.653  38.862  1.00  0.00    -0.237 OA
ATOM     70  O   UNL A   1      43.992  32.718  37.907  1.00  0.00    -0.744 OA
ENDBRANCH  64  67
ENDBRANCH  37  60
ENDBRANCH  11  12
ENDBRANCH   4   6
ENDBRANCH   1   2
BRANCH   1  71
ATOM     71  C   UNL A   1      37.153  23.090  25.138  1.00  0.00     0.042 C 
BRANCH  71  72
ATOM     72  C   UNL A   1      36.786  21.618  24.944  1.00  0.00     0.118 C 
BRANCH  72  73
ATOM     73  N   UNL A   1      35.850  21.129  25.942  1.00  0.00    -0.352 N 
ATOM     74  C   UNL A   1      34.584  21.543  26.265  1.00  0.00     0.251 C 
ATOM     75  H   UNL A   1      36.180  20.371  26.477  1.00  0.00     0.163 HD
ATOM     76  O   UNL A   1      34.025  21.047  27.244  1.00  0.00    -0.269 OA
BRANCH  74  77
ATOM     77  C   UNL A   1      33.873  22.594  25.496  1.00  0.00     0.039 A 
ATOM     78  C   UNL A   1      33.841  23.873  26.052  1.00  0.00     0.016 A 
ATOM     79  C   UNL A   1      33.167  22.343  24.311  1.00  0.00     0.016 A 
ATOM     80  C   UNL A   1      33.165  24.903  25.395  1.00  0.00     0.027 A 
ATOM     81  C   UNL A   1      32.470  23.383  23.655  1.00  0.00     0.027 A 
ATOM     82  C   UNL A   1      32.484  24.677  24.183  1.00  0.00     0.045 A 
BRANCH  82  83
ATOM     83  N   UNL A   1      31.901  25.788  23.487  1.00  0.00    -0.299 N 
ATOM     84  C   UNL A   1      32.639  26.237  22.339  1.00  0.00     0.259 C 
ATOM     85  C   UNL A   1      31.371  26.945  24.249  1.00  0.00     0.152 C 
ATOM     86  C   UNL A   1      32.657  27.736  22.354  1.00  0.00     0.248 C 
ATOM     87  O   UNL A   1      33.221  25.531  21.526  1.00  0.00    -0.271 OA
ATOM     88  C   UNL A   1      32.377  27.926  23.792  1.00  0.00     0.021 C 
ATOM     89  N   UNL A   1      33.975  28.379  22.222  1.00  0.00    -0.170 NA
ATOM     90  C   UNL A   1      33.292  28.772  24.254  1.00  0.00     0.097 C 
ATOM     91  N   UNL A   1      34.217  29.055  23.270  1.00  0.00    -0.154 NA
BRANCH  85  92
ATOM     92  C   UNL A   1      29.957  27.427  23.855  1.00  0.00    -0.020 A 
ATOM     93  C   UNL A   1      28.808  26.654  24.171  1.00  0.00     0.006 A 
ATOM     94  C   UNL A   1      29.748  28.593  23.104  1.00  0.00     0.022 A 
ATOM     95  C   UNL A   1      27.518  27.036  23.801  1.00  0.00     0.002 A 
ATOM     96  C   UNL A   1      28.449  28.958  22.708  1.00  0.00     0.018 A 
ATOM     97  C   UNL A   1      27.336  28.193  23.060  1.00  0.00     0.016 A 
ATOM     98  Br  UNL A   1      28.181  30.502  21.647  1.00  0.00    -0.051 Br
ENDBRANCH  85  92
BRANCH  90  99
ATOM     99  C   UNL A   1      33.496  29.267  25.611  1.00  0.00     0.002 A 
ATOM    100  C   UNL A   1      32.733  30.342  26.091  1.00  0.00     0.010 A 
ATOM    101  C   UNL A   1      34.573  28.800  26.372  1.00  0.00     0.010 A 
ATOM    102  C   UNL A   1      33.093  30.986  27.278  1.00  0.00     0.001 A 
ATOM    103  C   UNL A   1      34.926  29.440  27.562  1.00  0.00     0.001 A 
ATOM    104  C   UNL A   1      34.200  30.546  28.002  1.00  0.00     0.000 A 
ENDBRANCH  90  99
ENDBRANCH  82  83
ENDBRANCH  74  77
ENDBRANCH  72  73
ENDBRANCH  71  72
ENDBRANCH   1  71
TORSDOF 16
ENDMDL
MODEL 2
REMARK VINA RESULT:     -13.6      1.840      2.133
REMARK SMILES O=C(NCCCNC(=O)c1ccc(N2C(=O)[C@@H]3N=NC(c4ccccc4)=C3[C@H]2c2cccc(Br)c2)cc1)c1ccc(-c2c3nc(c(-c4cccc(S(=O)(=O)[O-])c4F)c4ccc([nH]4)c(-c4cccc(S(=O)(=O)[O-])c4F)c4nc(c(-c5cccc(S(=O)(=O)[O-])c5F)c5ccc2[nH]5)C=C4)C=C3)cc1
REMARK SMILES IDX 4 1 3 2 1 3 2 4 38 6 39 7 100 8 40 9 99 10 41 11 42 12 43 13
REMARK SMILES IDX 93 14 44 15 98 16 92 17 94 18 45 19 97 20 91 21 90 22 46 24
REMARK SMILES IDX 78 25 58 26 77 27 59 28 62 29 76 30 95 31 60 32 61 33 75 35
REMARK SMILES IDX 96 36 63 37 47 38 48 39 56 40 49 41 51 42 57 43 50 44 52 45
REMARK SMILES IDX 53 46 54 47 55 48 79 49 80 50 88 51 81 52 83 53 89 54 82 55
REMARK SMILES IDX 84 56 85 57 86 58 87 59 64 60 65 61 73 62 66 63 68 64 74 65
REMARK SMILES IDX 67 66 69 67 70 68 71 69 72 70 5 71 6 72 7 73 8 74 9 76 10 77
REMARK SMILES IDX 11 78 37 79 12 80 36 81 13 82 14 83 15 84 28 85 17 86 16 87
REMARK SMILES IDX 27 88 18 89 20 90 19 91 29 92 30 93 35 94 31 95 33 96 32 97
REMARK SMILES IDX 34 98 21 99 22 100 26 101 23 102 25 103 24 104
REMARK H PARENT 3 5 94 23 62 34 7 75
REMARK Flexibility Score: inf
ROOT
ATOM      1  C   UNL A   1      37.599  22.670  26.082  1.00  0.00     0.118 C 
ENDROOT
BRANCH   1   2
ATOM      2  N   UNL A   1      38.864  22.002  26.318  1.00  0.00    -0.352 N 
ATOM      3  O   UNL A   1      40.835  21.422  27.124  1.00  0.00    -0.269 OA
ATOM      4  C   UNL A   1      40.028  22.339  26.956  1.00  0.00     0.251 C 
ATOM      5  H   UNL A   1      38.893  21.098  25.928  1.00  0.00     0.163 HD
BRANCH   4   6
ATOM      6  C   UNL A   1      40.400  23.716  27.379  1.00  0.00     0.039 A 
ATOM      7  C   UNL A   1      39.739  24.884  26.997  1.00  0.00     0.014 A 
ATOM      8  C   UNL A   1      41.513  23.818  28.234  1.00  0.00     0.014 A 
ATOM      9  C   UNL A   1      40.226  26.129  27.387  1.00  0.00     0.010 A 
ATOM     10  C   UNL A   1      41.991  25.058  28.646  1.00  0.00     0.010 A 
ATOM     11  C   UNL A   1      41.358  26.216  28.202  1.00  0.00    -0.014 A 
BRANCH  11  12
ATOM     12  C   UNL A   1      41.710  27.524  28.753  1.00  0.00     0.031 A 
ATOM     13  C   UNL A   1      42.974  28.095  28.207  1.00  0.00     0.074 A 
ATOM     14  C   UNL A   1      40.892  28.254  29.539  1.00  0.00     0.049 A 
ATOM     15  N   UNL A   1      44.045  28.435  28.850  1.00  0.00    -0.248 NA
ATOM     16  C   UNL A   1      43.102  28.182  26.743  1.00  0.00     0.031 C 
ATOM     17  C   UNL A   1      39.505  27.936  29.883  1.00  0.00     0.029 A 
ATOM     18  N   UNL A   1      41.070  29.507  30.064  1.00  0.00    -0.354 N 
ATOM     19  C   UNL A   1      44.883  29.008  27.890  1.00  0.00     0.074 A 
ATOM     20  C   UNL A   1      44.346  28.636  26.610  1.00  0.00     0.031 C 
ATOM     21  C   UNL A   1      38.896  29.056  30.332  1.00  0.00     0.029 A 
ATOM     22  C   UNL A   1      39.872  30.129  30.407  1.00  0.00     0.049 A 
ATOM     23  H   UNL A   1      41.953  29.923  30.186  1.00  0.00     0.167 HD
ATOM     24  C   UNL A   1      45.776  29.980  28.222  1.00  0.00     0.034 A 
ATOM     25  C   UNL A   1      39.672  31.449  30.645  1.00  0.00     0.034 A 
ATOM     26  C   UNL A   1      46.044  29.990  29.639  1.00  0.00     0.049 A 
ATOM     27  C   UNL A   1      40.981  32.063  30.950  1.00  0.00     0.074 A 
ATOM     28  C   UNL A   1      46.514  29.090  30.572  1.00  0.00     0.029 A 
ATOM     29  N   UNL A   1      45.501  31.029  30.349  1.00  0.00    -0.354 N 
ATOM     30  N   UNL A   1      41.653  31.847  32.045  1.00  0.00    -0.248 NA
ATOM     31  C   UNL A   1      41.720  32.710  29.878  1.00  0.00     0.031 C 
ATOM     32  C   UNL A   1      45.870  29.443  31.795  1.00  0.00     0.029 A 
ATOM     33  C   UNL A   1      45.066  30.558  31.552  1.00  0.00     0.049 A 
ATOM     34  H   UNL A   1      45.437  31.962  30.041  1.00  0.00     0.167 HD
ATOM     35  C   UNL A   1      42.979  31.900  31.646  1.00  0.00     0.074 A 
ATOM     36  C   UNL A   1      42.958  32.594  30.364  1.00  0.00     0.031 C 
ATOM     37  C   UNL A   1      43.916  31.101  32.240  1.00  0.00     0.034 A 
BRANCH  24  38
ATOM     38  C   UNL A   1      46.053  31.221  27.375  1.00  0.00     0.023 A 
ATOM     39  C   UNL A   1      47.412  31.593  27.219  1.00  0.00     0.012 A 
ATOM     40  C   UNL A   1      45.091  32.201  27.032  1.00  0.00     0.148 A 
ATOM     41  C   UNL A   1      47.789  32.897  26.880  1.00  0.00     0.002 A 
ATOM     42  C   UNL A   1      45.472  33.476  26.623  1.00  0.00     0.091 A 
ATOM     43  F   UNL A   1      43.790  31.964  27.204  1.00  0.00    -0.205 F 
ATOM     44  C   UNL A   1      46.816  33.843  26.589  1.00  0.00     0.022 A 
BRANCH  42  45
ATOM     45  S   UNL A   1      44.249  34.724  26.189  1.00  0.00     0.127 S 
ATOM     46  O   UNL A   1      43.425  34.748  27.403  1.00  0.00    -0.237 OA
ATOM     47  O   UNL A   1      45.094  35.908  25.998  1.00  0.00    -0.237 OA
ATOM     48  O   UNL A   1      43.604  34.248  24.986  1.00  0.00    -0.744 OA
ENDBRANCH  42  45
ENDBRANCH  24  38
BRANCH  25  49
ATOM     49  C   UNL A   1      38.460  32.282  30.454  1.00  0.00     0.023 A 
ATOM     50  C   UNL A   1      37.832  32.320  29.192  1.00  0.00     0.012 A 
ATOM     51  C   UNL A   1      37.766  32.832  31.554  1.00  0.00     0.148 A 
ATOM     52  C   UNL A   1      36.547  32.854  29.037  1.00  0.00     0.002 A 
ATOM     53  C   UNL A   1      36.497  33.380  31.393  1.00  0.00     0.091 A 
ATOM     54  F   UNL A   1      38.304  32.733  32.777  1.00  0.00    -0.205 F 
ATOM     55  C   UNL A   1      35.877  33.380  30.138  1.00  0.00     0.022 A 
BRANCH  53  56
ATOM     56  S   UNL A   1      35.581  34.081  32.773  1.00  0.00     0.127 S 
ATOM     57  O   UNL A   1      34.499  34.794  32.092  1.00  0.00    -0.237 OA
ATOM     58  O   UNL A   1      35.164  32.886  33.499  1.00  0.00    -0.237 OA
ATOM     59  O   UNL A   1      36.521  34.953  33.467  1.00  0.00    -0.744 OA
ENDBRANCH  53  56
ENDBRANCH  25  49
BRANCH  37  60
ATOM     60  C   UNL A   1      43.600  30.517  33.589  1.00  0.00     0.023 A 
ATOM     61  C   UNL A   1      43.804  31.222  34.791  1.00  0.00     0.012 A 
ATOM     62  C   UNL A   1      42.953  29.270  33.632  1.00  0.00     0.148 A 
ATOM     63  C   UNL A   1      43.407  30.677  36.014  1.00  0.00     0.002 A 
ATOM     64  C   UNL A   1      42.512  28.755  34.844  1.00  0.00     0.091 A 
ATOM     65  F   UNL A   1      42.765  28.608  32.480  1.00  0.00    -0.205 F 
ATOM     66  C   UNL A   1      42.749  29.449  36.039  1.00  0.00     0.022 A 
BRANCH  64  67
ATOM     67  S   UNL A   1      41.546  27.245  34.914  1.00  0.00     0.127 S 
ATOM     68  O   UNL A   1      42.522  26.236  34.507  1.00  0.00    -0.237 OA
ATOM     69  O   UNL A   1      41.153  27.182  36.323  1.00  0.00    -0.237 OA
ATOM     70  O   UNL A   1      40.429  27.449  33.999  1.00  0.00    -0.744 OA
ENDBRANCH  64  67
ENDBRANCH  37  60
ENDBRANCH  11  12
ENDBRANCH   4   6
ENDBRANCH   1   2
BRANCH   1  71
ATOM     71  C   UNL A   1      36.930  22.392  24.735  1.00  0.00     0.042 C 
BRANCH  71  72
ATOM     72  C   UNL A   1      36.172  21.068  24.626  1.00  0.00     0.118 C 
BRANCH  72  73
ATOM     73  N   UNL A   1      35.340  20.791  25.785  1.00  0.00    -0.352 N 
ATOM     74  C   UNL A   1      34.213  21.417  26.250  1.00  0.00     0.251 C 
ATOM     75  H   UNL A   1      35.636  20.025  26.328  1.00  0.00     0.163 HD
ATOM     76  O   UNL A   1      33.746  21.074  27.337  1.00  0.00    -0.269 OA
BRANCH  74  77
ATOM     77  C   UNL A   1      33.553  22.518  25.506  1.00  0.00     0.039 A 
ATOM     78  C   UNL A   1      33.834  23.820  25.920  1.00  0.00     0.016 A 
ATOM     79  C   UNL A   1      32.607  22.310  24.492  1.00  0.00     0.016 A 
ATOM     80  C   UNL A   1      33.225  24.903  25.283  1.00  0.00     0.027 A 
ATOM     81  C   UNL A   1      31.980  23.406  23.858  1.00  0.00     0.027 A 
ATOM     82  C   UNL A   1      32.302  24.711  24.236  1.00  0.00     0.045 A 
BRANCH  82  83
ATOM     83  N   UNL A   1      31.789  25.853  23.535  1.00  0.00    -0.299 N 
ATOM     84  C   UNL A   1      32.544  26.242  22.375  1.00  0.00     0.259 C 
ATOM     85  C   UNL A   1      31.347  27.051  24.291  1.00  0.00     0.152 C 
ATOM     86  C   UNL A   1      32.665  27.736  22.376  1.00  0.00     0.248 C 
ATOM     87  O   UNL A   1      33.068  25.491  21.563  1.00  0.00    -0.271 OA
ATOM     88  C   UNL A   1      32.413  27.957  23.815  1.00  0.00     0.021 C 
ATOM     89  N   UNL A   1      34.021  28.287  22.226  1.00  0.00    -0.170 NA
ATOM     90  C   UNL A   1      33.387  28.743  24.261  1.00  0.00     0.097 C 
ATOM     91  N   UNL A   1      34.319  28.954  23.265  1.00  0.00    -0.154 NA
BRANCH  85  92
ATOM     92  C   UNL A   1      29.965  27.624  23.906  1.00  0.00    -0.020 A 
ATOM     93  C   UNL A   1      28.812  26.795  23.879  1.00  0.00     0.006 A 
ATOM     94  C   UNL A   1      29.797  28.953  23.491  1.00  0.00     0.022 A 
ATOM     95  C   UNL A   1      27.554  27.266  23.502  1.00  0.00     0.002 A 
ATOM     96  C   UNL A   1      28.533  29.415  23.083  1.00  0.00     0.018 A 
ATOM     97  C   UNL A   1      27.414  28.583  23.096  1.00  0.00     0.016 A 
ATOM     98  Br  UNL A   1      28.328  31.194  22.471  1.00  0.00    -0.051 Br
ENDBRANCH  85  92
BRANCH  90  99
ATOM     99  C   UNL A   1      33.639  29.235  25.611  1.00  0.00     0.002 A 
ATOM    100  C   UNL A   1      32.902  30.317  26.115  1.00  0.00     0.010 A 
ATOM    101  C   UNL A   1      34.734  28.756  26.338  1.00  0.00     0.010 A 
ATOM    102  C   UNL A   1      33.305  30.955  27.291  1.00  0.00     0.001 A 
ATOM    103  C   UNL A   1      35.130  29.391  27.517  1.00  0.00     0.001 A 
ATOM    104  C   UNL A   1      34.429  30.504  27.980  1.00  0.00     0.000 A 
ENDBRANCH  90  99
ENDBRANCH  82  83
ENDBRANCH  74  77
ENDBRANCH  72  73
ENDBRANCH  71  72
ENDBRANCH   1  71
TORSDOF 16
ENDMDL
MODEL 3
REMARK VINA RESULT:     -13.3      3.944      9.377
REMARK SMILES O=C(NCCCNC(=O)c1ccc(N2C(=O)[C@@H]3N=NC(c4ccccc4)=C3[C@H]2c2cccc(Br)c2)cc1)c1ccc(-c2c3nc(c(-c4cccc(S(=O)(=O)[O-])c4F)c4ccc([nH]4)c(-c4cccc(S(=O)(=O)[O-])c4F)c4nc(c(-c5cccc(S(=O)(=O)[O-])c5F)c5ccc2[nH]5)C=C4)C=C3)cc1
REMARK SMILES IDX 4 1 3 2 1 3 2 4 38 6 39 7 100 8 40 9 99 10 41 11 42 12 43 13
REMARK SMILES IDX 93 14 44 15 98 16 92 17 94 18 45 19 97 20 91 21 90 22 46 24
REMARK SMILES IDX 78 25 58 26 77 27 59 28 62 29 76 30 95 31 60 32 61 33 75 35
REMARK SMILES IDX 96 36 63 37 47 38 48 39 56 40 49 41 51 42 57 43 50 44 52 45
REMARK SMILES IDX 53 46 54 47 55 48 79 49 80 50 88 51 81 52 83 53 89 54 82 55
REMARK SMILES IDX 84 56 85 57 86 58 87 59 64 60 65 61 73 62 66 63 68 64 74 65
REMARK SMILES IDX 67 66 69 67 70 68 71 69 72 70 5 71 6 72 7 73 8 74 9 76 10 77
REMARK SMILES IDX 11 78 37 79 12 80 36 81 13 82 14 83 15 84 28 85 17 86 16 87
REMARK SMILES IDX 27 88 18 89 20 90 19 91 29 92 30 93 35 94 31 95 33 96 32 97
REMARK SMILES IDX 34 98 21 99 22 100 26 101 23 102 25 103 24 104
REMARK H PARENT 3 5 94 23 62 34 7 75
REMARK Flexibility Score: inf
ROOT
ATOM      1  C   UNL A   1      34.348  29.736  26.987  1.00  0.00     0.118 C 
ENDROOT
BRANCH   1   2
ATOM      2  N   UNL A   1      34.335  30.813  27.959  1.00  0.00    -0.352 N 
ATOM      3  O   UNL A   1      34.937  32.394  29.376  1.00  0.00    -0.269 OA
ATOM      4  C   UNL A   1      35.250  31.330  28.836  1.00  0.00     0.251 C 
ATOM      5  H   UNL A   1      33.468  31.278  27.996  1.00  0.00     0.163 HD
BRANCH   4   6
ATOM      6  C   UNL A   1      36.526  30.672  29.223  1.00  0.00     0.039 A 
ATOM      7  C   UNL A   1      36.654  29.352  29.660  1.00  0.00     0.014 A 
ATOM      8  C   UNL A   1      37.684  31.468  29.132  1.00  0.00     0.014 A 
ATOM      9  C   UNL A   1      37.890  28.865  30.078  1.00  0.00     0.010 A 
ATOM     10  C   UNL A   1      38.925  30.979  29.525  1.00  0.00     0.010 A 
ATOM     11  C   UNL A   1      39.022  29.681  30.020  1.00  0.00    -0.014 A 
BRANCH  11  12
ATOM     12  C   UNL A   1      40.326  29.068  30.271  1.00  0.00     0.031 A 
ATOM     13  C   UNL A   1      40.754  29.108  31.698  1.00  0.00     0.074 A 
ATOM     14  C   UNL A   1      41.013  28.358  29.352  1.00  0.00     0.049 A 
ATOM     15  N   UNL A   1      41.814  29.651  32.204  1.00  0.00    -0.248 NA
ATOM     16  C   UNL A   1      39.816  28.580  32.702  1.00  0.00     0.031 C 
ATOM     17  C   UNL A   1      40.547  27.986  28.015  1.00  0.00     0.029 A 
ATOM     18  N   UNL A   1      42.200  27.685  29.474  1.00  0.00    -0.354 N 
ATOM     19  C   UNL A   1      41.790  29.313  33.559  1.00  0.00     0.074 A 
ATOM     20  C   UNL A   1      40.459  28.848  33.836  1.00  0.00     0.031 C 
ATOM     21  C   UNL A   1      41.305  26.968  27.554  1.00  0.00     0.029 A 
ATOM     22  C   UNL A   1      42.365  26.694  28.508  1.00  0.00     0.049 A 
ATOM     23  H   UNL A   1      42.866  27.881  30.170  1.00  0.00     0.167 HD
ATOM     24  C   UNL A   1      42.941  29.165  34.272  1.00  0.00     0.034 A 
ATOM     25  C   UNL A   1      43.247  25.663  28.533  1.00  0.00     0.034 A 
ATOM     26  C   UNL A   1      44.052  29.814  33.620  1.00  0.00     0.049 A 
ATOM     27  C   UNL A   1      44.321  26.002  29.490  1.00  0.00     0.074 A 
ATOM     28  C   UNL A   1      44.352  31.090  33.193  1.00  0.00     0.029 A 
ATOM     29  N   UNL A   1      44.972  28.987  33.030  1.00  0.00    -0.354 N 
ATOM     30  N   UNL A   1      45.220  26.922  29.284  1.00  0.00    -0.248 NA
ATOM     31  C   UNL A   1      44.223  25.514  30.855  1.00  0.00     0.031 C 
ATOM     32  C   UNL A   1      45.189  30.919  32.050  1.00  0.00     0.029 A 
ATOM     33  C   UNL A   1      45.382  29.550  31.858  1.00  0.00     0.049 A 
ATOM     34  H   UNL A   1      45.286  28.127  33.394  1.00  0.00     0.167 HD
ATOM     35  C   UNL A   1      45.466  27.445  30.544  1.00  0.00     0.074 A 
ATOM     36  C   UNL A   1      44.963  26.438  31.472  1.00  0.00     0.031 C 
ATOM     37  C   UNL A   1      45.762  28.769  30.701  1.00  0.00     0.034 A 
BRANCH  24  38
ATOM     38  C   UNL A   1      43.185  28.058  35.295  1.00  0.00     0.023 A 
ATOM     39  C   UNL A   1      43.771  28.448  36.525  1.00  0.00     0.012 A 
ATOM     40  C   UNL A   1      43.200  26.672  35.004  1.00  0.00     0.148 A 
ATOM     41  C   UNL A   1      44.451  27.539  37.343  1.00  0.00     0.002 A 
ATOM     42  C   UNL A   1      43.814  25.761  35.858  1.00  0.00     0.091 A 
ATOM     43  F   UNL A   1      42.728  26.218  33.843  1.00  0.00    -0.205 F 
ATOM     44  C   UNL A   1      44.480  26.194  37.004  1.00  0.00     0.022 A 
BRANCH  42  45
ATOM     45  S   UNL A   1      43.837  24.000  35.487  1.00  0.00     0.127 S 
ATOM     46  O   UNL A   1      42.401  23.706  35.420  1.00  0.00    -0.237 OA
ATOM     47  O   UNL A   1      44.528  23.982  34.193  1.00  0.00    -0.237 OA
ATOM     48  O   UNL A   1      44.570  23.375  36.565  1.00  0.00    -0.744 OA
ENDBRANCH  42  45
ENDBRANCH  24  38
BRANCH  25  49
ATOM     49  C   UNL A   1      43.154  24.312  27.931  1.00  0.00     0.023 A 
ATOM     50  C   UNL A   1      42.031  23.503  28.203  1.00  0.00     0.012 A 
ATOM     51  C   UNL A   1      44.023  23.908  26.893  1.00  0.00     0.148 A 
ATOM     52  C   UNL A   1      41.763  22.355  27.448  1.00  0.00     0.002 A 
ATOM     53  C   UNL A   1      43.765  22.755  26.157  1.00  0.00     0.091 A 
ATOM     54  F   UNL A   1      45.049  24.702  26.560  1.00  0.00    -0.205 F 
ATOM     55  C   UNL A   1      42.627  21.984  26.421  1.00  0.00     0.022 A 
BRANCH  53  56
ATOM     56  S   UNL A   1      44.844  22.217  24.824  1.00  0.00     0.127 S 
ATOM     57  O   UNL A   1      44.206  20.971  24.397  1.00  0.00    -0.237 OA
ATOM     58  O   UNL A   1      44.728  23.319  23.875  1.00  0.00    -0.237 OA
ATOM     59  O   UNL A   1      46.157  22.033  25.430  1.00  0.00    -0.744 OA
ENDBRANCH  53  56
ENDBRANCH  25  49
BRANCH  37  60
ATOM     60  C   UNL A   1      46.252  29.536  29.504  1.00  0.00     0.023 A 
ATOM     61  C   UNL A   1      47.579  29.455  29.038  1.00  0.00     0.012 A 
ATOM     62  C   UNL A   1      45.307  30.254  28.750  1.00  0.00     0.148 A 
ATOM     63  C   UNL A   1      47.964  30.109  27.866  1.00  0.00     0.002 A 
ATOM     64  C   UNL A   1      45.682  30.859  27.557  1.00  0.00     0.091 A 
ATOM     65  F   UNL A   1      44.047  30.324  29.205  1.00  0.00    -0.205 F 
ATOM     66  C   UNL A   1      47.013  30.800  27.118  1.00  0.00     0.022 A 
BRANCH  64  67
ATOM     67  S   UNL A   1      44.469  31.646  26.495  1.00  0.00     0.127 S 
ATOM     68  O   UNL A   1      43.948  32.705  27.356  1.00  0.00    -0.237 OA
ATOM     69  O   UNL A   1      45.285  32.117  25.374  1.00  0.00    -0.237 OA
ATOM     70  O   UNL A   1      43.521  30.598  26.136  1.00  0.00    -0.744 OA
ENDBRANCH  64  67
ENDBRANCH  37  60
ENDBRANCH  11  12
ENDBRANCH   4   6
ENDBRANCH   1   2
BRANCH   1  71
ATOM     71  C   UNL A   1      33.078  28.887  26.905  1.00  0.00     0.042 C 
BRANCH  71  72
ATOM     72  C   UNL A   1      31.881  29.543  26.214  1.00  0.00     0.118 C 
BRANCH  72  73
ATOM     73  N   UNL A   1      32.092  29.757  24.792  1.00  0.00    -0.352 N 
ATOM     74  C   UNL A   1      32.276  28.865  23.768  1.00  0.00     0.251 C 
ATOM     75  H   UNL A   1      32.104  30.702  24.518  1.00  0.00     0.163 HD
ATOM     76  O   UNL A   1      32.560  29.293  22.649  1.00  0.00    -0.269 OA
BRANCH  74  77
ATOM     77  C   UNL A   1      32.174  27.398  23.965  1.00  0.00     0.039 A 
ATOM     78  C   UNL A   1      33.268  26.762  24.554  1.00  0.00     0.016 A 
ATOM     79  C   UNL A   1      31.095  26.627  23.512  1.00  0.00     0.016 A 
ATOM     80  C   UNL A   1      33.253  25.379  24.743  1.00  0.00     0.027 A 
ATOM     81  C   UNL A   1      31.087  25.226  23.691  1.00  0.00     0.027 A 
ATOM     82  C   UNL A   1      32.158  24.596  24.329  1.00  0.00     0.045 A 
BRANCH  82  83
ATOM     83  N   UNL A   1      32.136  23.197  24.647  1.00  0.00    -0.299 N 
ATOM     84  C   UNL A   1      31.681  22.885  25.974  1.00  0.00     0.259 C 
ATOM     85  C   UNL A   1      33.284  22.333  24.276  1.00  0.00     0.152 C 
ATOM     86  C   UNL A   1      32.578  21.823  26.538  1.00  0.00     0.248 C 
ATOM     87  O   UNL A   1      30.771  23.435  26.580  1.00  0.00    -0.271 OA
ATOM     88  C   UNL A   1      33.739  22.052  25.653  1.00  0.00     0.021 C 
ATOM     89  N   UNL A   1      33.159  22.089  27.863  1.00  0.00    -0.170 NA
ATOM     90  C   UNL A   1      34.807  22.153  26.438  1.00  0.00     0.097 C 
ATOM     91  N   UNL A   1      34.425  22.131  27.764  1.00  0.00    -0.154 NA
BRANCH  85  92
ATOM     92  C   UNL A   1      32.933  21.009  23.563  1.00  0.00    -0.020 A 
ATOM     93  C   UNL A   1      32.148  21.002  22.379  1.00  0.00     0.006 A 
ATOM     94  C   UNL A   1      33.298  19.759  24.086  1.00  0.00     0.022 A 
ATOM     95  C   UNL A   1      31.779  19.825  21.726  1.00  0.00     0.002 A 
ATOM     96  C   UNL A   1      32.899  18.576  23.440  1.00  0.00     0.018 A 
ATOM     97  C   UNL A   1      32.152  18.603  22.262  1.00  0.00     0.016 A 
ATOM     98  Br  UNL A   1      33.348  16.894  24.183  1.00  0.00    -0.051 Br
ENDBRANCH  85  92
BRANCH  90  99
ATOM     99  C   UNL A   1      36.197  22.417  26.084  1.00  0.00     0.002 A 
ATOM    100  C   UNL A   1      37.045  21.360  25.724  1.00  0.00     0.010 A 
ATOM    101  C   UNL A   1      36.739  23.692  26.280  1.00  0.00     0.010 A 
ATOM    102  C   UNL A   1      38.426  21.563  25.637  1.00  0.00     0.001 A 
ATOM    103  C   UNL A   1      38.117  23.895  26.184  1.00  0.00     0.001 A 
ATOM    104  C   UNL A   1      38.961  22.826  25.885  1.00  0.00     0.000 A 
ENDBRANCH  90  99
ENDBRANCH  82  83
ENDBRANCH  74  77
ENDBRANCH  72  73
ENDBRANCH  71  72
ENDBRANCH   1  71
TORSDOF 16
ENDMDL
