MODEL 1
REMARK VINA RESULT:     -11.9      0.000      0.000
REMARK SMILES CCO[C@H](CCn1nnc2c(cnn2C)c1=O)C(=O)NCCCNC(=O)c1ccc(-c2c3nc(c(-c4cccc(S(=O)(=O)[O-])c4F)c4ccc([nH]4)c(-c4cccc(S(=O)(=O)[O-])c4F)c4nc(c(-c5cccc(S(=O)(=O)[O-])c5F)c5ccc2[nH]5)C=C4)C=C3)cc1
REMARK SMILES IDX 22 1 21 2 20 3 18 4 19 5 4 7 3 8 2 9 1 10 5 11 6 12 7 13
REMARK SMILES IDX 8 14 16 15 9 16 11 17 17 18 10 19 12 20 14 21 13 22 15 23
REMARK SMILES IDX 23 24 24 25 25 26 26 28 27 29 28 30 89 31 29 32 88 33 30 34
REMARK SMILES IDX 31 35 32 36 82 37 33 38 87 39 81 40 83 41 34 42 86 43 80 44
REMARK SMILES IDX 79 45 35 47 67 48 47 49 66 50 48 51 51 52 65 53 84 54 49 55
REMARK SMILES IDX 50 56 64 58 85 59 52 60 36 61 37 62 45 63 38 64 40 65 46 66
REMARK SMILES IDX 39 67 41 68 42 69 43 70 44 71 68 72 69 73 77 74 70 75 72 76
REMARK SMILES IDX 78 77 71 78 73 79 74 80 75 81 76 82 53 83 54 84 62 85 55 86
REMARK SMILES IDX 57 87 63 88 56 89 58 90 59 91 60 92 61 93
REMARK H PARENT 20 6 24 27 83 46 51 57
REMARK Flexibility Score: inf
ROOT
ATOM      1  C   UNL A   1      37.465  22.126  26.014  1.00  0.00     0.042 C 
ENDROOT
BRANCH   1   2
ATOM      2  C   UNL A   1      37.017  23.584  25.934  1.00  0.00     0.117 C 
BRANCH   2   3
ATOM      3  N   UNL A   1      36.434  23.857  24.623  1.00  0.00    -0.354 N 
ATOM      4  C   UNL A   1      35.069  23.900  24.487  1.00  0.00     0.249 C 
ATOM      5  O   UNL A   1      34.416  24.698  25.160  1.00  0.00    -0.272 OA
ATOM      6  H   UNL A   1      37.016  24.009  23.843  1.00  0.00     0.163 HD
BRANCH   4   7
ATOM      7  C   UNL A   1      34.437  23.046  23.346  1.00  0.00     0.208 C 
BRANCH   7   8
ATOM      8  O   UNL A   1      34.026  23.796  22.183  1.00  0.00    -0.369 OA
BRANCH   8   9
ATOM      9  C   UNL A   1      32.887  24.643  22.295  1.00  0.00     0.158 C 
ATOM     10  C   UNL A   1      33.070  26.025  21.686  1.00  0.00     0.035 C 
ENDBRANCH   8   9
ENDBRANCH   7   8
BRANCH   7  11
ATOM     11  C   UNL A   1      33.465  21.859  23.611  1.00  0.00     0.066 C 
BRANCH  11  12
ATOM     12  C   UNL A   1      33.478  21.023  24.897  1.00  0.00     0.153 C 
BRANCH  12  13
ATOM     13  N   UNL A   1      33.438  19.568  24.782  1.00  0.00    -0.210 N 
ATOM     14  N   UNL A   1      32.193  18.984  24.900  1.00  0.00    -0.062 NA
ATOM     15  C   UNL A   1      34.640  18.828  24.752  1.00  0.00     0.280 A 
ATOM     16  N   UNL A   1      32.037  17.743  24.975  1.00  0.00    -0.111 NA
ATOM     17  C   UNL A   1      34.426  17.415  24.873  1.00  0.00     0.108 A 
ATOM     18  O   UNL A   1      35.762  19.319  24.696  1.00  0.00    -0.267 OA
ATOM     19  C   UNL A   1      33.137  16.982  24.995  1.00  0.00     0.187 A 
ATOM     20  C   UNL A   1      35.211  16.267  25.024  1.00  0.00     0.151 A 
ATOM     21  N   UNL A   1      33.198  15.654  25.295  1.00  0.00    -0.249 N 
ATOM     22  N   UNL A   1      34.458  15.167  25.186  1.00  0.00    -0.179 NA
ATOM     23  C   UNL A   1      32.130  14.834  25.820  1.00  0.00     0.176 C 
ENDBRANCH  12  13
ENDBRANCH  11  12
ENDBRANCH   7  11
ENDBRANCH   4   7
ENDBRANCH   2   3
ENDBRANCH   1   2
BRANCH   1  24
ATOM     24  C   UNL A   1      38.950  21.905  25.803  1.00  0.00     0.118 C 
BRANCH  24  25
ATOM     25  N   UNL A   1      39.379  20.499  25.817  1.00  0.00    -0.352 N 
ATOM     26  C   UNL A   1      40.675  20.018  25.913  1.00  0.00     0.251 C 
ATOM     27  H   UNL A   1      38.666  19.824  25.751  1.00  0.00     0.163 HD
ATOM     28  O   UNL A   1      41.001  18.870  25.636  1.00  0.00    -0.269 OA
BRANCH  26  29
ATOM     29  C   UNL A   1      41.671  20.945  26.433  1.00  0.00     0.039 A 
ATOM     30  C   UNL A   1      42.099  22.026  25.659  1.00  0.00     0.014 A 
ATOM     31  C   UNL A   1      41.790  20.905  27.811  1.00  0.00     0.014 A 
ATOM     32  C   UNL A   1      42.494  23.181  26.321  1.00  0.00     0.010 A 
ATOM     33  C   UNL A   1      41.970  22.109  28.432  1.00  0.00     0.010 A 
ATOM     34  C   UNL A   1      42.338  23.251  27.714  1.00  0.00    -0.014 A 
BRANCH  34  35
ATOM     35  C   UNL A   1      42.347  24.538  28.413  1.00  0.00     0.031 A 
ATOM     36  C   UNL A   1      41.131  25.390  28.254  1.00  0.00     0.074 A 
ATOM     37  C   UNL A   1      43.275  24.868  29.337  1.00  0.00     0.049 A 
ATOM     38  N   UNL A   1      41.019  26.450  27.520  1.00  0.00    -0.248 NA
ATOM     39  C   UNL A   1      39.866  24.969  28.876  1.00  0.00     0.031 C 
ATOM     40  C   UNL A   1      44.389  24.054  29.853  1.00  0.00     0.029 A 
ATOM     41  N   UNL A   1      43.343  25.981  30.115  1.00  0.00    -0.354 N 
ATOM     42  C   UNL A   1      39.756  26.971  27.794  1.00  0.00     0.074 A 
ATOM     43  C   UNL A   1      39.025  25.920  28.453  1.00  0.00     0.031 C 
ATOM     44  C   UNL A   1      44.823  24.560  31.025  1.00  0.00     0.029 A 
ATOM     45  C   UNL A   1      44.221  25.865  31.181  1.00  0.00     0.049 A 
ATOM     46  H   UNL A   1      42.816  26.794  29.937  1.00  0.00     0.167 HD
ATOM     47  C   UNL A   1      39.511  28.311  27.704  1.00  0.00     0.034 A 
ATOM     48  C   UNL A   1      44.518  26.806  32.097  1.00  0.00     0.034 A 
ATOM     49  C   UNL A   1      40.634  28.999  27.120  1.00  0.00     0.049 A 
ATOM     50  C   UNL A   1      44.267  28.109  31.451  1.00  0.00     0.074 A 
ATOM     51  C   UNL A   1      41.218  29.090  25.877  1.00  0.00     0.029 A 
ATOM     52  N   UNL A   1      41.557  29.425  28.041  1.00  0.00    -0.354 N 
ATOM     53  N   UNL A   1      44.932  28.525  30.407  1.00  0.00    -0.248 NA
ATOM     54  C   UNL A   1      43.048  28.844  31.752  1.00  0.00     0.031 C 
ATOM     55  C   UNL A   1      42.606  29.319  26.120  1.00  0.00     0.029 A 
ATOM     56  C   UNL A   1      42.815  29.401  27.499  1.00  0.00     0.049 A 
ATOM     57  H   UNL A   1      41.347  29.708  28.961  1.00  0.00     0.167 HD
ATOM     58  C   UNL A   1      43.999  29.243  29.682  1.00  0.00     0.074 A 
ATOM     59  C   UNL A   1      42.952  29.575  30.638  1.00  0.00     0.031 C 
ATOM     60  C   UNL A   1      44.002  29.231  28.318  1.00  0.00     0.034 A 
BRANCH  47  61
ATOM     61  C   UNL A   1      38.475  29.092  28.485  1.00  0.00     0.023 A 
ATOM     62  C   UNL A   1      37.618  29.956  27.761  1.00  0.00     0.012 A 
ATOM     63  C   UNL A   1      38.460  29.221  29.891  1.00  0.00     0.148 A 
ATOM     64  C   UNL A   1      36.803  30.900  28.400  1.00  0.00     0.002 A 
ATOM     65  C   UNL A   1      37.580  30.094  30.526  1.00  0.00     0.091 A 
ATOM     66  F   UNL A   1      39.394  28.609  30.625  1.00  0.00    -0.205 F 
ATOM     67  C   UNL A   1      36.770  30.955  29.787  1.00  0.00     0.022 A 
BRANCH  65  68
ATOM     68  S   UNL A   1      37.443  30.141  32.318  1.00  0.00     0.127 S 
ATOM     69  O   UNL A   1      38.686  30.805  32.693  1.00  0.00    -0.237 OA
ATOM     70  O   UNL A   1      36.232  30.939  32.506  1.00  0.00    -0.237 OA
ATOM     71  O   UNL A   1      37.306  28.747  32.726  1.00  0.00    -0.744 OA
ENDBRANCH  65  68
ENDBRANCH  47  61
BRANCH  48  72
ATOM     72  C   UNL A   1      44.912  26.668  33.507  1.00  0.00     0.023 A 
ATOM     73  C   UNL A   1      46.179  27.115  33.917  1.00  0.00     0.012 A 
ATOM     74  C   UNL A   1      43.932  26.398  34.488  1.00  0.00     0.148 A 
ATOM     75  C   UNL A   1      46.444  27.366  35.265  1.00  0.00     0.002 A 
ATOM     76  C   UNL A   1      44.196  26.663  35.827  1.00  0.00     0.091 A 
ATOM     77  F   UNL A   1      42.721  25.980  34.093  1.00  0.00    -0.205 F 
ATOM     78  C   UNL A   1      45.447  27.163  36.217  1.00  0.00     0.022 A 
BRANCH  76  79
ATOM     79  S   UNL A   1      42.945  26.492  37.106  1.00  0.00     0.127 S 
ATOM     80  O   UNL A   1      43.720  26.731  38.324  1.00  0.00    -0.237 OA
ATOM     81  O   UNL A   1      42.012  27.558  36.754  1.00  0.00    -0.237 OA
ATOM     82  O   UNL A   1      42.430  25.134  36.978  1.00  0.00    -0.744 OA
ENDBRANCH  76  79
ENDBRANCH  48  72
BRANCH  60  83
ATOM     83  C   UNL A   1      45.263  28.792  27.616  1.00  0.00     0.023 A 
ATOM     84  C   UNL A   1      46.448  29.556  27.628  1.00  0.00     0.012 A 
ATOM     85  C   UNL A   1      45.294  27.510  27.043  1.00  0.00     0.148 A 
ATOM     86  C   UNL A   1      47.631  29.059  27.073  1.00  0.00     0.002 A 
ATOM     87  C   UNL A   1      46.482  26.999  26.535  1.00  0.00     0.091 A 
ATOM     88  F   UNL A   1      44.158  26.796  27.028  1.00  0.00    -0.205 F 
ATOM     89  C   UNL A   1      47.652  27.774  26.539  1.00  0.00     0.022 A 
BRANCH  87  90
ATOM     90  S   UNL A   1      46.599  25.306  25.953  1.00  0.00     0.127 S 
ATOM     91  O   UNL A   1      46.081  24.553  27.093  1.00  0.00    -0.237 OA
ATOM     92  O   UNL A   1      45.727  25.314  24.777  1.00  0.00    -0.237 OA
ATOM     93  O   UNL A   1      48.008  25.088  25.644  1.00  0.00    -0.744 OA
ENDBRANCH  87  90
ENDBRANCH  60  83
ENDBRANCH  34  35
ENDBRANCH  26  29
ENDBRANCH  24  25
ENDBRANCH   1  24
TORSDOF 18
ENDMDL
MODEL 2
REMARK VINA RESULT:     -11.8      1.684      3.960
REMARK SMILES CCO[C@H](CCn1nnc2c(cnn2C)c1=O)C(=O)NCCCNC(=O)c1ccc(-c2c3nc(c(-c4cccc(S(=O)(=O)[O-])c4F)c4ccc([nH]4)c(-c4cccc(S(=O)(=O)[O-])c4F)c4nc(c(-c5cccc(S(=O)(=O)[O-])c5F)c5ccc2[nH]5)C=C4)C=C3)cc1
REMARK SMILES IDX 22 1 21 2 20 3 18 4 19 5 4 7 3 8 2 9 1 10 5 11 6 12 7 13
REMARK SMILES IDX 8 14 16 15 9 16 11 17 17 18 10 19 12 20 14 21 13 22 15 23
REMARK SMILES IDX 23 24 24 25 25 26 26 28 27 29 28 30 89 31 29 32 88 33 30 34
REMARK SMILES IDX 31 35 32 36 82 37 33 38 87 39 81 40 83 41 34 42 86 43 80 44
REMARK SMILES IDX 79 45 35 47 67 48 47 49 66 50 48 51 51 52 65 53 84 54 49 55
REMARK SMILES IDX 50 56 64 58 85 59 52 60 36 61 37 62 45 63 38 64 40 65 46 66
REMARK SMILES IDX 39 67 41 68 42 69 43 70 44 71 68 72 69 73 77 74 70 75 72 76
REMARK SMILES IDX 78 77 71 78 73 79 74 80 75 81 76 82 53 83 54 84 62 85 55 86
REMARK SMILES IDX 57 87 63 88 56 89 58 90 59 91 60 92 61 93
REMARK H PARENT 20 6 24 27 83 46 51 57
REMARK Flexibility Score: inf
ROOT
ATOM      1  C   UNL A   1      38.006  21.711  25.095  1.00  0.00     0.042 C 
ENDROOT
BRANCH   1   2
ATOM      2  C   UNL A   1      37.025  20.542  25.016  1.00  0.00     0.117 C 
BRANCH   2   3
ATOM      3  N   UNL A   1      35.742  20.926  25.599  1.00  0.00    -0.354 N 
ATOM      4  C   UNL A   1      34.578  20.567  24.965  1.00  0.00     0.249 C 
ATOM      5  O   UNL A   1      34.345  19.378  24.751  1.00  0.00    -0.272 OA
ATOM      6  H   UNL A   1      35.712  21.438  26.440  1.00  0.00     0.163 HD
BRANCH   4   7
ATOM      7  C   UNL A   1      33.528  21.691  24.711  1.00  0.00     0.208 C 
BRANCH   7   8
ATOM      8  O   UNL A   1      32.168  21.339  25.046  1.00  0.00    -0.369 OA
BRANCH   8   9
ATOM      9  C   UNL A   1      31.397  22.267  25.801  1.00  0.00     0.158 C 
ATOM     10  C   UNL A   1      32.136  22.888  26.977  1.00  0.00     0.035 C 
ENDBRANCH   8   9
ENDBRANCH   7   8
BRANCH   7  11
ATOM     11  C   UNL A   1      33.566  22.625  23.466  1.00  0.00     0.066 C 
BRANCH  11  12
ATOM     12  C   UNL A   1      34.571  23.771  23.297  1.00  0.00     0.153 C 
BRANCH  12  13
ATOM     13  N   UNL A   1      34.193  25.103  23.762  1.00  0.00    -0.210 N 
ATOM     14  N   UNL A   1      34.170  25.284  25.130  1.00  0.00    -0.062 NA
ATOM     15  C   UNL A   1      33.697  26.057  22.847  1.00  0.00     0.280 A 
ATOM     16  N   UNL A   1      33.716  26.324  25.663  1.00  0.00    -0.111 NA
ATOM     17  C   UNL A   1      33.156  27.218  23.493  1.00  0.00     0.108 A 
ATOM     18  O   UNL A   1      33.660  25.906  21.631  1.00  0.00    -0.267 OA
ATOM     19  C   UNL A   1      33.190  27.252  24.857  1.00  0.00     0.187 A 
ATOM     20  C   UNL A   1      32.451  28.366  23.118  1.00  0.00     0.151 A 
ATOM     21  N   UNL A   1      32.453  28.333  25.240  1.00  0.00    -0.249 N 
ATOM     22  N   UNL A   1      32.101  29.105  24.183  1.00  0.00    -0.179 NA
ATOM     23  C   UNL A   1      31.938  28.607  26.561  1.00  0.00     0.176 C 
ENDBRANCH  12  13
ENDBRANCH  11  12
ENDBRANCH   7  11
ENDBRANCH   4   7
ENDBRANCH   2   3
ENDBRANCH   1   2
BRANCH   1  24
ATOM     24  C   UNL A   1      39.172  21.498  26.040  1.00  0.00     0.118 C 
BRANCH  24  25
ATOM     25  N   UNL A   1      39.771  20.157  25.999  1.00  0.00    -0.352 N 
ATOM     26  C   UNL A   1      41.118  19.841  25.944  1.00  0.00     0.251 C 
ATOM     27  H   UNL A   1      39.144  19.398  26.013  1.00  0.00     0.163 HD
ATOM     28  O   UNL A   1      41.551  18.739  25.626  1.00  0.00    -0.269 OA
BRANCH  26  29
ATOM     29  C   UNL A   1      42.045  20.889  26.349  1.00  0.00     0.039 A 
ATOM     30  C   UNL A   1      42.206  22.030  25.560  1.00  0.00     0.014 A 
ATOM     31  C   UNL A   1      42.366  20.846  27.695  1.00  0.00     0.014 A 
ATOM     32  C   UNL A   1      42.533  23.220  26.199  1.00  0.00     0.010 A 
ATOM     33  C   UNL A   1      42.469  22.055  28.325  1.00  0.00     0.010 A 
ATOM     34  C   UNL A   1      42.572  23.246  27.602  1.00  0.00    -0.014 A 
BRANCH  34  35
ATOM     35  C   UNL A   1      42.507  24.512  28.336  1.00  0.00     0.031 A 
ATOM     36  C   UNL A   1      41.261  25.316  28.168  1.00  0.00     0.074 A 
ATOM     37  C   UNL A   1      43.396  24.855  29.294  1.00  0.00     0.049 A 
ATOM     38  N   UNL A   1      41.123  26.391  27.462  1.00  0.00    -0.248 NA
ATOM     39  C   UNL A   1      39.999  24.825  28.743  1.00  0.00     0.031 C 
ATOM     40  C   UNL A   1      44.530  24.073  29.817  1.00  0.00     0.029 A 
ATOM     41  N   UNL A   1      43.396  25.946  30.104  1.00  0.00    -0.354 N 
ATOM     42  C   UNL A   1      39.832  26.851  27.715  1.00  0.00     0.074 A 
ATOM     43  C   UNL A   1      39.129  25.752  28.325  1.00  0.00     0.031 C 
ATOM     44  C   UNL A   1      44.911  24.563  31.014  1.00  0.00     0.029 A 
ATOM     45  C   UNL A   1      44.250  25.836  31.190  1.00  0.00     0.049 A 
ATOM     46  H   UNL A   1      42.840  26.741  29.935  1.00  0.00     0.167 HD
ATOM     47  C   UNL A   1      39.532  28.181  27.656  1.00  0.00     0.034 A 
ATOM     48  C   UNL A   1      44.483  26.762  32.140  1.00  0.00     0.034 A 
ATOM     49  C   UNL A   1      40.639  28.932  27.122  1.00  0.00     0.049 A 
ATOM     50  C   UNL A   1      44.193  28.071  31.523  1.00  0.00     0.074 A 
ATOM     51  C   UNL A   1      41.250  29.084  25.899  1.00  0.00     0.029 A 
ATOM     52  N   UNL A   1      41.518  29.371  28.080  1.00  0.00    -0.354 N 
ATOM     53  N   UNL A   1      44.866  28.545  30.510  1.00  0.00    -0.248 NA
ATOM     54  C   UNL A   1      42.936  28.745  31.812  1.00  0.00     0.031 C 
ATOM     55  C   UNL A   1      42.620  29.364  26.185  1.00  0.00     0.029 A 
ATOM     56  C   UNL A   1      42.790  29.415  27.571  1.00  0.00     0.049 A 
ATOM     57  H   UNL A   1      41.272  29.618  29.001  1.00  0.00     0.167 HD
ATOM     58  C   UNL A   1      43.923  29.244  29.780  1.00  0.00     0.074 A 
ATOM     59  C   UNL A   1      42.838  29.504  30.717  1.00  0.00     0.031 C 
ATOM     60  C   UNL A   1      43.962  29.272  28.417  1.00  0.00     0.034 A 
BRANCH  47  61
ATOM     61  C   UNL A   1      38.443  28.895  28.430  1.00  0.00     0.023 A 
ATOM     62  C   UNL A   1      37.521  29.680  27.697  1.00  0.00     0.012 A 
ATOM     63  C   UNL A   1      38.424  29.045  29.834  1.00  0.00     0.148 A 
ATOM     64  C   UNL A   1      36.640  30.570  28.325  1.00  0.00     0.002 A 
ATOM     65  C   UNL A   1      37.484  29.860  30.460  1.00  0.00     0.091 A 
ATOM     66  F   UNL A   1      39.405  28.517  30.572  1.00  0.00    -0.205 F 
ATOM     67  C   UNL A   1      36.608  30.646  29.711  1.00  0.00     0.022 A 
BRANCH  65  68
ATOM     68  S   UNL A   1      37.351  29.925  32.251  1.00  0.00     0.127 S 
ATOM     69  O   UNL A   1      37.194  28.515  32.588  1.00  0.00    -0.237 OA
ATOM     70  O   UNL A   1      38.637  30.514  32.627  1.00  0.00    -0.237 OA
ATOM     71  O   UNL A   1      36.204  30.786  32.517  1.00  0.00    -0.744 OA
ENDBRANCH  65  68
ENDBRANCH  47  61
BRANCH  48  72
ATOM     72  C   UNL A   1      44.845  26.600  33.556  1.00  0.00     0.023 A 
ATOM     73  C   UNL A   1      46.110  27.024  33.998  1.00  0.00     0.012 A 
ATOM     74  C   UNL A   1      43.842  26.332  34.513  1.00  0.00     0.148 A 
ATOM     75  C   UNL A   1      46.350  27.253  35.354  1.00  0.00     0.002 A 
ATOM     76  C   UNL A   1      44.082  26.575  35.860  1.00  0.00     0.091 A 
ATOM     77  F   UNL A   1      42.633  25.936  34.087  1.00  0.00    -0.205 F 
ATOM     78  C   UNL A   1      45.331  27.052  36.282  1.00  0.00     0.022 A 
BRANCH  76  79
ATOM     79  S   UNL A   1      42.802  26.405  37.111  1.00  0.00     0.127 S 
ATOM     80  O   UNL A   1      42.364  25.023  36.912  1.00  0.00    -0.237 OA
ATOM     81  O   UNL A   1      43.555  26.639  38.340  1.00  0.00    -0.237 OA
ATOM     82  O   UNL A   1      41.795  27.408  36.786  1.00  0.00    -0.744 OA
ENDBRANCH  76  79
ENDBRANCH  48  72
BRANCH  60  83
ATOM     83  C   UNL A   1      45.258  28.907  27.737  1.00  0.00     0.023 A 
ATOM     84  C   UNL A   1      46.408  29.720  27.802  1.00  0.00     0.012 A 
ATOM     85  C   UNL A   1      45.358  27.644  27.131  1.00  0.00     0.148 A 
ATOM     86  C   UNL A   1      47.625  29.289  27.266  1.00  0.00     0.002 A 
ATOM     87  C   UNL A   1      46.581  27.198  26.641  1.00  0.00     0.091 A 
ATOM     88  F   UNL A   1      44.255  26.883  27.065  1.00  0.00    -0.205 F 
ATOM     89  C   UNL A   1      47.715  28.022  26.698  1.00  0.00     0.022 A 
BRANCH  87  90
ATOM     90  S   UNL A   1      46.786  25.529  26.016  1.00  0.00     0.127 S 
ATOM     91  O   UNL A   1      46.000  25.564  24.784  1.00  0.00    -0.237 OA
ATOM     92  O   UNL A   1      48.234  25.442  25.817  1.00  0.00    -0.237 OA
ATOM     93  O   UNL A   1      46.277  24.648  27.061  1.00  0.00    -0.744 OA
ENDBRANCH  87  90
ENDBRANCH  60  83
ENDBRANCH  34  35
ENDBRANCH  26  29
ENDBRANCH  24  25
ENDBRANCH   1  24
TORSDOF 18
ENDMDL
MODEL 3
REMARK VINA RESULT:     -11.1      4.504      8.808
REMARK SMILES CCO[C@H](CCn1nnc2c(cnn2C)c1=O)C(=O)NCCCNC(=O)c1ccc(-c2c3nc(c(-c4cccc(S(=O)(=O)[O-])c4F)c4ccc([nH]4)c(-c4cccc(S(=O)(=O)[O-])c4F)c4nc(c(-c5cccc(S(=O)(=O)[O-])c5F)c5ccc2[nH]5)C=C4)C=C3)cc1
REMARK SMILES IDX 22 1 21 2 20 3 18 4 19 5 4 7 3 8 2 9 1 10 5 11 6 12 7 13
REMARK SMILES IDX 8 14 16 15 9 16 11 17 17 18 10 19 12 20 14 21 13 22 15 23
REMARK SMILES IDX 23 24 24 25 25 26 26 28 27 29 28 30 89 31 29 32 88 33 30 34
REMARK SMILES IDX 31 35 32 36 82 37 33 38 87 39 81 40 83 41 34 42 86 43 80 44
REMARK SMILES IDX 79 45 35 47 67 48 47 49 66 50 48 51 51 52 65 53 84 54 49 55
REMARK SMILES IDX 50 56 64 58 85 59 52 60 36 61 37 62 45 63 38 64 40 65 46 66
REMARK SMILES IDX 39 67 41 68 42 69 43 70 44 71 68 72 69 73 77 74 70 75 72 76
REMARK SMILES IDX 78 77 71 78 73 79 74 80 75 81 76 82 53 83 54 84 62 85 55 86
REMARK SMILES IDX 57 87 63 88 56 89 58 90 59 91 60 92 61 93
REMARK H PARENT 20 6 24 27 83 46 51 57
REMARK Flexibility Score: inf
ROOT
ATOM      1  C   UNL A   1      34.446  29.017  26.930  1.00  0.00     0.042 C 
ENDROOT
BRANCH   1   2
ATOM      2  C   UNL A   1      33.131  29.794  26.940  1.00  0.00     0.117 C 
BRANCH   2   3
ATOM      3  N   UNL A   1      32.078  29.001  26.311  1.00  0.00    -0.354 N 
ATOM      4  C   UNL A   1      31.589  27.893  26.959  1.00  0.00     0.249 C 
ATOM      5  O   UNL A   1      31.098  28.012  28.082  1.00  0.00    -0.272 OA
ATOM      6  H   UNL A   1      31.720  29.260  25.431  1.00  0.00     0.163 HD
BRANCH   4   7
ATOM      7  C   UNL A   1      31.526  26.563  26.148  1.00  0.00     0.208 C 
BRANCH   7   8
ATOM      8  O   UNL A   1      31.360  25.372  26.947  1.00  0.00    -0.369 OA
BRANCH   8   9
ATOM      9  C   UNL A   1      30.744  24.237  26.346  1.00  0.00     0.158 C 
ATOM     10  C   UNL A   1      31.332  22.902  26.776  1.00  0.00     0.035 C 
ENDBRANCH   8   9
ENDBRANCH   7   8
BRANCH   7  11
ATOM     11  C   UNL A   1      32.427  26.278  24.911  1.00  0.00     0.066 C 
BRANCH  11  12
ATOM     12  C   UNL A   1      31.949  26.428  23.461  1.00  0.00     0.153 C 
BRANCH  12  13
ATOM     13  N   UNL A   1      30.926  27.429  23.165  1.00  0.00    -0.210 N 
ATOM     14  N   UNL A   1      31.378  28.718  22.973  1.00  0.00    -0.062 NA
ATOM     15  C   UNL A   1      29.559  27.096  23.275  1.00  0.00     0.280 A 
ATOM     16  N   UNL A   1      30.598  29.695  22.867  1.00  0.00    -0.111 NA
ATOM     17  C   UNL A   1      28.699  28.240  23.182  1.00  0.00     0.108 A 
ATOM     18  O   UNL A   1      29.129  25.968  23.493  1.00  0.00    -0.267 OA
ATOM     19  C   UNL A   1      29.289  29.457  23.004  1.00  0.00     0.187 A 
ATOM     20  C   UNL A   1      27.337  28.516  23.341  1.00  0.00     0.151 A 
ATOM     21  N   UNL A   1      28.308  30.392  23.148  1.00  0.00    -0.249 N 
ATOM     22  N   UNL A   1      27.078  29.828  23.223  1.00  0.00    -0.179 NA
ATOM     23  C   UNL A   1      28.485  31.810  23.359  1.00  0.00     0.176 C 
ENDBRANCH  12  13
ENDBRANCH  11  12
ENDBRANCH   7  11
ENDBRANCH   4   7
ENDBRANCH   2   3
ENDBRANCH   1   2
BRANCH   1  24
ATOM     24  C   UNL A   1      35.655  29.809  27.389  1.00  0.00     0.118 C 
BRANCH  24  25
ATOM     25  N   UNL A   1      35.481  31.269  27.384  1.00  0.00    -0.352 N 
ATOM     26  C   UNL A   1      35.809  32.156  28.396  1.00  0.00     0.251 C 
ATOM     27  H   UNL A   1      35.089  31.659  26.570  1.00  0.00     0.163 HD
ATOM     28  O   UNL A   1      35.389  33.306  28.461  1.00  0.00    -0.269 OA
BRANCH  26  29
ATOM     29  C   UNL A   1      36.755  31.677  29.394  1.00  0.00     0.039 A 
ATOM     30  C   UNL A   1      36.560  30.441  30.014  1.00  0.00     0.014 A 
ATOM     31  C   UNL A   1      37.987  32.306  29.328  1.00  0.00     0.014 A 
ATOM     32  C   UNL A   1      37.685  29.734  30.420  1.00  0.00     0.010 A 
ATOM     33  C   UNL A   1      39.078  31.509  29.531  1.00  0.00     0.010 A 
ATOM     34  C   UNL A   1      38.955  30.234  30.090  1.00  0.00    -0.014 A 
BRANCH  34  35
ATOM     35  C   UNL A   1      40.138  29.372  30.122  1.00  0.00     0.031 A 
ATOM     36  C   UNL A   1      40.665  29.014  31.472  1.00  0.00     0.074 A 
ATOM     37  C   UNL A   1      40.613  28.731  29.031  1.00  0.00     0.049 A 
ATOM     38  N   UNL A   1      41.721  29.497  32.043  1.00  0.00    -0.248 NA
ATOM     39  C   UNL A   1      39.887  28.116  32.339  1.00  0.00     0.031 C 
ATOM     40  C   UNL A   1      40.066  28.716  27.663  1.00  0.00     0.029 A 
ATOM     41  N   UNL A   1      41.636  27.840  28.946  1.00  0.00    -0.354 N 
ATOM     42  C   UNL A   1      41.881  28.773  33.223  1.00  0.00     0.074 A 
ATOM     43  C   UNL A   1      40.627  28.103  33.453  1.00  0.00     0.031 C 
ATOM     44  C   UNL A   1      40.564  27.664  26.982  1.00  0.00     0.029 A 
ATOM     45  C   UNL A   1      41.655  27.124  27.759  1.00  0.00     0.049 A 
ATOM     46  H   UNL A   1      42.301  27.716  29.660  1.00  0.00     0.167 HD
ATOM     47  C   UNL A   1      43.117  28.566  33.762  1.00  0.00     0.034 A 
ATOM     48  C   UNL A   1      42.560  26.201  27.381  1.00  0.00     0.034 A 
ATOM     49  C   UNL A   1      44.114  29.342  33.070  1.00  0.00     0.049 A 
ATOM     50  C   UNL A   1      43.806  26.520  28.102  1.00  0.00     0.074 A 
ATOM     51  C   UNL A   1      44.456  30.672  32.967  1.00  0.00     0.029 A 
ATOM     52  N   UNL A   1      44.680  28.688  32.006  1.00  0.00    -0.354 N 
ATOM     53  N   UNL A   1      44.465  27.634  27.927  1.00  0.00    -0.248 NA
ATOM     54  C   UNL A   1      44.181  25.749  29.278  1.00  0.00     0.031 C 
ATOM     55  C   UNL A   1      45.006  30.827  31.659  1.00  0.00     0.029 A 
ATOM     56  C   UNL A   1      45.020  29.582  31.025  1.00  0.00     0.049 A 
ATOM     57  H   UNL A   1      44.821  27.715  31.953  1.00  0.00     0.167 HD
ATOM     58  C   UNL A   1      44.983  27.916  29.177  1.00  0.00     0.074 A 
ATOM     59  C   UNL A   1      44.956  26.647  29.892  1.00  0.00     0.031 C 
ATOM     60  C   UNL A   1      45.088  29.200  29.626  1.00  0.00     0.034 A 
BRANCH  47  61
ATOM     61  C   UNL A   1      43.542  27.392  34.620  1.00  0.00     0.023 A 
ATOM     62  C   UNL A   1      44.023  27.668  35.922  1.00  0.00     0.012 A 
ATOM     63  C   UNL A   1      43.733  26.078  34.142  1.00  0.00     0.148 A 
ATOM     64  C   UNL A   1      44.668  26.695  36.697  1.00  0.00     0.002 A 
ATOM     65  C   UNL A   1      44.289  25.089  34.950  1.00  0.00     0.091 A 
ATOM     66  F   UNL A   1      43.515  25.800  32.852  1.00  0.00    -0.205 F 
ATOM     67  C   UNL A   1      44.784  25.397  36.217  1.00  0.00     0.022 A 
BRANCH  65  68
ATOM     68  S   UNL A   1      44.383  23.379  34.403  1.00  0.00     0.127 S 
ATOM     69  O   UNL A   1      45.373  23.465  33.334  1.00  0.00    -0.237 OA
ATOM     70  O   UNL A   1      44.838  22.700  35.616  1.00  0.00    -0.237 OA
ATOM     71  O   UNL A   1      43.025  23.033  34.001  1.00  0.00    -0.744 OA
ENDBRANCH  65  68
ENDBRANCH  47  61
BRANCH  48  72
ATOM     72  C   UNL A   1      42.406  25.018  26.520  1.00  0.00     0.023 A 
ATOM     73  C   UNL A   1      43.389  24.731  25.559  1.00  0.00     0.012 A 
ATOM     74  C   UNL A   1      41.473  24.015  26.863  1.00  0.00     0.148 A 
ATOM     75  C   UNL A   1      43.495  23.453  25.007  1.00  0.00     0.002 A 
ATOM     76  C   UNL A   1      41.591  22.740  26.322  1.00  0.00     0.091 A 
ATOM     77  F   UNL A   1      40.541  24.289  27.788  1.00  0.00    -0.205 F 
ATOM     78  C   UNL A   1      42.612  22.452  25.405  1.00  0.00     0.022 A 
BRANCH  76  79
ATOM     79  S   UNL A   1      40.536  21.377  26.832  1.00  0.00     0.127 S 
ATOM     80  O   UNL A   1      41.106  20.255  26.085  1.00  0.00    -0.237 OA
ATOM     81  O   UNL A   1      40.775  21.339  28.271  1.00  0.00    -0.237 OA
ATOM     82  O   UNL A   1      39.185  21.747  26.425  1.00  0.00    -0.744 OA
ENDBRANCH  76  79
ENDBRANCH  48  72
BRANCH  60  83
ATOM     83  C   UNL A   1      45.043  30.312  28.608  1.00  0.00     0.023 A 
ATOM     84  C   UNL A   1      43.838  30.908  28.182  1.00  0.00     0.012 A 
ATOM     85  C   UNL A   1      46.258  30.864  28.172  1.00  0.00     0.148 A 
ATOM     86  C   UNL A   1      43.844  32.019  27.333  1.00  0.00     0.002 A 
ATOM     87  C   UNL A   1      46.263  31.998  27.367  1.00  0.00     0.091 A 
ATOM     88  F   UNL A   1      47.399  30.283  28.575  1.00  0.00    -0.205 F 
ATOM     89  C   UNL A   1      45.058  32.573  26.937  1.00  0.00     0.022 A 
BRANCH  87  90
ATOM     90  S   UNL A   1      47.792  32.829  26.931  1.00  0.00     0.127 S 
ATOM     91  O   UNL A   1      47.349  33.766  25.900  1.00  0.00    -0.237 OA
ATOM     92  O   UNL A   1      48.185  33.452  28.197  1.00  0.00    -0.237 OA
ATOM     93  O   UNL A   1      48.701  31.781  26.480  1.00  0.00    -0.744 OA
ENDBRANCH  87  90
ENDBRANCH  60  83
ENDBRANCH  34  35
ENDBRANCH  26  29
ENDBRANCH  24  25
ENDBRANCH   1  24
TORSDOF 18
ENDMDL
