MODEL 1
REMARK VINA RESULT:     -12.4      0.000      0.000
REMARK SMILES CCc1cccc2c3c([nH]c12)[C@](CC)(CC(=O)NCCCNC(=O)c1ccc(-c2c4nc(c(-c5cccc(S(=O)(=O)[O-])c5F)c5ccc([nH]5)c(-c5cccc(S(=O)(=O)[O-])c5F)c5nc(c(-c6cccc(S(=O)(=O)[O-])c6F)c6ccc2[nH]6)C=C5)C=C4)cc1)OCC3
REMARK SMILES IDX 20 1 19 2 18 3 16 4 17 5 15 7 12 8 3 9 4 10 11 11 5 12 7 13
REMARK SMILES IDX 10 14 6 15 8 16 9 17 90 19 89 20 88 21 2 22 1 23 13 24 14 25
REMARK SMILES IDX 21 26 22 27 23 28 24 30 25 31 26 32 87 33 27 34 86 35 28 36
REMARK SMILES IDX 29 37 30 38 80 39 31 40 85 41 79 42 81 43 32 44 84 45 78 46
REMARK SMILES IDX 77 47 33 49 65 50 45 51 64 52 46 53 49 54 63 55 82 56 47 57
REMARK SMILES IDX 48 58 62 60 83 61 50 62 34 63 35 64 43 65 36 66 38 67 44 68
REMARK SMILES IDX 37 69 39 70 40 71 41 72 42 73 66 74 67 75 75 76 68 77 70 78
REMARK SMILES IDX 76 79 69 80 71 81 72 82 73 83 74 84 51 85 52 86 60 87 53 88
REMARK SMILES IDX 55 89 61 90 54 91 56 92 57 93 58 94 59 95
REMARK H PARENT 18 6 10 18 22 29 81 48 49 59
REMARK Flexibility Score: inf
ROOT
ATOM      1  C   UNL A   1      34.108  30.970  27.213  1.00  0.00     0.042 C 
ENDROOT
BRANCH   1   2
ATOM      2  C   UNL A   1      34.292  29.445  27.343  1.00  0.00     0.117 C 
BRANCH   2   3
ATOM      3  N   UNL A   1      33.136  28.713  27.862  1.00  0.00    -0.356 N 
ATOM      4  C   UNL A   1      31.961  28.301  27.294  1.00  0.00     0.223 C 
ATOM      5  O   UNL A   1      31.132  27.763  28.032  1.00  0.00    -0.275 OA
ATOM      6  H   UNL A   1      33.220  28.468  28.812  1.00  0.00     0.163 HD
BRANCH   4   7
ATOM      7  C   UNL A   1      31.722  28.423  25.806  1.00  0.00     0.142 C 
BRANCH   7   8
ATOM      8  C   UNL A   1      31.853  27.178  24.892  1.00  0.00     0.117 C 
ATOM      9  C   UNL A   1      35.268  23.564  25.976  1.00  0.00    -0.024 A 
ATOM     10  C   UNL A   1      35.112  22.299  26.604  1.00  0.00     0.006 A 
ATOM     11  C   UNL A   1      34.119  24.388  25.966  1.00  0.00     0.049 A 
ATOM     12  C   UNL A   1      33.909  21.867  27.150  1.00  0.00     0.001 A 
ATOM     13  C   UNL A   1      32.887  23.932  26.445  1.00  0.00     0.003 A 
ATOM     14  N   UNL A   1      33.890  25.678  25.500  1.00  0.00    -0.356 N 
ATOM     15  C   UNL A   1      32.782  22.669  27.056  1.00  0.00     0.010 A 
ATOM     16  C   UNL A   1      31.918  24.879  26.052  1.00  0.00    -0.014 A 
ATOM     17  C   UNL A   1      32.547  25.982  25.521  1.00  0.00     0.052 A 
ATOM     18  H   UNL A   1      34.595  26.294  25.196  1.00  0.00     0.166 HD
ATOM     19  C   UNL A   1      30.461  24.702  26.003  1.00  0.00     0.066 C 
ATOM     20  C   UNL A   1      29.801  25.903  25.343  1.00  0.00     0.166 C 
ATOM     21  O   UNL A   1      30.576  26.683  24.422  1.00  0.00    -0.368 OA
BRANCH   9  22
ATOM     22  C   UNL A   1      36.619  23.818  25.343  1.00  0.00     0.034 C 
ATOM     23  C   UNL A   1      37.834  23.913  26.247  1.00  0.00     0.009 C 
ENDBRANCH   9  22
BRANCH   8  24
ATOM     24  C   UNL A   1      32.619  27.599  23.594  1.00  0.00     0.039 C 
ATOM     25  C   UNL A   1      33.314  28.961  23.650  1.00  0.00     0.007 C 
ENDBRANCH   8  24
ENDBRANCH   7   8
ENDBRANCH   4   7
ENDBRANCH   2   3
ENDBRANCH   1   2
BRANCH   1  26
ATOM     26  C   UNL A   1      35.037  31.839  28.069  1.00  0.00     0.118 C 
BRANCH  26  27
ATOM     27  N   UNL A   1      34.702  31.931  29.466  1.00  0.00    -0.352 N 
ATOM     28  C   UNL A   1      35.415  31.698  30.609  1.00  0.00     0.251 C 
ATOM     29  H   UNL A   1      33.776  32.219  29.631  1.00  0.00     0.163 HD
ATOM     30  O   UNL A   1      34.879  32.018  31.672  1.00  0.00    -0.269 OA
BRANCH  28  31
ATOM     31  C   UNL A   1      36.730  31.012  30.636  1.00  0.00     0.039 A 
ATOM     32  C   UNL A   1      37.975  31.644  30.663  1.00  0.00     0.014 A 
ATOM     33  C   UNL A   1      36.678  29.609  30.667  1.00  0.00     0.014 A 
ATOM     34  C   UNL A   1      39.143  30.891  30.600  1.00  0.00     0.010 A 
ATOM     35  C   UNL A   1      37.844  28.854  30.651  1.00  0.00     0.010 A 
ATOM     36  C   UNL A   1      39.077  29.496  30.570  1.00  0.00    -0.014 A 
BRANCH  36  37
ATOM     37  C   UNL A   1      40.331  28.744  30.592  1.00  0.00     0.031 A 
ATOM     38  C   UNL A   1      41.037  28.727  31.906  1.00  0.00     0.074 A 
ATOM     39  C   UNL A   1      40.768  27.992  29.562  1.00  0.00     0.049 A 
ATOM     40  N   UNL A   1      42.207  29.204  32.194  1.00  0.00    -0.248 NA
ATOM     41  C   UNL A   1      40.303  28.198  33.066  1.00  0.00     0.031 C 
ATOM     42  C   UNL A   1      40.054  27.662  28.325  1.00  0.00     0.029 A 
ATOM     43  N   UNL A   1      41.906  27.245  29.470  1.00  0.00    -0.354 N 
ATOM     44  C   UNL A   1      42.446  28.838  33.519  1.00  0.00     0.074 A 
ATOM     45  C   UNL A   1      41.193  28.361  34.046  1.00  0.00     0.031 C 
ATOM     46  C   UNL A   1      40.654  26.605  27.735  1.00  0.00     0.029 A 
ATOM     47  C   UNL A   1      41.865  26.281  28.466  1.00  0.00     0.049 A 
ATOM     48  H   UNL A   1      42.684  27.377  30.057  1.00  0.00     0.167 HD
ATOM     49  C   UNL A   1      43.702  28.732  34.030  1.00  0.00     0.034 A 
ATOM     50  C   UNL A   1      42.734  25.255  28.298  1.00  0.00     0.034 A 
ATOM     51  C   UNL A   1      44.685  29.387  33.215  1.00  0.00     0.049 A 
ATOM     52  C   UNL A   1      43.978  25.626  29.010  1.00  0.00     0.074 A 
ATOM     53  C   UNL A   1      44.906  30.675  32.776  1.00  0.00     0.029 A 
ATOM     54  N   UNL A   1      45.478  28.576  32.443  1.00  0.00    -0.354 N 
ATOM     55  N   UNL A   1      44.762  26.603  28.650  1.00  0.00    -0.248 NA
ATOM     56  C   UNL A   1      44.189  25.110  30.352  1.00  0.00     0.031 C 
ATOM     57  C   UNL A   1      45.458  30.527  31.471  1.00  0.00     0.029 A 
ATOM     58  C   UNL A   1      45.568  29.158  31.209  1.00  0.00     0.049 A 
ATOM     59  H   UNL A   1      45.903  27.734  32.724  1.00  0.00     0.167 HD
ATOM     60  C   UNL A   1      45.264  27.101  29.844  1.00  0.00     0.074 A 
ATOM     61  C   UNL A   1      44.984  26.068  30.834  1.00  0.00     0.031 C 
ATOM     62  C   UNL A   1      45.600  28.417  29.969  1.00  0.00     0.034 A 
BRANCH  49  63
ATOM     63  C   UNL A   1      44.112  27.726  35.078  1.00  0.00     0.023 A 
ATOM     64  C   UNL A   1      44.838  28.189  36.197  1.00  0.00     0.012 A 
ATOM     65  C   UNL A   1      44.075  26.329  34.865  1.00  0.00     0.148 A 
ATOM     66  C   UNL A   1      45.513  27.306  37.048  1.00  0.00     0.002 A 
ATOM     67  C   UNL A   1      44.681  25.453  35.758  1.00  0.00     0.091 A 
ATOM     68  F   UNL A   1      43.576  25.844  33.723  1.00  0.00    -0.205 F 
ATOM     69  C   UNL A   1      45.423  25.935  36.836  1.00  0.00     0.022 A 
BRANCH  67  70
ATOM     70  S   UNL A   1      44.548  23.674  35.542  1.00  0.00     0.127 S 
ATOM     71  O   UNL A   1      45.373  23.467  34.349  1.00  0.00    -0.237 OA
ATOM     72  O   UNL A   1      45.136  23.177  36.790  1.00  0.00    -0.237 OA
ATOM     73  O   UNL A   1      43.131  23.409  35.404  1.00  0.00    -0.744 OA
ENDBRANCH  67  70
ENDBRANCH  49  63
BRANCH  50  74
ATOM     74  C   UNL A   1      42.530  23.888  27.757  1.00  0.00     0.023 A 
ATOM     75  C   UNL A   1      41.270  23.272  27.912  1.00  0.00     0.012 A 
ATOM     76  C   UNL A   1      43.444  23.302  26.854  1.00  0.00     0.148 A 
ATOM     77  C   UNL A   1      40.908  22.152  27.153  1.00  0.00     0.002 A 
ATOM     78  C   UNL A   1      43.086  22.178  26.111  1.00  0.00     0.091 A 
ATOM     79  F   UNL A   1      44.626  23.896  26.647  1.00  0.00    -0.205 F 
ATOM     80  C   UNL A   1      41.812  21.613  26.244  1.00  0.00     0.022 A 
BRANCH  78  81
ATOM     81  S   UNL A   1      44.203  21.423  24.921  1.00  0.00     0.127 S 
ATOM     82  O   UNL A   1      44.105  22.338  23.783  1.00  0.00    -0.237 OA
ATOM     83  O   UNL A   1      45.478  21.466  25.631  1.00  0.00    -0.237 OA
ATOM     84  O   UNL A   1      43.662  20.094  24.663  1.00  0.00    -0.744 OA
ENDBRANCH  78  81
ENDBRANCH  50  74
BRANCH  62  85
ATOM     85  C   UNL A   1      45.725  29.248  28.722  1.00  0.00     0.023 A 
ATOM     86  C   UNL A   1      44.594  29.726  28.029  1.00  0.00     0.012 A 
ATOM     87  C   UNL A   1      46.996  29.752  28.400  1.00  0.00     0.148 A 
ATOM     88  C   UNL A   1      44.732  30.697  27.033  1.00  0.00     0.002 A 
ATOM     89  C   UNL A   1      47.123  30.748  27.441  1.00  0.00     0.091 A 
ATOM     90  F   UNL A   1      48.051  29.290  29.088  1.00  0.00    -0.205 F 
ATOM     91  C   UNL A   1      45.993  31.220  26.752  1.00  0.00     0.022 A 
BRANCH  89  92
ATOM     92  S   UNL A   1      48.689  31.564  27.123  1.00  0.00     0.127 S 
ATOM     93  O   UNL A   1      48.304  32.603  26.171  1.00  0.00    -0.237 OA
ATOM     94  O   UNL A   1      49.054  32.056  28.452  1.00  0.00    -0.237 OA
ATOM     95  O   UNL A   1      49.582  30.542  26.594  1.00  0.00    -0.744 OA
ENDBRANCH  89  92
ENDBRANCH  62  85
ENDBRANCH  36  37
ENDBRANCH  28  31
ENDBRANCH  26  27
ENDBRANCH   1  26
TORSDOF 16
ENDMDL
MODEL 2
REMARK VINA RESULT:     -11.9      3.300      9.168
REMARK SMILES CCc1cccc2c3c([nH]c12)[C@](CC)(CC(=O)NCCCNC(=O)c1ccc(-c2c4nc(c(-c5cccc(S(=O)(=O)[O-])c5F)c5ccc([nH]5)c(-c5cccc(S(=O)(=O)[O-])c5F)c5nc(c(-c6cccc(S(=O)(=O)[O-])c6F)c6ccc2[nH]6)C=C5)C=C4)cc1)OCC3
REMARK SMILES IDX 20 1 19 2 18 3 16 4 17 5 15 7 12 8 3 9 4 10 11 11 5 12 7 13
REMARK SMILES IDX 10 14 6 15 8 16 9 17 90 19 89 20 88 21 2 22 1 23 13 24 14 25
REMARK SMILES IDX 21 26 22 27 23 28 24 30 25 31 26 32 87 33 27 34 86 35 28 36
REMARK SMILES IDX 29 37 30 38 80 39 31 40 85 41 79 42 81 43 32 44 84 45 78 46
REMARK SMILES IDX 77 47 33 49 65 50 45 51 64 52 46 53 49 54 63 55 82 56 47 57
REMARK SMILES IDX 48 58 62 60 83 61 50 62 34 63 35 64 43 65 36 66 38 67 44 68
REMARK SMILES IDX 37 69 39 70 40 71 41 72 42 73 66 74 67 75 75 76 68 77 70 78
REMARK SMILES IDX 76 79 69 80 71 81 72 82 73 83 74 84 51 85 52 86 60 87 53 88
REMARK SMILES IDX 55 89 61 90 54 91 56 92 57 93 58 94 59 95
REMARK H PARENT 18 6 10 18 22 29 81 48 49 59
REMARK Flexibility Score: inf
ROOT
ATOM      1  C   UNL A   1      38.851  21.923  26.121  1.00  0.00     0.042 C 
ENDROOT
BRANCH   1   2
ATOM      2  C   UNL A   1      37.938  23.131  25.829  1.00  0.00     0.117 C 
BRANCH   2   3
ATOM      3  N   UNL A   1      37.519  23.282  24.435  1.00  0.00    -0.356 N 
ATOM      4  C   UNL A   1      36.436  22.829  23.733  1.00  0.00     0.223 C 
ATOM      5  O   UNL A   1      36.408  23.060  22.522  1.00  0.00    -0.275 OA
ATOM      6  H   UNL A   1      38.143  23.817  23.893  1.00  0.00     0.163 HD
BRANCH   4   7
ATOM      7  C   UNL A   1      35.280  22.144  24.426  1.00  0.00     0.142 C 
BRANCH   7   8
ATOM      8  C   UNL A   1      33.905  22.852  24.527  1.00  0.00     0.117 C 
ATOM      9  C   UNL A   1      33.671  27.880  25.276  1.00  0.00    -0.024 A 
ATOM     10  C   UNL A   1      33.438  28.943  24.364  1.00  0.00     0.006 A 
ATOM     11  C   UNL A   1      33.817  26.598  24.697  1.00  0.00     0.049 A 
ATOM     12  C   UNL A   1      33.325  28.755  22.991  1.00  0.00     0.001 A 
ATOM     13  C   UNL A   1      33.631  26.389  23.328  1.00  0.00     0.003 A 
ATOM     14  N   UNL A   1      34.094  25.347  25.239  1.00  0.00    -0.356 N 
ATOM     15  C   UNL A   1      33.399  27.474  22.465  1.00  0.00     0.010 A 
ATOM     16  C   UNL A   1      33.586  24.992  23.129  1.00  0.00    -0.014 A 
ATOM     17  C   UNL A   1      33.930  24.353  24.300  1.00  0.00     0.052 A 
ATOM     18  H   UNL A   1      34.371  25.192  26.170  1.00  0.00     0.166 HD
ATOM     19  C   UNL A   1      33.074  24.269  21.958  1.00  0.00     0.066 C 
ATOM     20  C   UNL A   1      33.035  22.774  22.230  1.00  0.00     0.166 C 
ATOM     21  O   UNL A   1      32.929  22.334  23.591  1.00  0.00    -0.368 OA
BRANCH   9  22
ATOM     22  C   UNL A   1      33.654  28.259  26.742  1.00  0.00     0.034 C 
ATOM     23  C   UNL A   1      32.340  28.174  27.496  1.00  0.00     0.009 C 
ENDBRANCH   9  22
BRANCH   8  24
ATOM     24  C   UNL A   1      33.299  22.551  25.939  1.00  0.00     0.039 C 
ATOM     25  C   UNL A   1      33.686  21.202  26.549  1.00  0.00     0.007 C 
ENDBRANCH   8  24
ENDBRANCH   7   8
ENDBRANCH   4   7
ENDBRANCH   2   3
ENDBRANCH   1   2
BRANCH   1  26
ATOM     26  C   UNL A   1      39.994  22.163  27.113  1.00  0.00     0.118 C 
BRANCH  26  27
ATOM     27  N   UNL A   1      41.311  22.277  26.540  1.00  0.00    -0.352 N 
ATOM     28  C   UNL A   1      42.287  23.229  26.639  1.00  0.00     0.251 C 
ATOM     29  H   UNL A   1      41.556  21.520  25.962  1.00  0.00     0.163 HD
ATOM     30  O   UNL A   1      43.379  22.956  26.137  1.00  0.00    -0.269 OA
BRANCH  28  31
ATOM     31  C   UNL A   1      42.072  24.575  27.226  1.00  0.00     0.039 A 
ATOM     32  C   UNL A   1      41.274  25.581  26.679  1.00  0.00     0.014 A 
ATOM     33  C   UNL A   1      42.719  24.809  28.449  1.00  0.00     0.014 A 
ATOM     34  C   UNL A   1      41.218  26.834  27.280  1.00  0.00     0.010 A 
ATOM     35  C   UNL A   1      42.629  26.045  29.076  1.00  0.00     0.010 A 
ATOM     36  C   UNL A   1      41.916  27.074  28.466  1.00  0.00    -0.014 A 
BRANCH  36  37
ATOM     37  C   UNL A   1      41.759  28.378  29.108  1.00  0.00     0.031 A 
ATOM     38  C   UNL A   1      42.739  29.419  28.677  1.00  0.00     0.074 A 
ATOM     39  C   UNL A   1      40.729  28.692  29.920  1.00  0.00     0.049 A 
ATOM     40  N   UNL A   1      43.630  30.026  29.395  1.00  0.00    -0.248 NA
ATOM     41  C   UNL A   1      42.796  29.748  27.246  1.00  0.00     0.031 C 
ATOM     42  C   UNL A   1      39.534  27.893  30.202  1.00  0.00     0.029 A 
ATOM     43  N   UNL A   1      40.473  29.868  30.563  1.00  0.00    -0.354 N 
ATOM     44  C   UNL A   1      44.209  30.974  28.551  1.00  0.00     0.074 A 
ATOM     45  C   UNL A   1      43.771  30.657  27.216  1.00  0.00     0.031 C 
ATOM     46  C   UNL A   1      38.585  28.689  30.743  1.00  0.00     0.029 A 
ATOM     47  C   UNL A   1      39.152  30.004  30.978  1.00  0.00     0.049 A 
ATOM     48  H   UNL A   1      41.160  30.555  30.720  1.00  0.00     0.167 HD
ATOM     49  C   UNL A   1      44.823  32.092  29.023  1.00  0.00     0.034 A 
ATOM     50  C   UNL A   1      38.558  31.140  31.418  1.00  0.00     0.034 A 
ATOM     51  C   UNL A   1      45.140  31.997  30.420  1.00  0.00     0.049 A 
ATOM     52  C   UNL A   1      39.642  32.043  31.868  1.00  0.00     0.074 A 
ATOM     53  C   UNL A   1      45.913  31.167  31.203  1.00  0.00     0.029 A 
ATOM     54  N   UNL A   1      44.330  32.693  31.280  1.00  0.00    -0.354 N 
ATOM     55  N   UNL A   1      40.405  31.813  32.898  1.00  0.00    -0.248 NA
ATOM     56  C   UNL A   1      40.111  33.072  30.953  1.00  0.00     0.031 C 
ATOM     57  C   UNL A   1      45.209  31.070  32.438  1.00  0.00     0.029 A 
ATOM     58  C   UNL A   1      44.068  31.871  32.340  1.00  0.00     0.049 A 
ATOM     59  H   UNL A   1      43.999  33.612  31.158  1.00  0.00     0.167 HD
ATOM     60  C   UNL A   1      41.635  32.349  32.545  1.00  0.00     0.074 A 
ATOM     61  C   UNL A   1      41.358  33.218  31.407  1.00  0.00     0.031 C 
ATOM     62  C   UNL A   1      42.796  31.819  33.025  1.00  0.00     0.034 A 
BRANCH  49  63
ATOM     63  C   UNL A   1      44.815  33.428  28.321  1.00  0.00     0.023 A 
ATOM     64  C   UNL A   1      43.566  34.023  28.037  1.00  0.00     0.012 A 
ATOM     65  C   UNL A   1      45.949  33.970  27.676  1.00  0.00     0.148 A 
ATOM     66  C   UNL A   1      43.450  35.088  27.137  1.00  0.00     0.002 A 
ATOM     67  C   UNL A   1      45.839  35.078  26.844  1.00  0.00     0.091 A 
ATOM     68  F   UNL A   1      47.122  33.332  27.748  1.00  0.00    -0.205 F 
ATOM     69  C   UNL A   1      44.589  35.625  26.550  1.00  0.00     0.022 A 
BRANCH  67  70
ATOM     70  S   UNL A   1      47.293  35.828  26.104  1.00  0.00     0.127 S 
ATOM     71  O   UNL A   1      47.614  34.857  25.054  1.00  0.00    -0.237 OA
ATOM     72  O   UNL A   1      46.758  37.104  25.619  1.00  0.00    -0.237 OA
ATOM     73  O   UNL A   1      48.251  35.955  27.183  1.00  0.00    -0.744 OA
ENDBRANCH  67  70
ENDBRANCH  49  63
BRANCH  50  74
ATOM     74  C   UNL A   1      37.156  31.613  31.300  1.00  0.00     0.023 A 
ATOM     75  C   UNL A   1      36.512  32.133  32.443  1.00  0.00     0.012 A 
ATOM     76  C   UNL A   1      36.546  31.828  30.045  1.00  0.00     0.148 A 
ATOM     77  C   UNL A   1      35.340  32.891  32.337  1.00  0.00     0.002 A 
ATOM     78  C   UNL A   1      35.371  32.570  29.945  1.00  0.00     0.091 A 
ATOM     79  F   UNL A   1      37.164  31.393  28.939  1.00  0.00    -0.205 F 
ATOM     80  C   UNL A   1      34.776  33.120  31.087  1.00  0.00     0.022 A 
BRANCH  78  81
ATOM     81  S   UNL A   1      34.582  32.903  28.363  1.00  0.00     0.127 S 
ATOM     82  O   UNL A   1      35.693  33.432  27.570  1.00  0.00    -0.237 OA
ATOM     83  O   UNL A   1      34.126  31.574  27.965  1.00  0.00    -0.237 OA
ATOM     84  O   UNL A   1      33.535  33.878  28.644  1.00  0.00    -0.744 OA
ENDBRANCH  78  81
ENDBRANCH  50  74
BRANCH  62  85
ATOM     85  C   UNL A   1      42.724  30.861  34.182  1.00  0.00     0.023 A 
ATOM     86  C   UNL A   1      42.678  31.310  35.518  1.00  0.00     0.012 A 
ATOM     87  C   UNL A   1      42.451  29.514  33.897  1.00  0.00     0.148 A 
ATOM     88  C   UNL A   1      42.358  30.425  36.551  1.00  0.00     0.002 A 
ATOM     89  C   UNL A   1      42.090  28.649  34.921  1.00  0.00     0.091 A 
ATOM     90  F   UNL A   1      42.487  29.120  32.615  1.00  0.00    -0.205 F 
ATOM     91  C   UNL A   1      42.047  29.100  36.251  1.00  0.00     0.022 A 
BRANCH  89  92
ATOM     92  S   UNL A   1      41.546  26.970  34.597  1.00  0.00     0.127 S 
ATOM     93  O   UNL A   1      40.433  27.183  33.672  1.00  0.00    -0.237 OA
ATOM     94  O   UNL A   1      42.737  26.373  33.993  1.00  0.00    -0.237 OA
ATOM     95  O   UNL A   1      41.176  26.403  35.887  1.00  0.00    -0.744 OA
ENDBRANCH  89  92
ENDBRANCH  62  85
ENDBRANCH  36  37
ENDBRANCH  28  31
ENDBRANCH  26  27
ENDBRANCH   1  26
TORSDOF 16
ENDMDL
MODEL 3
REMARK VINA RESULT:     -11.9      3.467      6.570
REMARK SMILES CCc1cccc2c3c([nH]c12)[C@](CC)(CC(=O)NCCCNC(=O)c1ccc(-c2c4nc(c(-c5cccc(S(=O)(=O)[O-])c5F)c5ccc([nH]5)c(-c5cccc(S(=O)(=O)[O-])c5F)c5nc(c(-c6cccc(S(=O)(=O)[O-])c6F)c6ccc2[nH]6)C=C5)C=C4)cc1)OCC3
REMARK SMILES IDX 20 1 19 2 18 3 16 4 17 5 15 7 12 8 3 9 4 10 11 11 5 12 7 13
REMARK SMILES IDX 10 14 6 15 8 16 9 17 90 19 89 20 88 21 2 22 1 23 13 24 14 25
REMARK SMILES IDX 21 26 22 27 23 28 24 30 25 31 26 32 87 33 27 34 86 35 28 36
REMARK SMILES IDX 29 37 30 38 80 39 31 40 85 41 79 42 81 43 32 44 84 45 78 46
REMARK SMILES IDX 77 47 33 49 65 50 45 51 64 52 46 53 49 54 63 55 82 56 47 57
REMARK SMILES IDX 48 58 62 60 83 61 50 62 34 63 35 64 43 65 36 66 38 67 44 68
REMARK SMILES IDX 37 69 39 70 40 71 41 72 42 73 66 74 67 75 75 76 68 77 70 78
REMARK SMILES IDX 76 79 69 80 71 81 72 82 73 83 74 84 51 85 52 86 60 87 53 88
REMARK SMILES IDX 55 89 61 90 54 91 56 92 57 93 58 94 59 95
REMARK H PARENT 18 6 10 18 22 29 81 48 49 59
REMARK Flexibility Score: inf
ROOT
ATOM      1  C   UNL A   1      33.737  35.159  29.410  1.00  0.00     0.042 C 
ENDROOT
BRANCH   1   2
ATOM      2  C   UNL A   1      33.362  35.722  30.796  1.00  0.00     0.117 C 
BRANCH   2   3
ATOM      3  N   UNL A   1      33.090  34.723  31.830  1.00  0.00    -0.356 N 
ATOM      4  C   UNL A   1      33.879  34.109  32.763  1.00  0.00     0.223 C 
ATOM      5  O   UNL A   1      33.360  33.229  33.455  1.00  0.00    -0.275 OA
ATOM      6  H   UNL A   1      32.149  34.433  31.859  1.00  0.00     0.163 HD
BRANCH   4   7
ATOM      7  C   UNL A   1      35.307  34.547  32.997  1.00  0.00     0.142 C 
BRANCH   7   8
ATOM      8  C   UNL A   1      36.423  33.490  33.197  1.00  0.00     0.117 C 
ATOM      9  C   UNL A   1      41.136  34.403  31.510  1.00  0.00    -0.024 A 
ATOM     10  C   UNL A   1      42.301  34.835  32.201  1.00  0.00     0.006 A 
ATOM     11  C   UNL A   1      39.944  34.392  32.270  1.00  0.00     0.049 A 
ATOM     12  C   UNL A   1      42.297  35.196  33.543  1.00  0.00     0.001 A 
ATOM     13  C   UNL A   1      39.945  34.681  33.638  1.00  0.00     0.003 A 
ATOM     14  N   UNL A   1      38.626  34.086  31.948  1.00  0.00    -0.356 N 
ATOM     15  C   UNL A   1      41.125  35.101  34.277  1.00  0.00     0.010 A 
ATOM     16  C   UNL A   1      38.672  34.327  34.133  1.00  0.00    -0.014 A 
ATOM     17  C   UNL A   1      37.843  34.015  33.078  1.00  0.00     0.052 A 
ATOM     18  H   UNL A   1      38.296  33.939  31.032  1.00  0.00     0.166 HD
ATOM     19  C   UNL A   1      38.283  34.111  35.532  1.00  0.00     0.066 C 
ATOM     20  C   UNL A   1      36.868  33.558  35.612  1.00  0.00     0.166 C 
ATOM     21  O   UNL A   1      36.358  32.833  34.485  1.00  0.00    -0.368 OA
BRANCH   9  22
ATOM     22  C   UNL A   1      41.353  33.946  30.083  1.00  0.00     0.034 C 
ATOM     23  C   UNL A   1      41.657  34.994  29.028  1.00  0.00     0.009 C 
ENDBRANCH   9  22
BRANCH   8  24
ATOM     24  C   UNL A   1      36.206  32.342  32.154  1.00  0.00     0.039 C 
ATOM     25  C   UNL A   1      36.721  30.964  32.574  1.00  0.00     0.007 C 
ENDBRANCH   8  24
ENDBRANCH   7   8
ENDBRANCH   4   7
ENDBRANCH   2   3
ENDBRANCH   1   2
BRANCH   1  26
ATOM     26  C   UNL A   1      34.472  33.815  29.403  1.00  0.00     0.118 C 
BRANCH  26  27
ATOM     27  N   UNL A   1      34.002  32.845  28.449  1.00  0.00    -0.352 N 
ATOM     28  C   UNL A   1      34.482  31.630  28.046  1.00  0.00     0.251 C 
ATOM     29  H   UNL A   1      33.169  33.109  27.996  1.00  0.00     0.163 HD
ATOM     30  O   UNL A   1      33.755  30.964  27.306  1.00  0.00    -0.269 OA
BRANCH  28  31
ATOM     31  C   UNL A   1      35.840  31.128  28.374  1.00  0.00     0.039 A 
ATOM     32  C   UNL A   1      36.924  31.916  28.765  1.00  0.00     0.014 A 
ATOM     33  C   UNL A   1      36.001  29.735  28.304  1.00  0.00     0.014 A 
ATOM     34  C   UNL A   1      38.173  31.338  28.965  1.00  0.00     0.010 A 
ATOM     35  C   UNL A   1      37.236  29.149  28.547  1.00  0.00     0.010 A 
ATOM     36  C   UNL A   1      38.335  29.957  28.832  1.00  0.00    -0.014 A 
BRANCH  36  37
ATOM     37  C   UNL A   1      39.645  29.382  29.136  1.00  0.00     0.031 A 
ATOM     38  C   UNL A   1      39.908  29.132  30.583  1.00  0.00     0.074 A 
ATOM     39  C   UNL A   1      40.513  28.964  28.192  1.00  0.00     0.049 A 
ATOM     40  N   UNL A   1      40.818  29.665  31.336  1.00  0.00    -0.248 NA
ATOM     41  C   UNL A   1      38.976  28.251  31.301  1.00  0.00     0.031 C 
ATOM     42  C   UNL A   1      40.287  28.860  26.748  1.00  0.00     0.029 A 
ATOM     43  N   UNL A   1      41.748  28.408  28.352  1.00  0.00    -0.354 N 
ATOM     44  C   UNL A   1      40.710  29.019  32.568  1.00  0.00     0.074 A 
ATOM     45  C   UNL A   1      39.475  28.278  32.537  1.00  0.00     0.031 C 
ATOM     46  C   UNL A   1      41.233  28.061  26.207  1.00  0.00     0.029 A 
ATOM     47  C   UNL A   1      42.204  27.720  27.231  1.00  0.00     0.049 A 
ATOM     48  H   UNL A   1      42.270  28.487  29.183  1.00  0.00     0.167 HD
ATOM     49  C   UNL A   1      41.747  28.948  33.446  1.00  0.00     0.034 A 
ATOM     50  C   UNL A   1      43.266  26.881  27.176  1.00  0.00     0.034 A 
ATOM     51  C   UNL A   1      42.782  29.897  33.153  1.00  0.00     0.049 A 
ATOM     52  C   UNL A   1      44.138  27.218  28.325  1.00  0.00     0.074 A 
ATOM     53  C   UNL A   1      42.869  31.271  33.068  1.00  0.00     0.029 A 
ATOM     54  N   UNL A   1      43.915  29.403  32.557  1.00  0.00    -0.354 N 
ATOM     55  N   UNL A   1      44.787  28.341  28.446  1.00  0.00    -0.248 NA
ATOM     56  C   UNL A   1      44.028  26.420  29.535  1.00  0.00     0.031 C 
ATOM     57  C   UNL A   1      43.809  31.514  32.026  1.00  0.00     0.029 A 
ATOM     58  C   UNL A   1      44.259  30.275  31.562  1.00  0.00     0.049 A 
ATOM     59  H   UNL A   1      44.392  28.577  32.801  1.00  0.00     0.167 HD
ATOM     60  C   UNL A   1      44.794  28.592  29.810  1.00  0.00     0.074 A 
ATOM     61  C   UNL A   1      44.435  27.322  30.431  1.00  0.00     0.031 C 
ATOM     62  C   UNL A   1      44.811  29.868  30.290  1.00  0.00     0.034 A 
BRANCH  49  63
ATOM     63  C   UNL A   1      42.009  27.774  34.359  1.00  0.00     0.023 A 
ATOM     64  C   UNL A   1      41.677  27.908  35.725  1.00  0.00     0.012 A 
ATOM     65  C   UNL A   1      42.825  26.679  33.997  1.00  0.00     0.148 A 
ATOM     66  C   UNL A   1      42.156  27.009  36.685  1.00  0.00     0.002 A 
ATOM     67  C   UNL A   1      43.232  25.746  34.942  1.00  0.00     0.091 A 
ATOM     68  F   UNL A   1      43.334  26.610  32.762  1.00  0.00    -0.205 F 
ATOM     69  C   UNL A   1      42.922  25.919  36.292  1.00  0.00     0.022 A 
BRANCH  67  70
ATOM     70  S   UNL A   1      44.185  24.300  34.465  1.00  0.00     0.127 S 
ATOM     71  O   UNL A   1      43.479  23.878  33.252  1.00  0.00    -0.237 OA
ATOM     72  O   UNL A   1      45.512  24.879  34.234  1.00  0.00    -0.237 OA
ATOM     73  O   UNL A   1      44.116  23.403  35.600  1.00  0.00    -0.744 OA
ENDBRANCH  67  70
ENDBRANCH  49  63
BRANCH  50  74
ATOM     74  C   UNL A   1      43.509  25.672  26.349  1.00  0.00     0.023 A 
ATOM     75  C   UNL A   1      44.666  25.618  25.542  1.00  0.00     0.012 A 
ATOM     76  C   UNL A   1      42.790  24.474  26.554  1.00  0.00     0.148 A 
ATOM     77  C   UNL A   1      45.126  24.407  25.010  1.00  0.00     0.002 A 
ATOM     78  C   UNL A   1      43.243  23.274  26.010  1.00  0.00     0.091 A 
ATOM     79  F   UNL A   1      41.721  24.487  27.360  1.00  0.00    -0.205 F 
ATOM     80  C   UNL A   1      44.421  23.233  25.254  1.00  0.00     0.022 A 
BRANCH  78  81
ATOM     81  S   UNL A   1      42.382  21.717  26.279  1.00  0.00     0.127 S 
ATOM     82  O   UNL A   1      43.116  20.804  25.401  1.00  0.00    -0.237 OA
ATOM     83  O   UNL A   1      42.594  21.494  27.706  1.00  0.00    -0.237 OA
ATOM     84  O   UNL A   1      41.003  21.956  25.869  1.00  0.00    -0.744 OA
ENDBRANCH  78  81
ENDBRANCH  50  74
BRANCH  62  85
ATOM     85  C   UNL A   1      45.143  30.987  29.342  1.00  0.00     0.023 A 
ATOM     86  C   UNL A   1      44.154  31.623  28.565  1.00  0.00     0.012 A 
ATOM     87  C   UNL A   1      46.424  31.557  29.431  1.00  0.00     0.148 A 
ATOM     88  C   UNL A   1      44.439  32.813  27.892  1.00  0.00     0.002 A 
ATOM     89  C   UNL A   1      46.689  32.763  28.796  1.00  0.00     0.091 A 
ATOM     90  F   UNL A   1      47.340  30.938  30.190  1.00  0.00    -0.205 F 
ATOM     91  C   UNL A   1      45.701  33.392  28.021  1.00  0.00     0.022 A 
BRANCH  89  92
ATOM     92  S   UNL A   1      48.241  33.634  29.027  1.00  0.00     0.127 S 
ATOM     93  O   UNL A   1      49.206  32.695  28.459  1.00  0.00    -0.237 OA
ATOM     94  O   UNL A   1      48.032  34.848  28.237  1.00  0.00    -0.237 OA
ATOM     95  O   UNL A   1      48.373  33.863  30.460  1.00  0.00    -0.744 OA
ENDBRANCH  89  92
ENDBRANCH  62  85
ENDBRANCH  36  37
ENDBRANCH  28  31
ENDBRANCH  26  27
ENDBRANCH   1  26
TORSDOF 16
ENDMDL
