MODEL 1
REMARK VINA RESULT:     -12.0      0.000      0.000
REMARK SMILES CCn1ncc(-c2cc(C(F)(F)F)nc(-n3ccc(C(=O)NCCCNC(=O)c4ccc(-c5c6nc(c(-c7cccc(S(=O)(=O)[O-])c7F)c7ccc([nH]7)c(-c7cccc(S(=O)(=O)[O-])c7F)c7nc(c(-c8cccc(S(=O)(=O)[O-])c8F)c8ccc5[nH]8)C=C7)C=C6)cc4)n3)n2)c1C
REMARK SMILES IDX 24 1 23 2 22 3 20 4 21 5 19 7 16 8 17 9 92 10 18 11 15 12
REMARK SMILES IDX 7 13 8 14 93 15 9 16 14 17 6 18 3 19 4 20 94 21 5 22 95 23
REMARK SMILES IDX 2 24 1 25 10 26 11 27 12 28 13 29 25 30 26 31 27 32 28 34
REMARK SMILES IDX 29 35 30 36 91 37 31 38 90 39 32 40 33 41 34 42 84 43 35 44
REMARK SMILES IDX 89 45 83 46 85 47 36 48 88 49 82 50 81 51 37 53 69 54 49 55
REMARK SMILES IDX 68 56 50 57 53 58 67 59 86 60 51 61 52 62 66 64 87 65 54 66
REMARK SMILES IDX 38 67 39 68 47 69 40 70 42 71 48 72 41 73 43 74 44 75 45 76
REMARK SMILES IDX 46 77 70 78 71 79 79 80 72 81 74 82 80 83 73 84 75 85 76 86
REMARK SMILES IDX 77 87 78 88 55 89 56 90 64 91 57 92 59 93 65 94 58 95 60 96
REMARK SMILES IDX 61 97 62 98 63 99
REMARK H PARENT 22 6 26 33 85 52 53 63
REMARK Flexibility Score: inf
ROOT
ATOM      1  C   UNL A   1      34.275  28.587  26.961  1.00  0.00     0.042 C 
ENDROOT
BRANCH   1   2
ATOM      2  C   UNL A   1      33.212  29.184  26.035  1.00  0.00     0.118 C 
BRANCH   2   3
ATOM      3  N   UNL A   1      33.638  29.282  24.645  1.00  0.00    -0.351 N 
ATOM      4  C   UNL A   1      33.628  28.363  23.617  1.00  0.00     0.271 C 
ATOM      5  O   UNL A   1      34.048  28.727  22.519  1.00  0.00    -0.267 OA
ATOM      6  H   UNL A   1      33.998  30.163  24.394  1.00  0.00     0.163 HD
BRANCH   4   7
ATOM      7  C   UNL A   1      33.185  26.975  23.834  1.00  0.00     0.150 A 
ATOM      8  N   UNL A   1      33.267  24.879  24.258  1.00  0.00    -0.205 N 
ATOM      9  C   UNL A   1      32.060  25.067  23.626  1.00  0.00     0.119 A 
ATOM     10  N   UNL A   1      33.877  26.058  24.530  1.00  0.00    -0.160 NA
ATOM     11  C   UNL A   1      31.959  26.416  23.379  1.00  0.00     0.056 A 
BRANCH   8  12
ATOM     12  C   UNL A   1      33.899  23.632  24.561  1.00  0.00     0.251 A 
ATOM     13  C   UNL A   1      35.805  22.465  25.075  1.00  0.00     0.080 A 
ATOM     14  C   UNL A   1      35.150  21.262  24.952  1.00  0.00     0.062 A 
ATOM     15  N   UNL A   1      35.218  23.644  24.823  1.00  0.00    -0.211 NA
ATOM     16  C   UNL A   1      33.797  21.324  24.658  1.00  0.00     0.150 A 
ATOM     17  N   UNL A   1      33.148  22.512  24.523  1.00  0.00    -0.207 NA
BRANCH  13  18
ATOM     18  C   UNL A   1      37.144  22.528  25.622  1.00  0.00     0.041 A 
ATOM     19  N   UNL A   1      39.233  22.001  26.063  1.00  0.00    -0.269 N 
ATOM     20  N   UNL A   1      39.101  23.259  26.535  1.00  0.00    -0.181 NA
ATOM     21  C   UNL A   1      38.084  21.514  25.490  1.00  0.00     0.045 A 
ATOM     22  C   UNL A   1      37.825  23.564  26.287  1.00  0.00     0.145 A 
ATOM     23  C   UNL A   1      37.968  20.174  24.850  1.00  0.00     0.067 C 
BRANCH  19  24
ATOM     24  C   UNL A   1      40.511  21.328  26.214  1.00  0.00     0.141 C 
ATOM     25  C   UNL A   1      40.721  20.745  27.602  1.00  0.00     0.029 C 
ENDBRANCH  19  24
ENDBRANCH  13  18
BRANCH  16  26
ATOM     26  C   UNL A   1      33.015  20.036  24.454  1.00  0.00     0.433 C 
ATOM     27  F   UNL A   1      32.494  19.534  25.607  1.00  0.00    -0.165 F 
ATOM     28  F   UNL A   1      31.970  20.187  23.594  1.00  0.00    -0.165 F 
ATOM     29  F   UNL A   1      33.776  19.029  23.929  1.00  0.00    -0.165 F 
ENDBRANCH  16  26
ENDBRANCH   8  12
ENDBRANCH   4   7
ENDBRANCH   2   3
ENDBRANCH   1   2
BRANCH   1  30
ATOM     30  C   UNL A   1      35.435  29.543  27.198  1.00  0.00     0.118 C 
BRANCH  30  31
ATOM     31  N   UNL A   1      35.479  30.062  28.568  1.00  0.00    -0.352 N 
ATOM     32  C   UNL A   1      36.415  29.808  29.555  1.00  0.00     0.251 C 
ATOM     33  H   UNL A   1      34.746  30.670  28.819  1.00  0.00     0.163 HD
ATOM     34  O   UNL A   1      36.177  30.075  30.720  1.00  0.00    -0.269 OA
BRANCH  32  35
ATOM     35  C   UNL A   1      37.702  29.195  29.170  1.00  0.00     0.039 A 
ATOM     36  C   UNL A   1      38.462  29.729  28.127  1.00  0.00     0.014 A 
ATOM     37  C   UNL A   1      38.164  28.099  29.896  1.00  0.00     0.014 A 
ATOM     38  C   UNL A   1      39.731  29.208  27.889  1.00  0.00     0.010 A 
ATOM     39  C   UNL A   1      39.466  27.684  29.758  1.00  0.00     0.010 A 
ATOM     40  C   UNL A   1      40.244  28.208  28.735  1.00  0.00    -0.014 A 
BRANCH  40  41
ATOM     41  C   UNL A   1      41.657  27.836  28.663  1.00  0.00     0.031 A 
ATOM     42  C   UNL A   1      41.882  26.541  27.968  1.00  0.00     0.074 A 
ATOM     43  C   UNL A   1      42.674  28.658  29.011  1.00  0.00     0.049 A 
ATOM     44  N   UNL A   1      42.201  25.414  28.513  1.00  0.00    -0.248 NA
ATOM     45  C   UNL A   1      41.527  26.426  26.543  1.00  0.00     0.031 C 
ATOM     46  C   UNL A   1      42.581  30.068  29.415  1.00  0.00     0.029 A 
ATOM     47  N   UNL A   1      44.024  28.455  28.956  1.00  0.00    -0.354 N 
ATOM     48  C   UNL A   1      42.380  24.528  27.452  1.00  0.00     0.074 A 
ATOM     49  C   UNL A   1      41.724  25.123  26.321  1.00  0.00     0.031 C 
ATOM     50  C   UNL A   1      43.794  30.653  29.313  1.00  0.00     0.029 A 
ATOM     51  C   UNL A   1      44.778  29.627  29.028  1.00  0.00     0.049 A 
ATOM     52  H   UNL A   1      44.429  27.562  28.872  1.00  0.00     0.167 HD
ATOM     53  C   UNL A   1      43.334  23.558  27.529  1.00  0.00     0.034 A 
ATOM     54  C   UNL A   1      46.117  29.754  28.865  1.00  0.00     0.034 A 
ATOM     55  C   UNL A   1      43.850  23.472  28.873  1.00  0.00     0.049 A 
ATOM     56  C   UNL A   1      46.717  28.438  29.147  1.00  0.00     0.074 A 
ATOM     57  C   UNL A   1      43.428  22.995  30.092  1.00  0.00     0.029 A 
ATOM     58  N   UNL A   1      44.881  24.346  29.101  1.00  0.00    -0.354 N 
ATOM     59  N   UNL A   1      46.706  27.898  30.333  1.00  0.00    -0.248 NA
ATOM     60  C   UNL A   1      47.041  27.538  28.047  1.00  0.00     0.031 C 
ATOM     61  C   UNL A   1      44.137  23.748  31.075  1.00  0.00     0.029 A 
ATOM     62  C   UNL A   1      45.009  24.625  30.431  1.00  0.00     0.049 A 
ATOM     63  H   UNL A   1      45.455  24.723  28.396  1.00  0.00     0.167 HD
ATOM     64  C   UNL A   1      46.534  26.552  30.072  1.00  0.00     0.074 A 
ATOM     65  C   UNL A   1      46.952  26.370  28.689  1.00  0.00     0.031 C 
ATOM     66  C   UNL A   1      45.746  25.786  30.878  1.00  0.00     0.034 A 
BRANCH  53  67
ATOM     67  C   UNL A   1      44.187  23.038  26.382  1.00  0.00     0.023 A 
ATOM     68  C   UNL A   1      44.772  24.012  25.535  1.00  0.00     0.012 A 
ATOM     69  C   UNL A   1      44.190  21.706  25.909  1.00  0.00     0.148 A 
ATOM     70  C   UNL A   1      45.269  23.691  24.267  1.00  0.00     0.002 A 
ATOM     71  C   UNL A   1      44.743  21.381  24.672  1.00  0.00     0.091 A 
ATOM     72  F   UNL A   1      43.550  20.752  26.585  1.00  0.00    -0.205 F 
ATOM     73  C   UNL A   1      45.254  22.373  23.834  1.00  0.00     0.022 A 
BRANCH  71  74
ATOM     74  S   UNL A   1      44.774  19.688  24.062  1.00  0.00     0.127 S 
ATOM     75  O   UNL A   1      43.619  19.112  24.743  1.00  0.00    -0.237 OA
ATOM     76  O   UNL A   1      44.610  19.891  22.623  1.00  0.00    -0.237 OA
ATOM     77  O   UNL A   1      46.074  19.154  24.449  1.00  0.00    -0.744 OA
ENDBRANCH  71  74
ENDBRANCH  53  67
BRANCH  54  78
ATOM     78  C   UNL A   1      46.941  30.878  28.371  1.00  0.00     0.023 A 
ATOM     79  C   UNL A   1      46.799  31.327  27.041  1.00  0.00     0.012 A 
ATOM     80  C   UNL A   1      47.625  31.704  29.287  1.00  0.00     0.148 A 
ATOM     81  C   UNL A   1      47.280  32.582  26.649  1.00  0.00     0.002 A 
ATOM     82  C   UNL A   1      48.093  32.955  28.895  1.00  0.00     0.091 A 
ATOM     83  F   UNL A   1      47.731  31.294  30.558  1.00  0.00    -0.205 F 
ATOM     84  C   UNL A   1      47.911  33.402  27.579  1.00  0.00     0.022 A 
BRANCH  82  85
ATOM     85  S   UNL A   1      48.865  34.102  30.044  1.00  0.00     0.127 S 
ATOM     86  O   UNL A   1      49.256  35.197  29.157  1.00  0.00    -0.237 OA
ATOM     87  O   UNL A   1      47.761  34.411  30.949  1.00  0.00    -0.237 OA
ATOM     88  O   UNL A   1      49.980  33.377  30.641  1.00  0.00    -0.744 OA
ENDBRANCH  82  85
ENDBRANCH  54  78
BRANCH  66  89
ATOM     89  C   UNL A   1      45.504  26.274  32.274  1.00  0.00     0.023 A 
ATOM     90  C   UNL A   1      46.451  26.161  33.311  1.00  0.00     0.012 A 
ATOM     91  C   UNL A   1      44.303  26.957  32.513  1.00  0.00     0.148 A 
ATOM     92  C   UNL A   1      46.189  26.705  34.572  1.00  0.00     0.002 A 
ATOM     93  C   UNL A   1      44.067  27.538  33.750  1.00  0.00     0.091 A 
ATOM     94  F   UNL A   1      43.413  27.041  31.512  1.00  0.00    -0.205 F 
ATOM     95  C   UNL A   1      45.003  27.406  34.787  1.00  0.00     0.022 A 
BRANCH  93  96
ATOM     96  S   UNL A   1      42.612  28.542  34.041  1.00  0.00     0.127 S 
ATOM     97  O   UNL A   1      42.840  29.678  33.151  1.00  0.00    -0.237 OA
ATOM     98  O   UNL A   1      41.529  27.648  33.628  1.00  0.00    -0.237 OA
ATOM     99  O   UNL A   1      42.615  28.851  35.466  1.00  0.00    -0.744 OA
ENDBRANCH  93  96
ENDBRANCH  66  89
ENDBRANCH  40  41
ENDBRANCH  32  35
ENDBRANCH  30  31
ENDBRANCH   1  30
TORSDOF 17
ENDMDL
MODEL 2
REMARK VINA RESULT:     -12.0      2.407      2.728
REMARK SMILES CCn1ncc(-c2cc(C(F)(F)F)nc(-n3ccc(C(=O)NCCCNC(=O)c4ccc(-c5c6nc(c(-c7cccc(S(=O)(=O)[O-])c7F)c7ccc([nH]7)c(-c7cccc(S(=O)(=O)[O-])c7F)c7nc(c(-c8cccc(S(=O)(=O)[O-])c8F)c8ccc5[nH]8)C=C7)C=C6)cc4)n3)n2)c1C
REMARK SMILES IDX 24 1 23 2 22 3 20 4 21 5 19 7 16 8 17 9 92 10 18 11 15 12
REMARK SMILES IDX 7 13 8 14 93 15 9 16 14 17 6 18 3 19 4 20 94 21 5 22 95 23
REMARK SMILES IDX 2 24 1 25 10 26 11 27 12 28 13 29 25 30 26 31 27 32 28 34
REMARK SMILES IDX 29 35 30 36 91 37 31 38 90 39 32 40 33 41 34 42 84 43 35 44
REMARK SMILES IDX 89 45 83 46 85 47 36 48 88 49 82 50 81 51 37 53 69 54 49 55
REMARK SMILES IDX 68 56 50 57 53 58 67 59 86 60 51 61 52 62 66 64 87 65 54 66
REMARK SMILES IDX 38 67 39 68 47 69 40 70 42 71 48 72 41 73 43 74 44 75 45 76
REMARK SMILES IDX 46 77 70 78 71 79 79 80 72 81 74 82 80 83 73 84 75 85 76 86
REMARK SMILES IDX 77 87 78 88 55 89 56 90 64 91 57 92 59 93 65 94 58 95 60 96
REMARK SMILES IDX 61 97 62 98 63 99
REMARK H PARENT 22 6 26 33 85 52 53 63
REMARK Flexibility Score: inf
ROOT
ATOM      1  C   UNL A   1      33.890  29.468  26.197  1.00  0.00     0.042 C 
ENDROOT
BRANCH   1   2
ATOM      2  C   UNL A   1      32.520  28.792  26.302  1.00  0.00     0.118 C 
BRANCH   2   3
ATOM      3  N   UNL A   1      31.909  28.510  25.008  1.00  0.00    -0.351 N 
ATOM      4  C   UNL A   1      31.499  27.329  24.427  1.00  0.00     0.271 C 
ATOM      5  O   UNL A   1      30.997  27.387  23.305  1.00  0.00    -0.267 OA
ATOM      6  H   UNL A   1      31.763  29.307  24.448  1.00  0.00     0.163 HD
BRANCH   4   7
ATOM      7  C   UNL A   1      31.704  26.033  25.097  1.00  0.00     0.150 A 
ATOM      8  N   UNL A   1      32.550  24.128  25.578  1.00  0.00    -0.205 N 
ATOM      9  C   UNL A   1      31.285  24.101  26.117  1.00  0.00     0.119 A 
ATOM     10  N   UNL A   1      32.864  25.356  25.101  1.00  0.00    -0.160 NA
ATOM     11  C   UNL A   1      30.730  25.332  25.861  1.00  0.00     0.056 A 
BRANCH   8  12
ATOM     12  C   UNL A   1      33.453  23.026  25.436  1.00  0.00     0.251 A 
ATOM     13  C   UNL A   1      35.607  22.243  25.382  1.00  0.00     0.080 A 
ATOM     14  C   UNL A   1      35.185  20.994  24.988  1.00  0.00     0.062 A 
ATOM     15  N   UNL A   1      34.770  23.277  25.546  1.00  0.00    -0.211 NA
ATOM     16  C   UNL A   1      33.816  20.813  24.873  1.00  0.00     0.150 A 
ATOM     17  N   UNL A   1      32.937  21.812  25.158  1.00  0.00    -0.207 NA
BRANCH  13  18
ATOM     18  C   UNL A   1      36.981  22.471  25.774  1.00  0.00     0.041 A 
ATOM     19  N   UNL A   1      39.150  22.188  26.001  1.00  0.00    -0.269 N 
ATOM     20  N   UNL A   1      38.932  23.446  26.440  1.00  0.00    -0.181 NA
ATOM     21  C   UNL A   1      38.007  21.557  25.575  1.00  0.00     0.045 A 
ATOM     22  C   UNL A   1      37.612  23.602  26.324  1.00  0.00     0.145 A 
ATOM     23  C   UNL A   1      37.972  20.183  24.999  1.00  0.00     0.067 C 
BRANCH  19  24
ATOM     24  C   UNL A   1      40.504  21.661  26.033  1.00  0.00     0.141 C 
ATOM     25  C   UNL A   1      40.811  20.879  27.300  1.00  0.00     0.029 C 
ENDBRANCH  19  24
ENDBRANCH  13  18
BRANCH  16  26
ATOM     26  C   UNL A   1      33.274  19.478  24.391  1.00  0.00     0.433 C 
ATOM     27  F   UNL A   1      32.485  18.854  25.309  1.00  0.00    -0.165 F 
ATOM     28  F   UNL A   1      32.528  19.591  23.257  1.00  0.00    -0.165 F 
ATOM     29  F   UNL A   1      34.260  18.580  24.090  1.00  0.00    -0.165 F 
ENDBRANCH  16  26
ENDBRANCH   8  12
ENDBRANCH   4   7
ENDBRANCH   2   3
ENDBRANCH   1   2
BRANCH   1  30
ATOM     30  C   UNL A   1      34.816  29.072  27.339  1.00  0.00     0.118 C 
BRANCH  30  31
ATOM     31  N   UNL A   1      34.919  30.103  28.375  1.00  0.00    -0.352 N 
ATOM     32  C   UNL A   1      35.937  30.302  29.292  1.00  0.00     0.251 C 
ATOM     33  H   UNL A   1      34.167  30.735  28.427  1.00  0.00     0.163 HD
ATOM     34  O   UNL A   1      35.764  31.011  30.268  1.00  0.00    -0.269 OA
BRANCH  32  35
ATOM     35  C   UNL A   1      37.233  29.631  29.069  1.00  0.00     0.039 A 
ATOM     36  C   UNL A   1      38.018  29.946  27.958  1.00  0.00     0.014 A 
ATOM     37  C   UNL A   1      37.676  28.705  30.011  1.00  0.00     0.014 A 
ATOM     38  C   UNL A   1      39.293  29.393  27.860  1.00  0.00     0.010 A 
ATOM     39  C   UNL A   1      38.981  28.276  29.991  1.00  0.00     0.010 A 
ATOM     40  C   UNL A   1      39.784  28.586  28.902  1.00  0.00    -0.014 A 
BRANCH  40  41
ATOM     41  C   UNL A   1      41.198  28.214  28.942  1.00  0.00     0.031 A 
ATOM     42  C   UNL A   1      41.539  27.126  27.986  1.00  0.00     0.074 A 
ATOM     43  C   UNL A   1      42.144  28.903  29.621  1.00  0.00     0.049 A 
ATOM     44  N   UNL A   1      41.793  25.893  28.275  1.00  0.00    -0.248 NA
ATOM     45  C   UNL A   1      41.391  27.374  26.542  1.00  0.00     0.031 C 
ATOM     46  C   UNL A   1      41.974  30.171  30.345  1.00  0.00     0.029 A 
ATOM     47  N   UNL A   1      43.491  28.693  29.709  1.00  0.00    -0.354 N 
ATOM     48  C   UNL A   1      42.134  25.293  27.064  1.00  0.00     0.074 A 
ATOM     49  C   UNL A   1      41.637  26.163  26.035  1.00  0.00     0.031 C 
ATOM     50  C   UNL A   1      43.180  30.738  30.562  1.00  0.00     0.029 A 
ATOM     51  C   UNL A   1      44.210  29.794  30.174  1.00  0.00     0.049 A 
ATOM     52  H   UNL A   1      43.917  27.839  29.464  1.00  0.00     0.167 HD
ATOM     53  C   UNL A   1      43.082  24.315  27.033  1.00  0.00     0.034 A 
ATOM     54  C   UNL A   1      45.556  29.929  30.238  1.00  0.00     0.034 A 
ATOM     55  C   UNL A   1      43.404  23.889  28.372  1.00  0.00     0.049 A 
ATOM     56  C   UNL A   1      46.129  28.572  30.267  1.00  0.00     0.074 A 
ATOM     57  C   UNL A   1      42.820  23.134  29.363  1.00  0.00     0.029 A 
ATOM     58  N   UNL A   1      44.378  24.658  28.953  1.00  0.00    -0.354 N 
ATOM     59  N   UNL A   1      45.958  27.756  31.269  1.00  0.00    -0.248 NA
ATOM     60  C   UNL A   1      46.619  27.965  29.037  1.00  0.00     0.031 C 
ATOM     61  C   UNL A   1      43.371  23.606  30.592  1.00  0.00     0.029 A 
ATOM     62  C   UNL A   1      44.312  24.597  30.315  1.00  0.00     0.049 A 
ATOM     63  H   UNL A   1      45.041  25.185  28.451  1.00  0.00     0.167 HD
ATOM     64  C   UNL A   1      45.844  26.521  30.662  1.00  0.00     0.074 A 
ATOM     65  C   UNL A   1      46.458  26.676  29.350  1.00  0.00     0.031 C 
ATOM     66  C   UNL A   1      44.961  25.596  31.134  1.00  0.00     0.034 A 
BRANCH  53  67
ATOM     67  C   UNL A   1      44.096  24.076  25.924  1.00  0.00     0.023 A 
ATOM     68  C   UNL A   1      44.173  22.757  25.410  1.00  0.00     0.012 A 
ATOM     69  C   UNL A   1      45.157  24.947  25.589  1.00  0.00     0.148 A 
ATOM     70  C   UNL A   1      45.272  22.314  24.666  1.00  0.00     0.002 A 
ATOM     71  C   UNL A   1      46.219  24.519  24.795  1.00  0.00     0.091 A 
ATOM     72  F   UNL A   1      45.225  26.162  26.133  1.00  0.00    -0.205 F 
ATOM     73  C   UNL A   1      46.297  23.196  24.357  1.00  0.00     0.022 A 
BRANCH  71  74
ATOM     74  S   UNL A   1      47.568  25.621  24.341  1.00  0.00     0.127 S 
ATOM     75  O   UNL A   1      48.393  25.582  25.545  1.00  0.00    -0.237 OA
ATOM     76  O   UNL A   1      48.130  24.932  23.179  1.00  0.00    -0.237 OA
ATOM     77  O   UNL A   1      46.945  26.902  24.036  1.00  0.00    -0.744 OA
ENDBRANCH  71  74
ENDBRANCH  53  67
BRANCH  54  78
ATOM     78  C   UNL A   1      46.425  31.123  30.159  1.00  0.00     0.023 A 
ATOM     79  C   UNL A   1      47.392  31.359  31.159  1.00  0.00     0.012 A 
ATOM     80  C   UNL A   1      46.519  31.847  28.953  1.00  0.00     0.148 A 
ATOM     81  C   UNL A   1      48.449  32.252  30.942  1.00  0.00     0.002 A 
ATOM     82  C   UNL A   1      47.576  32.726  28.738  1.00  0.00     0.091 A 
ATOM     83  F   UNL A   1      45.620  31.599  27.990  1.00  0.00    -0.205 F 
ATOM     84  C   UNL A   1      48.550  32.922  29.726  1.00  0.00     0.022 A 
BRANCH  82  85
ATOM     85  S   UNL A   1      47.816  33.587  27.177  1.00  0.00     0.127 S 
ATOM     86  O   UNL A   1      46.597  34.391  27.089  1.00  0.00    -0.237 OA
ATOM     87  O   UNL A   1      49.035  34.349  27.439  1.00  0.00    -0.237 OA
ATOM     88  O   UNL A   1      47.932  32.547  26.163  1.00  0.00    -0.744 OA
ENDBRANCH  82  85
ENDBRANCH  54  78
BRANCH  66  89
ATOM     89  C   UNL A   1      44.517  25.729  32.559  1.00  0.00     0.023 A 
ATOM     90  C   UNL A   1      43.474  26.581  32.971  1.00  0.00     0.012 A 
ATOM     91  C   UNL A   1      45.125  24.883  33.499  1.00  0.00     0.148 A 
ATOM     92  C   UNL A   1      43.060  26.599  34.307  1.00  0.00     0.002 A 
ATOM     93  C   UNL A   1      44.680  24.869  34.812  1.00  0.00     0.091 A 
ATOM     94  F   UNL A   1      46.124  24.090  33.082  1.00  0.00    -0.205 F 
ATOM     95  C   UNL A   1      43.654  25.733  35.224  1.00  0.00     0.022 A 
BRANCH  93  96
ATOM     96  S   UNL A   1      45.333  23.697  36.000  1.00  0.00     0.127 S 
ATOM     97  O   UNL A   1      46.768  23.967  35.939  1.00  0.00    -0.237 OA
ATOM     98  O   UNL A   1      44.682  24.118  37.241  1.00  0.00    -0.237 OA
ATOM     99  O   UNL A   1      44.923  22.379  35.532  1.00  0.00    -0.744 OA
ENDBRANCH  93  96
ENDBRANCH  66  89
ENDBRANCH  40  41
ENDBRANCH  32  35
ENDBRANCH  30  31
ENDBRANCH   1  30
TORSDOF 17
ENDMDL
MODEL 3
REMARK VINA RESULT:     -12.0      4.910     10.223
REMARK SMILES CCn1ncc(-c2cc(C(F)(F)F)nc(-n3ccc(C(=O)NCCCNC(=O)c4ccc(-c5c6nc(c(-c7cccc(S(=O)(=O)[O-])c7F)c7ccc([nH]7)c(-c7cccc(S(=O)(=O)[O-])c7F)c7nc(c(-c8cccc(S(=O)(=O)[O-])c8F)c8ccc5[nH]8)C=C7)C=C6)cc4)n3)n2)c1C
REMARK SMILES IDX 24 1 23 2 22 3 20 4 21 5 19 7 16 8 17 9 92 10 18 11 15 12
REMARK SMILES IDX 7 13 8 14 93 15 9 16 14 17 6 18 3 19 4 20 94 21 5 22 95 23
REMARK SMILES IDX 2 24 1 25 10 26 11 27 12 28 13 29 25 30 26 31 27 32 28 34
REMARK SMILES IDX 29 35 30 36 91 37 31 38 90 39 32 40 33 41 34 42 84 43 35 44
REMARK SMILES IDX 89 45 83 46 85 47 36 48 88 49 82 50 81 51 37 53 69 54 49 55
REMARK SMILES IDX 68 56 50 57 53 58 67 59 86 60 51 61 52 62 66 64 87 65 54 66
REMARK SMILES IDX 38 67 39 68 47 69 40 70 42 71 48 72 41 73 43 74 44 75 45 76
REMARK SMILES IDX 46 77 70 78 71 79 79 80 72 81 74 82 80 83 73 84 75 85 76 86
REMARK SMILES IDX 77 87 78 88 55 89 56 90 64 91 57 92 59 93 65 94 58 95 60 96
REMARK SMILES IDX 61 97 62 98 63 99
REMARK H PARENT 22 6 26 33 85 52 53 63
REMARK Flexibility Score: inf
ROOT
ATOM      1  C   UNL A   1      42.545  19.894  27.038  1.00  0.00     0.042 C 
ENDROOT
BRANCH   1   2
ATOM      2  C   UNL A   1      42.880  19.180  25.725  1.00  0.00     0.118 C 
BRANCH   2   3
ATOM      3  N   UNL A   1      44.262  18.722  25.647  1.00  0.00    -0.351 N 
ATOM      4  C   UNL A   1      45.435  19.394  25.370  1.00  0.00     0.271 C 
ATOM      5  O   UNL A   1      46.481  18.746  25.381  1.00  0.00    -0.267 OA
ATOM      6  H   UNL A   1      44.380  17.761  25.823  1.00  0.00     0.163 HD
BRANCH   4   7
ATOM      7  C   UNL A   1      45.435  20.823  25.017  1.00  0.00     0.150 A 
ATOM      8  N   UNL A   1      45.568  22.949  25.229  1.00  0.00    -0.205 N 
ATOM      9  C   UNL A   1      44.907  22.750  24.039  1.00  0.00     0.119 A 
ATOM     10  N   UNL A   1      46.031  21.784  25.742  1.00  0.00    -0.160 NA
ATOM     11  C   UNL A   1      44.844  21.390  23.854  1.00  0.00     0.056 A 
BRANCH   8  12
ATOM     12  C   UNL A   1      45.727  24.184  25.934  1.00  0.00     0.251 A 
ATOM     13  C   UNL A   1      45.492  25.387  27.871  1.00  0.00     0.080 A 
ATOM     14  C   UNL A   1      45.844  26.556  27.236  1.00  0.00     0.062 A 
ATOM     15  N   UNL A   1      45.367  24.217  27.230  1.00  0.00    -0.211 NA
ATOM     16  C   UNL A   1      46.181  26.451  25.896  1.00  0.00     0.150 A 
ATOM     17  N   UNL A   1      46.186  25.252  25.251  1.00  0.00    -0.207 NA
BRANCH  13  18
ATOM     18  C   UNL A   1      45.367  25.336  29.312  1.00  0.00     0.041 A 
ATOM     19  N   UNL A   1      45.861  25.524  31.447  1.00  0.00    -0.269 N 
ATOM     20  N   UNL A   1      44.535  25.270  31.434  1.00  0.00    -0.181 NA
ATOM     21  C   UNL A   1      46.413  25.586  30.191  1.00  0.00     0.045 A 
ATOM     22  C   UNL A   1      44.247  25.132  30.139  1.00  0.00     0.145 A 
ATOM     23  C   UNL A   1      47.844  25.899  29.918  1.00  0.00     0.067 C 
BRANCH  19  24
ATOM     24  C   UNL A   1      46.530  25.686  32.727  1.00  0.00     0.141 C 
ATOM     25  C   UNL A   1      45.583  26.065  33.854  1.00  0.00     0.029 C 
ENDBRANCH  19  24
ENDBRANCH  13  18
BRANCH  16  26
ATOM     26  C   UNL A   1      46.529  27.705  25.110  1.00  0.00     0.433 C 
ATOM     27  F   UNL A   1      45.508  28.603  25.051  1.00  0.00    -0.165 F 
ATOM     28  F   UNL A   1      47.598  28.371  25.629  1.00  0.00    -0.165 F 
ATOM     29  F   UNL A   1      46.859  27.444  23.810  1.00  0.00    -0.165 F 
ENDBRANCH  16  26
ENDBRANCH   8  12
ENDBRANCH   4   7
ENDBRANCH   2   3
ENDBRANCH   1   2
BRANCH   1  30
ATOM     30  C   UNL A   1      42.162  21.350  26.820  1.00  0.00     0.118 C 
BRANCH  30  31
ATOM     31  N   UNL A   1      40.976  21.509  25.974  1.00  0.00    -0.352 N 
ATOM     32  C   UNL A   1      39.923  22.395  26.125  1.00  0.00     0.251 C 
ATOM     33  H   UNL A   1      40.920  20.907  25.198  1.00  0.00     0.163 HD
ATOM     34  O   UNL A   1      38.879  22.229  25.519  1.00  0.00    -0.269 OA
BRANCH  32  35
ATOM     35  C   UNL A   1      40.087  23.540  27.044  1.00  0.00     0.039 A 
ATOM     36  C   UNL A   1      41.318  23.797  27.651  1.00  0.00     0.014 A 
ATOM     37  C   UNL A   1      38.999  24.384  27.260  1.00  0.00     0.014 A 
ATOM     38  C   UNL A   1      41.466  24.963  28.398  1.00  0.00     0.010 A 
ATOM     39  C   UNL A   1      39.185  25.600  27.871  1.00  0.00     0.010 A 
ATOM     40  C   UNL A   1      40.404  25.882  28.473  1.00  0.00    -0.014 A 
BRANCH  40  41
ATOM     41  C   UNL A   1      40.623  27.218  29.027  1.00  0.00     0.031 A 
ATOM     42  C   UNL A   1      41.672  27.983  28.300  1.00  0.00     0.074 A 
ATOM     43  C   UNL A   1      39.835  27.786  29.969  1.00  0.00     0.049 A 
ATOM     44  N   UNL A   1      42.870  28.237  28.711  1.00  0.00    -0.248 NA
ATOM     45  C   UNL A   1      41.446  28.337  26.889  1.00  0.00     0.031 C 
ATOM     46  C   UNL A   1      38.590  27.245  30.531  1.00  0.00     0.029 A 
ATOM     47  N   UNL A   1      39.901  29.026  30.538  1.00  0.00    -0.354 N 
ATOM     48  C   UNL A   1      43.435  29.045  27.726  1.00  0.00     0.074 A 
ATOM     49  C   UNL A   1      42.627  28.865  26.553  1.00  0.00     0.031 C 
ATOM     50  C   UNL A   1      37.897  28.232  31.140  1.00  0.00     0.029 A 
ATOM     51  C   UNL A   1      38.728  29.419  31.182  1.00  0.00     0.049 A 
ATOM     52  H   UNL A   1      40.705  29.593  30.496  1.00  0.00     0.167 HD
ATOM     53  C   UNL A   1      44.307  30.032  28.074  1.00  0.00     0.034 A 
ATOM     54  C   UNL A   1      38.450  30.634  31.714  1.00  0.00     0.034 A 
ATOM     55  C   UNL A   1      44.691  29.894  29.457  1.00  0.00     0.049 A 
ATOM     56  C   UNL A   1      39.738  31.288  32.001  1.00  0.00     0.074 A 
ATOM     57  C   UNL A   1      45.501  29.072  30.207  1.00  0.00     0.029 A 
ATOM     58  N   UNL A   1      43.821  30.516  30.313  1.00  0.00    -0.354 N 
ATOM     59  N   UNL A   1      40.564  30.851  32.910  1.00  0.00    -0.248 NA
ATOM     60  C   UNL A   1      40.294  32.243  31.051  1.00  0.00     0.031 C 
ATOM     61  C   UNL A   1      44.968  29.098  31.530  1.00  0.00     0.029 A 
ATOM     62  C   UNL A   1      43.884  29.974  31.565  1.00  0.00     0.049 A 
ATOM     63  H   UNL A   1      43.228  31.259  30.058  1.00  0.00     0.167 HD
ATOM     64  C   UNL A   1      41.806  31.084  32.353  1.00  0.00     0.074 A 
ATOM     65  C   UNL A   1      41.591  32.108  31.339  1.00  0.00     0.031 C 
ATOM     66  C   UNL A   1      42.818  30.186  32.519  1.00  0.00     0.034 A 
BRANCH  53  67
ATOM     67  C   UNL A   1      44.441  31.394  27.409  1.00  0.00     0.023 A 
ATOM     68  C   UNL A   1      45.534  31.561  26.523  1.00  0.00     0.012 A 
ATOM     69  C   UNL A   1      43.778  32.571  27.823  1.00  0.00     0.148 A 
ATOM     70  C   UNL A   1      45.983  32.826  26.128  1.00  0.00     0.002 A 
ATOM     71  C   UNL A   1      44.189  33.825  27.377  1.00  0.00     0.091 A 
ATOM     72  F   UNL A   1      42.822  32.513  28.751  1.00  0.00    -0.205 F 
ATOM     73  C   UNL A   1      45.309  33.961  26.555  1.00  0.00     0.022 A 
BRANCH  71  74
ATOM     74  S   UNL A   1      43.345  35.334  27.878  1.00  0.00     0.127 S 
ATOM     75  O   UNL A   1      44.352  36.346  27.574  1.00  0.00    -0.237 OA
ATOM     76  O   UNL A   1      42.182  35.328  26.990  1.00  0.00    -0.237 OA
ATOM     77  O   UNL A   1      43.024  35.157  29.288  1.00  0.00    -0.744 OA
ENDBRANCH  71  74
ENDBRANCH  53  67
BRANCH  54  78
ATOM     78  C   UNL A   1      37.170  31.352  31.899  1.00  0.00     0.023 A 
ATOM     79  C   UNL A   1      36.820  31.851  33.172  1.00  0.00     0.012 A 
ATOM     80  C   UNL A   1      36.456  31.818  30.777  1.00  0.00     0.148 A 
ATOM     81  C   UNL A   1      35.821  32.822  33.313  1.00  0.00     0.002 A 
ATOM     82  C   UNL A   1      35.471  32.790  30.922  1.00  0.00     0.091 A 
ATOM     83  F   UNL A   1      36.811  31.369  29.564  1.00  0.00    -0.205 F 
ATOM     84  C   UNL A   1      35.159  33.304  32.188  1.00  0.00     0.022 A 
BRANCH  82  85
ATOM     85  S   UNL A   1      34.609  33.510  29.517  1.00  0.00     0.127 S 
ATOM     86  O   UNL A   1      35.695  34.201  28.822  1.00  0.00    -0.237 OA
ATOM     87  O   UNL A   1      34.103  32.322  28.833  1.00  0.00    -0.237 OA
ATOM     88  O   UNL A   1      33.592  34.388  30.081  1.00  0.00    -0.744 OA
ENDBRANCH  82  85
ENDBRANCH  54  78
BRANCH  66  89
ATOM     89  C   UNL A   1      42.728  29.251  33.686  1.00  0.00     0.023 A 
ATOM     90  C   UNL A   1      42.048  28.019  33.644  1.00  0.00     0.012 A 
ATOM     91  C   UNL A   1      43.444  29.601  34.841  1.00  0.00     0.148 A 
ATOM     92  C   UNL A   1      42.068  27.160  34.747  1.00  0.00     0.002 A 
ATOM     93  C   UNL A   1      43.502  28.726  35.915  1.00  0.00     0.091 A 
ATOM     94  F   UNL A   1      44.075  30.785  34.859  1.00  0.00    -0.205 F 
ATOM     95  C   UNL A   1      42.807  27.508  35.878  1.00  0.00     0.022 A 
BRANCH  93  96
ATOM     96  S   UNL A   1      44.528  29.076  37.342  1.00  0.00     0.127 S 
ATOM     97  O   UNL A   1      44.406  27.843  38.116  1.00  0.00    -0.237 OA
ATOM     98  O   UNL A   1      45.842  29.292  36.736  1.00  0.00    -0.237 OA
ATOM     99  O   UNL A   1      43.959  30.265  37.965  1.00  0.00    -0.744 OA
ENDBRANCH  93  96
ENDBRANCH  66  89
ENDBRANCH  40  41
ENDBRANCH  32  35
ENDBRANCH  30  31
ENDBRANCH   1  30
TORSDOF 17
ENDMDL
