MODEL 1
REMARK VINA RESULT:     -10.7      0.000      0.000
REMARK SMILES CC(C)[C@@H](CC(=O)OC(C)(C)C)C(=O)NCCCNC(=O)c1ccc(-c2c3nc(c(-c4cccc(S(=O)(=O)[O-])c4F)c4ccc([nH]4)c(-c4cccc(S(=O)(=O)[O-])c4F)c4nc(c(-c5cccc(S(=O)(=O)[O-])c5F)c5ccc2[nH]5)C=C4)C=C3)cc1
REMARK SMILES IDX 16 1 15 2 13 3 14 4 4 6 2 7 1 8 3 9 5 10 6 11 7 12 8 13 9 14
REMARK SMILES IDX 10 15 11 16 12 17 17 18 18 19 19 20 20 21 21 23 22 24 23 25
REMARK SMILES IDX 84 26 24 27 83 28 25 29 26 30 27 31 77 32 28 33 82 34 76 35
REMARK SMILES IDX 78 36 29 37 81 38 75 39 74 40 30 42 62 43 42 44 61 45 43 46
REMARK SMILES IDX 46 47 60 48 79 49 44 50 45 51 59 53 80 54 47 55 31 56 32 57
REMARK SMILES IDX 40 58 33 59 35 60 41 61 34 62 36 63 37 64 38 65 39 66 63 67
REMARK SMILES IDX 64 68 72 69 65 70 67 71 73 72 66 73 68 74 69 75 70 76 71 77
REMARK SMILES IDX 48 78 49 79 57 80 50 81 52 82 58 83 51 84 53 85 54 86 55 87
REMARK SMILES IDX 56 88
REMARK H PARENT 15 5 19 22 78 41 46 52
REMARK Flexibility Score: inf
ROOT
ATOM      1  C   UNL A   1      32.218  29.548  24.599  1.00  0.00     0.117 C 
ENDROOT
BRANCH   1   2
ATOM      2  N   UNL A   1      31.594  29.364  23.319  1.00  0.00    -0.356 N 
ATOM      3  C   UNL A   1      31.024  28.232  22.830  1.00  0.00     0.223 C 
ATOM      4  O   UNL A   1      30.349  28.329  21.801  1.00  0.00    -0.275 OA
ATOM      5  H   UNL A   1      31.578  30.151  22.727  1.00  0.00     0.163 HD
BRANCH   3   6
ATOM      6  C   UNL A   1      31.211  26.864  23.508  1.00  0.00     0.092 C 
BRANCH   6   7
ATOM      7  C   UNL A   1      30.213  26.544  24.656  1.00  0.00    -0.004 C 
ATOM      8  C   UNL A   1      28.801  26.297  24.110  1.00  0.00     0.008 C 
ATOM      9  C   UNL A   1      30.644  25.308  25.463  1.00  0.00     0.008 C 
ENDBRANCH   6   7
BRANCH   6  10
ATOM     10  C   UNL A   1      31.544  25.738  22.503  1.00  0.00     0.136 C 
BRANCH  10  11
ATOM     11  C   UNL A   1      32.983  25.371  22.181  1.00  0.00     0.307 C 
ATOM     12  O   UNL A   1      33.755  26.150  21.644  1.00  0.00    -0.252 OA
BRANCH  11  13
ATOM     13  O   UNL A   1      33.301  24.118  22.600  1.00  0.00    -0.460 OA
BRANCH  13  14
ATOM     14  C   UNL A   1      34.024  23.870  23.848  1.00  0.00     0.104 C 
ATOM     15  C   UNL A   1      34.332  25.125  24.678  1.00  0.00     0.056 C 
ATOM     16  C   UNL A   1      33.271  22.850  24.701  1.00  0.00     0.056 C 
ATOM     17  C   UNL A   1      35.370  23.275  23.399  1.00  0.00     0.056 C 
ENDBRANCH  13  14
ENDBRANCH  11  13
ENDBRANCH  10  11
ENDBRANCH   6  10
ENDBRANCH   3   6
ENDBRANCH   1   2
BRANCH   1  18
ATOM     18  C   UNL A   1      31.408  30.314  25.619  1.00  0.00     0.042 C 
BRANCH  18  19
ATOM     19  C   UNL A   1      32.206  30.728  26.842  1.00  0.00     0.118 C 
BRANCH  19  20
ATOM     20  N   UNL A   1      32.434  32.171  26.938  1.00  0.00    -0.352 N 
ATOM     21  C   UNL A   1      33.418  32.916  27.544  1.00  0.00     0.251 C 
ATOM     22  H   UNL A   1      31.750  32.713  26.482  1.00  0.00     0.163 HD
ATOM     23  O   UNL A   1      33.276  34.134  27.633  1.00  0.00    -0.269 OA
BRANCH  21  24
ATOM     24  C   UNL A   1      34.628  32.275  28.098  1.00  0.00     0.039 A 
ATOM     25  C   UNL A   1      35.817  33.006  28.198  1.00  0.00     0.014 A 
ATOM     26  C   UNL A   1      34.601  30.945  28.508  1.00  0.00     0.014 A 
ATOM     27  C   UNL A   1      36.940  32.424  28.792  1.00  0.00     0.010 A 
ATOM     28  C   UNL A   1      35.659  30.425  29.232  1.00  0.00     0.010 A 
ATOM     29  C   UNL A   1      36.853  31.144  29.361  1.00  0.00    -0.014 A 
BRANCH  29  30
ATOM     30  C   UNL A   1      37.986  30.503  30.075  1.00  0.00     0.031 A 
ATOM     31  C   UNL A   1      38.325  30.942  31.478  1.00  0.00     0.074 A 
ATOM     32  C   UNL A   1      38.783  29.635  29.423  1.00  0.00     0.049 A 
ATOM     33  N   UNL A   1      39.360  30.631  32.214  1.00  0.00    -0.248 NA
ATOM     34  C   UNL A   1      37.405  31.900  32.120  1.00  0.00     0.031 C 
ATOM     35  C   UNL A   1      38.609  29.197  28.036  1.00  0.00     0.029 A 
ATOM     36  N   UNL A   1      39.923  28.990  29.832  1.00  0.00    -0.354 N 
ATOM     37  C   UNL A   1      39.244  31.392  33.371  1.00  0.00     0.074 A 
ATOM     38  C   UNL A   1      38.069  32.220  33.220  1.00  0.00     0.031 C 
ATOM     39  C   UNL A   1      39.598  28.348  27.714  1.00  0.00     0.029 A 
ATOM     40  C   UNL A   1      40.500  28.214  28.852  1.00  0.00     0.049 A 
ATOM     41  H   UNL A   1      40.293  29.073  30.740  1.00  0.00     0.167 HD
ATOM     42  C   UNL A   1      40.022  31.379  34.479  1.00  0.00     0.034 A 
ATOM     43  C   UNL A   1      41.636  27.492  28.866  1.00  0.00     0.034 A 
ATOM     44  C   UNL A   1      41.152  30.510  34.646  1.00  0.00     0.049 A 
ATOM     45  C   UNL A   1      42.457  27.456  30.125  1.00  0.00     0.074 A 
ATOM     46  C   UNL A   1      41.951  30.341  35.762  1.00  0.00     0.029 A 
ATOM     47  N   UNL A   1      41.647  29.663  33.666  1.00  0.00    -0.354 N 
ATOM     48  N   UNL A   1      42.249  28.070  31.265  1.00  0.00    -0.248 NA
ATOM     49  C   UNL A   1      43.652  26.601  30.113  1.00  0.00     0.031 C 
ATOM     50  C   UNL A   1      42.948  29.412  35.446  1.00  0.00     0.029 A 
ATOM     51  C   UNL A   1      42.746  28.975  34.147  1.00  0.00     0.049 A 
ATOM     52  H   UNL A   1      41.272  29.565  32.761  1.00  0.00     0.167 HD
ATOM     53  C   UNL A   1      43.262  27.645  32.118  1.00  0.00     0.074 A 
ATOM     54  C   UNL A   1      44.070  26.706  31.367  1.00  0.00     0.031 C 
ATOM     55  C   UNL A   1      43.507  28.006  33.401  1.00  0.00     0.034 A 
BRANCH  42  56
ATOM     56  C   UNL A   1      39.641  32.295  35.615  1.00  0.00     0.023 A 
ATOM     57  C   UNL A   1      38.887  31.794  36.696  1.00  0.00     0.012 A 
ATOM     58  C   UNL A   1      40.064  33.638  35.635  1.00  0.00     0.148 A 
ATOM     59  C   UNL A   1      38.521  32.623  37.755  1.00  0.00     0.002 A 
ATOM     60  C   UNL A   1      39.741  34.445  36.719  1.00  0.00     0.091 A 
ATOM     61  F   UNL A   1      40.762  34.105  34.590  1.00  0.00    -0.205 F 
ATOM     62  C   UNL A   1      38.957  33.945  37.772  1.00  0.00     0.022 A 
BRANCH  60  63
ATOM     63  S   UNL A   1      40.325  36.136  36.879  1.00  0.00     0.127 S 
ATOM     64  O   UNL A   1      39.606  36.585  38.071  1.00  0.00    -0.237 OA
ATOM     65  O   UNL A   1      41.763  35.946  37.072  1.00  0.00    -0.237 OA
ATOM     66  O   UNL A   1      39.959  36.808  35.641  1.00  0.00    -0.744 OA
ENDBRANCH  60  63
ENDBRANCH  42  56
BRANCH  43  67
ATOM     67  C   UNL A   1      42.026  26.691  27.670  1.00  0.00     0.023 A 
ATOM     68  C   UNL A   1      42.712  27.321  26.613  1.00  0.00     0.012 A 
ATOM     69  C   UNL A   1      41.748  25.314  27.583  1.00  0.00     0.148 A 
ATOM     70  C   UNL A   1      43.080  26.604  25.474  1.00  0.00     0.002 A 
ATOM     71  C   UNL A   1      42.168  24.592  26.471  1.00  0.00     0.091 A 
ATOM     72  F   UNL A   1      41.091  24.734  28.597  1.00  0.00    -0.205 F 
ATOM     73  C   UNL A   1      42.816  25.238  25.407  1.00  0.00     0.022 A 
BRANCH  71  74
ATOM     74  S   UNL A   1      41.990  22.808  26.355  1.00  0.00     0.127 S 
ATOM     75  O   UNL A   1      40.538  22.650  26.382  1.00  0.00    -0.237 OA
ATOM     76  O   UNL A   1      42.617  22.528  25.064  1.00  0.00    -0.237 OA
ATOM     77  O   UNL A   1      42.707  22.265  27.501  1.00  0.00    -0.744 OA
ENDBRANCH  71  74
ENDBRANCH  43  67
BRANCH  55  78
ATOM     78  C   UNL A   1      44.669  27.349  34.100  1.00  0.00     0.023 A 
ATOM     79  C   UNL A   1      45.939  27.955  34.078  1.00  0.00     0.012 A 
ATOM     80  C   UNL A   1      44.477  26.168  34.843  1.00  0.00     0.148 A 
ATOM     81  C   UNL A   1      47.012  27.376  34.755  1.00  0.00     0.002 A 
ATOM     82  C   UNL A   1      45.535  25.626  35.559  1.00  0.00     0.091 A 
ATOM     83  F   UNL A   1      43.262  25.599  34.837  1.00  0.00    -0.205 F 
ATOM     84  C   UNL A   1      46.806  26.220  35.506  1.00  0.00     0.022 A 
BRANCH  82  85
ATOM     85  S   UNL A   1      45.341  24.200  36.634  1.00  0.00     0.127 S 
ATOM     86  O   UNL A   1      44.539  24.754  37.722  1.00  0.00    -0.237 OA
ATOM     87  O   UNL A   1      44.632  23.256  35.770  1.00  0.00    -0.237 OA
ATOM     88  O   UNL A   1      46.690  23.787  37.002  1.00  0.00    -0.744 OA
ENDBRANCH  82  85
ENDBRANCH  55  78
ENDBRANCH  29  30
ENDBRANCH  21  24
ENDBRANCH  19  20
ENDBRANCH  18  19
ENDBRANCH   1  18
TORSDOF 18
ENDMDL
MODEL 2
REMARK VINA RESULT:     -10.5      1.839      8.045
REMARK SMILES CC(C)[C@@H](CC(=O)OC(C)(C)C)C(=O)NCCCNC(=O)c1ccc(-c2c3nc(c(-c4cccc(S(=O)(=O)[O-])c4F)c4ccc([nH]4)c(-c4cccc(S(=O)(=O)[O-])c4F)c4nc(c(-c5cccc(S(=O)(=O)[O-])c5F)c5ccc2[nH]5)C=C4)C=C3)cc1
REMARK SMILES IDX 16 1 15 2 13 3 14 4 4 6 2 7 1 8 3 9 5 10 6 11 7 12 8 13 9 14
REMARK SMILES IDX 10 15 11 16 12 17 17 18 18 19 19 20 20 21 21 23 22 24 23 25
REMARK SMILES IDX 84 26 24 27 83 28 25 29 26 30 27 31 77 32 28 33 82 34 76 35
REMARK SMILES IDX 78 36 29 37 81 38 75 39 74 40 30 42 62 43 42 44 61 45 43 46
REMARK SMILES IDX 46 47 60 48 79 49 44 50 45 51 59 53 80 54 47 55 31 56 32 57
REMARK SMILES IDX 40 58 33 59 35 60 41 61 34 62 36 63 37 64 38 65 39 66 63 67
REMARK SMILES IDX 64 68 72 69 65 70 67 71 73 72 66 73 68 74 69 75 70 76 71 77
REMARK SMILES IDX 48 78 49 79 57 80 50 81 52 82 58 83 51 84 53 85 54 86 55 87
REMARK SMILES IDX 56 88
REMARK H PARENT 15 5 19 22 78 41 46 52
REMARK Flexibility Score: inf
ROOT
ATOM      1  C   UNL A   1      31.573  29.509  25.126  1.00  0.00     0.117 C 
ENDROOT
BRANCH   1   2
ATOM      2  N   UNL A   1      31.587  29.431  23.693  1.00  0.00    -0.356 N 
ATOM      3  C   UNL A   1      30.567  29.064  22.873  1.00  0.00     0.223 C 
ATOM      4  O   UNL A   1      30.703  29.268  21.663  1.00  0.00    -0.275 OA
ATOM      5  H   UNL A   1      32.435  29.671  23.253  1.00  0.00     0.163 HD
BRANCH   3   6
ATOM      6  C   UNL A   1      29.286  28.403  23.408  1.00  0.00     0.092 C 
BRANCH   6   7
ATOM      7  C   UNL A   1      27.952  29.003  22.881  1.00  0.00    -0.004 C 
ATOM      8  C   UNL A   1      26.744  28.371  23.584  1.00  0.00     0.008 C 
ATOM      9  C   UNL A   1      27.888  30.525  23.083  1.00  0.00     0.008 C 
ENDBRANCH   6   7
BRANCH   6  10
ATOM     10  C   UNL A   1      29.400  26.864  23.502  1.00  0.00     0.136 C 
BRANCH  10  11
ATOM     11  C   UNL A   1      30.237  26.202  24.584  1.00  0.00     0.307 C 
ATOM     12  O   UNL A   1      29.792  25.941  25.690  1.00  0.00    -0.252 OA
BRANCH  11  13
ATOM     13  O   UNL A   1      31.492  25.906  24.154  1.00  0.00    -0.460 OA
BRANCH  13  14
ATOM     14  C   UNL A   1      31.963  24.528  24.005  1.00  0.00     0.104 C 
ATOM     15  C   UNL A   1      33.093  24.339  22.980  1.00  0.00     0.056 C 
ATOM     16  C   UNL A   1      32.386  23.965  25.361  1.00  0.00     0.056 C 
ATOM     17  C   UNL A   1      30.738  23.758  23.485  1.00  0.00     0.056 C 
ENDBRANCH  13  14
ENDBRANCH  11  13
ENDBRANCH  10  11
ENDBRANCH   6  10
ENDBRANCH   3   6
ENDBRANCH   1   2
BRANCH   1  18
ATOM     18  C   UNL A   1      31.261  30.869  25.706  1.00  0.00     0.042 C 
BRANCH  18  19
ATOM     19  C   UNL A   1      32.176  31.266  26.850  1.00  0.00     0.118 C 
BRANCH  19  20
ATOM     20  N   UNL A   1      32.197  32.705  27.118  1.00  0.00    -0.352 N 
ATOM     21  C   UNL A   1      33.044  33.499  27.856  1.00  0.00     0.251 C 
ATOM     22  H   UNL A   1      31.463  33.200  26.688  1.00  0.00     0.163 HD
ATOM     23  O   UNL A   1      32.730  34.668  28.072  1.00  0.00    -0.269 OA
BRANCH  21  24
ATOM     24  C   UNL A   1      34.308  32.964  28.401  1.00  0.00     0.039 A 
ATOM     25  C   UNL A   1      35.459  33.760  28.391  1.00  0.00     0.014 A 
ATOM     26  C   UNL A   1      34.370  31.671  28.911  1.00  0.00     0.014 A 
ATOM     27  C   UNL A   1      36.636  33.283  28.974  1.00  0.00     0.010 A 
ATOM     28  C   UNL A   1      35.483  31.263  29.624  1.00  0.00     0.010 A 
ATOM     29  C   UNL A   1      36.642  32.049  29.642  1.00  0.00    -0.014 A 
BRANCH  29  30
ATOM     30  C   UNL A   1      37.836  31.524  30.350  1.00  0.00     0.031 A 
ATOM     31  C   UNL A   1      38.692  30.473  29.688  1.00  0.00     0.074 A 
ATOM     32  C   UNL A   1      38.072  31.888  31.626  1.00  0.00     0.049 A 
ATOM     33  N   UNL A   1      39.676  29.772  30.189  1.00  0.00    -0.248 NA
ATOM     34  C   UNL A   1      38.366  30.125  28.292  1.00  0.00     0.031 C 
ATOM     35  C   UNL A   1      37.266  32.831  32.404  1.00  0.00     0.029 A 
ATOM     36  N   UNL A   1      39.042  31.480  32.506  1.00  0.00    -0.354 N 
ATOM     37  C   UNL A   1      40.043  28.871  29.197  1.00  0.00     0.074 A 
ATOM     38  C   UNL A   1      39.145  29.075  28.083  1.00  0.00     0.031 C 
ATOM     39  C   UNL A   1      37.780  32.938  33.640  1.00  0.00     0.029 A 
ATOM     40  C   UNL A   1      38.923  32.041  33.757  1.00  0.00     0.049 A 
ATOM     41  H   UNL A   1      39.756  30.846  32.266  1.00  0.00     0.167 HD
ATOM     42  C   UNL A   1      41.060  27.977  29.192  1.00  0.00     0.034 A 
ATOM     43  C   UNL A   1      39.645  31.840  34.876  1.00  0.00     0.034 A 
ATOM     44  C   UNL A   1      41.986  27.823  30.279  1.00  0.00     0.049 A 
ATOM     45  C   UNL A   1      40.800  30.878  34.832  1.00  0.00     0.074 A 
ATOM     46  C   UNL A   1      43.111  27.022  30.344  1.00  0.00     0.029 A 
ATOM     47  N   UNL A   1      41.893  28.484  31.495  1.00  0.00    -0.354 N 
ATOM     48  N   UNL A   1      41.223  30.141  33.833  1.00  0.00    -0.248 NA
ATOM     49  C   UNL A   1      41.598  30.743  36.058  1.00  0.00     0.031 C 
ATOM     50  C   UNL A   1      43.682  27.176  31.611  1.00  0.00     0.029 A 
ATOM     51  C   UNL A   1      42.935  28.102  32.321  1.00  0.00     0.049 A 
ATOM     52  H   UNL A   1      41.189  29.129  31.735  1.00  0.00     0.167 HD
ATOM     53  C   UNL A   1      42.360  29.488  34.296  1.00  0.00     0.074 A 
ATOM     54  C   UNL A   1      42.568  29.932  35.659  1.00  0.00     0.031 C 
ATOM     55  C   UNL A   1      43.154  28.594  33.656  1.00  0.00     0.034 A 
BRANCH  42  56
ATOM     56  C   UNL A   1      41.254  27.140  27.954  1.00  0.00     0.023 A 
ATOM     57  C   UNL A   1      41.854  27.707  26.811  1.00  0.00     0.012 A 
ATOM     58  C   UNL A   1      40.882  25.781  27.933  1.00  0.00     0.148 A 
ATOM     59  C   UNL A   1      42.040  26.953  25.653  1.00  0.00     0.002 A 
ATOM     60  C   UNL A   1      41.119  25.021  26.794  1.00  0.00     0.091 A 
ATOM     61  F   UNL A   1      40.294  25.262  29.021  1.00  0.00    -0.205 F 
ATOM     62  C   UNL A   1      41.683  25.607  25.650  1.00  0.00     0.022 A 
BRANCH  60  63
ATOM     63  S   UNL A   1      40.775  23.259  26.715  1.00  0.00     0.127 S 
ATOM     64  O   UNL A   1      39.350  23.252  26.388  1.00  0.00    -0.237 OA
ATOM     65  O   UNL A   1      41.652  22.825  25.627  1.00  0.00    -0.237 OA
ATOM     66  O   UNL A   1      41.117  22.723  28.024  1.00  0.00    -0.744 OA
ENDBRANCH  60  63
ENDBRANCH  42  56
BRANCH  43  67
ATOM     67  C   UNL A   1      39.338  32.616  36.112  1.00  0.00     0.023 A 
ATOM     68  C   UNL A   1      39.930  33.881  36.296  1.00  0.00     0.012 A 
ATOM     69  C   UNL A   1      38.450  32.126  37.088  1.00  0.00     0.148 A 
ATOM     70  C   UNL A   1      39.674  34.627  37.447  1.00  0.00     0.002 A 
ATOM     71  C   UNL A   1      38.155  32.899  38.205  1.00  0.00     0.091 A 
ATOM     72  F   UNL A   1      37.900  30.918  36.897  1.00  0.00    -0.205 F 
ATOM     73  C   UNL A   1      38.780  34.140  38.397  1.00  0.00     0.022 A 
BRANCH  71  74
ATOM     74  S   UNL A   1      36.917  32.414  39.414  1.00  0.00     0.127 S 
ATOM     75  O   UNL A   1      37.344  31.059  39.753  1.00  0.00    -0.237 OA
ATOM     76  O   UNL A   1      37.123  33.408  40.468  1.00  0.00    -0.237 OA
ATOM     77  O   UNL A   1      35.635  32.521  38.731  1.00  0.00    -0.744 OA
ENDBRANCH  71  74
ENDBRANCH  43  67
BRANCH  55  78
ATOM     78  C   UNL A   1      44.352  28.069  34.401  1.00  0.00     0.023 A 
ATOM     79  C   UNL A   1      45.568  28.778  34.372  1.00  0.00     0.012 A 
ATOM     80  C   UNL A   1      44.246  26.909  35.193  1.00  0.00     0.148 A 
ATOM     81  C   UNL A   1      46.672  28.321  35.091  1.00  0.00     0.002 A 
ATOM     82  C   UNL A   1      45.332  26.489  35.949  1.00  0.00     0.091 A 
ATOM     83  F   UNL A   1      43.083  26.240  35.194  1.00  0.00    -0.205 F 
ATOM     84  C   UNL A   1      46.550  27.185  35.889  1.00  0.00     0.022 A 
BRANCH  82  85
ATOM     85  S   UNL A   1      45.237  25.100  37.083  1.00  0.00     0.127 S 
ATOM     86  O   UNL A   1      45.004  23.984  36.168  1.00  0.00    -0.237 OA
ATOM     87  O   UNL A   1      46.562  25.115  37.703  1.00  0.00    -0.237 OA
ATOM     88  O   UNL A   1      44.140  25.397  37.995  1.00  0.00    -0.744 OA
ENDBRANCH  82  85
ENDBRANCH  55  78
ENDBRANCH  29  30
ENDBRANCH  21  24
ENDBRANCH  19  20
ENDBRANCH  18  19
ENDBRANCH   1  18
TORSDOF 18
ENDMDL
MODEL 3
REMARK VINA RESULT:     -10.5      2.463      3.927
REMARK SMILES CC(C)[C@@H](CC(=O)OC(C)(C)C)C(=O)NCCCNC(=O)c1ccc(-c2c3nc(c(-c4cccc(S(=O)(=O)[O-])c4F)c4ccc([nH]4)c(-c4cccc(S(=O)(=O)[O-])c4F)c4nc(c(-c5cccc(S(=O)(=O)[O-])c5F)c5ccc2[nH]5)C=C4)C=C3)cc1
REMARK SMILES IDX 16 1 15 2 13 3 14 4 4 6 2 7 1 8 3 9 5 10 6 11 7 12 8 13 9 14
REMARK SMILES IDX 10 15 11 16 12 17 17 18 18 19 19 20 20 21 21 23 22 24 23 25
REMARK SMILES IDX 84 26 24 27 83 28 25 29 26 30 27 31 77 32 28 33 82 34 76 35
REMARK SMILES IDX 78 36 29 37 81 38 75 39 74 40 30 42 62 43 42 44 61 45 43 46
REMARK SMILES IDX 46 47 60 48 79 49 44 50 45 51 59 53 80 54 47 55 31 56 32 57
REMARK SMILES IDX 40 58 33 59 35 60 41 61 34 62 36 63 37 64 38 65 39 66 63 67
REMARK SMILES IDX 64 68 72 69 65 70 67 71 73 72 66 73 68 74 69 75 70 76 71 77
REMARK SMILES IDX 48 78 49 79 57 80 50 81 52 82 58 83 51 84 53 85 54 86 55 87
REMARK SMILES IDX 56 88
REMARK H PARENT 15 5 19 22 78 41 46 52
REMARK Flexibility Score: inf
ROOT
ATOM      1  C   UNL A   1      33.438  26.584  26.105  1.00  0.00     0.117 C 
ENDROOT
BRANCH   1   2
ATOM      2  N   UNL A   1      32.312  25.769  25.749  1.00  0.00    -0.356 N 
ATOM      3  C   UNL A   1      31.557  25.844  24.621  1.00  0.00     0.223 C 
ATOM      4  O   UNL A   1      30.772  24.919  24.394  1.00  0.00    -0.275 OA
ATOM      5  H   UNL A   1      32.056  25.073  26.398  1.00  0.00     0.163 HD
BRANCH   3   6
ATOM      6  C   UNL A   1      31.650  27.036  23.654  1.00  0.00     0.092 C 
BRANCH   6   7
ATOM      7  C   UNL A   1      32.469  26.784  22.357  1.00  0.00    -0.004 C 
ATOM      8  C   UNL A   1      33.727  27.661  22.316  1.00  0.00     0.008 C 
ATOM      9  C   UNL A   1      32.899  25.314  22.226  1.00  0.00     0.008 C 
ENDBRANCH   6   7
BRANCH   6  10
ATOM     10  C   UNL A   1      30.320  27.813  23.530  1.00  0.00     0.136 C 
BRANCH  10  11
ATOM     11  C   UNL A   1      30.290  29.332  23.567  1.00  0.00     0.307 C 
ATOM     12  O   UNL A   1      30.776  29.977  24.483  1.00  0.00    -0.252 OA
BRANCH  11  13
ATOM     13  O   UNL A   1      29.711  29.862  22.458  1.00  0.00    -0.460 OA
BRANCH  13  14
ATOM     14  C   UNL A   1      28.396  30.504  22.492  1.00  0.00     0.104 C 
ATOM     15  C   UNL A   1      27.279  29.657  23.121  1.00  0.00     0.056 C 
ATOM     16  C   UNL A   1      28.487  31.857  23.196  1.00  0.00     0.056 C 
ATOM     17  C   UNL A   1      28.034  30.715  21.012  1.00  0.00     0.056 C 
ENDBRANCH  13  14
ENDBRANCH  11  13
ENDBRANCH  10  11
ENDBRANCH   6  10
ENDBRANCH   3   6
ENDBRANCH   1   2
BRANCH   1  18
ATOM     18  C   UNL A   1      33.108  27.954  26.652  1.00  0.00     0.042 C 
BRANCH  18  19
ATOM     19  C   UNL A   1      33.817  29.083  25.927  1.00  0.00     0.118 C 
BRANCH  19  20
ATOM     20  N   UNL A   1      33.781  30.361  26.643  1.00  0.00    -0.352 N 
ATOM     21  C   UNL A   1      34.568  30.889  27.638  1.00  0.00     0.251 C 
ATOM     22  H   UNL A   1      33.050  30.956  26.356  1.00  0.00     0.163 HD
ATOM     23  O   UNL A   1      34.209  31.921  28.201  1.00  0.00    -0.269 OA
BRANCH  21  24
ATOM     24  C   UNL A   1      35.824  30.227  28.049  1.00  0.00     0.039 A 
ATOM     25  C   UNL A   1      36.967  30.352  27.250  1.00  0.00     0.014 A 
ATOM     26  C   UNL A   1      35.878  29.469  29.214  1.00  0.00     0.014 A 
ATOM     27  C   UNL A   1      38.174  29.790  27.676  1.00  0.00     0.010 A 
ATOM     28  C   UNL A   1      37.100  29.050  29.709  1.00  0.00     0.010 A 
ATOM     29  C   UNL A   1      38.261  29.178  28.936  1.00  0.00    -0.014 A 
BRANCH  29  30
ATOM     30  C   UNL A   1      39.531  28.634  29.479  1.00  0.00     0.031 A 
ATOM     31  C   UNL A   1      40.229  29.356  30.605  1.00  0.00     0.074 A 
ATOM     32  C   UNL A   1      40.119  27.581  28.879  1.00  0.00     0.049 A 
ATOM     33  N   UNL A   1      41.415  29.144  31.113  1.00  0.00    -0.248 NA
ATOM     34  C   UNL A   1      39.521  30.503  31.205  1.00  0.00     0.031 C 
ATOM     35  C   UNL A   1      39.585  26.852  27.726  1.00  0.00     0.029 A 
ATOM     36  N   UNL A   1      41.317  26.962  29.134  1.00  0.00    -0.354 N 
ATOM     37  C   UNL A   1      41.614  30.156  32.044  1.00  0.00     0.074 A 
ATOM     38  C   UNL A   1      40.452  31.014  31.995  1.00  0.00     0.031 C 
ATOM     39  C   UNL A   1      40.444  25.879  27.382  1.00  0.00     0.029 A 
ATOM     40  C   UNL A   1      41.608  25.942  28.258  1.00  0.00     0.049 A 
ATOM     41  H   UNL A   1      41.911  27.223  29.874  1.00  0.00     0.167 HD
ATOM     42  C   UNL A   1      42.653  30.339  32.893  1.00  0.00     0.034 A 
ATOM     43  C   UNL A   1      42.699  25.157  28.163  1.00  0.00     0.034 A 
ATOM     44  C   UNL A   1      43.775  29.447  32.978  1.00  0.00     0.049 A 
ATOM     45  C   UNL A   1      43.818  25.349  29.149  1.00  0.00     0.074 A 
ATOM     46  C   UNL A   1      44.833  29.479  33.867  1.00  0.00     0.029 A 
ATOM     47  N   UNL A   1      43.986  28.363  32.139  1.00  0.00    -0.354 N 
ATOM     48  N   UNL A   1      43.922  26.222  30.121  1.00  0.00    -0.248 NA
ATOM     49  C   UNL A   1      44.957  24.426  29.046  1.00  0.00     0.031 C 
ATOM     50  C   UNL A   1      45.701  28.429  33.547  1.00  0.00     0.029 A 
ATOM     51  C   UNL A   1      45.163  27.723  32.484  1.00  0.00     0.049 A 
ATOM     52  H   UNL A   1      43.388  28.090  31.407  1.00  0.00     0.167 HD
ATOM     53  C   UNL A   1      45.115  25.928  30.772  1.00  0.00     0.074 A 
ATOM     54  C   UNL A   1      45.687  24.784  30.093  1.00  0.00     0.031 C 
ATOM     55  C   UNL A   1      45.690  26.554  31.829  1.00  0.00     0.034 A 
BRANCH  42  56
ATOM     56  C   UNL A   1      42.593  31.517  33.833  1.00  0.00     0.023 A 
ATOM     57  C   UNL A   1      43.109  32.764  33.426  1.00  0.00     0.012 A 
ATOM     58  C   UNL A   1      41.989  31.402  35.100  1.00  0.00     0.148 A 
ATOM     59  C   UNL A   1      43.067  33.866  34.279  1.00  0.00     0.002 A 
ATOM     60  C   UNL A   1      41.903  32.518  35.924  1.00  0.00     0.091 A 
ATOM     61  F   UNL A   1      41.522  30.204  35.480  1.00  0.00    -0.205 F 
ATOM     62  C   UNL A   1      42.454  33.745  35.523  1.00  0.00     0.022 A 
BRANCH  60  63
ATOM     63  S   UNL A   1      41.059  32.490  37.510  1.00  0.00     0.127 S 
ATOM     64  O   UNL A   1      41.911  31.586  38.281  1.00  0.00    -0.237 OA
ATOM     65  O   UNL A   1      41.131  33.893  37.919  1.00  0.00    -0.237 OA
ATOM     66  O   UNL A   1      39.714  32.001  37.242  1.00  0.00    -0.744 OA
ENDBRANCH  60  63
ENDBRANCH  42  56
BRANCH  43  67
ATOM     67  C   UNL A   1      42.754  24.076  27.137  1.00  0.00     0.023 A 
ATOM     68  C   UNL A   1      43.491  24.287  25.954  1.00  0.00     0.012 A 
ATOM     69  C   UNL A   1      42.108  22.841  27.333  1.00  0.00     0.148 A 
ATOM     70  C   UNL A   1      43.552  23.301  24.969  1.00  0.00     0.002 A 
ATOM     71  C   UNL A   1      42.220  21.842  26.373  1.00  0.00     0.091 A 
ATOM     72  F   UNL A   1      41.409  22.663  28.463  1.00  0.00    -0.205 F 
ATOM     73  C   UNL A   1      42.924  22.076  25.181  1.00  0.00     0.022 A 
BRANCH  71  74
ATOM     74  S   UNL A   1      41.558  20.190  26.617  1.00  0.00     0.127 S 
ATOM     75  O   UNL A   1      40.121  20.446  26.658  1.00  0.00    -0.237 OA
ATOM     76  O   UNL A   1      42.028  19.498  25.417  1.00  0.00    -0.237 OA
ATOM     77  O   UNL A   1      42.150  19.708  27.858  1.00  0.00    -0.744 OA
ENDBRANCH  71  74
ENDBRANCH  43  67
BRANCH  55  78
ATOM     78  C   UNL A   1      46.984  25.989  32.353  1.00  0.00     0.023 A 
ATOM     79  C   UNL A   1      48.214  26.490  31.886  1.00  0.00     0.012 A 
ATOM     80  C   UNL A   1      46.974  25.012  33.368  1.00  0.00     0.148 A 
ATOM     81  C   UNL A   1      49.417  26.001  32.395  1.00  0.00     0.002 A 
ATOM     82  C   UNL A   1      48.173  24.569  33.908  1.00  0.00     0.091 A 
ATOM     83  F   UNL A   1      45.792  24.537  33.787  1.00  0.00    -0.205 F 
ATOM     84  C   UNL A   1      49.396  25.051  33.414  1.00  0.00     0.022 A 
BRANCH  82  85
ATOM     85  S   UNL A   1      48.243  23.426  35.292  1.00  0.00     0.127 S 
ATOM     86  O   UNL A   1      47.514  22.274  34.764  1.00  0.00    -0.237 OA
ATOM     87  O   UNL A   1      49.682  23.218  35.450  1.00  0.00    -0.237 OA
ATOM     88  O   UNL A   1      47.604  24.107  36.411  1.00  0.00    -0.744 OA
ENDBRANCH  82  85
ENDBRANCH  55  78
ENDBRANCH  29  30
ENDBRANCH  21  24
ENDBRANCH  19  20
ENDBRANCH  18  19
ENDBRANCH   1  18
TORSDOF 18
ENDMDL
