MODEL 1
REMARK VINA RESULT:     -12.9      0.000      0.000
REMARK SMILES CC(C)Cc1cc2c(cc1Cl)C=C(C(=O)NCCCNC(=O)c1ccc(-c3c4nc(c(-c5cccc(S(=O)(=O)[O-])c5F)c5ccc([nH]5)c(-c5cccc(S(=O)(=O)[O-])c5F)c5nc(c(-c6cccc(S(=O)(=O)[O-])c6F)c6ccc3[nH]6)C=C5)C=C4)cc1)[C@@H](C(F)(F)F)O2
REMARK SMILES IDX 18 1 17 2 16 3 14 4 15 5 13 7 5 8 6 9 10 10 7 11 9 12 11 13
REMARK SMILES IDX 8 14 91 15 12 16 86 17 4 18 2 19 1 20 3 21 87 22 88 23 89 24
REMARK SMILES IDX 90 25 19 26 20 27 21 28 22 30 23 31 24 32 85 33 25 34 84 35
REMARK SMILES IDX 26 36 27 37 28 38 78 39 29 40 83 41 77 42 79 43 30 44 82 45
REMARK SMILES IDX 76 46 75 47 31 49 63 50 43 51 62 52 44 53 47 54 61 55 80 56
REMARK SMILES IDX 45 57 46 58 60 60 81 61 48 62 32 63 33 64 41 65 34 66 36 67
REMARK SMILES IDX 42 68 35 69 37 70 38 71 39 72 40 73 64 74 65 75 73 76 66 77
REMARK SMILES IDX 68 78 74 79 67 80 69 81 70 82 71 83 72 84 49 85 50 86 58 87
REMARK SMILES IDX 51 88 53 89 59 90 52 91 54 92 55 93 56 94 57 95
REMARK H PARENT 16 6 20 29 79 48 47 59
REMARK Flexibility Score: inf
ROOT
ATOM      1  C   UNL A   1      32.361  29.662  25.175  1.00  0.00     0.042 C 
ENDROOT
BRANCH   1   2
ATOM      2  C   UNL A   1      30.906  30.069  25.013  1.00  0.00     0.118 C 
BRANCH   2   3
ATOM      3  N   UNL A   1      30.449  29.927  23.639  1.00  0.00    -0.352 N 
ATOM      4  C   UNL A   1      30.348  28.938  22.722  1.00  0.00     0.251 C 
ATOM      5  O   UNL A   1      29.889  29.282  21.628  1.00  0.00    -0.270 OA
ATOM      6  H   UNL A   1      30.124  30.783  23.278  1.00  0.00     0.163 HD
BRANCH   4   7
ATOM      7  C   UNL A   1      30.732  27.514  22.944  1.00  0.00     0.067 C 
ATOM      8  C   UNL A   1      31.261  22.885  24.896  1.00  0.00    -0.025 A 
ATOM      9  C   UNL A   1      31.634  23.495  23.687  1.00  0.00     0.052 A 
ATOM     10  C   UNL A   1      30.479  23.623  25.800  1.00  0.00     0.045 A 
ATOM     11  C   UNL A   1      31.269  24.811  23.410  1.00  0.00     0.128 A 
ATOM     12  C   UNL A   1      30.105  24.942  25.512  1.00  0.00     0.032 A 
ATOM     13  Cl  UNL A   1      29.947  22.964  27.307  1.00  0.00    -0.084 Cl
ATOM     14  C   UNL A   1      30.510  25.543  24.319  1.00  0.00     0.019 A 
ATOM     15  O   UNL A   1      31.665  25.316  22.207  1.00  0.00    -0.475 OA
ATOM     16  C   UNL A   1      30.142  26.914  23.996  1.00  0.00     0.025 C 
ATOM     17  C   UNL A   1      31.741  26.768  22.116  1.00  0.00     0.314 C 
BRANCH   8  18
ATOM     18  C   UNL A   1      31.758  21.482  25.167  1.00  0.00     0.040 C 
BRANCH  18  19
ATOM     19  C   UNL A   1      32.824  21.006  24.158  1.00  0.00    -0.013 C 
ATOM     20  C   UNL A   1      34.251  21.203  24.674  1.00  0.00     0.008 C 
ATOM     21  C   UNL A   1      32.598  19.529  23.825  1.00  0.00     0.008 C 
ENDBRANCH  18  19
ENDBRANCH   8  18
BRANCH  17  22
ATOM     22  C   UNL A   1      33.191  27.205  22.403  1.00  0.00     0.429 C 
ATOM     23  F   UNL A   1      33.449  27.150  23.734  1.00  0.00    -0.167 F 
ATOM     24  F   UNL A   1      34.107  26.411  21.802  1.00  0.00    -0.167 F 
ATOM     25  F   UNL A   1      33.444  28.470  21.995  1.00  0.00    -0.167 F 
ENDBRANCH  17  22
ENDBRANCH   4   7
ENDBRANCH   2   3
ENDBRANCH   1   2
BRANCH   1  26
ATOM     26  C   UNL A   1      32.906  29.989  26.561  1.00  0.00     0.118 C 
BRANCH  26  27
ATOM     27  N   UNL A   1      32.838  31.419  26.857  1.00  0.00    -0.352 N 
ATOM     28  C   UNL A   1      33.675  32.215  27.603  1.00  0.00     0.251 C 
ATOM     29  H   UNL A   1      32.068  31.887  26.458  1.00  0.00     0.163 HD
ATOM     30  O   UNL A   1      33.309  33.343  27.924  1.00  0.00    -0.269 OA
BRANCH  28  31
ATOM     31  C   UNL A   1      34.992  31.704  28.033  1.00  0.00     0.039 A 
ATOM     32  C   UNL A   1      35.144  30.360  28.370  1.00  0.00     0.014 A 
ATOM     33  C   UNL A   1      36.084  32.572  28.109  1.00  0.00     0.014 A 
ATOM     34  C   UNL A   1      36.315  29.933  28.979  1.00  0.00     0.010 A 
ATOM     35  C   UNL A   1      37.302  32.111  28.620  1.00  0.00     0.010 A 
ATOM     36  C   UNL A   1      37.409  30.802  29.115  1.00  0.00    -0.014 A 
BRANCH  36  37
ATOM     37  C   UNL A   1      38.645  30.306  29.777  1.00  0.00     0.031 A 
ATOM     38  C   UNL A   1      38.990  30.719  31.183  1.00  0.00     0.074 A 
ATOM     39  C   UNL A   1      39.426  29.423  29.122  1.00  0.00     0.049 A 
ATOM     40  N   UNL A   1      40.007  30.348  31.918  1.00  0.00    -0.248 NA
ATOM     41  C   UNL A   1      38.088  31.669  31.857  1.00  0.00     0.031 C 
ATOM     42  C   UNL A   1      39.205  28.962  27.749  1.00  0.00     0.029 A 
ATOM     43  N   UNL A   1      40.541  28.735  29.527  1.00  0.00    -0.354 N 
ATOM     44  C   UNL A   1      39.897  31.052  33.111  1.00  0.00     0.074 A 
ATOM     45  C   UNL A   1      38.711  31.873  33.010  1.00  0.00     0.031 C 
ATOM     46  C   UNL A   1      40.115  28.026  27.447  1.00  0.00     0.029 A 
ATOM     47  C   UNL A   1      41.023  27.865  28.577  1.00  0.00     0.049 A 
ATOM     48  H   UNL A   1      40.957  28.854  30.411  1.00  0.00     0.167 HD
ATOM     49  C   UNL A   1      40.701  31.004  34.198  1.00  0.00     0.034 A 
ATOM     50  C   UNL A   1      42.081  27.032  28.604  1.00  0.00     0.034 A 
ATOM     51  C   UNL A   1      41.836  30.132  34.326  1.00  0.00     0.049 A 
ATOM     52  C   UNL A   1      42.934  26.976  29.835  1.00  0.00     0.074 A 
ATOM     53  C   UNL A   1      42.678  29.980  35.415  1.00  0.00     0.029 A 
ATOM     54  N   UNL A   1      42.283  29.263  33.346  1.00  0.00    -0.354 N 
ATOM     55  N   UNL A   1      42.771  27.603  30.975  1.00  0.00    -0.248 NA
ATOM     56  C   UNL A   1      44.111  26.098  29.792  1.00  0.00     0.031 C 
ATOM     57  C   UNL A   1      43.635  29.014  35.091  1.00  0.00     0.029 A 
ATOM     58  C   UNL A   1      43.388  28.567  33.804  1.00  0.00     0.049 A 
ATOM     59  H   UNL A   1      41.875  29.155  32.457  1.00  0.00     0.167 HD
ATOM     60  C   UNL A   1      43.820  27.195  31.786  1.00  0.00     0.074 A 
ATOM     61  C   UNL A   1      44.600  26.244  31.019  1.00  0.00     0.031 C 
ATOM     62  C   UNL A   1      44.124  27.592  33.044  1.00  0.00     0.034 A 
BRANCH  49  63
ATOM     63  C   UNL A   1      40.362  31.874  35.377  1.00  0.00     0.023 A 
ATOM     64  C   UNL A   1      41.052  33.087  35.556  1.00  0.00     0.012 A 
ATOM     65  C   UNL A   1      39.285  31.551  36.227  1.00  0.00     0.148 A 
ATOM     66  C   UNL A   1      40.679  33.969  36.569  1.00  0.00     0.002 A 
ATOM     67  C   UNL A   1      38.903  32.448  37.217  1.00  0.00     0.091 A 
ATOM     68  F   UNL A   1      38.652  30.385  36.039  1.00  0.00    -0.205 F 
ATOM     69  C   UNL A   1      39.600  33.656  37.390  1.00  0.00     0.022 A 
BRANCH  67  70
ATOM     70  S   UNL A   1      37.493  32.169  38.295  1.00  0.00     0.127 S 
ATOM     71  O   UNL A   1      36.468  32.995  37.659  1.00  0.00    -0.237 OA
ATOM     72  O   UNL A   1      37.285  30.727  38.159  1.00  0.00    -0.237 OA
ATOM     73  O   UNL A   1      37.904  32.609  39.621  1.00  0.00    -0.744 OA
ENDBRANCH  67  70
ENDBRANCH  49  63
BRANCH  50  74
ATOM     74  C   UNL A   1      42.354  26.163  27.428  1.00  0.00     0.023 A 
ATOM     75  C   UNL A   1      43.122  26.667  26.362  1.00  0.00     0.012 A 
ATOM     76  C   UNL A   1      41.930  24.821  27.402  1.00  0.00     0.148 A 
ATOM     77  C   UNL A   1      43.462  25.848  25.286  1.00  0.00     0.002 A 
ATOM     78  C   UNL A   1      42.313  23.998  26.351  1.00  0.00     0.091 A 
ATOM     79  F   UNL A   1      41.189  24.371  28.423  1.00  0.00    -0.205 F 
ATOM     80  C   UNL A   1      43.071  24.511  25.287  1.00  0.00     0.022 A 
BRANCH  78  81
ATOM     81  S   UNL A   1      41.964  22.236  26.333  1.00  0.00     0.127 S 
ATOM     82  O   UNL A   1      40.511  22.222  26.187  1.00  0.00    -0.237 OA
ATOM     83  O   UNL A   1      42.707  21.793  25.152  1.00  0.00    -0.237 OA
ATOM     84  O   UNL A   1      42.477  21.719  27.594  1.00  0.00    -0.744 OA
ENDBRANCH  78  81
ENDBRANCH  50  74
BRANCH  62  85
ATOM     85  C   UNL A   1      45.349  27.011  33.688  1.00  0.00     0.023 A 
ATOM     86  C   UNL A   1      46.560  27.726  33.619  1.00  0.00     0.012 A 
ATOM     87  C   UNL A   1      45.272  25.838  34.461  1.00  0.00     0.148 A 
ATOM     88  C   UNL A   1      47.684  27.275  34.310  1.00  0.00     0.002 A 
ATOM     89  C   UNL A   1      46.386  25.412  35.172  1.00  0.00     0.091 A 
ATOM     90  F   UNL A   1      44.107  25.176  34.499  1.00  0.00    -0.205 F 
ATOM     91  C   UNL A   1      47.594  26.128  35.095  1.00  0.00     0.022 A 
BRANCH  89  92
ATOM     92  S   UNL A   1      46.350  23.990  36.268  1.00  0.00     0.127 S 
ATOM     93  O   UNL A   1      47.676  24.052  36.879  1.00  0.00    -0.237 OA
ATOM     94  O   UNL A   1      45.246  24.323  37.169  1.00  0.00    -0.237 OA
ATOM     95  O   UNL A   1      46.111  22.831  35.419  1.00  0.00    -0.744 OA
ENDBRANCH  89  92
ENDBRANCH  62  85
ENDBRANCH  36  37
ENDBRANCH  28  31
ENDBRANCH  26  27
ENDBRANCH   1  26
TORSDOF 16
ENDMDL
MODEL 2
REMARK VINA RESULT:     -12.9      5.335     10.307
REMARK SMILES CC(C)Cc1cc2c(cc1Cl)C=C(C(=O)NCCCNC(=O)c1ccc(-c3c4nc(c(-c5cccc(S(=O)(=O)[O-])c5F)c5ccc([nH]5)c(-c5cccc(S(=O)(=O)[O-])c5F)c5nc(c(-c6cccc(S(=O)(=O)[O-])c6F)c6ccc3[nH]6)C=C5)C=C4)cc1)[C@@H](C(F)(F)F)O2
REMARK SMILES IDX 18 1 17 2 16 3 14 4 15 5 13 7 5 8 6 9 10 10 7 11 9 12 11 13
REMARK SMILES IDX 8 14 91 15 12 16 86 17 4 18 2 19 1 20 3 21 87 22 88 23 89 24
REMARK SMILES IDX 90 25 19 26 20 27 21 28 22 30 23 31 24 32 85 33 25 34 84 35
REMARK SMILES IDX 26 36 27 37 28 38 78 39 29 40 83 41 77 42 79 43 30 44 82 45
REMARK SMILES IDX 76 46 75 47 31 49 63 50 43 51 62 52 44 53 47 54 61 55 80 56
REMARK SMILES IDX 45 57 46 58 60 60 81 61 48 62 32 63 33 64 41 65 34 66 36 67
REMARK SMILES IDX 42 68 35 69 37 70 38 71 39 72 40 73 64 74 65 75 73 76 66 77
REMARK SMILES IDX 68 78 74 79 67 80 69 81 70 82 71 83 72 84 49 85 50 86 58 87
REMARK SMILES IDX 51 88 53 89 59 90 52 91 54 92 55 93 56 94 57 95
REMARK H PARENT 16 6 20 29 79 48 47 59
REMARK Flexibility Score: inf
ROOT
ATOM      1  C   UNL A   1      35.920  21.305  25.675  1.00  0.00     0.042 C 
ENDROOT
BRANCH   1   2
ATOM      2  C   UNL A   1      35.464  20.215  24.719  1.00  0.00     0.118 C 
BRANCH   2   3
ATOM      3  N   UNL A   1      34.221  19.594  25.152  1.00  0.00    -0.352 N 
ATOM      4  C   UNL A   1      32.927  19.957  25.300  1.00  0.00     0.251 C 
ATOM      5  O   UNL A   1      32.178  19.070  25.723  1.00  0.00    -0.270 OA
ATOM      6  H   UNL A   1      34.360  18.652  25.406  1.00  0.00     0.163 HD
BRANCH   4   7
ATOM      7  C   UNL A   1      32.369  21.304  24.986  1.00  0.00     0.067 C 
ATOM      8  C   UNL A   1      31.285  25.700  22.746  1.00  0.00    -0.025 A 
ATOM      9  C   UNL A   1      30.829  25.041  23.900  1.00  0.00     0.052 A 
ATOM     10  C   UNL A   1      32.184  25.023  21.905  1.00  0.00     0.045 A 
ATOM     11  C   UNL A   1      31.288  23.766  24.221  1.00  0.00     0.128 A 
ATOM     12  C   UNL A   1      32.634  23.736  22.226  1.00  0.00     0.032 A 
ATOM     13  Cl  UNL A   1      32.792  25.730  20.450  1.00  0.00    -0.084 Cl
ATOM     14  C   UNL A   1      32.194  23.108  23.393  1.00  0.00     0.019 A 
ATOM     15  O   UNL A   1      30.782  23.199  25.353  1.00  0.00    -0.475 OA
ATOM     16  C   UNL A   1      32.649  21.774  23.756  1.00  0.00     0.025 C 
ATOM     17  C   UNL A   1      31.586  22.145  25.956  1.00  0.00     0.314 C 
BRANCH   8  18
ATOM     18  C   UNL A   1      30.808  27.114  22.500  1.00  0.00     0.040 C 
BRANCH  18  19
ATOM     19  C   UNL A   1      31.447  28.149  23.449  1.00  0.00    -0.013 C 
ATOM     20  C   UNL A   1      32.760  28.715  22.902  1.00  0.00     0.008 C 
ATOM     21  C   UNL A   1      30.463  29.292  23.708  1.00  0.00     0.008 C 
ENDBRANCH  18  19
ENDBRANCH   8  18
BRANCH  17  22
ATOM     22  C   UNL A   1      32.469  22.765  27.057  1.00  0.00     0.429 C 
ATOM     23  F   UNL A   1      33.687  23.094  26.560  1.00  0.00    -0.167 F 
ATOM     24  F   UNL A   1      31.945  23.903  27.571  1.00  0.00    -0.167 F 
ATOM     25  F   UNL A   1      32.670  21.925  28.098  1.00  0.00    -0.167 F 
ENDBRANCH  17  22
ENDBRANCH   4   7
ENDBRANCH   2   3
ENDBRANCH   1   2
BRANCH   1  26
ATOM     26  C   UNL A   1      37.333  21.790  25.373  1.00  0.00     0.118 C 
BRANCH  26  27
ATOM     27  N   UNL A   1      38.343  20.785  25.702  1.00  0.00    -0.352 N 
ATOM     28  C   UNL A   1      39.607  20.930  26.224  1.00  0.00     0.251 C 
ATOM     29  H   UNL A   1      38.075  19.855  25.520  1.00  0.00     0.163 HD
ATOM     30  O   UNL A   1      40.383  19.978  26.203  1.00  0.00    -0.269 OA
BRANCH  28  31
ATOM     31  C   UNL A   1      40.031  22.229  26.784  1.00  0.00     0.039 A 
ATOM     32  C   UNL A   1      39.502  23.415  26.275  1.00  0.00     0.014 A 
ATOM     33  C   UNL A   1      40.970  22.268  27.818  1.00  0.00     0.014 A 
ATOM     34  C   UNL A   1      40.060  24.630  26.646  1.00  0.00     0.010 A 
ATOM     35  C   UNL A   1      41.450  23.502  28.271  1.00  0.00     0.010 A 
ATOM     36  C   UNL A   1      41.043  24.690  27.647  1.00  0.00    -0.014 A 
BRANCH  36  37
ATOM     37  C   UNL A   1      41.618  26.012  28.012  1.00  0.00     0.031 A 
ATOM     38  C   UNL A   1      42.993  26.414  27.551  1.00  0.00     0.074 A 
ATOM     39  C   UNL A   1      40.861  26.881  28.713  1.00  0.00     0.049 A 
ATOM     40  N   UNL A   1      43.626  27.542  27.750  1.00  0.00    -0.248 NA
ATOM     41  C   UNL A   1      43.766  25.431  26.771  1.00  0.00     0.031 C 
ATOM     42  C   UNL A   1      39.520  26.600  29.231  1.00  0.00     0.029 A 
ATOM     43  N   UNL A   1      41.093  28.181  29.085  1.00  0.00    -0.354 N 
ATOM     44  C   UNL A   1      44.878  27.388  27.169  1.00  0.00     0.074 A 
ATOM     45  C   UNL A   1      44.923  26.059  26.603  1.00  0.00     0.031 C 
ATOM     46  C   UNL A   1      39.025  27.708  29.800  1.00  0.00     0.029 A 
ATOM     47  C   UNL A   1      40.034  28.760  29.744  1.00  0.00     0.049 A 
ATOM     48  H   UNL A   1      41.937  28.652  28.899  1.00  0.00     0.167 HD
ATOM     49  C   UNL A   1      45.892  28.281  27.096  1.00  0.00     0.034 A 
ATOM     50  C   UNL A   1      39.888  29.997  30.256  1.00  0.00     0.034 A 
ATOM     51  C   UNL A   1      45.820  29.629  27.593  1.00  0.00     0.049 A 
ATOM     52  C   UNL A   1      41.016  30.976  30.132  1.00  0.00     0.074 A 
ATOM     53  C   UNL A   1      46.783  30.620  27.517  1.00  0.00     0.029 A 
ATOM     54  N   UNL A   1      44.728  30.175  28.245  1.00  0.00    -0.354 N 
ATOM     55  N   UNL A   1      42.166  30.828  29.520  1.00  0.00    -0.248 NA
ATOM     56  C   UNL A   1      40.831  32.291  30.760  1.00  0.00     0.031 C 
ATOM     57  C   UNL A   1      46.271  31.770  28.123  1.00  0.00     0.029 A 
ATOM     58  C   UNL A   1      44.991  31.493  28.576  1.00  0.00     0.049 A 
ATOM     59  H   UNL A   1      43.890  29.699  28.444  1.00  0.00     0.167 HD
ATOM     60  C   UNL A   1      42.841  32.030  29.685  1.00  0.00     0.074 A 
ATOM     61  C   UNL A   1      41.961  32.907  30.431  1.00  0.00     0.031 C 
ATOM     62  C   UNL A   1      44.087  32.365  29.277  1.00  0.00     0.034 A 
BRANCH  49  63
ATOM     63  C   UNL A   1      47.161  27.868  26.405  1.00  0.00     0.023 A 
ATOM     64  C   UNL A   1      48.177  27.240  27.151  1.00  0.00     0.012 A 
ATOM     65  C   UNL A   1      47.295  27.988  25.008  1.00  0.00     0.148 A 
ATOM     66  C   UNL A   1      49.313  26.739  26.518  1.00  0.00     0.002 A 
ATOM     67  C   UNL A   1      48.418  27.462  24.380  1.00  0.00     0.091 A 
ATOM     68  F   UNL A   1      46.317  28.598  24.324  1.00  0.00    -0.205 F 
ATOM     69  C   UNL A   1      49.428  26.840  25.134  1.00  0.00     0.022 A 
BRANCH  67  70
ATOM     70  S   UNL A   1      48.643  27.489  22.598  1.00  0.00     0.127 S 
ATOM     71  O   UNL A   1      49.935  28.162  22.475  1.00  0.00    -0.237 OA
ATOM     72  O   UNL A   1      48.665  26.063  22.270  1.00  0.00    -0.237 OA
ATOM     73  O   UNL A   1      47.509  28.227  22.059  1.00  0.00    -0.744 OA
ENDBRANCH  67  70
ENDBRANCH  49  63
BRANCH  50  74
ATOM     74  C   UNL A   1      38.600  30.372  30.897  1.00  0.00     0.023 A 
ATOM     75  C   UNL A   1      38.414  30.124  32.270  1.00  0.00     0.012 A 
ATOM     76  C   UNL A   1      37.598  31.047  30.175  1.00  0.00     0.148 A 
ATOM     77  C   UNL A   1      37.249  30.540  32.913  1.00  0.00     0.002 A 
ATOM     78  C   UNL A   1      36.461  31.501  30.832  1.00  0.00     0.091 A 
ATOM     79  F   UNL A   1      37.793  31.258  28.866  1.00  0.00    -0.205 F 
ATOM     80  C   UNL A   1      36.280  31.241  32.198  1.00  0.00     0.022 A 
BRANCH  78  81
ATOM     81  S   UNL A   1      35.224  32.520  30.021  1.00  0.00     0.127 S 
ATOM     82  O   UNL A   1      34.732  31.621  28.981  1.00  0.00    -0.237 OA
ATOM     83  O   UNL A   1      34.282  32.776  31.112  1.00  0.00    -0.237 OA
ATOM     84  O   UNL A   1      35.934  33.702  29.550  1.00  0.00    -0.744 OA
ENDBRANCH  78  81
ENDBRANCH  50  74
BRANCH  62  85
ATOM     85  C   UNL A   1      44.593  33.737  29.620  1.00  0.00     0.023 A 
ATOM     86  C   UNL A   1      45.323  33.916  30.810  1.00  0.00     0.012 A 
ATOM     87  C   UNL A   1      44.459  34.803  28.712  1.00  0.00     0.148 A 
ATOM     88  C   UNL A   1      45.911  35.148  31.096  1.00  0.00     0.002 A 
ATOM     89  C   UNL A   1      45.074  36.017  28.988  1.00  0.00     0.091 A 
ATOM     90  F   UNL A   1      43.751  34.602  27.592  1.00  0.00    -0.205 F 
ATOM     91  C   UNL A   1      45.797  36.193  30.181  1.00  0.00     0.022 A 
BRANCH  89  92
ATOM     92  S   UNL A   1      45.048  37.399  27.841  1.00  0.00     0.127 S 
ATOM     93  O   UNL A   1      43.613  37.632  27.688  1.00  0.00    -0.237 OA
ATOM     94  O   UNL A   1      45.759  38.436  28.591  1.00  0.00    -0.237 OA
ATOM     95  O   UNL A   1      45.733  36.940  26.640  1.00  0.00    -0.744 OA
ENDBRANCH  89  92
ENDBRANCH  62  85
ENDBRANCH  36  37
ENDBRANCH  28  31
ENDBRANCH  26  27
ENDBRANCH   1  26
TORSDOF 16
ENDMDL
MODEL 3
REMARK VINA RESULT:     -12.8      2.645      8.142
REMARK SMILES CC(C)Cc1cc2c(cc1Cl)C=C(C(=O)NCCCNC(=O)c1ccc(-c3c4nc(c(-c5cccc(S(=O)(=O)[O-])c5F)c5ccc([nH]5)c(-c5cccc(S(=O)(=O)[O-])c5F)c5nc(c(-c6cccc(S(=O)(=O)[O-])c6F)c6ccc3[nH]6)C=C5)C=C4)cc1)[C@@H](C(F)(F)F)O2
REMARK SMILES IDX 18 1 17 2 16 3 14 4 15 5 13 7 5 8 6 9 10 10 7 11 9 12 11 13
REMARK SMILES IDX 8 14 91 15 12 16 86 17 4 18 2 19 1 20 3 21 87 22 88 23 89 24
REMARK SMILES IDX 90 25 19 26 20 27 21 28 22 30 23 31 24 32 85 33 25 34 84 35
REMARK SMILES IDX 26 36 27 37 28 38 78 39 29 40 83 41 77 42 79 43 30 44 82 45
REMARK SMILES IDX 76 46 75 47 31 49 63 50 43 51 62 52 44 53 47 54 61 55 80 56
REMARK SMILES IDX 45 57 46 58 60 60 81 61 48 62 32 63 33 64 41 65 34 66 36 67
REMARK SMILES IDX 42 68 35 69 37 70 38 71 39 72 40 73 64 74 65 75 73 76 66 77
REMARK SMILES IDX 68 78 74 79 67 80 69 81 70 82 71 83 72 84 49 85 50 86 58 87
REMARK SMILES IDX 51 88 53 89 59 90 52 91 54 92 55 93 56 94 57 95
REMARK H PARENT 16 6 20 29 79 48 47 59
REMARK Flexibility Score: inf
ROOT
ATOM      1  C   UNL A   1      31.723  31.828  26.878  1.00  0.00     0.042 C 
ENDROOT
BRANCH   1   2
ATOM      2  C   UNL A   1      31.949  30.347  26.624  1.00  0.00     0.118 C 
BRANCH   2   3
ATOM      3  N   UNL A   1      32.439  30.092  25.278  1.00  0.00    -0.352 N 
ATOM      4  C   UNL A   1      32.776  29.018  24.529  1.00  0.00     0.251 C 
ATOM      5  O   UNL A   1      33.168  29.277  23.386  1.00  0.00    -0.270 OA
ATOM      6  H   UNL A   1      32.557  30.930  24.774  1.00  0.00     0.163 HD
BRANCH   4   7
ATOM      7  C   UNL A   1      32.697  27.597  24.976  1.00  0.00     0.067 C 
ATOM      8  C   UNL A   1      33.740  22.743  25.906  1.00  0.00    -0.025 A 
ATOM      9  C   UNL A   1      32.685  23.608  26.240  1.00  0.00     0.052 A 
ATOM     10  C   UNL A   1      34.852  23.279  25.235  1.00  0.00     0.045 A 
ATOM     11  C   UNL A   1      32.725  24.953  25.882  1.00  0.00     0.128 A 
ATOM     12  C   UNL A   1      34.893  24.635  24.888  1.00  0.00     0.032 A 
ATOM     13  Cl  UNL A   1      36.215  22.312  24.794  1.00  0.00    -0.084 Cl
ATOM     14  C   UNL A   1      33.821  25.474  25.201  1.00  0.00     0.019 A 
ATOM     15  O   UNL A   1      31.662  25.719  26.259  1.00  0.00    -0.475 OA
ATOM     16  C   UNL A   1      33.833  26.886  24.846  1.00  0.00     0.025 C 
ATOM     17  C   UNL A   1      31.447  26.939  25.492  1.00  0.00     0.314 C 
BRANCH   8  18
ATOM     18  C   UNL A   1      33.596  21.278  26.254  1.00  0.00     0.040 C 
BRANCH  18  19
ATOM     19  C   UNL A   1      32.607  20.526  25.339  1.00  0.00    -0.013 C 
ATOM     20  C   UNL A   1      32.745  20.929  23.869  1.00  0.00     0.008 C 
ATOM     21  C   UNL A   1      32.817  19.017  25.480  1.00  0.00     0.008 C 
ENDBRANCH  18  19
ENDBRANCH   8  18
BRANCH  17  22
ATOM     22  C   UNL A   1      30.421  26.649  24.379  1.00  0.00     0.429 C 
ATOM     23  F   UNL A   1      29.787  27.789  24.009  1.00  0.00    -0.167 F 
ATOM     24  F   UNL A   1      30.990  26.145  23.259  1.00  0.00    -0.167 F 
ATOM     25  F   UNL A   1      29.472  25.765  24.764  1.00  0.00    -0.167 F 
ENDBRANCH  17  22
ENDBRANCH   4   7
ENDBRANCH   2   3
ENDBRANCH   1   2
BRANCH   1  26
ATOM     26  C   UNL A   1      32.996  32.546  27.311  1.00  0.00     0.118 C 
BRANCH  26  27
ATOM     27  N   UNL A   1      32.752  33.947  27.650  1.00  0.00    -0.352 N 
ATOM     28  C   UNL A   1      33.214  34.704  28.701  1.00  0.00     0.251 C 
ATOM     29  H   UNL A   1      32.160  34.426  27.024  1.00  0.00     0.163 HD
ATOM     30  O   UNL A   1      32.701  35.794  28.934  1.00  0.00    -0.269 OA
BRANCH  28  31
ATOM     31  C   UNL A   1      34.305  34.191  29.555  1.00  0.00     0.039 A 
ATOM     32  C   UNL A   1      35.633  34.470  29.235  1.00  0.00     0.014 A 
ATOM     33  C   UNL A   1      34.003  33.419  30.680  1.00  0.00     0.014 A 
ATOM     34  C   UNL A   1      36.653  33.809  29.905  1.00  0.00     0.010 A 
ATOM     35  C   UNL A   1      35.039  32.844  31.424  1.00  0.00     0.010 A 
ATOM     36  C   UNL A   1      36.371  32.986  31.007  1.00  0.00    -0.014 A 
BRANCH  36  37
ATOM     37  C   UNL A   1      37.493  32.293  31.694  1.00  0.00     0.031 A 
ATOM     38  C   UNL A   1      38.265  31.198  31.008  1.00  0.00     0.074 A 
ATOM     39  C   UNL A   1      37.857  32.706  32.926  1.00  0.00     0.049 A 
ATOM     40  N   UNL A   1      39.292  30.520  31.452  1.00  0.00    -0.248 NA
ATOM     41  C   UNL A   1      37.835  30.805  29.655  1.00  0.00     0.031 C 
ATOM     42  C   UNL A   1      37.174  33.745  33.700  1.00  0.00     0.029 A 
ATOM     43  N   UNL A   1      38.901  32.327  33.729  1.00  0.00    -0.354 N 
ATOM     44  C   UNL A   1      39.598  29.593  30.463  1.00  0.00     0.074 A 
ATOM     45  C   UNL A   1      38.652  29.793  29.388  1.00  0.00     0.031 C 
ATOM     46  C   UNL A   1      37.850  33.963  34.837  1.00  0.00     0.029 A 
ATOM     47  C   UNL A   1      38.975  33.037  34.905  1.00  0.00     0.049 A 
ATOM     48  H   UNL A   1      39.536  31.614  33.489  1.00  0.00     0.167 HD
ATOM     49  C   UNL A   1      40.589  28.673  30.444  1.00  0.00     0.034 A 
ATOM     50  C   UNL A   1      39.845  32.954  35.930  1.00  0.00     0.034 A 
ATOM     51  C   UNL A   1      41.575  28.525  31.479  1.00  0.00     0.049 A 
ATOM     52  C   UNL A   1      40.953  31.947  35.866  1.00  0.00     0.074 A 
ATOM     53  C   UNL A   1      42.649  27.651  31.519  1.00  0.00     0.029 A 
ATOM     54  N   UNL A   1      41.618  29.270  32.645  1.00  0.00    -0.354 N 
ATOM     55  N   UNL A   1      41.260  31.127  34.891  1.00  0.00    -0.248 NA
ATOM     56  C   UNL A   1      41.837  31.853  37.035  1.00  0.00     0.031 C 
ATOM     57  C   UNL A   1      43.342  27.870  32.712  1.00  0.00     0.029 A 
ATOM     58  C   UNL A   1      42.701  28.879  33.413  1.00  0.00     0.049 A 
ATOM     59  H   UNL A   1      40.975  29.973  32.892  1.00  0.00     0.167 HD
ATOM     60  C   UNL A   1      42.373  30.422  35.324  1.00  0.00     0.074 A 
ATOM     61  C   UNL A   1      42.706  30.929  36.641  1.00  0.00     0.031 C 
ATOM     62  C   UNL A   1      43.043  29.426  34.698  1.00  0.00     0.034 A 
BRANCH  49  63
ATOM     63  C   UNL A   1      40.711  27.778  29.242  1.00  0.00     0.023 A 
ATOM     64  C   UNL A   1      39.856  26.666  29.125  1.00  0.00     0.012 A 
ATOM     65  C   UNL A   1      41.578  28.106  28.182  1.00  0.00     0.148 A 
ATOM     66  C   UNL A   1      39.863  25.887  27.968  1.00  0.00     0.002 A 
ATOM     67  C   UNL A   1      41.561  27.341  27.021  1.00  0.00     0.091 A 
ATOM     68  F   UNL A   1      42.388  29.164  28.325  1.00  0.00    -0.205 F 
ATOM     69  C   UNL A   1      40.706  26.231  26.915  1.00  0.00     0.022 A 
BRANCH  67  70
ATOM     70  S   UNL A   1      42.565  27.726  25.583  1.00  0.00     0.127 S 
ATOM     71  O   UNL A   1      42.306  26.570  24.725  1.00  0.00    -0.237 OA
ATOM     72  O   UNL A   1      41.966  28.976  25.117  1.00  0.00    -0.237 OA
ATOM     73  O   UNL A   1      43.935  27.842  26.065  1.00  0.00    -0.744 OA
ENDBRANCH  67  70
ENDBRANCH  49  63
BRANCH  50  74
ATOM     74  C   UNL A   1      39.706  33.887  37.079  1.00  0.00     0.023 A 
ATOM     75  C   UNL A   1      40.103  35.229  36.930  1.00  0.00     0.012 A 
ATOM     76  C   UNL A   1      39.107  33.472  38.284  1.00  0.00     0.148 A 
ATOM     77  C   UNL A   1      39.907  36.144  37.965  1.00  0.00     0.002 A 
ATOM     78  C   UNL A   1      38.871  34.399  39.292  1.00  0.00     0.091 A 
ATOM     79  F   UNL A   1      38.751  32.186  38.404  1.00  0.00    -0.205 F 
ATOM     80  C   UNL A   1      39.278  35.732  39.139  1.00  0.00     0.022 A 
BRANCH  78  81
ATOM     81  S   UNL A   1      37.955  33.988  40.781  1.00  0.00     0.127 S 
ATOM     82  O   UNL A   1      38.947  33.234  41.542  1.00  0.00    -0.237 OA
ATOM     83  O   UNL A   1      37.642  35.313  41.318  1.00  0.00    -0.237 OA
ATOM     84  O   UNL A   1      36.793  33.231  40.334  1.00  0.00    -0.744 OA
ENDBRANCH  78  81
ENDBRANCH  50  74
BRANCH  62  85
ATOM     85  C   UNL A   1      44.208  28.805  35.414  1.00  0.00     0.023 A 
ATOM     86  C   UNL A   1      45.492  29.356  35.234  1.00  0.00     0.012 A 
ATOM     87  C   UNL A   1      44.014  27.773  36.350  1.00  0.00     0.148 A 
ATOM     88  C   UNL A   1      46.571  28.881  35.978  1.00  0.00     0.002 A 
ATOM     89  C   UNL A   1      45.087  27.327  37.109  1.00  0.00     0.091 A 
ATOM     90  F   UNL A   1      42.781  27.264  36.491  1.00  0.00    -0.205 F 
ATOM     91  C   UNL A   1      46.367  27.877  36.922  1.00  0.00     0.022 A 
BRANCH  89  92
ATOM     92  S   UNL A   1      44.913  26.092  38.401  1.00  0.00     0.127 S 
ATOM     93  O   UNL A   1      46.287  25.970  38.884  1.00  0.00    -0.237 OA
ATOM     94  O   UNL A   1      43.993  26.748  39.333  1.00  0.00    -0.237 OA
ATOM     95  O   UNL A   1      44.375  24.903  37.754  1.00  0.00    -0.744 OA
ENDBRANCH  89  92
ENDBRANCH  62  85
ENDBRANCH  36  37
ENDBRANCH  28  31
ENDBRANCH  26  27
ENDBRANCH   1  26
TORSDOF 16
ENDMDL
