MODEL 1
REMARK VINA RESULT:     -12.5      0.000      0.000
REMARK SMILES C[C@@H](O)[C@@H](NC(=O)Nc1ccc(F)cc1F)C(=O)NCCCNC(=O)c1ccc(-c2c3nc(c(-c4cccc(S(=O)(=O)[O-])c4F)c4ccc([nH]4)c(-c4cccc(S(=O)(=O)[O-])c4F)c4nc(c(-c5cccc(S(=O)(=O)[O-])c5F)c5ccc2[nH]5)C=C4)C=C3)cc1
REMARK SMILES IDX 21 1 20 2 19 3 17 4 18 5 4 7 2 8 1 9 3 10 5 12 6 13 7 15
REMARK SMILES IDX 8 16 9 18 10 19 15 20 11 21 14 22 16 23 12 24 13 25 22 26
REMARK SMILES IDX 23 27 24 28 25 30 26 31 27 32 88 33 28 34 87 35 29 36 30 37
REMARK SMILES IDX 31 38 81 39 32 40 86 41 80 42 82 43 33 44 85 45 79 46 78 47
REMARK SMILES IDX 34 49 66 50 46 51 65 52 47 53 50 54 64 55 83 56 48 57 49 58
REMARK SMILES IDX 63 60 84 61 51 62 35 63 36 64 44 65 37 66 39 67 45 68 38 69
REMARK SMILES IDX 40 70 41 71 42 72 43 73 67 74 68 75 76 76 69 77 71 78 77 79
REMARK SMILES IDX 70 80 72 81 73 82 74 83 75 84 52 85 53 86 61 87 54 88 56 89
REMARK SMILES IDX 62 90 55 91 57 92 58 93 59 94 60 95
REMARK H PARENT 19 6 3 11 5 14 8 17 23 29 82 48 50 59
REMARK Flexibility Score: inf
ROOT
ATOM      1  C   UNL A   1      35.873  21.903  24.643  1.00  0.00     0.042 C 
ENDROOT
BRANCH   1   2
ATOM      2  C   UNL A   1      35.247  21.225  25.856  1.00  0.00     0.117 C 
BRANCH   2   3
ATOM      3  N   UNL A   1      34.258  20.260  25.422  1.00  0.00    -0.354 N 
ATOM      4  C   UNL A   1      32.910  20.382  25.342  1.00  0.00     0.245 C 
ATOM      5  O   UNL A   1      32.243  19.350  25.470  1.00  0.00    -0.273 OA
ATOM      6  H   UNL A   1      34.617  19.387  25.144  1.00  0.00     0.163 HD
BRANCH   4   7
ATOM      7  C   UNL A   1      32.217  21.749  25.242  1.00  0.00     0.201 C 
BRANCH   7   8
ATOM      8  C   UNL A   1      31.894  21.920  23.728  1.00  0.00     0.143 C 
ATOM      9  C   UNL A   1      32.758  22.950  23.012  1.00  0.00     0.041 C 
BRANCH   8  10
ATOM     10  O   UNL A   1      32.125  20.680  23.041  1.00  0.00    -0.391 OA
ATOM     11  H   UNL A   1      32.317  19.983  23.687  1.00  0.00     0.211 HD
ENDBRANCH   8  10
ENDBRANCH   7   8
BRANCH   7  12
ATOM     12  N   UNL A   1      31.069  21.929  26.147  1.00  0.00    -0.323 N 
ATOM     13  C   UNL A   1      30.511  22.987  26.769  1.00  0.00     0.320 C 
ATOM     14  H   UNL A   1      30.602  21.085  26.341  1.00  0.00     0.166 HD
ATOM     15  O   UNL A   1      29.509  22.762  27.453  1.00  0.00    -0.248 OA
ATOM     16  N   UNL A   1      31.093  24.198  26.854  1.00  0.00    -0.305 N 
ATOM     17  H   UNL A   1      30.862  24.685  27.678  1.00  0.00     0.171 HD
BRANCH  16  18
ATOM     18  C   UNL A   1      31.958  24.907  26.014  1.00  0.00     0.079 A 
ATOM     19  C   UNL A   1      33.345  24.876  26.160  1.00  0.00     0.032 A 
ATOM     20  C   UNL A   1      31.391  25.681  24.990  1.00  0.00     0.149 A 
ATOM     21  C   UNL A   1      34.138  25.701  25.356  1.00  0.00     0.041 A 
ATOM     22  C   UNL A   1      32.170  26.516  24.202  1.00  0.00     0.080 A 
ATOM     23  F   UNL A   1      30.058  25.694  24.830  1.00  0.00    -0.205 F 
ATOM     24  C   UNL A   1      33.543  26.528  24.406  1.00  0.00     0.126 A 
ATOM     25  F   UNL A   1      34.310  27.345  23.672  1.00  0.00    -0.207 F 
ENDBRANCH  16  18
ENDBRANCH   7  12
ENDBRANCH   4   7
ENDBRANCH   2   3
ENDBRANCH   1   2
BRANCH   1  26
ATOM     26  C   UNL A   1      37.366  22.174  24.789  1.00  0.00     0.118 C 
BRANCH  26  27
ATOM     27  N   UNL A   1      38.111  21.022  25.275  1.00  0.00    -0.352 N 
ATOM     28  C   UNL A   1      39.227  21.039  26.082  1.00  0.00     0.251 C 
ATOM     29  H   UNL A   1      37.783  20.136  24.996  1.00  0.00     0.163 HD
ATOM     30  O   UNL A   1      39.849  20.020  26.330  1.00  0.00    -0.269 OA
BRANCH  28  31
ATOM     31  C   UNL A   1      39.654  22.346  26.616  1.00  0.00     0.039 A 
ATOM     32  C   UNL A   1      40.711  22.395  27.525  1.00  0.00     0.014 A 
ATOM     33  C   UNL A   1      39.080  23.514  26.107  1.00  0.00     0.014 A 
ATOM     34  C   UNL A   1      41.234  23.635  27.890  1.00  0.00     0.010 A 
ATOM     35  C   UNL A   1      39.646  24.742  26.423  1.00  0.00     0.010 A 
ATOM     36  C   UNL A   1      40.723  24.814  27.320  1.00  0.00    -0.014 A 
BRANCH  36  37
ATOM     37  C   UNL A   1      41.302  26.140  27.647  1.00  0.00     0.031 A 
ATOM     38  C   UNL A   1      42.710  26.461  27.231  1.00  0.00     0.074 A 
ATOM     39  C   UNL A   1      40.597  27.011  28.396  1.00  0.00     0.049 A 
ATOM     40  N   UNL A   1      43.413  27.536  27.469  1.00  0.00    -0.248 NA
ATOM     41  C   UNL A   1      43.434  25.424  26.476  1.00  0.00     0.031 C 
ATOM     42  C   UNL A   1      39.256  26.773  28.937  1.00  0.00     0.029 A 
ATOM     43  N   UNL A   1      40.923  28.261  28.857  1.00  0.00    -0.354 N 
ATOM     44  C   UNL A   1      44.669  27.292  26.929  1.00  0.00     0.074 A 
ATOM     45  C   UNL A   1      44.646  25.953  26.385  1.00  0.00     0.031 C 
ATOM     46  C   UNL A   1      38.874  27.844  29.651  1.00  0.00     0.029 A 
ATOM     47  C   UNL A   1      39.945  28.834  29.636  1.00  0.00     0.049 A 
ATOM     48  H   UNL A   1      41.776  28.706  28.649  1.00  0.00     0.167 HD
ATOM     49  C   UNL A   1      45.738  28.121  26.859  1.00  0.00     0.034 A 
ATOM     50  C   UNL A   1      39.917  30.027  30.263  1.00  0.00     0.034 A 
ATOM     51  C   UNL A   1      45.735  29.471  27.347  1.00  0.00     0.049 A 
ATOM     52  C   UNL A   1      41.091  30.957  30.110  1.00  0.00     0.074 A 
ATOM     53  C   UNL A   1      46.728  30.428  27.237  1.00  0.00     0.029 A 
ATOM     54  N   UNL A   1      44.686  30.059  28.036  1.00  0.00    -0.354 N 
ATOM     55  N   UNL A   1      42.206  30.775  29.446  1.00  0.00    -0.248 NA
ATOM     56  C   UNL A   1      40.988  32.273  30.758  1.00  0.00     0.031 C 
ATOM     57  C   UNL A   1      46.281  31.594  27.868  1.00  0.00     0.029 A 
ATOM     58  C   UNL A   1      45.006  31.366  28.360  1.00  0.00     0.049 A 
ATOM     59  H   UNL A   1      43.838  29.613  28.261  1.00  0.00     0.167 HD
ATOM     60  C   UNL A   1      42.921  31.961  29.565  1.00  0.00     0.074 A 
ATOM     61  C   UNL A   1      42.102  32.864  30.348  1.00  0.00     0.031 C 
ATOM     62  C   UNL A   1      44.151  32.269  29.086  1.00  0.00     0.034 A 
BRANCH  49  63
ATOM     63  C   UNL A   1      46.971  27.608  26.165  1.00  0.00     0.023 A 
ATOM     64  C   UNL A   1      47.879  26.802  26.880  1.00  0.00     0.012 A 
ATOM     65  C   UNL A   1      47.211  27.883  24.805  1.00  0.00     0.148 A 
ATOM     66  C   UNL A   1      49.026  26.303  26.264  1.00  0.00     0.002 A 
ATOM     67  C   UNL A   1      48.336  27.347  24.186  1.00  0.00     0.091 A 
ATOM     68  F   UNL A   1      46.351  28.672  24.148  1.00  0.00    -0.205 F 
ATOM     69  C   UNL A   1      49.249  26.568  24.916  1.00  0.00     0.022 A 
BRANCH  67  70
ATOM     70  S   UNL A   1      48.672  27.568  22.435  1.00  0.00     0.127 S 
ATOM     71  O   UNL A   1      48.821  26.184  21.987  1.00  0.00    -0.237 OA
ATOM     72  O   UNL A   1      47.454  28.231  21.967  1.00  0.00    -0.237 OA
ATOM     73  O   UNL A   1      49.875  28.386  22.360  1.00  0.00    -0.744 OA
ENDBRANCH  67  70
ENDBRANCH  49  63
BRANCH  50  74
ATOM     74  C   UNL A   1      38.699  30.447  31.013  1.00  0.00     0.023 A 
ATOM     75  C   UNL A   1      38.600  30.147  32.385  1.00  0.00     0.012 A 
ATOM     76  C   UNL A   1      37.660  31.165  30.391  1.00  0.00     0.148 A 
ATOM     77  C   UNL A   1      37.476  30.528  33.120  1.00  0.00     0.002 A 
ATOM     78  C   UNL A   1      36.566  31.588  31.140  1.00  0.00     0.091 A 
ATOM     79  F   UNL A   1      37.763  31.429  29.081  1.00  0.00    -0.205 F 
ATOM     80  C   UNL A   1      36.464  31.256  32.500  1.00  0.00     0.022 A 
BRANCH  78  81
ATOM     81  S   UNL A   1      35.285  32.643  30.453  1.00  0.00     0.127 S 
ATOM     82  O   UNL A   1      34.444  32.894  31.620  1.00  0.00    -0.237 OA
ATOM     83  O   UNL A   1      36.056  33.797  29.987  1.00  0.00    -0.237 OA
ATOM     84  O   UNL A   1      34.674  31.864  29.382  1.00  0.00    -0.744 OA
ENDBRANCH  78  81
ENDBRANCH  50  74
BRANCH  62  85
ATOM     85  C   UNL A   1      44.683  33.649  29.365  1.00  0.00     0.023 A 
ATOM     86  C   UNL A   1      45.393  33.894  30.556  1.00  0.00     0.012 A 
ATOM     87  C   UNL A   1      44.556  34.678  28.409  1.00  0.00     0.148 A 
ATOM     88  C   UNL A   1      45.946  35.149  30.806  1.00  0.00     0.002 A 
ATOM     89  C   UNL A   1      45.148  35.912  28.645  1.00  0.00     0.091 A 
ATOM     90  F   UNL A   1      43.858  34.429  27.291  1.00  0.00    -0.205 F 
ATOM     91  C   UNL A   1      45.836  36.152  29.845  1.00  0.00     0.022 A 
BRANCH  89  92
ATOM     92  S   UNL A   1      45.136  37.228  27.422  1.00  0.00     0.127 S 
ATOM     93  O   UNL A   1      45.750  38.329  28.162  1.00  0.00    -0.237 OA
ATOM     94  O   UNL A   1      45.967  36.672  26.353  1.00  0.00    -0.237 OA
ATOM     95  O   UNL A   1      43.738  37.418  27.057  1.00  0.00    -0.744 OA
ENDBRANCH  89  92
ENDBRANCH  62  85
ENDBRANCH  36  37
ENDBRANCH  28  31
ENDBRANCH  26  27
ENDBRANCH   1  26
TORSDOF 17
ENDMDL
MODEL 2
REMARK VINA RESULT:     -12.4      5.318      9.855
REMARK SMILES C[C@@H](O)[C@@H](NC(=O)Nc1ccc(F)cc1F)C(=O)NCCCNC(=O)c1ccc(-c2c3nc(c(-c4cccc(S(=O)(=O)[O-])c4F)c4ccc([nH]4)c(-c4cccc(S(=O)(=O)[O-])c4F)c4nc(c(-c5cccc(S(=O)(=O)[O-])c5F)c5ccc2[nH]5)C=C4)C=C3)cc1
REMARK SMILES IDX 21 1 20 2 19 3 17 4 18 5 4 7 2 8 1 9 3 10 5 12 6 13 7 15
REMARK SMILES IDX 8 16 9 18 10 19 15 20 11 21 14 22 16 23 12 24 13 25 22 26
REMARK SMILES IDX 23 27 24 28 25 30 26 31 27 32 88 33 28 34 87 35 29 36 30 37
REMARK SMILES IDX 31 38 81 39 32 40 86 41 80 42 82 43 33 44 85 45 79 46 78 47
REMARK SMILES IDX 34 49 66 50 46 51 65 52 47 53 50 54 64 55 83 56 48 57 49 58
REMARK SMILES IDX 63 60 84 61 51 62 35 63 36 64 44 65 37 66 39 67 45 68 38 69
REMARK SMILES IDX 40 70 41 71 42 72 43 73 67 74 68 75 76 76 69 77 71 78 77 79
REMARK SMILES IDX 70 80 72 81 73 82 74 83 75 84 52 85 53 86 61 87 54 88 56 89
REMARK SMILES IDX 62 90 55 91 57 92 58 93 59 94 60 95
REMARK H PARENT 19 6 3 11 5 14 8 17 23 29 82 48 50 59
REMARK Flexibility Score: inf
ROOT
ATOM      1  C   UNL A   1      32.161  28.246  27.116  1.00  0.00     0.042 C 
ENDROOT
BRANCH   1   2
ATOM      2  C   UNL A   1      31.767  27.797  25.713  1.00  0.00     0.117 C 
BRANCH   2   3
ATOM      3  N   UNL A   1      32.574  28.492  24.732  1.00  0.00    -0.354 N 
ATOM      4  C   UNL A   1      32.716  28.252  23.405  1.00  0.00     0.245 C 
ATOM      5  O   UNL A   1      33.791  28.575  22.888  1.00  0.00    -0.273 OA
ATOM      6  H   UNL A   1      33.097  29.250  25.080  1.00  0.00     0.163 HD
BRANCH   4   7
ATOM      7  C   UNL A   1      31.661  27.486  22.594  1.00  0.00     0.201 C 
BRANCH   7   8
ATOM      8  C   UNL A   1      30.513  28.512  22.367  1.00  0.00     0.143 C 
ATOM      9  C   UNL A   1      29.224  28.192  23.114  1.00  0.00     0.041 C 
BRANCH   8  10
ATOM     10  O   UNL A   1      30.919  29.806  22.841  1.00  0.00    -0.391 OA
ATOM     11  H   UNL A   1      31.885  29.833  22.920  1.00  0.00     0.211 HD
ENDBRANCH   8  10
ENDBRANCH   7   8
BRANCH   7  12
ATOM     12  N   UNL A   1      32.169  26.840  21.372  1.00  0.00    -0.323 N 
ATOM     13  C   UNL A   1      32.679  25.626  21.085  1.00  0.00     0.320 C 
ATOM     14  H   UNL A   1      32.125  27.429  20.585  1.00  0.00     0.166 HD
ATOM     15  O   UNL A   1      32.986  25.418  19.908  1.00  0.00    -0.248 OA
ATOM     16  N   UNL A   1      33.057  24.733  22.019  1.00  0.00    -0.305 N 
ATOM     17  H   UNL A   1      33.808  24.163  21.733  1.00  0.00     0.171 HD
BRANCH  16  18
ATOM     18  C   UNL A   1      32.605  24.448  23.312  1.00  0.00     0.079 A 
ATOM     19  C   UNL A   1      31.329  23.951  23.574  1.00  0.00     0.032 A 
ATOM     20  C   UNL A   1      33.486  24.682  24.380  1.00  0.00     0.149 A 
ATOM     21  C   UNL A   1      30.910  23.799  24.899  1.00  0.00     0.041 A 
ATOM     22  C   UNL A   1      33.070  24.551  25.698  1.00  0.00     0.080 A 
ATOM     23  F   UNL A   1      34.724  25.136  24.132  1.00  0.00    -0.205 F 
ATOM     24  C   UNL A   1      31.773  24.123  25.944  1.00  0.00     0.126 A 
ATOM     25  F   UNL A   1      31.344  24.014  27.209  1.00  0.00    -0.207 F 
ENDBRANCH  16  18
ENDBRANCH   7  12
ENDBRANCH   4   7
ENDBRANCH   2   3
ENDBRANCH   1   2
BRANCH   1  26
ATOM     26  C   UNL A   1      33.560  28.846  27.202  1.00  0.00     0.118 C 
BRANCH  26  27
ATOM     27  N   UNL A   1      33.554  30.267  27.516  1.00  0.00    -0.352 N 
ATOM     28  C   UNL A   1      34.543  30.976  28.160  1.00  0.00     0.251 C 
ATOM     29  H   UNL A   1      32.757  30.776  27.238  1.00  0.00     0.163 HD
ATOM     30  O   UNL A   1      34.384  32.141  28.483  1.00  0.00    -0.269 OA
BRANCH  28  31
ATOM     31  C   UNL A   1      35.796  30.262  28.465  1.00  0.00     0.039 A 
ATOM     32  C   UNL A   1      36.861  30.346  27.568  1.00  0.00     0.014 A 
ATOM     33  C   UNL A   1      35.937  29.623  29.700  1.00  0.00     0.014 A 
ATOM     34  C   UNL A   1      38.102  29.826  27.937  1.00  0.00     0.010 A 
ATOM     35  C   UNL A   1      37.188  29.165  30.089  1.00  0.00     0.010 A 
ATOM     36  C   UNL A   1      38.279  29.258  29.211  1.00  0.00    -0.014 A 
BRANCH  36  37
ATOM     37  C   UNL A   1      39.603  28.752  29.649  1.00  0.00     0.031 A 
ATOM     38  C   UNL A   1      40.349  29.466  30.741  1.00  0.00     0.074 A 
ATOM     39  C   UNL A   1      40.170  27.714  29.002  1.00  0.00     0.049 A 
ATOM     40  N   UNL A   1      41.537  29.217  31.225  1.00  0.00    -0.248 NA
ATOM     41  C   UNL A   1      39.687  30.634  31.345  1.00  0.00     0.031 C 
ATOM     42  C   UNL A   1      39.582  27.000  27.866  1.00  0.00     0.029 A 
ATOM     43  N   UNL A   1      41.381  27.099  29.189  1.00  0.00    -0.354 N 
ATOM     44  C   UNL A   1      41.780  30.215  32.160  1.00  0.00     0.074 A 
ATOM     45  C   UNL A   1      40.634  31.096  32.149  1.00  0.00     0.031 C 
ATOM     46  C   UNL A   1      40.431  26.041  27.462  1.00  0.00     0.029 A 
ATOM     47  C   UNL A   1      41.629  26.084  28.294  1.00  0.00     0.049 A 
ATOM     48  H   UNL A   1      42.013  27.358  29.898  1.00  0.00     0.167 HD
ATOM     49  C   UNL A   1      42.845  30.365  32.982  1.00  0.00     0.034 A 
ATOM     50  C   UNL A   1      42.702  25.278  28.163  1.00  0.00     0.034 A 
ATOM     51  C   UNL A   1      43.952  29.451  33.031  1.00  0.00     0.049 A 
ATOM     52  C   UNL A   1      43.842  25.423  29.136  1.00  0.00     0.074 A 
ATOM     53  C   UNL A   1      45.032  29.454  33.894  1.00  0.00     0.029 A 
ATOM     54  N   UNL A   1      44.120  28.368  32.182  1.00  0.00    -0.354 N 
ATOM     55  N   UNL A   1      43.976  26.266  30.130  1.00  0.00    -0.248 NA
ATOM     56  C   UNL A   1      44.961  24.479  28.996  1.00  0.00     0.031 C 
ATOM     57  C   UNL A   1      45.859  28.375  33.561  1.00  0.00     0.029 A 
ATOM     58  C   UNL A   1      45.286  27.695  32.499  1.00  0.00     0.049 A 
ATOM     59  H   UNL A   1      43.500  28.116  31.461  1.00  0.00     0.167 HD
ATOM     60  C   UNL A   1      45.173  25.934  30.755  1.00  0.00     0.074 A 
ATOM     61  C   UNL A   1      45.715  24.798  30.039  1.00  0.00     0.031 C 
ATOM     62  C   UNL A   1      45.778  26.527  31.813  1.00  0.00     0.034 A 
BRANCH  49  63
ATOM     63  C   UNL A   1      42.823  31.522  33.944  1.00  0.00     0.023 A 
ATOM     64  C   UNL A   1      43.404  32.748  33.560  1.00  0.00     0.012 A 
ATOM     65  C   UNL A   1      42.196  31.416  35.200  1.00  0.00     0.148 A 
ATOM     66  C   UNL A   1      43.392  33.842  34.424  1.00  0.00     0.002 A 
ATOM     67  C   UNL A   1      42.152  32.525  36.040  1.00  0.00     0.091 A 
ATOM     68  F   UNL A   1      41.673  30.236  35.558  1.00  0.00    -0.205 F 
ATOM     69  C   UNL A   1      42.759  33.733  35.658  1.00  0.00     0.022 A 
BRANCH  67  70
ATOM     70  S   UNL A   1      41.294  32.507  37.617  1.00  0.00     0.127 S 
ATOM     71  O   UNL A   1      41.302  33.925  37.973  1.00  0.00    -0.237 OA
ATOM     72  O   UNL A   1      39.979  31.979  37.249  1.00  0.00    -0.237 OA
ATOM     73  O   UNL A   1      42.074  31.637  38.486  1.00  0.00    -0.744 OA
ENDBRANCH  67  70
ENDBRANCH  49  63
BRANCH  50  74
ATOM     74  C   UNL A   1      42.705  24.203  27.131  1.00  0.00     0.023 A 
ATOM     75  C   UNL A   1      43.384  24.419  25.917  1.00  0.00     0.012 A 
ATOM     76  C   UNL A   1      42.076  22.963  27.354  1.00  0.00     0.148 A 
ATOM     77  C   UNL A   1      43.412  23.434  24.930  1.00  0.00     0.002 A 
ATOM     78  C   UNL A   1      42.151  21.965  26.388  1.00  0.00     0.091 A 
ATOM     79  F   UNL A   1      41.422  22.780  28.509  1.00  0.00    -0.205 F 
ATOM     80  C   UNL A   1      42.804  22.204  25.168  1.00  0.00     0.022 A 
BRANCH  78  81
ATOM     81  S   UNL A   1      41.512  20.310  26.668  1.00  0.00     0.127 S 
ATOM     82  O   UNL A   1      40.082  20.562  26.822  1.00  0.00    -0.237 OA
ATOM     83  O   UNL A   1      41.888  19.623  25.431  1.00  0.00    -0.237 OA
ATOM     84  O   UNL A   1      42.206  19.823  27.854  1.00  0.00    -0.744 OA
ENDBRANCH  78  81
ENDBRANCH  50  74
BRANCH  62  85
ATOM     85  C   UNL A   1      47.082  25.946  32.288  1.00  0.00     0.023 A 
ATOM     86  C   UNL A   1      48.290  26.387  31.715  1.00  0.00     0.012 A 
ATOM     87  C   UNL A   1      47.115  25.030  33.359  1.00  0.00     0.148 A 
ATOM     88  C   UNL A   1      49.512  25.906  32.182  1.00  0.00     0.002 A 
ATOM     89  C   UNL A   1      48.339  24.590  33.849  1.00  0.00     0.091 A 
ATOM     90  F   UNL A   1      45.952  24.608  33.877  1.00  0.00    -0.205 F 
ATOM     91  C   UNL A   1      49.538  25.020  33.257  1.00  0.00     0.022 A 
BRANCH  89  92
ATOM     92  S   UNL A   1      48.465  23.522  35.289  1.00  0.00     0.127 S 
ATOM     93  O   UNL A   1      47.827  22.299  34.810  1.00  0.00    -0.237 OA
ATOM     94  O   UNL A   1      49.912  23.423  35.480  1.00  0.00    -0.237 OA
ATOM     95  O   UNL A   1      47.766  24.218  36.362  1.00  0.00    -0.744 OA
ENDBRANCH  89  92
ENDBRANCH  62  85
ENDBRANCH  36  37
ENDBRANCH  28  31
ENDBRANCH  26  27
ENDBRANCH   1  26
TORSDOF 17
ENDMDL
MODEL 3
REMARK VINA RESULT:     -12.3      5.357     10.496
REMARK SMILES C[C@@H](O)[C@@H](NC(=O)Nc1ccc(F)cc1F)C(=O)NCCCNC(=O)c1ccc(-c2c3nc(c(-c4cccc(S(=O)(=O)[O-])c4F)c4ccc([nH]4)c(-c4cccc(S(=O)(=O)[O-])c4F)c4nc(c(-c5cccc(S(=O)(=O)[O-])c5F)c5ccc2[nH]5)C=C4)C=C3)cc1
REMARK SMILES IDX 21 1 20 2 19 3 17 4 18 5 4 7 2 8 1 9 3 10 5 12 6 13 7 15
REMARK SMILES IDX 8 16 9 18 10 19 15 20 11 21 14 22 16 23 12 24 13 25 22 26
REMARK SMILES IDX 23 27 24 28 25 30 26 31 27 32 88 33 28 34 87 35 29 36 30 37
REMARK SMILES IDX 31 38 81 39 32 40 86 41 80 42 82 43 33 44 85 45 79 46 78 47
REMARK SMILES IDX 34 49 66 50 46 51 65 52 47 53 50 54 64 55 83 56 48 57 49 58
REMARK SMILES IDX 63 60 84 61 51 62 35 63 36 64 44 65 37 66 39 67 45 68 38 69
REMARK SMILES IDX 40 70 41 71 42 72 43 73 67 74 68 75 76 76 69 77 71 78 77 79
REMARK SMILES IDX 70 80 72 81 73 82 74 83 75 84 52 85 53 86 61 87 54 88 56 89
REMARK SMILES IDX 62 90 55 91 57 92 58 93 59 94 60 95
REMARK H PARENT 19 6 3 11 5 14 8 17 23 29 82 48 50 59
REMARK Flexibility Score: inf
ROOT
ATOM      1  C   UNL A   1      31.611  30.500  26.069  1.00  0.00     0.042 C 
ENDROOT
BRANCH   1   2
ATOM      2  C   UNL A   1      31.953  29.454  25.014  1.00  0.00     0.117 C 
BRANCH   2   3
ATOM      3  N   UNL A   1      31.000  29.527  23.925  1.00  0.00    -0.354 N 
ATOM      4  C   UNL A   1      30.833  28.695  22.868  1.00  0.00     0.245 C 
ATOM      5  O   UNL A   1      30.376  29.189  21.831  1.00  0.00    -0.273 OA
ATOM      6  H   UNL A   1      30.385  30.295  23.957  1.00  0.00     0.163 HD
BRANCH   4   7
ATOM      7  C   UNL A   1      31.314  27.237  22.889  1.00  0.00     0.201 C 
BRANCH   7   8
ATOM      8  C   UNL A   1      30.111  26.430  23.459  1.00  0.00     0.143 C 
ATOM      9  C   UNL A   1      30.240  26.061  24.932  1.00  0.00     0.041 C 
BRANCH   8  10
ATOM     10  O   UNL A   1      28.912  27.217  23.363  1.00  0.00    -0.391 OA
ATOM     11  H   UNL A   1      29.138  28.158  23.417  1.00  0.00     0.211 HD
ENDBRANCH   8  10
ENDBRANCH   7   8
BRANCH   7  12
ATOM     12  N   UNL A   1      31.844  26.742  21.608  1.00  0.00    -0.323 N 
ATOM     13  C   UNL A   1      32.727  25.786  21.255  1.00  0.00     0.320 C 
ATOM     14  H   UNL A   1      31.469  27.216  20.832  1.00  0.00     0.166 HD
ATOM     15  O   UNL A   1      32.915  25.624  20.047  1.00  0.00    -0.248 OA
ATOM     16  N   UNL A   1      33.544  25.163  22.125  1.00  0.00    -0.305 N 
ATOM     17  H   UNL A   1      34.404  24.893  21.728  1.00  0.00     0.171 HD
BRANCH  16  18
ATOM     18  C   UNL A   1      33.425  24.822  23.477  1.00  0.00     0.079 A 
ATOM     19  C   UNL A   1      33.974  25.593  24.501  1.00  0.00     0.032 A 
ATOM     20  C   UNL A   1      32.725  23.648  23.798  1.00  0.00     0.149 A 
ATOM     21  C   UNL A   1      33.913  25.128  25.818  1.00  0.00     0.041 A 
ATOM     22  C   UNL A   1      32.678  23.172  25.101  1.00  0.00     0.080 A 
ATOM     23  F   UNL A   1      32.174  22.916  22.818  1.00  0.00    -0.205 F 
ATOM     24  C   UNL A   1      33.289  23.915  26.100  1.00  0.00     0.126 A 
ATOM     25  F   UNL A   1      33.276  23.460  27.361  1.00  0.00    -0.207 F 
ENDBRANCH  16  18
ENDBRANCH   7  12
ENDBRANCH   4   7
ENDBRANCH   2   3
ENDBRANCH   1   2
BRANCH   1  26
ATOM     26  C   UNL A   1      32.806  30.954  26.899  1.00  0.00     0.118 C 
BRANCH  26  27
ATOM     27  N   UNL A   1      32.801  32.383  27.175  1.00  0.00    -0.352 N 
ATOM     28  C   UNL A   1      33.753  33.095  27.870  1.00  0.00     0.251 C 
ATOM     29  H   UNL A   1      32.034  32.896  26.828  1.00  0.00     0.163 HD
ATOM     30  O   UNL A   1      33.590  34.271  28.151  1.00  0.00    -0.269 OA
BRANCH  28  31
ATOM     31  C   UNL A   1      34.970  32.371  28.282  1.00  0.00     0.039 A 
ATOM     32  C   UNL A   1      36.202  33.022  28.218  1.00  0.00     0.014 A 
ATOM     33  C   UNL A   1      34.851  31.098  28.847  1.00  0.00     0.014 A 
ATOM     34  C   UNL A   1      37.323  32.408  28.775  1.00  0.00     0.010 A 
ATOM     35  C   UNL A   1      35.956  30.520  29.457  1.00  0.00     0.010 A 
ATOM     36  C   UNL A   1      37.202  31.167  29.422  1.00  0.00    -0.014 A 
BRANCH  36  37
ATOM     37  C   UNL A   1      38.367  30.522  30.074  1.00  0.00     0.031 A 
ATOM     38  C   UNL A   1      38.767  30.935  31.463  1.00  0.00     0.074 A 
ATOM     39  C   UNL A   1      39.116  29.640  29.383  1.00  0.00     0.049 A 
ATOM     40  N   UNL A   1      39.783  30.534  32.180  1.00  0.00    -0.248 NA
ATOM     41  C   UNL A   1      37.934  31.958  32.118  1.00  0.00     0.031 C 
ATOM     42  C   UNL A   1      38.880  29.230  27.996  1.00  0.00     0.029 A 
ATOM     43  N   UNL A   1      40.245  28.950  29.744  1.00  0.00    -0.354 N 
ATOM     44  C   UNL A   1      39.735  31.279  33.351  1.00  0.00     0.074 A 
ATOM     45  C   UNL A   1      38.613  32.184  33.234  1.00  0.00     0.031 C 
ATOM     46  C   UNL A   1      39.833  28.358  27.627  1.00  0.00     0.029 A 
ATOM     47  C   UNL A   1      40.756  28.161  28.740  1.00  0.00     0.049 A 
ATOM     48  H   UNL A   1      40.652  29.014  30.639  1.00  0.00     0.167 HD
ATOM     49  C   UNL A   1      40.530  31.194  34.444  1.00  0.00     0.034 A 
ATOM     50  C   UNL A   1      41.843  27.365  28.723  1.00  0.00     0.034 A 
ATOM     51  C   UNL A   1      41.605  30.251  34.578  1.00  0.00     0.049 A 
ATOM     52  C   UNL A   1      42.669  27.236  29.975  1.00  0.00     0.074 A 
ATOM     53  C   UNL A   1      42.407  30.012  35.679  1.00  0.00     0.029 A 
ATOM     54  N   UNL A   1      42.026  29.387  33.579  1.00  0.00    -0.354 N 
ATOM     55  N   UNL A   1      42.504  27.822  31.136  1.00  0.00    -0.248 NA
ATOM     56  C   UNL A   1      43.808  26.307  29.929  1.00  0.00     0.031 C 
ATOM     57  C   UNL A   1      43.321  29.007  35.342  1.00  0.00     0.029 A 
ATOM     58  C   UNL A   1      43.078  28.613  34.036  1.00  0.00     0.049 A 
ATOM     59  H   UNL A   1      41.634  29.332  32.678  1.00  0.00     0.167 HD
ATOM     60  C   UNL A   1      43.492  27.308  31.968  1.00  0.00     0.074 A 
ATOM     61  C   UNL A   1      44.239  26.346  31.183  1.00  0.00     0.031 C 
ATOM     62  C   UNL A   1      43.769  27.617  33.258  1.00  0.00     0.034 A 
BRANCH  49  63
ATOM     63  C   UNL A   1      40.215  32.098  35.605  1.00  0.00     0.023 A 
ATOM     64  C   UNL A   1      40.974  33.272  35.789  1.00  0.00     0.012 A 
ATOM     65  C   UNL A   1      39.152  31.817  36.483  1.00  0.00     0.148 A 
ATOM     66  C   UNL A   1      40.703  34.135  36.849  1.00  0.00     0.002 A 
ATOM     67  C   UNL A   1      38.860  32.705  37.513  1.00  0.00     0.091 A 
ATOM     68  F   UNL A   1      38.458  30.684  36.308  1.00  0.00    -0.205 F 
ATOM     69  C   UNL A   1      39.641  33.857  37.704  1.00  0.00     0.022 A 
BRANCH  67  70
ATOM     70  S   UNL A   1      37.466  32.474  38.621  1.00  0.00     0.127 S 
ATOM     71  O   UNL A   1      37.823  33.354  39.732  1.00  0.00    -0.237 OA
ATOM     72  O   UNL A   1      36.343  32.943  37.809  1.00  0.00    -0.237 OA
ATOM     73  O   UNL A   1      37.435  31.051  38.932  1.00  0.00    -0.744 OA
ENDBRANCH  67  70
ENDBRANCH  49  63
BRANCH  50  74
ATOM     74  C   UNL A   1      42.157  26.557  27.510  1.00  0.00     0.023 A 
ATOM     75  C   UNL A   1      42.794  27.177  26.419  1.00  0.00     0.012 A 
ATOM     76  C   UNL A   1      41.864  25.181  27.443  1.00  0.00     0.148 A 
ATOM     77  C   UNL A   1      43.106  26.451  25.268  1.00  0.00     0.002 A 
ATOM     78  C   UNL A   1      42.225  24.451  26.315  1.00  0.00     0.091 A 
ATOM     79  F   UNL A   1      41.245  24.611  28.486  1.00  0.00    -0.205 F 
ATOM     80  C   UNL A   1      42.831  25.087  25.220  1.00  0.00     0.022 A 
BRANCH  78  81
ATOM     81  S   UNL A   1      42.029  22.668  26.225  1.00  0.00     0.127 S 
ATOM     82  O   UNL A   1      40.576  22.525  26.222  1.00  0.00    -0.237 OA
ATOM     83  O   UNL A   1      42.684  22.352  24.954  1.00  0.00    -0.237 OA
ATOM     84  O   UNL A   1      42.720  22.143  27.396  1.00  0.00    -0.744 OA
ENDBRANCH  78  81
ENDBRANCH  50  74
BRANCH  62  85
ATOM     85  C   UNL A   1      44.908  26.890  33.922  1.00  0.00     0.023 A 
ATOM     86  C   UNL A   1      46.162  27.520  34.036  1.00  0.00     0.012 A 
ATOM     87  C   UNL A   1      44.711  25.623  34.508  1.00  0.00     0.148 A 
ATOM     88  C   UNL A   1      47.213  26.890  34.700  1.00  0.00     0.002 A 
ATOM     89  C   UNL A   1      45.750  25.021  35.207  1.00  0.00     0.091 A 
ATOM     90  F   UNL A   1      43.515  25.033  34.369  1.00  0.00    -0.205 F 
ATOM     91  C   UNL A   1      47.003  25.648  35.297  1.00  0.00     0.022 A 
BRANCH  89  92
ATOM     92  S   UNL A   1      45.538  23.468  36.085  1.00  0.00     0.127 S 
ATOM     93  O   UNL A   1      46.629  22.664  35.537  1.00  0.00    -0.237 OA
ATOM     94  O   UNL A   1      45.716  23.869  37.481  1.00  0.00    -0.237 OA
ATOM     95  O   UNL A   1      44.194  23.008  35.760  1.00  0.00    -0.744 OA
ENDBRANCH  89  92
ENDBRANCH  62  85
ENDBRANCH  36  37
ENDBRANCH  28  31
ENDBRANCH  26  27
ENDBRANCH   1  26
TORSDOF 17
ENDMDL
