MODEL 1
REMARK VINA RESULT:     -13.5      0.000      0.000
REMARK SMILES O=C(NCCCNC(=O)c1ccc(-c2c3nc(c(-c4cccc(S(=O)(=O)[O-])c4F)c4ccc([nH]4)c(-c4cccc(S(=O)(=O)[O-])c4F)c4nc(c(-c5cccc(S(=O)(=O)[O-])c5F)c5ccc2[nH]5)C=C4)C=C3)cc1)C1=Cc2cc(Cl)cc(C#Cc3ccccc3)c2O[C@@H]1C(F)(F)F
REMARK SMILES IDX 5 1 4 2 3 3 1 4 2 5 73 7 74 8 91 9 75 10 90 11 76 12 89 13
REMARK SMILES IDX 77 14 80 15 78 16 79 17 92 18 93 19 94 20 95 21 81 22 82 23
REMARK SMILES IDX 83 24 84 25 88 26 85 27 87 28 86 29 6 30 7 31 8 32 9 34
REMARK SMILES IDX 10 35 11 36 72 37 12 38 71 39 13 40 14 41 15 42 65 43 16 44
REMARK SMILES IDX 70 45 64 46 66 47 17 48 69 49 63 50 62 51 18 53 50 54 30 55
REMARK SMILES IDX 49 56 31 57 34 58 48 59 67 60 32 61 33 62 47 64 68 65 35 66
REMARK SMILES IDX 19 67 20 68 28 69 21 70 23 71 29 72 22 73 24 74 25 75 26 76
REMARK SMILES IDX 27 77 51 78 52 79 60 80 53 81 55 82 61 83 54 84 56 85 57 86
REMARK SMILES IDX 58 87 59 88 36 89 37 90 45 91 38 92 40 93 46 94 39 95 41 96
REMARK SMILES IDX 42 97 43 98 44 99
REMARK H PARENT 3 6 7 33 66 52 34 63
REMARK Flexibility Score: inf
ROOT
ATOM      1  C   UNL A   1      36.204  22.683  23.722  1.00  0.00     0.042 C 
ENDROOT
BRANCH   1   2
ATOM      2  C   UNL A   1      34.725  22.628  23.429  1.00  0.00     0.118 C 
BRANCH   2   3
ATOM      3  N   UNL A   1      34.190  23.725  22.652  1.00  0.00    -0.352 N 
ATOM      4  O   UNL A   1      33.373  25.799  22.347  1.00  0.00    -0.270 OA
ATOM      5  C   UNL A   1      33.499  24.827  23.087  1.00  0.00     0.251 C 
ATOM      6  H   UNL A   1      34.343  23.675  21.680  1.00  0.00     0.163 HD
BRANCH   5   7
ATOM      7  C   UNL A   1      33.046  24.929  24.509  1.00  0.00     0.067 C 
ATOM      8  C   UNL A   1      33.778  25.525  25.463  1.00  0.00     0.025 C 
ATOM      9  C   UNL A   1      31.552  24.997  24.639  1.00  0.00     0.314 C 
ATOM     10  C   UNL A   1      33.208  26.769  26.011  1.00  0.00     0.020 A 
ATOM     11  O   UNL A   1      31.085  26.350  24.875  1.00  0.00    -0.474 OA
ATOM     12  C   UNL A   1      34.108  27.681  26.583  1.00  0.00     0.032 A 
ATOM     13  C   UNL A   1      31.964  27.213  25.497  1.00  0.00     0.143 A 
ATOM     14  C   UNL A   1      33.819  29.043  26.542  1.00  0.00     0.043 A 
ATOM     15  C   UNL A   1      31.726  28.595  25.394  1.00  0.00     0.069 A 
ATOM     16  Cl  UNL A   1      34.992  30.180  27.080  1.00  0.00    -0.084 Cl
ATOM     17  C   UNL A   1      32.654  29.501  25.929  1.00  0.00     0.041 A 
BRANCH   9  18
ATOM     18  C   UNL A   1      31.112  23.990  25.722  1.00  0.00     0.429 C 
ATOM     19  F   UNL A   1      30.253  24.547  26.607  1.00  0.00    -0.167 F 
ATOM     20  F   UNL A   1      30.471  22.924  25.177  1.00  0.00    -0.167 F 
ATOM     21  F   UNL A   1      32.153  23.493  26.434  1.00  0.00    -0.167 F 
ENDBRANCH   9  18
BRANCH  15  22
ATOM     22  C   UNL A   1      30.722  29.158  24.524  1.00  0.00    -0.058 C 
ATOM     23  C   UNL A   1      30.039  29.765  23.746  1.00  0.00    -0.062 C 
BRANCH  23  24
ATOM     24  C   UNL A   1      29.288  30.626  22.871  1.00  0.00     0.025 A 
ATOM     25  C   UNL A   1      28.833  30.194  21.622  1.00  0.00     0.017 A 
ATOM     26  C   UNL A   1      29.064  31.949  23.260  1.00  0.00     0.017 A 
ATOM     27  C   UNL A   1      28.150  31.077  20.776  1.00  0.00     0.001 A 
ATOM     28  C   UNL A   1      28.383  32.830  22.417  1.00  0.00     0.001 A 
ATOM     29  C   UNL A   1      27.923  32.393  21.176  1.00  0.00     0.000 A 
ENDBRANCH  23  24
ENDBRANCH  15  22
ENDBRANCH   5   7
ENDBRANCH   2   3
ENDBRANCH   1   2
BRANCH   1  30
ATOM     30  C   UNL A   1      36.497  22.365  25.169  1.00  0.00     0.118 C 
BRANCH  30  31
ATOM     31  N   UNL A   1      37.440  21.260  25.360  1.00  0.00    -0.352 N 
ATOM     32  C   UNL A   1      38.702  21.257  25.910  1.00  0.00     0.251 C 
ATOM     33  H   UNL A   1      37.122  20.382  25.045  1.00  0.00     0.163 HD
ATOM     34  O   UNL A   1      39.376  20.232  25.889  1.00  0.00    -0.269 OA
BRANCH  32  35
ATOM     35  C   UNL A   1      39.254  22.500  26.485  1.00  0.00     0.039 A 
ATOM     36  C   UNL A   1      40.327  22.432  27.375  1.00  0.00     0.014 A 
ATOM     37  C   UNL A   1      38.755  23.737  26.088  1.00  0.00     0.014 A 
ATOM     38  C   UNL A   1      40.941  23.613  27.794  1.00  0.00     0.010 A 
ATOM     39  C   UNL A   1      39.488  24.881  26.336  1.00  0.00     0.010 A 
ATOM     40  C   UNL A   1      40.553  24.845  27.241  1.00  0.00    -0.014 A 
BRANCH  40  41
ATOM     41  C   UNL A   1      41.194  26.121  27.633  1.00  0.00     0.031 A 
ATOM     42  C   UNL A   1      42.603  26.417  27.181  1.00  0.00     0.074 A 
ATOM     43  C   UNL A   1      40.543  26.970  28.450  1.00  0.00     0.049 A 
ATOM     44  N   UNL A   1      43.349  27.458  27.440  1.00  0.00    -0.248 NA
ATOM     45  C   UNL A   1      43.287  25.388  26.374  1.00  0.00     0.031 C 
ATOM     46  C   UNL A   1      39.222  26.739  29.043  1.00  0.00     0.029 A 
ATOM     47  N   UNL A   1      40.911  28.198  28.936  1.00  0.00    -0.354 N 
ATOM     48  C   UNL A   1      44.589  27.185  26.875  1.00  0.00     0.074 A 
ATOM     49  C   UNL A   1      44.523  25.854  26.322  1.00  0.00     0.031 C 
ATOM     50  C   UNL A   1      38.876  27.806  29.780  1.00  0.00     0.029 A 
ATOM     51  C   UNL A   1      39.963  28.777  29.746  1.00  0.00     0.049 A 
ATOM     52  H   UNL A   1      41.773  28.624  28.725  1.00  0.00     0.167 HD
ATOM     53  C   UNL A   1      45.675  27.985  26.780  1.00  0.00     0.034 A 
ATOM     54  C   UNL A   1      39.974  29.961  30.386  1.00  0.00     0.034 A 
ATOM     55  C   UNL A   1      45.710  29.327  27.285  1.00  0.00     0.049 A 
ATOM     56  C   UNL A   1      41.162  30.864  30.209  1.00  0.00     0.074 A 
ATOM     57  C   UNL A   1      46.714  30.267  27.159  1.00  0.00     0.029 A 
ATOM     58  N   UNL A   1      44.694  29.916  28.023  1.00  0.00    -0.354 N 
ATOM     59  N   UNL A   1      42.265  30.653  29.532  1.00  0.00    -0.248 NA
ATOM     60  C   UNL A   1      41.088  32.185  30.845  1.00  0.00     0.031 C 
ATOM     61  C   UNL A   1      46.325  31.412  27.863  1.00  0.00     0.029 A 
ATOM     62  C   UNL A   1      45.053  31.203  28.375  1.00  0.00     0.049 A 
ATOM     63  H   UNL A   1      43.844  29.480  28.261  1.00  0.00     0.167 HD
ATOM     64  C   UNL A   1      43.002  31.827  29.628  1.00  0.00     0.074 A 
ATOM     65  C   UNL A   1      42.205  32.752  30.410  1.00  0.00     0.031 C 
ATOM     66  C   UNL A   1      44.228  32.115  29.124  1.00  0.00     0.034 A 
BRANCH  53  67
ATOM     67  C   UNL A   1      46.889  27.437  26.075  1.00  0.00     0.023 A 
ATOM     68  C   UNL A   1      47.036  27.604  24.681  1.00  0.00     0.012 A 
ATOM     69  C   UNL A   1      47.901  26.780  26.800  1.00  0.00     0.148 A 
ATOM     70  C   UNL A   1      48.145  27.083  24.015  1.00  0.00     0.002 A 
ATOM     71  C   UNL A   1      49.030  26.314  26.138  1.00  0.00     0.091 A 
ATOM     72  F   UNL A   1      47.734  26.607  28.118  1.00  0.00    -0.205 F 
ATOM     73  C   UNL A   1      49.146  26.448  24.744  1.00  0.00     0.022 A 
BRANCH  71  74
ATOM     74  S   UNL A   1      50.415  25.563  26.997  1.00  0.00     0.127 S 
ATOM     75  O   UNL A   1      50.787  26.621  27.937  1.00  0.00    -0.237 OA
ATOM     76  O   UNL A   1      49.792  24.392  27.613  1.00  0.00    -0.237 OA
ATOM     77  O   UNL A   1      51.408  25.260  25.977  1.00  0.00    -0.744 OA
ENDBRANCH  71  74
ENDBRANCH  53  67
BRANCH  54  78
ATOM     78  C   UNL A   1      38.794  30.380  31.195  1.00  0.00     0.023 A 
ATOM     79  C   UNL A   1      38.742  30.071  32.569  1.00  0.00     0.012 A 
ATOM     80  C   UNL A   1      37.740  31.110  30.615  1.00  0.00     0.148 A 
ATOM     81  C   UNL A   1      37.643  30.450  33.341  1.00  0.00     0.002 A 
ATOM     82  C   UNL A   1      36.677  31.535  31.402  1.00  0.00     0.091 A 
ATOM     83  F   UNL A   1      37.809  31.391  29.306  1.00  0.00    -0.205 F 
ATOM     84  C   UNL A   1      36.615  31.190  32.760  1.00  0.00     0.022 A 
BRANCH  82  85
ATOM     85  S   UNL A   1      35.377  32.601  30.770  1.00  0.00     0.127 S 
ATOM     86  O   UNL A   1      34.443  32.630  31.893  1.00  0.00    -0.237 OA
ATOM     87  O   UNL A   1      36.102  33.850  30.537  1.00  0.00    -0.237 OA
ATOM     88  O   UNL A   1      34.888  31.954  29.560  1.00  0.00    -0.744 OA
ENDBRANCH  82  85
ENDBRANCH  54  78
BRANCH  66  89
ATOM     89  C   UNL A   1      44.762  33.503  29.358  1.00  0.00     0.023 A 
ATOM     90  C   UNL A   1      45.454  33.809  30.545  1.00  0.00     0.012 A 
ATOM     91  C   UNL A   1      44.613  34.493  28.367  1.00  0.00     0.148 A 
ATOM     92  C   UNL A   1      45.944  35.096  30.766  1.00  0.00     0.002 A 
ATOM     93  C   UNL A   1      45.157  35.755  28.568  1.00  0.00     0.091 A 
ATOM     94  F   UNL A   1      43.937  34.186  27.250  1.00  0.00    -0.205 F 
ATOM     95  C   UNL A   1      45.804  36.064  29.774  1.00  0.00     0.022 A 
BRANCH  93  96
ATOM     96  S   UNL A   1      45.120  37.026  27.301  1.00  0.00     0.127 S 
ATOM     97  O   UNL A   1      45.754  38.149  27.990  1.00  0.00    -0.237 OA
ATOM     98  O   UNL A   1      45.926  36.426  26.238  1.00  0.00    -0.237 OA
ATOM     99  O   UNL A   1      43.716  37.214  26.961  1.00  0.00    -0.744 OA
ENDBRANCH  93  96
ENDBRANCH  66  89
ENDBRANCH  40  41
ENDBRANCH  32  35
ENDBRANCH  30  31
ENDBRANCH   1  30
TORSDOF 16
ENDMDL
MODEL 2
REMARK VINA RESULT:     -13.2      5.062     10.229
REMARK SMILES O=C(NCCCNC(=O)c1ccc(-c2c3nc(c(-c4cccc(S(=O)(=O)[O-])c4F)c4ccc([nH]4)c(-c4cccc(S(=O)(=O)[O-])c4F)c4nc(c(-c5cccc(S(=O)(=O)[O-])c5F)c5ccc2[nH]5)C=C4)C=C3)cc1)C1=Cc2cc(Cl)cc(C#Cc3ccccc3)c2O[C@@H]1C(F)(F)F
REMARK SMILES IDX 5 1 4 2 3 3 1 4 2 5 73 7 74 8 91 9 75 10 90 11 76 12 89 13
REMARK SMILES IDX 77 14 80 15 78 16 79 17 92 18 93 19 94 20 95 21 81 22 82 23
REMARK SMILES IDX 83 24 84 25 88 26 85 27 87 28 86 29 6 30 7 31 8 32 9 34
REMARK SMILES IDX 10 35 11 36 72 37 12 38 71 39 13 40 14 41 15 42 65 43 16 44
REMARK SMILES IDX 70 45 64 46 66 47 17 48 69 49 63 50 62 51 18 53 50 54 30 55
REMARK SMILES IDX 49 56 31 57 34 58 48 59 67 60 32 61 33 62 47 64 68 65 35 66
REMARK SMILES IDX 19 67 20 68 28 69 21 70 23 71 29 72 22 73 24 74 25 75 26 76
REMARK SMILES IDX 27 77 51 78 52 79 60 80 53 81 55 82 61 83 54 84 56 85 57 86
REMARK SMILES IDX 58 87 59 88 36 89 37 90 45 91 38 92 40 93 46 94 39 95 41 96
REMARK SMILES IDX 42 97 43 98 44 99
REMARK H PARENT 3 6 7 33 66 52 34 63
REMARK Flexibility Score: inf
ROOT
ATOM      1  C   UNL A   1      32.968  28.027  26.189  1.00  0.00     0.042 C 
ENDROOT
BRANCH   1   2
ATOM      2  C   UNL A   1      31.636  27.335  26.032  1.00  0.00     0.118 C 
BRANCH   2   3
ATOM      3  N   UNL A   1      31.553  25.990  26.558  1.00  0.00    -0.352 N 
ATOM      4  O   UNL A   1      32.282  23.891  26.912  1.00  0.00    -0.270 OA
ATOM      5  C   UNL A   1      32.259  24.877  26.179  1.00  0.00     0.251 C 
ATOM      6  H   UNL A   1      30.904  25.856  27.286  1.00  0.00     0.163 HD
BRANCH   5   7
ATOM      7  C   UNL A   1      33.138  24.907  24.969  1.00  0.00     0.067 C 
ATOM      8  C   UNL A   1      34.459  25.137  25.038  1.00  0.00     0.025 C 
ATOM      9  C   UNL A   1      32.648  24.009  23.872  1.00  0.00     0.314 C 
ATOM     10  C   UNL A   1      35.318  23.997  24.671  1.00  0.00     0.020 A 
ATOM     11  O   UNL A   1      33.390  22.763  23.813  1.00  0.00    -0.474 OA
ATOM     12  C   UNL A   1      36.616  23.984  25.203  1.00  0.00     0.032 A 
ATOM     13  C   UNL A   1      34.687  22.788  24.282  1.00  0.00     0.143 A 
ATOM     14  C   UNL A   1      37.240  22.763  25.450  1.00  0.00     0.043 A 
ATOM     15  C   UNL A   1      35.300  21.566  24.612  1.00  0.00     0.069 A 
ATOM     16  Cl  UNL A   1      38.756  22.730  26.262  1.00  0.00    -0.084 Cl
ATOM     17  C   UNL A   1      36.581  21.564  25.185  1.00  0.00     0.041 A 
BRANCH   9  18
ATOM     18  C   UNL A   1      32.663  24.804  22.550  1.00  0.00     0.429 C 
ATOM     19  F   UNL A   1      33.083  24.045  21.511  1.00  0.00    -0.167 F 
ATOM     20  F   UNL A   1      31.422  25.251  22.226  1.00  0.00    -0.167 F 
ATOM     21  F   UNL A   1      33.467  25.894  22.599  1.00  0.00    -0.167 F 
ENDBRANCH   9  18
BRANCH  15  22
ATOM     22  C   UNL A   1      34.584  20.314  24.659  1.00  0.00    -0.058 C 
ATOM     23  C   UNL A   1      34.155  19.204  24.810  1.00  0.00    -0.062 C 
BRANCH  23  24
ATOM     24  C   UNL A   1      33.791  17.820  24.964  1.00  0.00     0.025 A 
ATOM     25  C   UNL A   1      32.494  17.433  25.315  1.00  0.00     0.017 A 
ATOM     26  C   UNL A   1      34.780  16.844  24.820  1.00  0.00     0.017 A 
ATOM     27  C   UNL A   1      32.190  16.079  25.507  1.00  0.00     0.001 A 
ATOM     28  C   UNL A   1      34.478  15.495  25.013  1.00  0.00     0.001 A 
ATOM     29  C   UNL A   1      33.182  15.111  25.354  1.00  0.00     0.000 A 
ENDBRANCH  23  24
ENDBRANCH  15  22
ENDBRANCH   5   7
ENDBRANCH   2   3
ENDBRANCH   1   2
BRANCH   1  30
ATOM     30  C   UNL A   1      33.106  28.668  27.549  1.00  0.00     0.118 C 
BRANCH  30  31
ATOM     31  N   UNL A   1      33.322  30.117  27.508  1.00  0.00    -0.352 N 
ATOM     32  C   UNL A   1      34.444  30.854  27.818  1.00  0.00     0.251 C 
ATOM     33  H   UNL A   1      32.545  30.646  27.216  1.00  0.00     0.163 HD
ATOM     34  O   UNL A   1      34.390  32.081  27.811  1.00  0.00    -0.269 OA
BRANCH  32  35
ATOM     35  C   UNL A   1      35.693  30.165  28.196  1.00  0.00     0.039 A 
ATOM     36  C   UNL A   1      36.761  30.129  27.298  1.00  0.00     0.014 A 
ATOM     37  C   UNL A   1      35.833  29.616  29.467  1.00  0.00     0.014 A 
ATOM     38  C   UNL A   1      37.987  29.612  27.718  1.00  0.00     0.010 A 
ATOM     39  C   UNL A   1      37.091  29.302  29.941  1.00  0.00     0.010 A 
ATOM     40  C   UNL A   1      38.173  29.236  29.059  1.00  0.00    -0.014 A 
BRANCH  40  41
ATOM     41  C   UNL A   1      39.464  28.708  29.557  1.00  0.00     0.031 A 
ATOM     42  C   UNL A   1      40.164  29.407  30.696  1.00  0.00     0.074 A 
ATOM     43  C   UNL A   1      40.037  27.657  28.941  1.00  0.00     0.049 A 
ATOM     44  N   UNL A   1      41.310  29.123  31.256  1.00  0.00    -0.248 NA
ATOM     45  C   UNL A   1      39.522  30.615  31.249  1.00  0.00     0.031 C 
ATOM     46  C   UNL A   1      39.508  26.970  27.758  1.00  0.00     0.029 A 
ATOM     47  N   UNL A   1      41.201  26.987  29.218  1.00  0.00    -0.354 N 
ATOM     48  C   UNL A   1      41.541  30.135  32.180  1.00  0.00     0.074 A 
ATOM     49  C   UNL A   1      40.458  31.080  32.059  1.00  0.00     0.031 C 
ATOM     50  C   UNL A   1      40.325  25.956  27.435  1.00  0.00     0.029 A 
ATOM     51  C   UNL A   1      41.452  25.942  28.360  1.00  0.00     0.049 A 
ATOM     52  H   UNL A   1      41.799  27.232  29.960  1.00  0.00     0.167 HD
ATOM     53  C   UNL A   1      42.540  30.249  33.084  1.00  0.00     0.034 A 
ATOM     54  C   UNL A   1      42.480  25.073  28.328  1.00  0.00     0.034 A 
ATOM     55  C   UNL A   1      43.581  29.274  33.234  1.00  0.00     0.049 A 
ATOM     56  C   UNL A   1      43.541  25.176  29.387  1.00  0.00     0.074 A 
ATOM     57  C   UNL A   1      44.588  29.229  34.179  1.00  0.00     0.029 A 
ATOM     58  N   UNL A   1      43.755  28.177  32.404  1.00  0.00    -0.354 N 
ATOM     59  N   UNL A   1      43.657  26.050  30.358  1.00  0.00    -0.248 NA
ATOM     60  C   UNL A   1      44.589  24.148  29.373  1.00  0.00     0.031 C 
ATOM     61  C   UNL A   1      45.399  28.126  33.893  1.00  0.00     0.029 A 
ATOM     62  C   UNL A   1      44.862  27.453  32.805  1.00  0.00     0.049 A 
ATOM     63  H   UNL A   1      43.175  27.947  31.643  1.00  0.00     0.167 HD
ATOM     64  C   UNL A   1      44.767  25.656  31.094  1.00  0.00     0.074 A 
ATOM     65  C   UNL A   1      45.273  24.451  30.467  1.00  0.00     0.031 C 
ATOM     66  C   UNL A   1      45.325  26.239  32.185  1.00  0.00     0.034 A 
BRANCH  53  67
ATOM     67  C   UNL A   1      42.524  31.449  33.997  1.00  0.00     0.023 A 
ATOM     68  C   UNL A   1      43.266  32.603  33.665  1.00  0.00     0.012 A 
ATOM     69  C   UNL A   1      41.750  31.443  35.173  1.00  0.00     0.148 A 
ATOM     70  C   UNL A   1      43.277  33.710  34.512  1.00  0.00     0.002 A 
ATOM     71  C   UNL A   1      41.720  32.571  35.982  1.00  0.00     0.091 A 
ATOM     72  F   UNL A   1      41.073  30.330  35.487  1.00  0.00    -0.205 F 
ATOM     73  C   UNL A   1      42.496  33.699  35.664  1.00  0.00     0.022 A 
BRANCH  71  74
ATOM     74  S   UNL A   1      40.678  32.690  37.439  1.00  0.00     0.127 S 
ATOM     75  O   UNL A   1      41.485  31.988  38.436  1.00  0.00    -0.237 OA
ATOM     76  O   UNL A   1      40.591  34.137  37.634  1.00  0.00    -0.237 OA
ATOM     77  O   UNL A   1      39.421  32.044  37.090  1.00  0.00    -0.744 OA
ENDBRANCH  71  74
ENDBRANCH  53  67
BRANCH  54  78
ATOM     78  C   UNL A   1      42.511  23.996  27.299  1.00  0.00     0.023 A 
ATOM     79  C   UNL A   1      43.084  24.251  26.037  1.00  0.00     0.012 A 
ATOM     80  C   UNL A   1      42.005  22.713  27.577  1.00  0.00     0.148 A 
ATOM     81  C   UNL A   1      43.116  23.256  25.058  1.00  0.00     0.002 A 
ATOM     82  C   UNL A   1      42.094  21.711  26.619  1.00  0.00     0.091 A 
ATOM     83  F   UNL A   1      41.462  22.494  28.783  1.00  0.00    -0.205 F 
ATOM     84  C   UNL A   1      42.631  21.984  25.352  1.00  0.00     0.022 A 
BRANCH  82  85
ATOM     85  S   UNL A   1      41.614  20.013  26.955  1.00  0.00     0.127 S 
ATOM     86  O   UNL A   1      40.723  20.175  28.101  1.00  0.00    -0.237 OA
ATOM     87  O   UNL A   1      40.953  19.637  25.705  1.00  0.00    -0.237 OA
ATOM     88  O   UNL A   1      42.855  19.296  27.218  1.00  0.00    -0.744 OA
ENDBRANCH  82  85
ENDBRANCH  54  78
BRANCH  66  89
ATOM     89  C   UNL A   1      46.515  25.554  32.802  1.00  0.00     0.023 A 
ATOM     90  C   UNL A   1      47.821  25.900  32.406  1.00  0.00     0.012 A 
ATOM     91  C   UNL A   1      46.330  24.593  33.816  1.00  0.00     0.148 A 
ATOM     92  C   UNL A   1      48.924  25.262  32.971  1.00  0.00     0.002 A 
ATOM     93  C   UNL A   1      47.435  24.006  34.418  1.00  0.00     0.091 A 
ATOM     94  F   UNL A   1      45.078  24.266  34.168  1.00  0.00    -0.205 F 
ATOM     95  C   UNL A   1      48.731  24.324  33.983  1.00  0.00     0.022 A 
BRANCH  93  96
ATOM     96  S   UNL A   1      47.282  22.872  35.801  1.00  0.00     0.127 S 
ATOM     97  O   UNL A   1      46.181  22.015  35.361  1.00  0.00    -0.237 OA
ATOM     98  O   UNL A   1      48.594  22.224  35.814  1.00  0.00    -0.237 OA
ATOM     99  O   UNL A   1      47.004  23.697  36.969  1.00  0.00    -0.744 OA
ENDBRANCH  93  96
ENDBRANCH  66  89
ENDBRANCH  40  41
ENDBRANCH  32  35
ENDBRANCH  30  31
ENDBRANCH   1  30
TORSDOF 16
ENDMDL
MODEL 3
REMARK VINA RESULT:     -13.0      4.983     10.514
REMARK SMILES O=C(NCCCNC(=O)c1ccc(-c2c3nc(c(-c4cccc(S(=O)(=O)[O-])c4F)c4ccc([nH]4)c(-c4cccc(S(=O)(=O)[O-])c4F)c4nc(c(-c5cccc(S(=O)(=O)[O-])c5F)c5ccc2[nH]5)C=C4)C=C3)cc1)C1=Cc2cc(Cl)cc(C#Cc3ccccc3)c2O[C@@H]1C(F)(F)F
REMARK SMILES IDX 5 1 4 2 3 3 1 4 2 5 73 7 74 8 91 9 75 10 90 11 76 12 89 13
REMARK SMILES IDX 77 14 80 15 78 16 79 17 92 18 93 19 94 20 95 21 81 22 82 23
REMARK SMILES IDX 83 24 84 25 88 26 85 27 87 28 86 29 6 30 7 31 8 32 9 34
REMARK SMILES IDX 10 35 11 36 72 37 12 38 71 39 13 40 14 41 15 42 65 43 16 44
REMARK SMILES IDX 70 45 64 46 66 47 17 48 69 49 63 50 62 51 18 53 50 54 30 55
REMARK SMILES IDX 49 56 31 57 34 58 48 59 67 60 32 61 33 62 47 64 68 65 35 66
REMARK SMILES IDX 19 67 20 68 28 69 21 70 23 71 29 72 22 73 24 74 25 75 26 76
REMARK SMILES IDX 27 77 51 78 52 79 60 80 53 81 55 82 61 83 54 84 56 85 57 86
REMARK SMILES IDX 58 87 59 88 36 89 37 90 45 91 38 92 40 93 46 94 39 95 41 96
REMARK SMILES IDX 42 97 43 98 44 99
REMARK H PARENT 3 6 7 33 66 52 34 63
REMARK Flexibility Score: inf
ROOT
ATOM      1  C   UNL A   1      32.330  28.139  26.085  1.00  0.00     0.042 C 
ENDROOT
BRANCH   1   2
ATOM      2  C   UNL A   1      31.074  27.302  26.053  1.00  0.00     0.118 C 
BRANCH   2   3
ATOM      3  N   UNL A   1      31.172  25.986  26.646  1.00  0.00    -0.352 N 
ATOM      4  O   UNL A   1      32.188  24.037  27.124  1.00  0.00    -0.270 OA
ATOM      5  C   UNL A   1      32.044  24.972  26.342  1.00  0.00     0.251 C 
ATOM      6  H   UNL A   1      30.527  25.792  27.364  1.00  0.00     0.163 HD
BRANCH   5   7
ATOM      7  C   UNL A   1      32.946  25.073  25.153  1.00  0.00     0.067 C 
ATOM      8  C   UNL A   1      34.263  25.309  25.260  1.00  0.00     0.025 C 
ATOM      9  C   UNL A   1      32.485  24.232  23.999  1.00  0.00     0.314 C 
ATOM     10  C   UNL A   1      35.139  24.196  24.849  1.00  0.00     0.020 A 
ATOM     11  O   UNL A   1      33.238  22.997  23.888  1.00  0.00    -0.474 OA
ATOM     12  C   UNL A   1      36.426  24.164  25.405  1.00  0.00     0.032 A 
ATOM     13  C   UNL A   1      34.526  23.005  24.384  1.00  0.00     0.143 A 
ATOM     14  C   UNL A   1      37.056  22.936  25.599  1.00  0.00     0.043 A 
ATOM     15  C   UNL A   1      35.142  21.772  24.660  1.00  0.00     0.069 A 
ATOM     16  Cl  UNL A   1      38.556  22.871  26.438  1.00  0.00    -0.084 Cl
ATOM     17  C   UNL A   1      36.412  21.749  25.257  1.00  0.00     0.041 A 
BRANCH   9  18
ATOM     18  C   UNL A   1      32.519  25.097  22.722  1.00  0.00     0.429 C 
ATOM     19  F   UNL A   1      32.489  26.419  23.008  1.00  0.00    -0.167 F 
ATOM     20  F   UNL A   1      33.653  24.881  22.007  1.00  0.00    -0.167 F 
ATOM     21  F   UNL A   1      31.481  24.844  21.887  1.00  0.00    -0.167 F 
ENDBRANCH   9  18
BRANCH  15  22
ATOM     22  C   UNL A   1      34.436  20.515  24.625  1.00  0.00    -0.058 C 
ATOM     23  C   UNL A   1      33.999  19.402  24.731  1.00  0.00    -0.062 C 
BRANCH  23  24
ATOM     24  C   UNL A   1      33.628  18.017  24.852  1.00  0.00     0.025 A 
ATOM     25  C   UNL A   1      32.528  17.612  25.614  1.00  0.00     0.017 A 
ATOM     26  C   UNL A   1      34.430  17.050  24.240  1.00  0.00     0.017 A 
ATOM     27  C   UNL A   1      32.229  16.250  25.751  1.00  0.00     0.001 A 
ATOM     28  C   UNL A   1      34.132  15.692  24.377  1.00  0.00     0.001 A 
ATOM     29  C   UNL A   1      33.029  15.292  25.130  1.00  0.00     0.000 A 
ENDBRANCH  23  24
ENDBRANCH  15  22
ENDBRANCH   5   7
ENDBRANCH   2   3
ENDBRANCH   1   2
BRANCH   1  30
ATOM     30  C   UNL A   1      32.392  29.002  27.322  1.00  0.00     0.118 C 
BRANCH  30  31
ATOM     31  N   UNL A   1      32.380  30.442  27.048  1.00  0.00    -0.352 N 
ATOM     32  C   UNL A   1      33.343  31.397  27.286  1.00  0.00     0.251 C 
ATOM     33  H   UNL A   1      31.554  30.779  26.629  1.00  0.00     0.163 HD
ATOM     34  O   UNL A   1      33.097  32.580  27.068  1.00  0.00    -0.269 OA
BRANCH  32  35
ATOM     35  C   UNL A   1      34.651  30.997  27.840  1.00  0.00     0.039 A 
ATOM     36  C   UNL A   1      35.642  31.961  28.034  1.00  0.00     0.014 A 
ATOM     37  C   UNL A   1      34.872  29.681  28.235  1.00  0.00     0.014 A 
ATOM     38  C   UNL A   1      36.817  31.606  28.698  1.00  0.00     0.010 A 
ATOM     39  C   UNL A   1      35.933  29.387  29.068  1.00  0.00     0.010 A 
ATOM     40  C   UNL A   1      36.951  30.325  29.260  1.00  0.00    -0.014 A 
BRANCH  40  41
ATOM     41  C   UNL A   1      38.167  29.912  29.998  1.00  0.00     0.031 A 
ATOM     42  C   UNL A   1      38.397  30.423  31.399  1.00  0.00     0.074 A 
ATOM     43  C   UNL A   1      39.090  29.147  29.385  1.00  0.00     0.049 A 
ATOM     44  N   UNL A   1      39.407  30.204  32.199  1.00  0.00    -0.248 NA
ATOM     45  C   UNL A   1      37.389  31.341  31.962  1.00  0.00     0.031 C 
ATOM     46  C   UNL A   1      39.031  28.687  27.995  1.00  0.00     0.029 A 
ATOM     47  N   UNL A   1      40.271  28.631  29.853  1.00  0.00    -0.354 N 
ATOM     48  C   UNL A   1      39.176  30.989  33.322  1.00  0.00     0.074 A 
ATOM     49  C   UNL A   1      37.973  31.745  33.076  1.00  0.00     0.031 C 
ATOM     50  C   UNL A   1      40.105  27.927  27.735  1.00  0.00     0.029 A 
ATOM     51  C   UNL A   1      40.949  27.877  28.923  1.00  0.00     0.049 A 
ATOM     52  H   UNL A   1      40.602  28.785  30.767  1.00  0.00     0.167 HD
ATOM     53  C   UNL A   1      39.875  31.045  34.479  1.00  0.00     0.034 A 
ATOM     54  C   UNL A   1      42.120  27.221  29.024  1.00  0.00     0.034 A 
ATOM     55  C   UNL A   1      41.039  30.246  34.734  1.00  0.00     0.049 A 
ATOM     56  C   UNL A   1      42.843  27.240  30.340  1.00  0.00     0.074 A 
ATOM     57  C   UNL A   1      41.771  30.141  35.901  1.00  0.00     0.029 A 
ATOM     58  N   UNL A   1      41.648  29.423  33.799  1.00  0.00    -0.354 N 
ATOM     59  N   UNL A   1      42.523  27.862  31.450  1.00  0.00    -0.248 NA
ATOM     60  C   UNL A   1      44.065  26.431  30.434  1.00  0.00     0.031 C 
ATOM     61  C   UNL A   1      42.852  29.287  35.657  1.00  0.00     0.029 A 
ATOM     62  C   UNL A   1      42.757  28.816  34.356  1.00  0.00     0.049 A 
ATOM     63  H   UNL A   1      41.336  29.291  32.874  1.00  0.00     0.167 HD
ATOM     64  C   UNL A   1      43.481  27.491  32.385  1.00  0.00     0.074 A 
ATOM     65  C   UNL A   1      44.379  26.570  31.715  1.00  0.00     0.031 C 
ATOM     66  C   UNL A   1      43.614  27.878  33.678  1.00  0.00     0.034 A 
BRANCH  53  67
ATOM     67  C   UNL A   1      39.373  31.971  35.557  1.00  0.00     0.023 A 
ATOM     68  C   UNL A   1      38.413  31.521  36.489  1.00  0.00     0.012 A 
ATOM     69  C   UNL A   1      39.875  33.282  35.664  1.00  0.00     0.148 A 
ATOM     70  C   UNL A   1      37.925  32.375  37.477  1.00  0.00     0.002 A 
ATOM     71  C   UNL A   1      39.427  34.108  36.687  1.00  0.00     0.091 A 
ATOM     72  F   UNL A   1      40.766  33.702  34.756  1.00  0.00    -0.205 F 
ATOM     73  C   UNL A   1      38.440  33.664  37.583  1.00  0.00     0.022 A 
BRANCH  71  74
ATOM     74  S   UNL A   1      40.091  35.753  36.963  1.00  0.00     0.127 S 
ATOM     75  O   UNL A   1      39.653  36.453  35.756  1.00  0.00    -0.237 OA
ATOM     76  O   UNL A   1      39.401  36.158  38.187  1.00  0.00    -0.237 OA
ATOM     77  O   UNL A   1      41.531  35.589  37.101  1.00  0.00    -0.744 OA
ENDBRANCH  71  74
ENDBRANCH  53  67
BRANCH  54  78
ATOM     78  C   UNL A   1      42.638  26.443  27.864  1.00  0.00     0.023 A 
ATOM     79  C   UNL A   1      43.377  27.095  26.856  1.00  0.00     0.012 A 
ATOM     80  C   UNL A   1      42.429  25.054  27.772  1.00  0.00     0.148 A 
ATOM     81  C   UNL A   1      43.865  26.383  25.760  1.00  0.00     0.002 A 
ATOM     82  C   UNL A   1      42.967  24.342  26.708  1.00  0.00     0.091 A 
ATOM     83  F   UNL A   1      41.721  24.455  28.740  1.00  0.00    -0.205 F 
ATOM     84  C   UNL A   1      43.669  25.006  25.690  1.00  0.00     0.022 A 
BRANCH  82  85
ATOM     85  S   UNL A   1      42.877  22.551  26.604  1.00  0.00     0.127 S 
ATOM     86  O   UNL A   1      41.903  22.363  25.531  1.00  0.00    -0.237 OA
ATOM     87  O   UNL A   1      44.254  22.202  26.255  1.00  0.00    -0.237 OA
ATOM     88  O   UNL A   1      42.456  22.099  27.923  1.00  0.00    -0.744 OA
ENDBRANCH  82  85
ENDBRANCH  54  78
BRANCH  66  89
ATOM     89  C   UNL A   1      44.741  27.269  34.469  1.00  0.00     0.023 A 
ATOM     90  C   UNL A   1      46.002  27.895  34.510  1.00  0.00     0.012 A 
ATOM     91  C   UNL A   1      44.527  26.093  35.214  1.00  0.00     0.148 A 
ATOM     92  C   UNL A   1      47.048  27.329  35.237  1.00  0.00     0.002 A 
ATOM     93  C   UNL A   1      45.555  25.569  35.985  1.00  0.00     0.091 A 
ATOM     94  F   UNL A   1      43.323  25.504  35.150  1.00  0.00    -0.205 F 
ATOM     95  C   UNL A   1      46.822  26.173  35.982  1.00  0.00     0.022 A 
BRANCH  93  96
ATOM     96  S   UNL A   1      45.320  24.148  37.058  1.00  0.00     0.127 S 
ATOM     97  O   UNL A   1      44.327  24.654  38.005  1.00  0.00    -0.237 OA
ATOM     98  O   UNL A   1      44.818  23.138  36.126  1.00  0.00    -0.237 OA
ATOM     99  O   UNL A   1      46.629  23.851  37.624  1.00  0.00    -0.744 OA
ENDBRANCH  93  96
ENDBRANCH  66  89
ENDBRANCH  40  41
ENDBRANCH  32  35
ENDBRANCH  30  31
ENDBRANCH   1  30
TORSDOF 16
ENDMDL
