MODEL 1
REMARK VINA RESULT:     -12.8      0.000      0.000
REMARK SMILES Cc1ccc(C(=O)NCCCNC(=O)c2ccc(-c3c4nc(c(-c5cccc(S(=O)(=O)[O-])c5F)c5ccc([nH]5)c(-c5cccc(S(=O)(=O)[O-])c5F)c5nc(c(-c6cccc(S(=O)(=O)[O-])c6F)c6ccc3[nH]6)C=C5)C=C4)cc2)cc1N1CC(C)C1
REMARK SMILES IDX 11 1 10 2 9 3 8 4 6 5 7 6 5 8 1 9 2 10 3 11 79 12 4 13 78 14
REMARK SMILES IDX 80 15 81 16 84 17 82 18 83 19 12 20 13 21 14 23 15 24 16 25
REMARK SMILES IDX 77 26 17 27 76 28 18 29 19 30 20 31 70 32 21 33 75 34 69 35
REMARK SMILES IDX 71 36 22 37 74 38 68 39 67 40 23 42 55 43 35 44 54 45 36 46
REMARK SMILES IDX 39 47 53 48 72 49 37 50 38 51 52 53 73 54 40 55 24 56 25 57
REMARK SMILES IDX 33 58 26 59 28 60 34 61 27 62 29 63 30 64 31 65 32 66 56 67
REMARK SMILES IDX 57 68 65 69 58 70 60 71 66 72 59 73 61 74 62 75 63 76 64 77
REMARK SMILES IDX 41 78 42 79 50 80 43 81 45 82 51 83 44 84 46 85 47 86 48 87
REMARK SMILES IDX 49 88
REMARK H PARENT 8 7 12 22 71 41 39 52
REMARK Flexibility Score: inf
ROOT
ATOM      1  C   UNL A   1      34.420  30.346  27.580  1.00  0.00     0.118 C 
ENDROOT
BRANCH   1   2
ATOM      2  C   UNL A   1      33.009  30.807  27.262  1.00  0.00     0.042 C 
BRANCH   2   3
ATOM      3  C   UNL A   1      32.315  29.936  26.215  1.00  0.00     0.118 C 
BRANCH   3   4
ATOM      4  N   UNL A   1      33.191  29.596  25.104  1.00  0.00    -0.352 N 
ATOM      5  C   UNL A   1      33.621  28.404  24.571  1.00  0.00     0.251 C 
ATOM      6  O   UNL A   1      34.291  28.465  23.537  1.00  0.00    -0.269 OA
ATOM      7  H   UNL A   1      33.549  30.384  24.636  1.00  0.00     0.163 HD
BRANCH   5   8
ATOM      8  C   UNL A   1      33.344  27.048  25.148  1.00  0.00     0.041 A 
ATOM      9  C   UNL A   1      32.201  23.206  26.822  1.00  0.00     0.046 C 
ATOM     10  C   UNL A   1      32.632  24.515  26.227  1.00  0.00    -0.028 A 
ATOM     11  C   UNL A   1      31.773  25.618  26.344  1.00  0.00     0.006 A 
ATOM     12  C   UNL A   1      33.859  24.679  25.568  1.00  0.00     0.040 A 
ATOM     13  C   UNL A   1      32.125  26.865  25.816  1.00  0.00     0.014 A 
ATOM     14  C   UNL A   1      34.181  25.941  25.039  1.00  0.00     0.040 A 
BRANCH  12  15
ATOM     15  N   UNL A   1      34.770  23.607  25.421  1.00  0.00    -0.371 N 
ATOM     16  C   UNL A   1      35.902  23.314  26.258  1.00  0.00     0.121 C 
ATOM     17  C   UNL A   1      35.478  23.321  24.200  1.00  0.00     0.121 C 
ATOM     18  C   UNL A   1      36.775  23.210  25.008  1.00  0.00     0.025 C 
ATOM     19  C   UNL A   1      37.576  21.932  24.868  1.00  0.00     0.011 C 
ENDBRANCH  12  15
ENDBRANCH   5   8
ENDBRANCH   3   4
ENDBRANCH   2   3
ENDBRANCH   1   2
BRANCH   1  20
ATOM     20  N   UNL A   1      35.260  31.388  28.162  1.00  0.00    -0.352 N 
ATOM     21  C   UNL A   1      36.525  31.250  28.707  1.00  0.00     0.251 C 
ATOM     22  H   UNL A   1      34.882  32.297  28.167  1.00  0.00     0.163 HD
ATOM     23  O   UNL A   1      37.062  32.194  29.281  1.00  0.00    -0.269 OA
BRANCH  21  24
ATOM     24  C   UNL A   1      37.229  29.968  28.494  1.00  0.00     0.039 A 
ATOM     25  C   UNL A   1      37.364  29.111  29.589  1.00  0.00     0.014 A 
ATOM     26  C   UNL A   1      38.005  29.797  27.349  1.00  0.00     0.014 A 
ATOM     27  C   UNL A   1      38.452  28.245  29.639  1.00  0.00     0.010 A 
ATOM     28  C   UNL A   1      39.134  29.013  27.436  1.00  0.00     0.010 A 
ATOM     29  C   UNL A   1      39.389  28.291  28.608  1.00  0.00    -0.014 A 
BRANCH  29  30
ATOM     30  C   UNL A   1      40.665  27.599  28.652  1.00  0.00     0.031 A 
ATOM     31  C   UNL A   1      40.692  26.142  28.452  1.00  0.00     0.074 A 
ATOM     32  C   UNL A   1      41.814  28.292  28.798  1.00  0.00     0.049 A 
ATOM     33  N   UNL A   1      41.617  25.362  28.896  1.00  0.00    -0.248 NA
ATOM     34  C   UNL A   1      39.617  25.448  27.759  1.00  0.00     0.031 C 
ATOM     35  C   UNL A   1      43.166  27.812  28.546  1.00  0.00     0.029 A 
ATOM     36  N   UNL A   1      41.993  29.531  29.419  1.00  0.00    -0.354 N 
ATOM     37  C   UNL A   1      41.412  24.123  28.325  1.00  0.00     0.074 A 
ATOM     38  C   UNL A   1      40.109  24.209  27.708  1.00  0.00     0.031 C 
ATOM     39  C   UNL A   1      44.029  28.583  29.226  1.00  0.00     0.029 A 
ATOM     40  C   UNL A   1      43.245  29.476  30.061  1.00  0.00     0.049 A 
ATOM     41  H   UNL A   1      41.369  30.292  29.409  1.00  0.00     0.167 HD
ATOM     42  C   UNL A   1      42.440  23.227  28.299  1.00  0.00     0.034 A 
ATOM     43  C   UNL A   1      43.432  29.686  31.398  1.00  0.00     0.034 A 
ATOM     44  C   UNL A   1      43.614  23.755  29.011  1.00  0.00     0.049 A 
ATOM     45  C   UNL A   1      44.084  28.511  32.098  1.00  0.00     0.074 A 
ATOM     46  C   UNL A   1      44.752  24.412  28.570  1.00  0.00     0.029 A 
ATOM     47  N   UNL A   1      43.585  23.907  30.394  1.00  0.00    -0.354 N 
ATOM     48  N   UNL A   1      44.323  27.360  31.533  1.00  0.00    -0.248 NA
ATOM     49  C   UNL A   1      44.466  28.522  33.509  1.00  0.00     0.031 C 
ATOM     50  C   UNL A   1      45.362  25.035  29.690  1.00  0.00     0.029 A 
ATOM     51  C   UNL A   1      44.617  24.735  30.817  1.00  0.00     0.049 A 
ATOM     52  H   UNL A   1      42.924  23.487  30.989  1.00  0.00     0.167 HD
ATOM     53  C   UNL A   1      44.697  26.449  32.487  1.00  0.00     0.074 A 
ATOM     54  C   UNL A   1      44.869  27.252  33.685  1.00  0.00     0.031 C 
ATOM     55  C   UNL A   1      44.749  25.105  32.224  1.00  0.00     0.034 A 
BRANCH  42  56
ATOM     56  C   UNL A   1      42.524  22.047  27.337  1.00  0.00     0.023 A 
ATOM     57  C   UNL A   1      41.616  20.981  27.541  1.00  0.00     0.012 A 
ATOM     58  C   UNL A   1      43.470  21.853  26.304  1.00  0.00     0.148 A 
ATOM     59  C   UNL A   1      41.717  19.762  26.862  1.00  0.00     0.002 A 
ATOM     60  C   UNL A   1      43.623  20.611  25.678  1.00  0.00     0.091 A 
ATOM     61  F   UNL A   1      44.167  22.892  25.838  1.00  0.00    -0.205 F 
ATOM     62  C   UNL A   1      42.749  19.559  25.961  1.00  0.00     0.022 A 
BRANCH  60  63
ATOM     63  S   UNL A   1      44.986  20.254  24.555  1.00  0.00     0.127 S 
ATOM     64  O   UNL A   1      46.152  20.645  25.351  1.00  0.00    -0.237 OA
ATOM     65  O   UNL A   1      44.852  18.814  24.343  1.00  0.00    -0.237 OA
ATOM     66  O   UNL A   1      44.767  21.085  23.377  1.00  0.00    -0.744 OA
ENDBRANCH  60  63
ENDBRANCH  42  56
BRANCH  43  67
ATOM     67  C   UNL A   1      42.405  30.579  32.006  1.00  0.00     0.023 A 
ATOM     68  C   UNL A   1      42.348  31.907  31.518  1.00  0.00     0.012 A 
ATOM     69  C   UNL A   1      41.290  30.052  32.677  1.00  0.00     0.148 A 
ATOM     70  C   UNL A   1      41.151  32.620  31.537  1.00  0.00     0.002 A 
ATOM     71  C   UNL A   1      40.098  30.773  32.692  1.00  0.00     0.091 A 
ATOM     72  F   UNL A   1      41.377  28.827  33.212  1.00  0.00    -0.205 F 
ATOM     73  C   UNL A   1      40.013  32.032  32.077  1.00  0.00     0.022 A 
BRANCH  71  74
ATOM     74  S   UNL A   1      38.601  30.062  33.382  1.00  0.00     0.127 S 
ATOM     75  O   UNL A   1      37.569  30.841  32.706  1.00  0.00    -0.237 OA
ATOM     76  O   UNL A   1      38.690  28.665  32.960  1.00  0.00    -0.237 OA
ATOM     77  O   UNL A   1      38.732  30.261  34.818  1.00  0.00    -0.744 OA
ENDBRANCH  71  74
ENDBRANCH  43  67
BRANCH  55  78
ATOM     78  C   UNL A   1      44.925  24.022  33.273  1.00  0.00     0.023 A 
ATOM     79  C   UNL A   1      43.918  23.078  33.557  1.00  0.00     0.012 A 
ATOM     80  C   UNL A   1      46.171  23.836  33.927  1.00  0.00     0.148 A 
ATOM     81  C   UNL A   1      44.099  22.058  34.500  1.00  0.00     0.002 A 
ATOM     82  C   UNL A   1      46.381  22.752  34.779  1.00  0.00     0.091 A 
ATOM     83  F   UNL A   1      47.159  24.722  33.744  1.00  0.00    -0.205 F 
ATOM     84  C   UNL A   1      45.336  21.884  35.098  1.00  0.00     0.022 A 
BRANCH  82  85
ATOM     85  S   UNL A   1      48.030  22.346  35.372  1.00  0.00     0.127 S 
ATOM     86  O   UNL A   1      48.360  23.516  36.182  1.00  0.00    -0.237 OA
ATOM     87  O   UNL A   1      47.800  21.121  36.140  1.00  0.00    -0.237 OA
ATOM     88  O   UNL A   1      48.825  22.150  34.167  1.00  0.00    -0.744 OA
ENDBRANCH  82  85
ENDBRANCH  55  78
ENDBRANCH  29  30
ENDBRANCH  21  24
ENDBRANCH   1  20
TORSDOF 14
ENDMDL
MODEL 2
REMARK VINA RESULT:     -12.5      4.441     10.769
REMARK SMILES Cc1ccc(C(=O)NCCCNC(=O)c2ccc(-c3c4nc(c(-c5cccc(S(=O)(=O)[O-])c5F)c5ccc([nH]5)c(-c5cccc(S(=O)(=O)[O-])c5F)c5nc(c(-c6cccc(S(=O)(=O)[O-])c6F)c6ccc3[nH]6)C=C5)C=C4)cc2)cc1N1CC(C)C1
REMARK SMILES IDX 11 1 10 2 9 3 8 4 6 5 7 6 5 8 1 9 2 10 3 11 79 12 4 13 78 14
REMARK SMILES IDX 80 15 81 16 84 17 82 18 83 19 12 20 13 21 14 23 15 24 16 25
REMARK SMILES IDX 77 26 17 27 76 28 18 29 19 30 20 31 70 32 21 33 75 34 69 35
REMARK SMILES IDX 71 36 22 37 74 38 68 39 67 40 23 42 55 43 35 44 54 45 36 46
REMARK SMILES IDX 39 47 53 48 72 49 37 50 38 51 52 53 73 54 40 55 24 56 25 57
REMARK SMILES IDX 33 58 26 59 28 60 34 61 27 62 29 63 30 64 31 65 32 66 56 67
REMARK SMILES IDX 57 68 65 69 58 70 60 71 66 72 59 73 61 74 62 75 63 76 64 77
REMARK SMILES IDX 41 78 42 79 50 80 43 81 45 82 51 83 44 84 46 85 47 86 48 87
REMARK SMILES IDX 49 88
REMARK H PARENT 8 7 12 22 71 41 39 52
REMARK Flexibility Score: inf
ROOT
ATOM      1  C   UNL A   1      38.436  23.008  26.380  1.00  0.00     0.118 C 
ENDROOT
BRANCH   1   2
ATOM      2  C   UNL A   1      38.151  21.850  25.441  1.00  0.00     0.042 C 
BRANCH   2   3
ATOM      3  C   UNL A   1      36.663  21.686  25.126  1.00  0.00     0.118 C 
BRANCH   3   4
ATOM      4  N   UNL A   1      35.857  21.509  26.325  1.00  0.00    -0.352 N 
ATOM      5  C   UNL A   1      34.576  21.876  26.664  1.00  0.00     0.251 C 
ATOM      6  O   UNL A   1      34.147  21.469  27.746  1.00  0.00    -0.269 OA
ATOM      7  H   UNL A   1      36.326  21.026  27.042  1.00  0.00     0.163 HD
BRANCH   5   8
ATOM      8  C   UNL A   1      33.670  22.728  25.826  1.00  0.00     0.041 A 
ATOM      9  C   UNL A   1      30.849  24.915  23.350  1.00  0.00     0.046 C 
ATOM     10  C   UNL A   1      31.835  24.197  24.226  1.00  0.00    -0.028 A 
ATOM     11  C   UNL A   1      31.912  22.798  24.139  1.00  0.00     0.006 A 
ATOM     12  C   UNL A   1      32.684  24.868  25.117  1.00  0.00     0.040 A 
ATOM     13  C   UNL A   1      32.817  22.077  24.925  1.00  0.00     0.014 A 
ATOM     14  C   UNL A   1      33.576  24.116  25.900  1.00  0.00     0.040 A 
BRANCH  12  15
ATOM     15  N   UNL A   1      32.657  26.277  25.247  1.00  0.00    -0.371 N 
ATOM     16  C   UNL A   1      33.560  27.218  24.641  1.00  0.00     0.121 C 
ATOM     17  C   UNL A   1      32.642  26.962  26.514  1.00  0.00     0.121 C 
ATOM     18  C   UNL A   1      33.768  27.870  26.007  1.00  0.00     0.025 C 
ATOM     19  C   UNL A   1      33.537  29.366  26.065  1.00  0.00     0.011 C 
ENDBRANCH  12  15
ENDBRANCH   5   8
ENDBRANCH   3   4
ENDBRANCH   2   3
ENDBRANCH   1   2
BRANCH   1  20
ATOM     20  N   UNL A   1      39.737  22.922  27.038  1.00  0.00    -0.352 N 
ATOM     21  C   UNL A   1      40.480  23.955  27.583  1.00  0.00     0.251 C 
ATOM     22  H   UNL A   1      40.132  22.023  27.102  1.00  0.00     0.163 HD
ATOM     23  O   UNL A   1      41.622  23.754  27.990  1.00  0.00    -0.269 OA
BRANCH  21  24
ATOM     24  C   UNL A   1      39.821  25.269  27.735  1.00  0.00     0.039 A 
ATOM     25  C   UNL A   1      40.288  26.327  26.951  1.00  0.00     0.014 A 
ATOM     26  C   UNL A   1      39.016  25.504  28.849  1.00  0.00     0.014 A 
ATOM     27  C   UNL A   1      40.164  27.628  27.427  1.00  0.00     0.010 A 
ATOM     28  C   UNL A   1      38.975  26.779  29.369  1.00  0.00     0.010 A 
ATOM     29  C   UNL A   1      39.607  27.826  28.689  1.00  0.00    -0.014 A 
BRANCH  29  30
ATOM     30  C   UNL A   1      39.620  29.104  29.380  1.00  0.00     0.031 A 
ATOM     31  C   UNL A   1      38.637  30.129  28.999  1.00  0.00     0.074 A 
ATOM     32  C   UNL A   1      40.470  29.317  30.406  1.00  0.00     0.049 A 
ATOM     33  N   UNL A   1      38.799  31.396  29.172  1.00  0.00    -0.248 NA
ATOM     34  C   UNL A   1      37.391  29.780  28.333  1.00  0.00     0.031 C 
ATOM     35  C   UNL A   1      40.403  30.386  31.394  1.00  0.00     0.029 A 
ATOM     36  N   UNL A   1      41.711  28.713  30.631  1.00  0.00    -0.354 N 
ATOM     37  C   UNL A   1      37.591  32.002  28.900  1.00  0.00     0.074 A 
ATOM     38  C   UNL A   1      36.784  30.967  28.296  1.00  0.00     0.031 C 
ATOM     39  C   UNL A   1      41.620  30.549  31.934  1.00  0.00     0.029 A 
ATOM     40  C   UNL A   1      42.539  29.702  31.194  1.00  0.00     0.049 A 
ATOM     41  H   UNL A   1      41.956  27.780  30.435  1.00  0.00     0.167 HD
ATOM     42  C   UNL A   1      37.359  33.260  29.372  1.00  0.00     0.034 A 
ATOM     43  C   UNL A   1      43.733  30.097  30.663  1.00  0.00     0.034 A 
ATOM     44  C   UNL A   1      38.553  33.797  30.043  1.00  0.00     0.049 A 
ATOM     45  C   UNL A   1      43.783  31.579  30.349  1.00  0.00     0.074 A 
ATOM     46  C   UNL A   1      38.932  33.837  31.376  1.00  0.00     0.029 A 
ATOM     47  N   UNL A   1      39.686  34.121  29.303  1.00  0.00    -0.354 N 
ATOM     48  N   UNL A   1      42.761  32.383  30.438  1.00  0.00    -0.248 NA
ATOM     49  C   UNL A   1      44.978  32.259  29.853  1.00  0.00     0.031 C 
ATOM     50  C   UNL A   1      40.324  34.106  31.429  1.00  0.00     0.029 A 
ATOM     51  C   UNL A   1      40.791  34.259  30.134  1.00  0.00     0.049 A 
ATOM     52  H   UNL A   1      39.702  34.237  28.326  1.00  0.00     0.167 HD
ATOM     53  C   UNL A   1      43.074  33.589  29.866  1.00  0.00     0.074 A 
ATOM     54  C   UNL A   1      44.501  33.492  29.610  1.00  0.00     0.031 C 
ATOM     55  C   UNL A   1      42.115  34.526  29.578  1.00  0.00     0.034 A 
BRANCH  42  56
ATOM     56  C   UNL A   1      35.971  33.864  29.556  1.00  0.00     0.023 A 
ATOM     57  C   UNL A   1      35.303  34.314  28.393  1.00  0.00     0.012 A 
ATOM     58  C   UNL A   1      35.300  34.106  30.777  1.00  0.00     0.148 A 
ATOM     59  C   UNL A   1      34.121  35.063  28.443  1.00  0.00     0.002 A 
ATOM     60  C   UNL A   1      34.163  34.919  30.836  1.00  0.00     0.091 A 
ATOM     61  F   UNL A   1      35.691  33.473  31.886  1.00  0.00    -0.205 F 
ATOM     62  C   UNL A   1      33.574  35.405  29.668  1.00  0.00     0.022 A 
BRANCH  60  63
ATOM     63  S   UNL A   1      33.443  35.465  32.396  1.00  0.00     0.127 S 
ATOM     64  O   UNL A   1      34.592  36.073  33.070  1.00  0.00    -0.237 OA
ATOM     65  O   UNL A   1      32.424  36.415  31.957  1.00  0.00    -0.237 OA
ATOM     66  O   UNL A   1      32.939  34.263  33.051  1.00  0.00    -0.744 OA
ENDBRANCH  60  63
ENDBRANCH  42  56
BRANCH  43  67
ATOM     67  C   UNL A   1      44.408  29.033  29.866  1.00  0.00     0.023 A 
ATOM     68  C   UNL A   1      44.753  27.845  30.556  1.00  0.00     0.012 A 
ATOM     69  C   UNL A   1      44.311  29.003  28.466  1.00  0.00     0.148 A 
ATOM     70  C   UNL A   1      44.820  26.627  29.883  1.00  0.00     0.002 A 
ATOM     71  C   UNL A   1      44.380  27.780  27.802  1.00  0.00     0.091 A 
ATOM     72  F   UNL A   1      44.068  30.145  27.810  1.00  0.00    -0.205 F 
ATOM     73  C   UNL A   1      44.581  26.587  28.514  1.00  0.00     0.022 A 
BRANCH  71  74
ATOM     74  S   UNL A   1      44.086  27.675  26.034  1.00  0.00     0.127 S 
ATOM     75  O   UNL A   1      43.781  26.257  25.873  1.00  0.00    -0.237 OA
ATOM     76  O   UNL A   1      42.946  28.572  25.849  1.00  0.00    -0.237 OA
ATOM     77  O   UNL A   1      45.322  28.148  25.431  1.00  0.00    -0.744 OA
ENDBRANCH  71  74
ENDBRANCH  43  67
BRANCH  55  78
ATOM     78  C   UNL A   1      42.343  35.773  28.745  1.00  0.00     0.023 A 
ATOM     79  C   UNL A   1      41.747  35.953  27.480  1.00  0.00     0.012 A 
ATOM     80  C   UNL A   1      43.070  36.875  29.265  1.00  0.00     0.148 A 
ATOM     81  C   UNL A   1      41.931  37.121  26.731  1.00  0.00     0.002 A 
ATOM     82  C   UNL A   1      43.155  38.077  28.563  1.00  0.00     0.091 A 
ATOM     83  F   UNL A   1      43.706  36.760  30.439  1.00  0.00    -0.205 F 
ATOM     84  C   UNL A   1      42.621  38.191  27.279  1.00  0.00     0.022 A 
BRANCH  82  85
ATOM     85  S   UNL A   1      43.816  39.559  29.339  1.00  0.00     0.127 S 
ATOM     86  O   UNL A   1      45.234  39.232  29.466  1.00  0.00    -0.237 OA
ATOM     87  O   UNL A   1      43.518  40.596  28.350  1.00  0.00    -0.237 OA
ATOM     88  O   UNL A   1      43.071  39.695  30.584  1.00  0.00    -0.744 OA
ENDBRANCH  82  85
ENDBRANCH  55  78
ENDBRANCH  29  30
ENDBRANCH  21  24
ENDBRANCH   1  20
TORSDOF 14
ENDMDL
MODEL 3
REMARK VINA RESULT:     -12.1      3.442      5.140
REMARK SMILES Cc1ccc(C(=O)NCCCNC(=O)c2ccc(-c3c4nc(c(-c5cccc(S(=O)(=O)[O-])c5F)c5ccc([nH]5)c(-c5cccc(S(=O)(=O)[O-])c5F)c5nc(c(-c6cccc(S(=O)(=O)[O-])c6F)c6ccc3[nH]6)C=C5)C=C4)cc2)cc1N1CC(C)C1
REMARK SMILES IDX 11 1 10 2 9 3 8 4 6 5 7 6 5 8 1 9 2 10 3 11 79 12 4 13 78 14
REMARK SMILES IDX 80 15 81 16 84 17 82 18 83 19 12 20 13 21 14 23 15 24 16 25
REMARK SMILES IDX 77 26 17 27 76 28 18 29 19 30 20 31 70 32 21 33 75 34 69 35
REMARK SMILES IDX 71 36 22 37 74 38 68 39 67 40 23 42 55 43 35 44 54 45 36 46
REMARK SMILES IDX 39 47 53 48 72 49 37 50 38 51 52 53 73 54 40 55 24 56 25 57
REMARK SMILES IDX 33 58 26 59 28 60 34 61 27 62 29 63 30 64 31 65 32 66 56 67
REMARK SMILES IDX 57 68 65 69 58 70 60 71 66 72 59 73 61 74 62 75 63 76 64 77
REMARK SMILES IDX 41 78 42 79 50 80 43 81 45 82 51 83 44 84 46 85 47 86 48 87
REMARK SMILES IDX 49 88
REMARK H PARENT 8 7 12 22 71 41 39 52
REMARK Flexibility Score: inf
ROOT
ATOM      1  C   UNL A   1      35.016  31.496  28.045  1.00  0.00     0.118 C 
ENDROOT
BRANCH   1   2
ATOM      2  C   UNL A   1      34.334  30.646  26.990  1.00  0.00     0.042 C 
BRANCH   2   3
ATOM      3  C   UNL A   1      34.293  29.161  27.351  1.00  0.00     0.118 C 
BRANCH   3   4
ATOM      4  N   UNL A   1      32.990  28.743  27.847  1.00  0.00    -0.352 N 
ATOM      5  C   UNL A   1      31.950  28.035  27.293  1.00  0.00     0.251 C 
ATOM      6  O   UNL A   1      31.008  27.754  28.036  1.00  0.00    -0.269 OA
ATOM      7  H   UNL A   1      32.818  29.026  28.774  1.00  0.00     0.163 HD
BRANCH   5   8
ATOM      8  C   UNL A   1      31.875  27.587  25.864  1.00  0.00     0.041 A 
ATOM      9  C   UNL A   1      31.776  25.978  21.830  1.00  0.00     0.046 C 
ATOM     10  C   UNL A   1      31.779  26.563  23.213  1.00  0.00    -0.028 A 
ATOM     11  C   UNL A   1      32.593  25.967  24.189  1.00  0.00     0.006 A 
ATOM     12  C   UNL A   1      31.009  27.680  23.563  1.00  0.00     0.040 A 
ATOM     13  C   UNL A   1      32.642  26.474  25.492  1.00  0.00     0.014 A 
ATOM     14  C   UNL A   1      31.071  28.161  24.882  1.00  0.00     0.040 A 
BRANCH  12  15
ATOM     15  N   UNL A   1      30.172  28.327  22.623  1.00  0.00    -0.371 N 
ATOM     16  C   UNL A   1      30.377  29.620  22.029  1.00  0.00     0.121 C 
ATOM     17  C   UNL A   1      28.760  28.535  22.821  1.00  0.00     0.121 C 
ATOM     18  C   UNL A   1      28.945  29.999  22.405  1.00  0.00     0.025 C 
ATOM     19  C   UNL A   1      28.081  30.516  21.272  1.00  0.00     0.011 C 
ENDBRANCH  12  15
ENDBRANCH   5   8
ENDBRANCH   3   4
ENDBRANCH   2   3
ENDBRANCH   1   2
BRANCH   1  20
ATOM     20  N   UNL A   1      34.177  32.572  28.564  1.00  0.00    -0.352 N 
ATOM     21  C   UNL A   1      34.455  33.432  29.614  1.00  0.00     0.251 C 
ATOM     22  H   UNL A   1      33.311  32.703  28.114  1.00  0.00     0.163 HD
ATOM     23  O   UNL A   1      33.596  34.208  30.027  1.00  0.00    -0.269 OA
BRANCH  21  24
ATOM     24  C   UNL A   1      35.832  33.440  30.149  1.00  0.00     0.039 A 
ATOM     25  C   UNL A   1      36.847  33.937  29.328  1.00  0.00     0.014 A 
ATOM     26  C   UNL A   1      36.131  32.675  31.276  1.00  0.00     0.014 A 
ATOM     27  C   UNL A   1      38.142  33.454  29.486  1.00  0.00     0.010 A 
ATOM     28  C   UNL A   1      37.390  32.123  31.375  1.00  0.00     0.010 A 
ATOM     29  C   UNL A   1      38.373  32.463  30.439  1.00  0.00    -0.014 A 
BRANCH  29  30
ATOM     30  C   UNL A   1      39.623  31.734  30.550  1.00  0.00     0.031 A 
ATOM     31  C   UNL A   1      39.753  30.436  29.870  1.00  0.00     0.074 A 
ATOM     32  C   UNL A   1      40.674  32.274  31.203  1.00  0.00     0.049 A 
ATOM     33  N   UNL A   1      40.569  29.504  30.227  1.00  0.00    -0.248 NA
ATOM     34  C   UNL A   1      38.909  30.081  28.739  1.00  0.00     0.031 C 
ATOM     35  C   UNL A   1      42.064  31.841  31.139  1.00  0.00     0.029 A 
ATOM     36  N   UNL A   1      40.648  33.211  32.240  1.00  0.00    -0.354 N 
ATOM     37  C   UNL A   1      40.557  28.551  29.230  1.00  0.00     0.074 A 
ATOM     38  C   UNL A   1      39.445  28.912  28.383  1.00  0.00     0.031 C 
ATOM     39  C   UNL A   1      42.702  32.283  32.233  1.00  0.00     0.029 A 
ATOM     40  C   UNL A   1      41.703  32.873  33.108  1.00  0.00     0.049 A 
ATOM     41  H   UNL A   1      40.018  33.959  32.343  1.00  0.00     0.167 HD
ATOM     42  C   UNL A   1      41.592  27.667  29.146  1.00  0.00     0.034 A 
ATOM     43  C   UNL A   1      41.547  32.598  34.436  1.00  0.00     0.034 A 
ATOM     44  C   UNL A   1      42.535  27.855  30.261  1.00  0.00     0.049 A 
ATOM     45  C   UNL A   1      42.050  31.221  34.822  1.00  0.00     0.074 A 
ATOM     46  C   UNL A   1      43.720  28.565  30.367  1.00  0.00     0.029 A 
ATOM     47  N   UNL A   1      42.159  27.522  31.558  1.00  0.00    -0.354 N 
ATOM     48  N   UNL A   1      42.464  30.325  33.969  1.00  0.00    -0.248 NA
ATOM     49  C   UNL A   1      42.071  30.725  36.196  1.00  0.00     0.031 C 
ATOM     50  C   UNL A   1      44.012  28.730  31.746  1.00  0.00     0.029 A 
ATOM     51  C   UNL A   1      43.024  28.097  32.481  1.00  0.00     0.049 A 
ATOM     52  H   UNL A   1      41.388  26.957  31.790  1.00  0.00     0.167 HD
ATOM     53  C   UNL A   1      42.625  29.123  34.607  1.00  0.00     0.074 A 
ATOM     54  C   UNL A   1      42.466  29.453  36.014  1.00  0.00     0.031 C 
ATOM     55  C   UNL A   1      42.790  27.951  33.916  1.00  0.00     0.034 A 
BRANCH  42  56
ATOM     56  C   UNL A   1      41.956  26.889  27.886  1.00  0.00     0.023 A 
ATOM     57  C   UNL A   1      41.794  27.555  26.648  1.00  0.00     0.012 A 
ATOM     58  C   UNL A   1      42.361  25.537  27.803  1.00  0.00     0.148 A 
ATOM     59  C   UNL A   1      41.899  26.897  25.417  1.00  0.00     0.002 A 
ATOM     60  C   UNL A   1      42.391  24.858  26.580  1.00  0.00     0.091 A 
ATOM     61  F   UNL A   1      42.821  24.915  28.891  1.00  0.00    -0.205 F 
ATOM     62  C   UNL A   1      42.154  25.536  25.383  1.00  0.00     0.022 A 
BRANCH  60  63
ATOM     63  S   UNL A   1      42.641  23.076  26.468  1.00  0.00     0.127 S 
ATOM     64  O   UNL A   1      43.978  22.915  27.043  1.00  0.00    -0.237 OA
ATOM     65  O   UNL A   1      41.557  22.553  27.297  1.00  0.00    -0.237 OA
ATOM     66  O   UNL A   1      42.562  22.746  25.050  1.00  0.00    -0.744 OA
ENDBRANCH  60  63
ENDBRANCH  42  56
BRANCH  43  67
ATOM     67  C   UNL A   1      40.370  33.278  35.047  1.00  0.00     0.023 A 
ATOM     68  C   UNL A   1      39.129  32.604  34.956  1.00  0.00     0.012 A 
ATOM     69  C   UNL A   1      40.533  34.276  36.022  1.00  0.00     0.148 A 
ATOM     70  C   UNL A   1      38.145  32.792  35.925  1.00  0.00     0.002 A 
ATOM     71  C   UNL A   1      39.544  34.457  36.985  1.00  0.00     0.091 A 
ATOM     72  F   UNL A   1      41.678  34.970  36.051  1.00  0.00    -0.205 F 
ATOM     73  C   UNL A   1      38.375  33.680  36.969  1.00  0.00     0.022 A 
BRANCH  71  74
ATOM     74  S   UNL A   1      39.788  35.596  38.352  1.00  0.00     0.127 S 
ATOM     75  O   UNL A   1      41.111  35.204  38.825  1.00  0.00    -0.237 OA
ATOM     76  O   UNL A   1      39.735  36.899  37.691  1.00  0.00    -0.237 OA
ATOM     77  O   UNL A   1      38.672  35.335  39.247  1.00  0.00    -0.744 OA
ENDBRANCH  71  74
ENDBRANCH  43  67
BRANCH  55  78
ATOM     78  C   UNL A   1      42.742  26.566  34.532  1.00  0.00     0.023 A 
ATOM     79  C   UNL A   1      41.603  26.078  35.203  1.00  0.00     0.012 A 
ATOM     80  C   UNL A   1      43.808  25.647  34.345  1.00  0.00     0.148 A 
ATOM     81  C   UNL A   1      41.551  24.786  35.739  1.00  0.00     0.002 A 
ATOM     82  C   UNL A   1      43.705  24.327  34.781  1.00  0.00     0.091 A 
ATOM     83  F   UNL A   1      44.943  26.053  33.760  1.00  0.00    -0.205 F 
ATOM     84  C   UNL A   1      42.595  23.903  35.513  1.00  0.00     0.022 A 
BRANCH  82  85
ATOM     85  S   UNL A   1      44.917  23.091  34.291  1.00  0.00     0.127 S 
ATOM     86  O   UNL A   1      44.342  21.865  34.835  1.00  0.00    -0.237 OA
ATOM     87  O   UNL A   1      44.888  23.180  32.829  1.00  0.00    -0.237 OA
ATOM     88  O   UNL A   1      46.170  23.537  34.887  1.00  0.00    -0.744 OA
ENDBRANCH  82  85
ENDBRANCH  55  78
ENDBRANCH  29  30
ENDBRANCH  21  24
ENDBRANCH   1  20
TORSDOF 14
ENDMDL
