MODEL 1
REMARK VINA RESULT:     -12.5      0.000      0.000
REMARK SMILES O=C(NCCCNC(=O)c1ccnc(-n2cnnn2)c1)c1ccc(-c2c3nc(c(-c4cccc(S(=O)(=O)[O-])c4F)c4ccc([nH]4)c(-c4cccc(S(=O)(=O)[O-])c4F)c4nc(c(-c5cccc(S(=O)(=O)[O-])c5F)c5ccc2[nH]5)C=C4)C=C3)cc1
REMARK SMILES IDX 4 1 3 2 1 3 2 4 21 6 22 7 83 8 23 9 82 10 24 11 25 12 26 13
REMARK SMILES IDX 76 14 27 15 81 16 75 17 77 18 28 19 80 20 74 21 73 22 29 24
REMARK SMILES IDX 61 25 41 26 60 27 42 28 45 29 59 30 78 31 43 32 44 33 58 35
REMARK SMILES IDX 79 36 46 37 30 38 31 39 39 40 32 41 34 42 40 43 33 44 35 45
REMARK SMILES IDX 36 46 37 47 38 48 62 49 63 50 71 51 64 52 66 53 72 54 65 55
REMARK SMILES IDX 67 56 68 57 69 58 70 59 47 60 48 61 56 62 49 63 51 64 57 65
REMARK SMILES IDX 50 66 52 67 53 68 54 69 55 70 5 71 6 72 7 73 8 74 9 76 10 77
REMARK SMILES IDX 11 78 20 79 12 80 14 81 13 82 15 83 16 84 19 85 17 86 18 87
REMARK H PARENT 3 5 77 23 45 34 7 75
REMARK Flexibility Score: inf
ROOT
ATOM      1  C   UNL A   1      36.928  23.104  24.285  1.00  0.00     0.118 C 
ENDROOT
BRANCH   1   2
ATOM      2  N   UNL A   1      37.754  22.004  24.737  1.00  0.00    -0.352 N 
ATOM      3  O   UNL A   1      39.013  20.676  25.962  1.00  0.00    -0.269 OA
ATOM      4  C   UNL A   1      38.668  21.839  25.741  1.00  0.00     0.251 C 
ATOM      5  H   UNL A   1      37.630  21.190  24.199  1.00  0.00     0.163 HD
BRANCH   4   6
ATOM      6  C   UNL A   1      39.323  22.945  26.488  1.00  0.00     0.039 A 
ATOM      7  C   UNL A   1      40.504  22.845  27.227  1.00  0.00     0.014 A 
ATOM      8  C   UNL A   1      38.656  24.185  26.446  1.00  0.00     0.014 A 
ATOM      9  C   UNL A   1      40.951  23.924  27.987  1.00  0.00     0.010 A 
ATOM     10  C   UNL A   1      39.103  25.267  27.193  1.00  0.00     0.010 A 
ATOM     11  C   UNL A   1      40.236  25.125  27.987  1.00  0.00    -0.014 A 
BRANCH  11  12
ATOM     12  C   UNL A   1      40.846  26.300  28.611  1.00  0.00     0.031 A 
ATOM     13  C   UNL A   1      42.215  26.577  28.089  1.00  0.00     0.074 A 
ATOM     14  C   UNL A   1      40.190  27.147  29.432  1.00  0.00     0.049 A 
ATOM     15  N   UNL A   1      43.335  26.541  28.737  1.00  0.00    -0.248 NA
ATOM     16  C   UNL A   1      42.376  26.737  26.634  1.00  0.00     0.031 C 
ATOM     17  C   UNL A   1      38.766  27.107  29.772  1.00  0.00     0.029 A 
ATOM     18  N   UNL A   1      40.615  28.306  30.025  1.00  0.00    -0.354 N 
ATOM     19  C   UNL A   1      44.300  26.950  27.817  1.00  0.00     0.074 A 
ATOM     20  C   UNL A   1      43.702  26.810  26.519  1.00  0.00     0.031 C 
ATOM     21  C   UNL A   1      38.397  28.301  30.286  1.00  0.00     0.029 A 
ATOM     22  C   UNL A   1      39.571  29.147  30.417  1.00  0.00     0.049 A 
ATOM     23  H   UNL A   1      41.564  28.526  30.161  1.00  0.00     0.167 HD
ATOM     24  C   UNL A   1      45.376  27.684  28.216  1.00  0.00     0.034 A 
ATOM     25  C   UNL A   1      39.648  30.465  30.743  1.00  0.00     0.034 A 
ATOM     26  C   UNL A   1      45.593  27.548  29.637  1.00  0.00     0.049 A 
ATOM     27  C   UNL A   1      41.055  30.759  31.077  1.00  0.00     0.074 A 
ATOM     28  C   UNL A   1      45.796  26.504  30.515  1.00  0.00     0.029 A 
ATOM     29  N   UNL A   1      45.244  28.629  30.405  1.00  0.00    -0.354 N 
ATOM     30  N   UNL A   1      41.656  30.305  32.138  1.00  0.00    -0.248 NA
ATOM     31  C   UNL A   1      41.924  31.253  30.023  1.00  0.00     0.031 C 
ATOM     32  C   UNL A   1      45.135  26.895  31.717  1.00  0.00     0.029 A 
ATOM     33  C   UNL A   1      44.625  28.181  31.534  1.00  0.00     0.049 A 
ATOM     34  H   UNL A   1      45.414  29.573  30.181  1.00  0.00     0.167 HD
ATOM     35  C   UNL A   1      42.930  29.995  31.691  1.00  0.00     0.074 A 
ATOM     36  C   UNL A   1      43.079  30.726  30.433  1.00  0.00     0.031 C 
ATOM     37  C   UNL A   1      43.612  28.941  32.228  1.00  0.00     0.034 A 
BRANCH  24  38
ATOM     38  C   UNL A   1      45.924  28.888  27.456  1.00  0.00     0.023 A 
ATOM     39  C   UNL A   1      47.334  28.999  27.375  1.00  0.00     0.012 A 
ATOM     40  C   UNL A   1      45.185  30.047  27.116  1.00  0.00     0.148 A 
ATOM     41  C   UNL A   1      47.968  30.216  27.098  1.00  0.00     0.002 A 
ATOM     42  C   UNL A   1      45.818  31.236  26.768  1.00  0.00     0.091 A 
ATOM     43  F   UNL A   1      43.858  30.065  27.231  1.00  0.00    -0.205 F 
ATOM     44  C   UNL A   1      47.208  31.338  26.798  1.00  0.00     0.022 A 
BRANCH  42  45
ATOM     45  S   UNL A   1      44.884  32.711  26.329  1.00  0.00     0.127 S 
ATOM     46  O   UNL A   1      44.360  33.118  27.630  1.00  0.00    -0.237 OA
ATOM     47  O   UNL A   1      45.936  33.570  25.785  1.00  0.00    -0.237 OA
ATOM     48  O   UNL A   1      43.895  32.281  25.350  1.00  0.00    -0.744 OA
ENDBRANCH  42  45
ENDBRANCH  24  38
BRANCH  25  49
ATOM     49  C   UNL A   1      38.666  31.568  30.574  1.00  0.00     0.023 A 
ATOM     50  C   UNL A   1      38.097  31.812  29.304  1.00  0.00     0.012 A 
ATOM     51  C   UNL A   1      38.067  32.183  31.693  1.00  0.00     0.148 A 
ATOM     52  C   UNL A   1      36.949  32.602  29.162  1.00  0.00     0.002 A 
ATOM     53  C   UNL A   1      36.932  32.975  31.546  1.00  0.00     0.091 A 
ATOM     54  F   UNL A   1      38.549  31.913  32.913  1.00  0.00    -0.205 F 
ATOM     55  C   UNL A   1      36.361  33.177  30.284  1.00  0.00     0.022 A 
BRANCH  53  56
ATOM     56  S   UNL A   1      36.107  33.730  32.955  1.00  0.00     0.127 S 
ATOM     57  O   UNL A   1      37.009  34.836  33.277  1.00  0.00    -0.237 OA
ATOM     58  O   UNL A   1      34.827  34.132  32.377  1.00  0.00    -0.237 OA
ATOM     59  O   UNL A   1      36.042  32.695  33.979  1.00  0.00    -0.744 OA
ENDBRANCH  53  56
ENDBRANCH  25  49
BRANCH  37  60
ATOM     60  C   UNL A   1      43.132  28.380  33.538  1.00  0.00     0.023 A 
ATOM     61  C   UNL A   1      42.067  27.462  33.643  1.00  0.00     0.012 A 
ATOM     62  C   UNL A   1      43.877  28.693  34.686  1.00  0.00     0.148 A 
ATOM     63  C   UNL A   1      41.737  26.892  34.876  1.00  0.00     0.002 A 
ATOM     64  C   UNL A   1      43.580  28.086  35.898  1.00  0.00     0.091 A 
ATOM     65  F   UNL A   1      44.884  29.572  34.569  1.00  0.00    -0.205 F 
ATOM     66  C   UNL A   1      42.504  27.193  36.001  1.00  0.00     0.022 A 
BRANCH  64  67
ATOM     67  S   UNL A   1      44.614  28.344  37.341  1.00  0.00     0.127 S 
ATOM     68  O   UNL A   1      44.225  29.688  37.758  1.00  0.00    -0.237 OA
ATOM     69  O   UNL A   1      44.176  27.272  38.237  1.00  0.00    -0.237 OA
ATOM     70  O   UNL A   1      45.989  28.201  36.876  1.00  0.00    -0.744 OA
ENDBRANCH  64  67
ENDBRANCH  37  60
ENDBRANCH  11  12
ENDBRANCH   4   6
ENDBRANCH   1   2
BRANCH   1  71
ATOM     71  C   UNL A   1      35.444  22.785  24.108  1.00  0.00     0.042 C 
BRANCH  71  72
ATOM     72  C   UNL A   1      34.968  21.538  24.850  1.00  0.00     0.118 C 
BRANCH  72  73
ATOM     73  N   UNL A   1      33.629  21.698  25.400  1.00  0.00    -0.352 N 
ATOM     74  C   UNL A   1      32.473  21.041  25.097  1.00  0.00     0.251 C 
ATOM     75  H   UNL A   1      33.545  22.386  26.098  1.00  0.00     0.163 HD
ATOM     76  O   UNL A   1      31.390  21.456  25.524  1.00  0.00    -0.269 OA
BRANCH  74  77
ATOM     77  C   UNL A   1      32.477  19.833  24.253  1.00  0.00     0.045 A 
ATOM     78  C   UNL A   1      32.234  19.913  22.885  1.00  0.00     0.034 A 
ATOM     79  C   UNL A   1      32.855  18.621  24.835  1.00  0.00     0.063 A 
ATOM     80  C   UNL A   1      32.367  18.757  22.145  1.00  0.00     0.114 A 
ATOM     81  C   UNL A   1      32.980  17.511  24.009  1.00  0.00     0.157 A 
ATOM     82  N   UNL A   1      32.754  17.575  22.670  1.00  0.00    -0.237 NA
BRANCH  81  83
ATOM     83  N   UNL A   1      33.381  16.270  24.564  1.00  0.00    -0.182 N 
ATOM     84  C   UNL A   1      32.616  15.308  25.173  1.00  0.00     0.254 A 
ATOM     85  N   UNL A   1      34.667  15.850  24.581  1.00  0.00    -0.039 NA
ATOM     86  N   UNL A   1      33.395  14.353  25.625  1.00  0.00    -0.117 NA
ATOM     87  N   UNL A   1      34.668  14.709  25.258  1.00  0.00    -0.024 NA
ENDBRANCH  81  83
ENDBRANCH  74  77
ENDBRANCH  72  73
ENDBRANCH  71  72
ENDBRANCH   1  71
TORSDOF 14
ENDMDL
MODEL 2
REMARK VINA RESULT:     -12.4      5.183      9.988
REMARK SMILES O=C(NCCCNC(=O)c1ccnc(-n2cnnn2)c1)c1ccc(-c2c3nc(c(-c4cccc(S(=O)(=O)[O-])c4F)c4ccc([nH]4)c(-c4cccc(S(=O)(=O)[O-])c4F)c4nc(c(-c5cccc(S(=O)(=O)[O-])c5F)c5ccc2[nH]5)C=C4)C=C3)cc1
REMARK SMILES IDX 4 1 3 2 1 3 2 4 21 6 22 7 83 8 23 9 82 10 24 11 25 12 26 13
REMARK SMILES IDX 76 14 27 15 81 16 75 17 77 18 28 19 80 20 74 21 73 22 29 24
REMARK SMILES IDX 61 25 41 26 60 27 42 28 45 29 59 30 78 31 43 32 44 33 58 35
REMARK SMILES IDX 79 36 46 37 30 38 31 39 39 40 32 41 34 42 40 43 33 44 35 45
REMARK SMILES IDX 36 46 37 47 38 48 62 49 63 50 71 51 64 52 66 53 72 54 65 55
REMARK SMILES IDX 67 56 68 57 69 58 70 59 47 60 48 61 56 62 49 63 51 64 57 65
REMARK SMILES IDX 50 66 52 67 53 68 54 69 55 70 5 71 6 72 7 73 8 74 9 76 10 77
REMARK SMILES IDX 11 78 20 79 12 80 14 81 13 82 15 83 16 84 19 85 17 86 18 87
REMARK H PARENT 3 5 77 23 45 34 7 75
REMARK Flexibility Score: inf
ROOT
ATOM      1  C   UNL A   1      33.248  29.631  27.223  1.00  0.00     0.118 C 
ENDROOT
BRANCH   1   2
ATOM      2  N   UNL A   1      33.567  30.955  27.717  1.00  0.00    -0.352 N 
ATOM      3  O   UNL A   1      34.616  32.829  28.202  1.00  0.00    -0.269 OA
ATOM      4  C   UNL A   1      34.727  31.615  28.012  1.00  0.00     0.251 C 
ATOM      5  H   UNL A   1      32.765  31.503  27.877  1.00  0.00     0.163 HD
BRANCH   4   6
ATOM      6  C   UNL A   1      36.051  30.967  28.209  1.00  0.00     0.039 A 
ATOM      7  C   UNL A   1      36.361  29.639  27.913  1.00  0.00     0.014 A 
ATOM      8  C   UNL A   1      37.050  31.787  28.767  1.00  0.00     0.014 A 
ATOM      9  C   UNL A   1      37.605  29.114  28.260  1.00  0.00     0.010 A 
ATOM     10  C   UNL A   1      38.295  31.273  29.105  1.00  0.00     0.010 A 
ATOM     11  C   UNL A   1      38.561  29.927  28.877  1.00  0.00    -0.014 A 
BRANCH  11  12
ATOM     12  C   UNL A   1      39.923  29.413  29.024  1.00  0.00     0.031 A 
ATOM     13  C   UNL A   1      40.346  29.314  30.450  1.00  0.00     0.074 A 
ATOM     14  C   UNL A   1      40.657  28.914  28.007  1.00  0.00     0.049 A 
ATOM     15  N   UNL A   1      41.294  29.964  31.044  1.00  0.00    -0.248 NA
ATOM     16  C   UNL A   1      39.496  28.534  31.366  1.00  0.00     0.031 C 
ATOM     17  C   UNL A   1      40.213  28.712  26.626  1.00  0.00     0.029 A 
ATOM     18  N   UNL A   1      41.904  28.346  28.015  1.00  0.00    -0.354 N 
ATOM     19  C   UNL A   1      41.326  29.453  32.343  1.00  0.00     0.074 A 
ATOM     20  C   UNL A   1      40.069  28.787  32.542  1.00  0.00     0.031 C 
ATOM     21  C   UNL A   1      41.057  27.858  26.006  1.00  0.00     0.029 A 
ATOM     22  C   UNL A   1      42.157  27.540  26.902  1.00  0.00     0.049 A 
ATOM     23  H   UNL A   1      42.558  28.492  28.734  1.00  0.00     0.167 HD
ATOM     24  C   UNL A   1      42.504  29.330  33.014  1.00  0.00     0.034 A 
ATOM     25  C   UNL A   1      43.144  26.617  26.756  1.00  0.00     0.034 A 
ATOM     26  C   UNL A   1      43.518  30.179  32.435  1.00  0.00     0.049 A 
ATOM     27  C   UNL A   1      44.189  26.922  27.754  1.00  0.00     0.074 A 
ATOM     28  C   UNL A   1      43.648  31.526  32.160  1.00  0.00     0.029 A 
ATOM     29  N   UNL A   1      44.486  29.546  31.699  1.00  0.00    -0.354 N 
ATOM     30  N   UNL A   1      44.955  27.972  27.700  1.00  0.00    -0.248 NA
ATOM     31  C   UNL A   1      44.129  26.250  29.040  1.00  0.00     0.031 C 
ATOM     32  C   UNL A   1      44.393  31.587  30.946  1.00  0.00     0.029 A 
ATOM     33  C   UNL A   1      44.738  30.284  30.581  1.00  0.00     0.049 A 
ATOM     34  H   UNL A   1      44.928  28.699  31.938  1.00  0.00     0.167 HD
ATOM     35  C   UNL A   1      45.062  28.373  29.021  1.00  0.00     0.074 A 
ATOM     36  C   UNL A   1      44.658  27.207  29.805  1.00  0.00     0.031 C 
ATOM     37  C   UNL A   1      45.170  29.698  29.334  1.00  0.00     0.034 A 
BRANCH  24  38
ATOM     38  C   UNL A   1      42.891  28.116  33.854  1.00  0.00     0.023 A 
ATOM     39  C   UNL A   1      43.612  27.092  33.192  1.00  0.00     0.012 A 
ATOM     40  C   UNL A   1      42.330  27.777  35.109  1.00  0.00     0.148 A 
ATOM     41  C   UNL A   1      43.663  25.783  33.687  1.00  0.00     0.002 A 
ATOM     42  C   UNL A   1      42.447  26.494  35.633  1.00  0.00     0.091 A 
ATOM     43  F   UNL A   1      41.573  28.649  35.773  1.00  0.00    -0.205 F 
ATOM     44  C   UNL A   1      43.075  25.482  34.907  1.00  0.00     0.022 A 
BRANCH  42  45
ATOM     45  S   UNL A   1      41.741  26.057  37.230  1.00  0.00     0.127 S 
ATOM     46  O   UNL A   1      42.848  26.367  38.130  1.00  0.00    -0.237 OA
ATOM     47  O   UNL A   1      40.601  26.971  37.305  1.00  0.00    -0.237 OA
ATOM     48  O   UNL A   1      41.375  24.649  37.133  1.00  0.00    -0.744 OA
ENDBRANCH  42  45
ENDBRANCH  24  38
BRANCH  25  49
ATOM     49  C   UNL A   1      43.180  25.343  25.992  1.00  0.00     0.023 A 
ATOM     50  C   UNL A   1      44.207  25.120  25.048  1.00  0.00     0.012 A 
ATOM     51  C   UNL A   1      42.401  24.236  26.391  1.00  0.00     0.148 A 
ATOM     52  C   UNL A   1      44.475  23.837  24.555  1.00  0.00     0.002 A 
ATOM     53  C   UNL A   1      42.664  22.964  25.890  1.00  0.00     0.091 A 
ATOM     54  F   UNL A   1      41.466  24.411  27.333  1.00  0.00    -0.205 F 
ATOM     55  C   UNL A   1      43.709  22.757  24.982  1.00  0.00     0.022 A 
BRANCH  53  56
ATOM     56  S   UNL A   1      41.729  21.521  26.416  1.00  0.00     0.127 S 
ATOM     57  O   UNL A   1      40.384  21.839  25.935  1.00  0.00    -0.237 OA
ATOM     58  O   UNL A   1      42.399  20.445  25.691  1.00  0.00    -0.237 OA
ATOM     59  O   UNL A   1      41.849  21.477  27.868  1.00  0.00    -0.744 OA
ENDBRANCH  53  56
ENDBRANCH  25  49
BRANCH  37  60
ATOM     60  C   UNL A   1      45.551  30.655  28.239  1.00  0.00     0.023 A 
ATOM     61  C   UNL A   1      44.607  31.379  27.481  1.00  0.00     0.012 A 
ATOM     62  C   UNL A   1      46.917  30.929  28.067  1.00  0.00     0.148 A 
ATOM     63  C   UNL A   1      45.024  32.336  26.551  1.00  0.00     0.002 A 
ATOM     64  C   UNL A   1      47.325  31.916  27.181  1.00  0.00     0.091 A 
ATOM     65  F   UNL A   1      47.801  30.228  28.792  1.00  0.00    -0.205 F 
ATOM     66  C   UNL A   1      46.383  32.615  26.411  1.00  0.00     0.022 A 
BRANCH  64  67
ATOM     67  S   UNL A   1      49.048  32.397  27.059  1.00  0.00     0.127 S 
ATOM     68  O   UNL A   1      49.365  32.749  28.440  1.00  0.00    -0.237 OA
ATOM     69  O   UNL A   1      49.684  31.169  26.576  1.00  0.00    -0.237 OA
ATOM     70  O   UNL A   1      49.088  33.497  26.103  1.00  0.00    -0.744 OA
ENDBRANCH  64  67
ENDBRANCH  37  60
ENDBRANCH  11  12
ENDBRANCH   4   6
ENDBRANCH   1   2
BRANCH   1  71
ATOM     71  C   UNL A   1      33.045  29.522  25.713  1.00  0.00     0.042 C 
BRANCH  71  72
ATOM     72  C   UNL A   1      31.999  28.495  25.282  1.00  0.00     0.118 C 
BRANCH  72  73
ATOM     73  N   UNL A   1      32.292  27.920  23.977  1.00  0.00    -0.352 N 
ATOM     74  C   UNL A   1      31.459  27.654  22.930  1.00  0.00     0.251 C 
ATOM     75  H   UNL A   1      33.236  27.688  23.826  1.00  0.00     0.163 HD
ATOM     76  O   UNL A   1      31.855  26.973  21.977  1.00  0.00    -0.269 OA
BRANCH  74  77
ATOM     77  C   UNL A   1      30.075  28.156  22.906  1.00  0.00     0.045 A 
ATOM     78  C   UNL A   1      29.018  27.368  23.353  1.00  0.00     0.034 A 
ATOM     79  C   UNL A   1      29.861  29.487  22.542  1.00  0.00     0.063 A 
ATOM     80  C   UNL A   1      27.767  27.948  23.406  1.00  0.00     0.114 A 
ATOM     81  C   UNL A   1      28.570  29.992  22.643  1.00  0.00     0.157 A 
ATOM     82  N   UNL A   1      27.529  29.237  23.085  1.00  0.00    -0.237 NA
BRANCH  81  83
ATOM     83  N   UNL A   1      28.320  31.345  22.300  1.00  0.00    -0.182 N 
ATOM     84  C   UNL A   1      27.909  31.871  21.102  1.00  0.00     0.254 A 
ATOM     85  N   UNL A   1      28.484  32.369  23.169  1.00  0.00    -0.039 NA
ATOM     86  N   UNL A   1      27.886  33.181  21.186  1.00  0.00    -0.117 NA
ATOM     87  N   UNL A   1      28.257  33.475  22.474  1.00  0.00    -0.024 NA
ENDBRANCH  81  83
ENDBRANCH  74  77
ENDBRANCH  72  73
ENDBRANCH  71  72
ENDBRANCH   1  71
TORSDOF 14
ENDMDL
MODEL 3
REMARK VINA RESULT:     -12.3      4.328      8.036
REMARK SMILES O=C(NCCCNC(=O)c1ccnc(-n2cnnn2)c1)c1ccc(-c2c3nc(c(-c4cccc(S(=O)(=O)[O-])c4F)c4ccc([nH]4)c(-c4cccc(S(=O)(=O)[O-])c4F)c4nc(c(-c5cccc(S(=O)(=O)[O-])c5F)c5ccc2[nH]5)C=C4)C=C3)cc1
REMARK SMILES IDX 4 1 3 2 1 3 2 4 21 6 22 7 83 8 23 9 82 10 24 11 25 12 26 13
REMARK SMILES IDX 76 14 27 15 81 16 75 17 77 18 28 19 80 20 74 21 73 22 29 24
REMARK SMILES IDX 61 25 41 26 60 27 42 28 45 29 59 30 78 31 43 32 44 33 58 35
REMARK SMILES IDX 79 36 46 37 30 38 31 39 39 40 32 41 34 42 40 43 33 44 35 45
REMARK SMILES IDX 36 46 37 47 38 48 62 49 63 50 71 51 64 52 66 53 72 54 65 55
REMARK SMILES IDX 67 56 68 57 69 58 70 59 47 60 48 61 56 62 49 63 51 64 57 65
REMARK SMILES IDX 50 66 52 67 53 68 54 69 55 70 5 71 6 72 7 73 8 74 9 76 10 77
REMARK SMILES IDX 11 78 20 79 12 80 14 81 13 82 15 83 16 84 19 85 17 86 18 87
REMARK H PARENT 3 5 77 23 45 34 7 75
REMARK Flexibility Score: inf
ROOT
ATOM      1  C   UNL A   1      31.953  32.822  26.617  1.00  0.00     0.118 C 
ENDROOT
BRANCH   1   2
ATOM      2  N   UNL A   1      31.962  33.915  27.568  1.00  0.00    -0.352 N 
ATOM      3  O   UNL A   1      32.602  35.544  28.904  1.00  0.00    -0.269 OA
ATOM      4  C   UNL A   1      32.904  34.463  28.392  1.00  0.00     0.251 C 
ATOM      5  H   UNL A   1      31.089  34.365  27.636  1.00  0.00     0.163 HD
BRANCH   4   6
ATOM      6  C   UNL A   1      34.185  33.811  28.775  1.00  0.00     0.039 A 
ATOM      7  C   UNL A   1      34.359  32.904  29.822  1.00  0.00     0.014 A 
ATOM      8  C   UNL A   1      35.307  34.182  28.008  1.00  0.00     0.014 A 
ATOM      9  C   UNL A   1      35.635  32.458  30.161  1.00  0.00     0.010 A 
ATOM     10  C   UNL A   1      36.580  33.731  28.334  1.00  0.00     0.010 A 
ATOM     11  C   UNL A   1      36.745  32.892  29.431  1.00  0.00    -0.014 A 
BRANCH  11  12
ATOM     12  C   UNL A   1      38.033  32.237  29.665  1.00  0.00     0.031 A 
ATOM     13  C   UNL A   1      38.034  30.809  29.237  1.00  0.00     0.074 A 
ATOM     14  C   UNL A   1      39.151  32.885  30.057  1.00  0.00     0.049 A 
ATOM     15  N   UNL A   1      38.176  29.758  29.977  1.00  0.00    -0.248 NA
ATOM     16  C   UNL A   1      37.653  30.509  27.846  1.00  0.00     0.031 C 
ATOM     17  C   UNL A   1      39.308  34.331  30.227  1.00  0.00     0.029 A 
ATOM     18  N   UNL A   1      40.422  32.413  30.248  1.00  0.00    -0.354 N 
ATOM     19  C   UNL A   1      38.178  28.683  29.086  1.00  0.00     0.074 A 
ATOM     20  C   UNL A   1      37.611  29.177  27.862  1.00  0.00     0.031 C 
ATOM     21  C   UNL A   1      40.624  34.637  30.244  1.00  0.00     0.029 A 
ATOM     22  C   UNL A   1      41.400  33.410  30.199  1.00  0.00     0.049 A 
ATOM     23  H   UNL A   1      40.628  31.464  30.403  1.00  0.00     0.167 HD
ATOM     24  C   UNL A   1      38.951  27.586  29.319  1.00  0.00     0.034 A 
ATOM     25  C   UNL A   1      42.741  33.246  30.047  1.00  0.00     0.034 A 
ATOM     26  C   UNL A   1      39.323  27.506  30.712  1.00  0.00     0.049 A 
ATOM     27  C   UNL A   1      43.064  31.852  30.412  1.00  0.00     0.074 A 
ATOM     28  C   UNL A   1      38.655  27.472  31.919  1.00  0.00     0.029 A 
ATOM     29  N   UNL A   1      40.624  27.824  31.007  1.00  0.00    -0.354 N 
ATOM     30  N   UNL A   1      42.991  31.388  31.625  1.00  0.00    -0.248 NA
ATOM     31  C   UNL A   1      43.101  30.856  29.355  1.00  0.00     0.031 C 
ATOM     32  C   UNL A   1      39.485  28.197  32.824  1.00  0.00     0.029 A 
ATOM     33  C   UNL A   1      40.643  28.575  32.144  1.00  0.00     0.049 A 
ATOM     34  H   UNL A   1      41.414  27.553  30.485  1.00  0.00     0.167 HD
ATOM     35  C   UNL A   1      42.477  30.112  31.461  1.00  0.00     0.074 A 
ATOM     36  C   UNL A   1      42.698  29.792  30.052  1.00  0.00     0.031 C 
ATOM     37  C   UNL A   1      41.652  29.574  32.407  1.00  0.00     0.034 A 
BRANCH  24  38
ATOM     38  C   UNL A   1      39.772  26.871  28.250  1.00  0.00     0.023 A 
ATOM     39  C   UNL A   1      39.771  25.455  28.292  1.00  0.00     0.012 A 
ATOM     40  C   UNL A   1      40.770  27.473  27.447  1.00  0.00     0.148 A 
ATOM     41  C   UNL A   1      40.772  24.695  27.677  1.00  0.00     0.002 A 
ATOM     42  C   UNL A   1      41.720  26.710  26.775  1.00  0.00     0.091 A 
ATOM     43  F   UNL A   1      40.899  28.798  27.401  1.00  0.00    -0.205 F 
ATOM     44  C   UNL A   1      41.752  25.323  26.922  1.00  0.00     0.022 A 
BRANCH  42  45
ATOM     45  S   UNL A   1      42.988  27.468  25.747  1.00  0.00     0.127 S 
ATOM     46  O   UNL A   1      43.663  28.332  26.712  1.00  0.00    -0.237 OA
ATOM     47  O   UNL A   1      43.753  26.297  25.317  1.00  0.00    -0.237 OA
ATOM     48  O   UNL A   1      42.277  28.147  24.672  1.00  0.00    -0.744 OA
ENDBRANCH  42  45
ENDBRANCH  24  38
BRANCH  25  49
ATOM     49  C   UNL A   1      43.759  34.109  29.391  1.00  0.00     0.023 A 
ATOM     50  C   UNL A   1      44.579  34.948  30.178  1.00  0.00     0.012 A 
ATOM     51  C   UNL A   1      44.132  33.897  28.047  1.00  0.00     0.148 A 
ATOM     52  C   UNL A   1      45.747  35.518  29.657  1.00  0.00     0.002 A 
ATOM     53  C   UNL A   1      45.289  34.473  27.531  1.00  0.00     0.091 A 
ATOM     54  F   UNL A   1      43.406  33.053  27.302  1.00  0.00    -0.205 F 
ATOM     55  C   UNL A   1      46.108  35.273  28.336  1.00  0.00     0.022 A 
BRANCH  53  56
ATOM     56  S   UNL A   1      45.826  34.181  25.840  1.00  0.00     0.127 S 
ATOM     57  O   UNL A   1      44.643  34.575  25.074  1.00  0.00    -0.237 OA
ATOM     58  O   UNL A   1      46.963  35.090  25.721  1.00  0.00    -0.237 OA
ATOM     59  O   UNL A   1      46.142  32.760  25.762  1.00  0.00    -0.744 OA
ENDBRANCH  53  56
ENDBRANCH  25  49
BRANCH  37  60
ATOM     60  C   UNL A   1      41.625  30.213  33.769  1.00  0.00     0.023 A 
ATOM     61  C   UNL A   1      42.557  29.910  34.783  1.00  0.00     0.012 A 
ATOM     62  C   UNL A   1      40.705  31.253  33.976  1.00  0.00     0.148 A 
ATOM     63  C   UNL A   1      42.548  30.615  35.991  1.00  0.00     0.002 A 
ATOM     64  C   UNL A   1      40.734  31.985  35.155  1.00  0.00     0.091 A 
ATOM     65  F   UNL A   1      39.823  31.523  33.002  1.00  0.00    -0.205 F 
ATOM     66  C   UNL A   1      41.646  31.663  36.170  1.00  0.00     0.022 A 
BRANCH  64  67
ATOM     67  S   UNL A   1      39.680  33.418  35.380  1.00  0.00     0.127 S 
ATOM     68  O   UNL A   1      40.313  34.087  36.512  1.00  0.00    -0.237 OA
ATOM     69  O   UNL A   1      39.817  34.114  34.099  1.00  0.00    -0.237 OA
ATOM     70  O   UNL A   1      38.341  32.893  35.626  1.00  0.00    -0.744 OA
ENDBRANCH  64  67
ENDBRANCH  37  60
ENDBRANCH  11  12
ENDBRANCH   4   6
ENDBRANCH   1   2
BRANCH   1  71
ATOM     71  C   UNL A   1      32.379  31.463  27.171  1.00  0.00     0.042 C 
BRANCH  71  72
ATOM     72  C   UNL A   1      31.803  30.262  26.425  1.00  0.00     0.118 C 
BRANCH  72  73
ATOM     73  N   UNL A   1      32.450  30.045  25.139  1.00  0.00    -0.352 N 
ATOM     74  C   UNL A   1      32.298  29.030  24.241  1.00  0.00     0.251 C 
ATOM     75  H   UNL A   1      33.097  30.739  24.876  1.00  0.00     0.163 HD
ATOM     76  O   UNL A   1      33.086  28.910  23.296  1.00  0.00    -0.269 OA
BRANCH  74  77
ATOM     77  C   UNL A   1      31.206  28.049  24.372  1.00  0.00     0.045 A 
ATOM     78  C   UNL A   1      30.089  28.105  23.543  1.00  0.00     0.034 A 
ATOM     79  C   UNL A   1      31.376  26.986  25.261  1.00  0.00     0.063 A 
ATOM     80  C   UNL A   1      29.165  27.086  23.649  1.00  0.00     0.114 A 
ATOM     81  C   UNL A   1      30.401  25.996  25.288  1.00  0.00     0.157 A 
ATOM     82  N   UNL A   1      29.309  26.032  24.480  1.00  0.00    -0.237 NA
BRANCH  81  83
ATOM     83  N   UNL A   1      30.551  24.892  26.165  1.00  0.00    -0.182 N 
ATOM     84  C   UNL A   1      31.682  24.177  26.470  1.00  0.00     0.254 A 
ATOM     85  N   UNL A   1      29.520  24.351  26.853  1.00  0.00    -0.039 NA
ATOM     86  N   UNL A   1      31.365  23.177  27.259  1.00  0.00    -0.117 NA
ATOM     87  N   UNL A   1      30.016  23.292  27.479  1.00  0.00    -0.024 NA
ENDBRANCH  81  83
ENDBRANCH  74  77
ENDBRANCH  72  73
ENDBRANCH  71  72
ENDBRANCH   1  71
TORSDOF 14
ENDMDL
