MODEL 1
REMARK VINA RESULT:     -12.0      0.000      0.000
REMARK SMILES O=C(NCCCNC(=O)[C@@H]1C[N@@H+](CCOc2ccc(F)cc2)C[C@H]1C1CC1)c1ccc(-c2c3nc(c(-c4cccc(S(=O)(=O)[O-])c4F)c4ccc([nH]4)c(-c4cccc(S(=O)(=O)[O-])c4F)c4nc(c(-c5cccc(S(=O)(=O)[O-])c5F)c5ccc2[nH]5)C=C4)C=C3)cc1
REMARK SMILES IDX 5 1 4 2 3 3 1 4 2 5 28 7 29 8 90 9 30 10 89 11 31 12 32 13
REMARK SMILES IDX 33 14 83 15 34 16 88 17 82 18 84 19 35 20 87 21 81 22 80 23
REMARK SMILES IDX 36 25 68 26 48 27 67 28 49 29 52 30 66 31 85 32 50 33 51 34
REMARK SMILES IDX 65 36 86 37 53 38 37 39 38 40 46 41 39 42 41 43 47 44 40 45
REMARK SMILES IDX 42 46 43 47 44 48 45 49 69 50 70 51 78 52 71 53 73 54 79 55
REMARK SMILES IDX 72 56 74 57 75 58 76 59 77 60 54 61 55 62 63 63 56 64 58 65
REMARK SMILES IDX 64 66 57 67 59 68 60 69 61 70 62 71 6 72 7 73 8 74 9 76
REMARK SMILES IDX 10 77 11 78 24 79 12 80 23 81 25 83 26 84 27 85 13 86 14 87
REMARK SMILES IDX 15 88 16 89 17 90 22 91 18 92 21 93 19 94 20 95
REMARK H PARENT 3 6 84 24 52 35 7 75 12 82
REMARK Flexibility Score: inf
ROOT
ATOM      1  C   UNL A   1      34.755  21.778  24.828  1.00  0.00     0.042 C 
ENDROOT
BRANCH   1   2
ATOM      2  C   UNL A   1      35.843  21.959  25.873  1.00  0.00     0.118 C 
BRANCH   2   3
ATOM      3  N   UNL A   1      36.944  21.015  25.715  1.00  0.00    -0.352 N 
ATOM      4  O   UNL A   1      39.014  20.207  25.470  1.00  0.00    -0.269 OA
ATOM      5  C   UNL A   1      38.309  21.156  25.809  1.00  0.00     0.251 C 
ATOM      6  H   UNL A   1      36.653  20.099  25.499  1.00  0.00     0.163 HD
BRANCH   5   7
ATOM      7  C   UNL A   1      38.946  22.414  26.276  1.00  0.00     0.039 A 
ATOM      8  C   UNL A   1      40.080  22.408  27.083  1.00  0.00     0.014 A 
ATOM      9  C   UNL A   1      38.438  23.645  25.841  1.00  0.00     0.014 A 
ATOM     10  C   UNL A   1      40.575  23.588  27.616  1.00  0.00     0.010 A 
ATOM     11  C   UNL A   1      39.043  24.844  26.244  1.00  0.00     0.010 A 
ATOM     12  C   UNL A   1      40.107  24.827  27.156  1.00  0.00    -0.014 A 
BRANCH  12  13
ATOM     13  C   UNL A   1      40.849  26.058  27.541  1.00  0.00     0.031 A 
ATOM     14  C   UNL A   1      42.263  26.302  27.100  1.00  0.00     0.074 A 
ATOM     15  C   UNL A   1      40.210  26.974  28.301  1.00  0.00     0.049 A 
ATOM     16  N   UNL A   1      43.030  27.331  27.354  1.00  0.00    -0.248 NA
ATOM     17  C   UNL A   1      42.908  25.263  26.283  1.00  0.00     0.031 C 
ATOM     18  C   UNL A   1      38.847  26.828  28.824  1.00  0.00     0.029 A 
ATOM     19  N   UNL A   1      40.602  28.205  28.758  1.00  0.00    -0.354 N 
ATOM     20  C   UNL A   1      44.259  27.048  26.770  1.00  0.00     0.074 A 
ATOM     21  C   UNL A   1      44.138  25.745  26.151  1.00  0.00     0.031 C 
ATOM     22  C   UNL A   1      38.498  27.943  29.475  1.00  0.00     0.029 A 
ATOM     23  C   UNL A   1      39.638  28.847  29.502  1.00  0.00     0.049 A 
ATOM     24  H   UNL A   1      41.488  28.594  28.573  1.00  0.00     0.167 HD
ATOM     25  C   UNL A   1      45.378  27.810  26.746  1.00  0.00     0.034 A 
ATOM     26  C   UNL A   1      39.666  30.020  30.163  1.00  0.00     0.034 A 
ATOM     27  C   UNL A   1      45.475  29.118  27.340  1.00  0.00     0.049 A 
ATOM     28  C   UNL A   1      40.917  30.844  30.115  1.00  0.00     0.074 A 
ATOM     29  C   UNL A   1      46.549  29.991  27.318  1.00  0.00     0.029 A 
ATOM     30  N   UNL A   1      44.473  29.740  28.070  1.00  0.00    -0.354 N 
ATOM     31  N   UNL A   1      42.034  30.600  29.473  1.00  0.00    -0.248 NA
ATOM     32  C   UNL A   1      40.912  32.108  30.861  1.00  0.00     0.031 C 
ATOM     33  C   UNL A   1      46.209  31.122  28.065  1.00  0.00     0.029 A 
ATOM     34  C   UNL A   1      44.908  30.976  28.517  1.00  0.00     0.049 A 
ATOM     35  H   UNL A   1      43.582  29.357  28.245  1.00  0.00     0.167 HD
ATOM     36  C   UNL A   1      42.859  31.688  29.721  1.00  0.00     0.074 A 
ATOM     37  C   UNL A   1      42.103  32.604  30.552  1.00  0.00     0.031 C 
ATOM     38  C   UNL A   1      44.132  31.898  29.308  1.00  0.00     0.034 A 
BRANCH  25  39
ATOM     39  C   UNL A   1      46.592  27.273  26.030  1.00  0.00     0.023 A 
ATOM     40  C   UNL A   1      46.739  27.485  24.645  1.00  0.00     0.012 A 
ATOM     41  C   UNL A   1      47.634  26.648  26.747  1.00  0.00     0.148 A 
ATOM     42  C   UNL A   1      47.890  27.064  23.980  1.00  0.00     0.002 A 
ATOM     43  C   UNL A   1      48.798  26.274  26.085  1.00  0.00     0.091 A 
ATOM     44  F   UNL A   1      47.470  26.439  28.061  1.00  0.00    -0.205 F 
ATOM     45  C   UNL A   1      48.923  26.471  24.701  1.00  0.00     0.022 A 
BRANCH  43  46
ATOM     46  S   UNL A   1      50.222  25.585  26.937  1.00  0.00     0.127 S 
ATOM     47  O   UNL A   1      51.173  25.422  25.838  1.00  0.00    -0.237 OA
ATOM     48  O   UNL A   1      50.558  26.650  27.882  1.00  0.00    -0.237 OA
ATOM     49  O   UNL A   1      49.764  24.347  27.553  1.00  0.00    -0.744 OA
ENDBRANCH  43  46
ENDBRANCH  25  39
BRANCH  26  50
ATOM     50  C   UNL A   1      38.450  30.476  30.893  1.00  0.00     0.023 A 
ATOM     51  C   UNL A   1      38.360  30.276  32.284  1.00  0.00     0.012 A 
ATOM     52  C   UNL A   1      37.431  31.194  30.234  1.00  0.00     0.148 A 
ATOM     53  C   UNL A   1      37.272  30.774  33.002  1.00  0.00     0.002 A 
ATOM     54  C   UNL A   1      36.387  31.743  30.964  1.00  0.00     0.091 A 
ATOM     55  F   UNL A   1      37.534  31.364  28.908  1.00  0.00    -0.205 F 
ATOM     56  C   UNL A   1      36.295  31.520  32.347  1.00  0.00     0.022 A 
BRANCH  54  57
ATOM     57  S   UNL A   1      35.173  32.850  30.237  1.00  0.00     0.127 S 
ATOM     58  O   UNL A   1      36.010  33.945  29.764  1.00  0.00    -0.237 OA
ATOM     59  O   UNL A   1      34.595  32.012  29.188  1.00  0.00    -0.237 OA
ATOM     60  O   UNL A   1      34.248  33.184  31.317  1.00  0.00    -0.744 OA
ENDBRANCH  54  57
ENDBRANCH  26  50
BRANCH  38  61
ATOM     61  C   UNL A   1      44.800  33.183  29.722  1.00  0.00     0.023 A 
ATOM     62  C   UNL A   1      45.613  33.213  30.871  1.00  0.00     0.012 A 
ATOM     63  C   UNL A   1      44.707  34.330  28.908  1.00  0.00     0.148 A 
ATOM     64  C   UNL A   1      46.308  34.371  31.216  1.00  0.00     0.002 A 
ATOM     65  C   UNL A   1      45.445  35.462  29.227  1.00  0.00     0.091 A 
ATOM     66  F   UNL A   1      43.912  34.283  27.829  1.00  0.00    -0.205 F 
ATOM     67  C   UNL A   1      46.237  35.488  30.387  1.00  0.00     0.022 A 
BRANCH  65  68
ATOM     68  S   UNL A   1      45.502  36.908  28.165  1.00  0.00     0.127 S 
ATOM     69  O   UNL A   1      46.393  37.792  28.914  1.00  0.00    -0.237 OA
ATOM     70  O   UNL A   1      46.075  36.365  26.934  1.00  0.00    -0.237 OA
ATOM     71  O   UNL A   1      44.126  37.374  28.042  1.00  0.00    -0.744 OA
ENDBRANCH  65  68
ENDBRANCH  38  61
ENDBRANCH  12  13
ENDBRANCH   5   7
ENDBRANCH   2   3
ENDBRANCH   1   2
BRANCH   1  72
ATOM     72  C   UNL A   1      33.809  22.970  24.775  1.00  0.00     0.117 C 
BRANCH  72  73
ATOM     73  N   UNL A   1      33.108  23.285  26.048  1.00  0.00    -0.356 N 
ATOM     74  C   UNL A   1      31.931  23.865  26.465  1.00  0.00     0.229 C 
ATOM     75  H   UNL A   1      33.643  22.992  26.821  1.00  0.00     0.163 HD
ATOM     76  O   UNL A   1      31.585  23.594  27.621  1.00  0.00    -0.275 OA
BRANCH  74  77
ATOM     77  C   UNL A   1      31.158  24.946  25.694  1.00  0.00     0.142 C 
ATOM     78  C   UNL A   1      30.741  24.683  24.214  1.00  0.00     0.276 C 
ATOM     79  C   UNL A   1      31.924  26.227  25.606  1.00  0.00     0.065 C 
ATOM     80  N   UNL A   1      31.197  25.838  23.388  1.00  0.00    -0.331 N 
ATOM     81  C   UNL A   1      32.326  26.291  24.146  1.00  0.00     0.267 C 
ATOM     82  H   UNL A   1      31.360  25.518  22.433  1.00  0.00     0.348 HD
BRANCH  79  83
ATOM     83  C   UNL A   1      31.276  27.363  26.344  1.00  0.00    -0.001 C 
ATOM     84  C   UNL A   1      31.644  27.892  27.718  1.00  0.00     0.004 C 
ATOM     85  C   UNL A   1      31.973  28.702  26.510  1.00  0.00     0.004 C 
ENDBRANCH  79  83
BRANCH  80  86
ATOM     86  C   UNL A   1      30.267  26.940  23.029  1.00  0.00     0.304 C 
BRANCH  86  87
ATOM     87  C   UNL A   1      30.700  28.440  22.686  1.00  0.00     0.290 C 
BRANCH  87  88
ATOM     88  O   UNL A   1      30.246  29.503  23.561  1.00  0.00    -0.488 OA
BRANCH  88  89
ATOM     89  C   UNL A   1      29.321  30.394  23.047  1.00  0.00     0.119 A 
ATOM     90  C   UNL A   1      28.921  30.128  21.728  1.00  0.00     0.049 A 
ATOM     91  C   UNL A   1      28.879  31.567  23.664  1.00  0.00     0.049 A 
ATOM     92  C   UNL A   1      28.325  31.126  20.953  1.00  0.00     0.043 A 
ATOM     93  C   UNL A   1      28.217  32.548  22.899  1.00  0.00     0.043 A 
ATOM     94  C   UNL A   1      28.008  32.343  21.538  1.00  0.00     0.123 A 
ATOM     95  F   UNL A   1      27.548  33.342  20.774  1.00  0.00    -0.207 F 
ENDBRANCH  88  89
ENDBRANCH  87  88
ENDBRANCH  86  87
ENDBRANCH  80  86
ENDBRANCH  74  77
ENDBRANCH  72  73
ENDBRANCH   1  72
TORSDOF 18
ENDMDL
MODEL 2
REMARK VINA RESULT:     -11.8      5.706     10.835
REMARK SMILES O=C(NCCCNC(=O)[C@@H]1C[N@@H+](CCOc2ccc(F)cc2)C[C@H]1C1CC1)c1ccc(-c2c3nc(c(-c4cccc(S(=O)(=O)[O-])c4F)c4ccc([nH]4)c(-c4cccc(S(=O)(=O)[O-])c4F)c4nc(c(-c5cccc(S(=O)(=O)[O-])c5F)c5ccc2[nH]5)C=C4)C=C3)cc1
REMARK SMILES IDX 5 1 4 2 3 3 1 4 2 5 28 7 29 8 90 9 30 10 89 11 31 12 32 13
REMARK SMILES IDX 33 14 83 15 34 16 88 17 82 18 84 19 35 20 87 21 81 22 80 23
REMARK SMILES IDX 36 25 68 26 48 27 67 28 49 29 52 30 66 31 85 32 50 33 51 34
REMARK SMILES IDX 65 36 86 37 53 38 37 39 38 40 46 41 39 42 41 43 47 44 40 45
REMARK SMILES IDX 42 46 43 47 44 48 45 49 69 50 70 51 78 52 71 53 73 54 79 55
REMARK SMILES IDX 72 56 74 57 75 58 76 59 77 60 54 61 55 62 63 63 56 64 58 65
REMARK SMILES IDX 64 66 57 67 59 68 60 69 61 70 62 71 6 72 7 73 8 74 9 76
REMARK SMILES IDX 10 77 11 78 24 79 12 80 23 81 25 83 26 84 27 85 13 86 14 87
REMARK SMILES IDX 15 88 16 89 17 90 22 91 18 92 21 93 19 94 20 95
REMARK H PARENT 3 6 84 24 52 35 7 75 12 82
REMARK Flexibility Score: inf
ROOT
ATOM      1  C   UNL A   1      31.373  32.074  26.476  1.00  0.00     0.042 C 
ENDROOT
BRANCH   1   2
ATOM      2  C   UNL A   1      32.551  32.534  27.318  1.00  0.00     0.118 C 
BRANCH   2   3
ATOM      3  N   UNL A   1      32.452  33.934  27.714  1.00  0.00    -0.352 N 
ATOM      4  O   UNL A   1      32.720  35.823  28.880  1.00  0.00    -0.269 OA
ATOM      5  C   UNL A   1      33.125  34.684  28.652  1.00  0.00     0.251 C 
ATOM      6  H   UNL A   1      31.772  34.442  27.214  1.00  0.00     0.163 HD
BRANCH   5   7
ATOM      7  C   UNL A   1      34.292  34.154  29.402  1.00  0.00     0.039 A 
ATOM      8  C   UNL A   1      34.143  33.239  30.440  1.00  0.00     0.014 A 
ATOM      9  C   UNL A   1      35.586  34.527  29.015  1.00  0.00     0.014 A 
ATOM     10  C   UNL A   1      35.232  32.862  31.212  1.00  0.00     0.010 A 
ATOM     11  C   UNL A   1      36.702  34.012  29.689  1.00  0.00     0.010 A 
ATOM     12  C   UNL A   1      36.534  33.191  30.811  1.00  0.00    -0.014 A 
BRANCH  12  13
ATOM     13  C   UNL A   1      37.679  32.539  31.503  1.00  0.00     0.031 A 
ATOM     14  C   UNL A   1      38.136  32.977  32.865  1.00  0.00     0.074 A 
ATOM     15  C   UNL A   1      38.305  31.520  30.876  1.00  0.00     0.049 A 
ATOM     16  N   UNL A   1      39.114  32.497  33.590  1.00  0.00    -0.248 NA
ATOM     17  C   UNL A   1      37.422  34.099  33.492  1.00  0.00     0.031 C 
ATOM     18  C   UNL A   1      37.975  31.031  29.532  1.00  0.00     0.029 A 
ATOM     19  N   UNL A   1      39.332  30.703  31.274  1.00  0.00    -0.354 N 
ATOM     20  C   UNL A   1      39.163  33.282  34.736  1.00  0.00     0.074 A 
ATOM     21  C   UNL A   1      38.118  34.276  34.608  1.00  0.00     0.031 C 
ATOM     22  C   UNL A   1      38.738  29.970  29.244  1.00  0.00     0.029 A 
ATOM     23  C   UNL A   1      39.677  29.757  30.335  1.00  0.00     0.049 A 
ATOM     24  H   UNL A   1      39.780  30.785  32.147  1.00  0.00     0.167 HD
ATOM     25  C   UNL A   1      39.998  33.175  35.797  1.00  0.00     0.034 A 
ATOM     26  C   UNL A   1      40.658  28.835  30.328  1.00  0.00     0.034 A 
ATOM     27  C   UNL A   1      41.012  32.162  35.925  1.00  0.00     0.049 A 
ATOM     28  C   UNL A   1      41.562  28.737  31.519  1.00  0.00     0.074 A 
ATOM     29  C   UNL A   1      41.868  31.938  36.990  1.00  0.00     0.029 A 
ATOM     30  N   UNL A   1      41.320  31.214  34.961  1.00  0.00    -0.354 N 
ATOM     31  N   UNL A   1      41.527  29.426  32.633  1.00  0.00    -0.248 NA
ATOM     32  C   UNL A   1      42.628  27.729  31.466  1.00  0.00     0.031 C 
ATOM     33  C   UNL A   1      42.716  30.879  36.653  1.00  0.00     0.029 A 
ATOM     34  C   UNL A   1      42.362  30.413  35.398  1.00  0.00     0.049 A 
ATOM     35  H   UNL A   1      40.864  31.123  34.092  1.00  0.00     0.167 HD
ATOM     36  C   UNL A   1      42.551  28.924  33.423  1.00  0.00     0.074 A 
ATOM     37  C   UNL A   1      43.174  27.855  32.668  1.00  0.00     0.031 C 
ATOM     38  C   UNL A   1      42.947  29.325  34.655  1.00  0.00     0.034 A 
BRANCH  25  39
ATOM     39  C   UNL A   1      39.839  34.157  36.931  1.00  0.00     0.023 A 
ATOM     40  C   UNL A   1      40.169  35.512  36.736  1.00  0.00     0.012 A 
ATOM     41  C   UNL A   1      39.267  33.756  38.157  1.00  0.00     0.148 A 
ATOM     42  C   UNL A   1      39.956  36.449  37.746  1.00  0.00     0.002 A 
ATOM     43  C   UNL A   1      39.015  34.704  39.142  1.00  0.00     0.091 A 
ATOM     44  F   UNL A   1      38.976  32.459  38.332  1.00  0.00    -0.205 F 
ATOM     45  C   UNL A   1      39.368  36.048  38.943  1.00  0.00     0.022 A 
BRANCH  43  46
ATOM     46  S   UNL A   1      38.180  34.306  40.683  1.00  0.00     0.127 S 
ATOM     47  O   UNL A   1      37.064  33.488  40.210  1.00  0.00    -0.237 OA
ATOM     48  O   UNL A   1      39.213  33.566  41.408  1.00  0.00    -0.237 OA
ATOM     49  O   UNL A   1      37.809  35.580  41.282  1.00  0.00    -0.744 OA
ENDBRANCH  43  46
ENDBRANCH  25  39
BRANCH  26  50
ATOM     50  C   UNL A   1      40.795  27.923  29.157  1.00  0.00     0.023 A 
ATOM     51  C   UNL A   1      39.956  26.797  29.054  1.00  0.00     0.012 A 
ATOM     52  C   UNL A   1      41.680  28.221  28.102  1.00  0.00     0.148 A 
ATOM     53  C   UNL A   1      40.004  25.980  27.924  1.00  0.00     0.002 A 
ATOM     54  C   UNL A   1      41.675  27.442  26.953  1.00  0.00     0.091 A 
ATOM     55  F   UNL A   1      42.475  29.293  28.226  1.00  0.00    -0.205 F 
ATOM     56  C   UNL A   1      40.850  26.310  26.868  1.00  0.00     0.022 A 
BRANCH  54  57
ATOM     57  S   UNL A   1      42.609  27.879  25.482  1.00  0.00     0.127 S 
ATOM     58  O   UNL A   1      42.468  26.679  24.668  1.00  0.00    -0.237 OA
ATOM     59  O   UNL A   1      41.877  29.048  24.999  1.00  0.00    -0.237 OA
ATOM     60  O   UNL A   1      43.963  28.169  25.947  1.00  0.00    -0.744 OA
ENDBRANCH  54  57
ENDBRANCH  26  50
BRANCH  38  61
ATOM     61  C   UNL A   1      44.098  28.594  35.294  1.00  0.00     0.023 A 
ATOM     62  C   UNL A   1      45.421  28.965  34.989  1.00  0.00     0.012 A 
ATOM     63  C   UNL A   1      43.862  27.613  36.279  1.00  0.00     0.148 A 
ATOM     64  C   UNL A   1      46.494  28.358  35.639  1.00  0.00     0.002 A 
ATOM     65  C   UNL A   1      44.933  27.052  36.961  1.00  0.00     0.091 A 
ATOM     66  F   UNL A   1      42.594  27.262  36.538  1.00  0.00    -0.205 F 
ATOM     67  C   UNL A   1      46.250  27.415  36.636  1.00  0.00     0.022 A 
BRANCH  65  68
ATOM     68  S   UNL A   1      44.714  25.911  38.330  1.00  0.00     0.127 S 
ATOM     69  O   UNL A   1      43.584  26.510  39.039  1.00  0.00    -0.237 OA
ATOM     70  O   UNL A   1      44.407  24.657  37.642  1.00  0.00    -0.237 OA
ATOM     71  O   UNL A   1      45.975  25.911  39.061  1.00  0.00    -0.744 OA
ENDBRANCH  65  68
ENDBRANCH  38  61
ENDBRANCH  12  13
ENDBRANCH   5   7
ENDBRANCH   2   3
ENDBRANCH   1   2
BRANCH   1  72
ATOM     72  C   UNL A   1      31.593  30.682  25.898  1.00  0.00     0.117 C 
BRANCH  72  73
ATOM     73  N   UNL A   1      30.848  30.387  24.645  1.00  0.00    -0.356 N 
ATOM     74  C   UNL A   1      30.447  29.292  23.914  1.00  0.00     0.229 C 
ATOM     75  H   UNL A   1      30.556  31.221  24.211  1.00  0.00     0.163 HD
ATOM     76  O   UNL A   1      29.527  29.497  23.112  1.00  0.00    -0.275 OA
BRANCH  74  77
ATOM     77  C   UNL A   1      31.172  27.939  23.880  1.00  0.00     0.142 C 
ATOM     78  C   UNL A   1      31.153  27.090  22.572  1.00  0.00     0.276 C 
ATOM     79  C   UNL A   1      30.636  26.990  24.905  1.00  0.00     0.065 C 
ATOM     80  N   UNL A   1      30.705  25.709  22.916  1.00  0.00    -0.331 N 
ATOM     81  C   UNL A   1      29.896  25.962  24.072  1.00  0.00     0.267 C 
ATOM     82  H   UNL A   1      30.255  25.294  22.100  1.00  0.00     0.348 HD
BRANCH  79  83
ATOM     83  C   UNL A   1      31.631  26.640  25.973  1.00  0.00    -0.001 C 
ATOM     84  C   UNL A   1      32.969  27.309  26.235  1.00  0.00     0.004 C 
ATOM     85  C   UNL A   1      31.841  27.532  27.185  1.00  0.00     0.004 C 
ENDBRANCH  79  83
BRANCH  80  86
ATOM     86  C   UNL A   1      31.687  24.615  23.130  1.00  0.00     0.304 C 
BRANCH  86  87
ATOM     87  C   UNL A   1      33.167  24.571  22.529  1.00  0.00     0.290 C 
BRANCH  87  88
ATOM     88  O   UNL A   1      34.246  25.133  23.318  1.00  0.00    -0.488 OA
BRANCH  88  89
ATOM     89  C   UNL A   1      34.955  24.265  24.129  1.00  0.00     0.119 A 
ATOM     90  C   UNL A   1      35.701  23.295  23.440  1.00  0.00     0.049 A 
ATOM     91  C   UNL A   1      34.880  24.194  25.523  1.00  0.00     0.049 A 
ATOM     92  C   UNL A   1      36.130  22.136  24.091  1.00  0.00     0.043 A 
ATOM     93  C   UNL A   1      35.374  23.055  26.189  1.00  0.00     0.043 A 
ATOM     94  C   UNL A   1      35.932  22.010  25.458  1.00  0.00     0.123 A 
ATOM     95  F   UNL A   1      36.233  20.855  26.065  1.00  0.00    -0.207 F 
ENDBRANCH  88  89
ENDBRANCH  87  88
ENDBRANCH  86  87
ENDBRANCH  80  86
ENDBRANCH  74  77
ENDBRANCH  72  73
ENDBRANCH   1  72
TORSDOF 18
ENDMDL
MODEL 3
REMARK VINA RESULT:     -11.7      5.374     10.234
REMARK SMILES O=C(NCCCNC(=O)[C@@H]1C[N@@H+](CCOc2ccc(F)cc2)C[C@H]1C1CC1)c1ccc(-c2c3nc(c(-c4cccc(S(=O)(=O)[O-])c4F)c4ccc([nH]4)c(-c4cccc(S(=O)(=O)[O-])c4F)c4nc(c(-c5cccc(S(=O)(=O)[O-])c5F)c5ccc2[nH]5)C=C4)C=C3)cc1
REMARK SMILES IDX 5 1 4 2 3 3 1 4 2 5 28 7 29 8 90 9 30 10 89 11 31 12 32 13
REMARK SMILES IDX 33 14 83 15 34 16 88 17 82 18 84 19 35 20 87 21 81 22 80 23
REMARK SMILES IDX 36 25 68 26 48 27 67 28 49 29 52 30 66 31 85 32 50 33 51 34
REMARK SMILES IDX 65 36 86 37 53 38 37 39 38 40 46 41 39 42 41 43 47 44 40 45
REMARK SMILES IDX 42 46 43 47 44 48 45 49 69 50 70 51 78 52 71 53 73 54 79 55
REMARK SMILES IDX 72 56 74 57 75 58 76 59 77 60 54 61 55 62 63 63 56 64 58 65
REMARK SMILES IDX 64 66 57 67 59 68 60 69 61 70 62 71 6 72 7 73 8 74 9 76
REMARK SMILES IDX 10 77 11 78 24 79 12 80 23 81 25 83 26 84 27 85 13 86 14 87
REMARK SMILES IDX 15 88 16 89 17 90 22 91 18 92 21 93 19 94 20 95
REMARK H PARENT 3 6 84 24 52 35 7 75 12 82
REMARK Flexibility Score: inf
ROOT
ATOM      1  C   UNL A   1      32.149  28.173  26.012  1.00  0.00     0.042 C 
ENDROOT
BRANCH   1   2
ATOM      2  C   UNL A   1      32.889  29.310  25.328  1.00  0.00     0.118 C 
BRANCH   2   3
ATOM      3  N   UNL A   1      32.447  30.626  25.776  1.00  0.00    -0.352 N 
ATOM      4  O   UNL A   1      32.202  32.455  27.039  1.00  0.00    -0.269 OA
ATOM      5  C   UNL A   1      32.871  31.452  26.792  1.00  0.00     0.251 C 
ATOM      6  H   UNL A   1      31.701  30.995  25.249  1.00  0.00     0.163 HD
BRANCH   5   7
ATOM      7  C   UNL A   1      34.079  31.155  27.603  1.00  0.00     0.039 A 
ATOM      8  C   UNL A   1      34.352  29.875  28.073  1.00  0.00     0.014 A 
ATOM      9  C   UNL A   1      35.010  32.174  27.847  1.00  0.00     0.014 A 
ATOM     10  C   UNL A   1      35.412  29.650  28.938  1.00  0.00     0.010 A 
ATOM     11  C   UNL A   1      36.173  31.908  28.583  1.00  0.00     0.010 A 
ATOM     12  C   UNL A   1      36.375  30.645  29.156  1.00  0.00    -0.014 A 
BRANCH  12  13
ATOM     13  C   UNL A   1      37.633  30.279  29.861  1.00  0.00     0.031 A 
ATOM     14  C   UNL A   1      37.925  30.748  31.257  1.00  0.00     0.074 A 
ATOM     15  C   UNL A   1      38.520  29.493  29.213  1.00  0.00     0.049 A 
ATOM     16  N   UNL A   1      38.976  30.502  31.997  1.00  0.00    -0.248 NA
ATOM     17  C   UNL A   1      36.926  31.610  31.906  1.00  0.00     0.031 C 
ATOM     18  C   UNL A   1      38.363  29.008  27.837  1.00  0.00     0.029 A 
ATOM     19  N   UNL A   1      39.715  28.953  29.613  1.00  0.00    -0.354 N 
ATOM     20  C   UNL A   1      38.789  31.211  33.177  1.00  0.00     0.074 A 
ATOM     21  C   UNL A   1      37.524  31.903  33.055  1.00  0.00     0.031 C 
ATOM     22  C   UNL A   1      39.385  28.200  27.531  1.00  0.00     0.029 A 
ATOM     23  C   UNL A   1      40.319  28.181  28.646  1.00  0.00     0.049 A 
ATOM     24  H   UNL A   1      40.104  29.102  30.505  1.00  0.00     0.167 HD
ATOM     25  C   UNL A   1      39.596  31.269  34.264  1.00  0.00     0.034 A 
ATOM     26  C   UNL A   1      41.508  27.548  28.635  1.00  0.00     0.034 A 
ATOM     27  C   UNL A   1      40.837  30.551  34.385  1.00  0.00     0.049 A 
ATOM     28  C   UNL A   1      42.376  27.627  29.854  1.00  0.00     0.074 A 
ATOM     29  C   UNL A   1      41.695  30.501  35.470  1.00  0.00     0.029 A 
ATOM     30  N   UNL A   1      41.407  29.768  33.392  1.00  0.00    -0.354 N 
ATOM     31  N   UNL A   1      42.133  28.223  30.995  1.00  0.00    -0.248 NA
ATOM     32  C   UNL A   1      43.670  26.936  29.796  1.00  0.00     0.031 C 
ATOM     33  C   UNL A   1      42.799  29.720  35.119  1.00  0.00     0.029 A 
ATOM     34  C   UNL A   1      42.612  29.245  33.831  1.00  0.00     0.049 A 
ATOM     35  H   UNL A   1      41.012  29.609  32.503  1.00  0.00     0.167 HD
ATOM     36  C   UNL A   1      43.233  27.963  31.801  1.00  0.00     0.074 A 
ATOM     37  C   UNL A   1      44.133  27.136  31.023  1.00  0.00     0.031 C 
ATOM     38  C   UNL A   1      43.479  28.388  33.064  1.00  0.00     0.034 A 
BRANCH  25  39
ATOM     39  C   UNL A   1      39.157  32.114  35.433  1.00  0.00     0.023 A 
ATOM     40  C   UNL A   1      39.341  33.511  35.398  1.00  0.00     0.012 A 
ATOM     41  C   UNL A   1      38.470  31.537  36.522  1.00  0.00     0.148 A 
ATOM     42  C   UNL A   1      38.873  34.317  36.435  1.00  0.00     0.002 A 
ATOM     43  C   UNL A   1      37.964  32.352  37.529  1.00  0.00     0.091 A 
ATOM     44  F   UNL A   1      38.318  30.205  36.548  1.00  0.00    -0.205 F 
ATOM     45  C   UNL A   1      38.173  33.740  37.492  1.00  0.00     0.022 A 
BRANCH  43  46
ATOM     46  S   UNL A   1      36.973  31.718  38.887  1.00  0.00     0.127 S 
ATOM     47  O   UNL A   1      36.765  30.330  38.477  1.00  0.00    -0.237 OA
ATOM     48  O   UNL A   1      37.874  31.888  40.027  1.00  0.00    -0.237 OA
ATOM     49  O   UNL A   1      35.773  32.541  38.930  1.00  0.00    -0.744 OA
ENDBRANCH  43  46
ENDBRANCH  25  39
BRANCH  26  50
ATOM     50  C   UNL A   1      41.908  26.768  27.431  1.00  0.00     0.023 A 
ATOM     51  C   UNL A   1      42.609  27.408  26.391  1.00  0.00     0.012 A 
ATOM     52  C   UNL A   1      41.686  25.377  27.357  1.00  0.00     0.148 A 
ATOM     53  C   UNL A   1      43.072  26.678  25.296  1.00  0.00     0.002 A 
ATOM     54  C   UNL A   1      42.207  24.648  26.298  1.00  0.00     0.091 A 
ATOM     55  F   UNL A   1      41.009  24.791  28.355  1.00  0.00    -0.205 F 
ATOM     56  C   UNL A   1      42.886  25.298  25.257  1.00  0.00     0.022 A 
BRANCH  54  57
ATOM     57  S   UNL A   1      42.159  22.853  26.241  1.00  0.00     0.127 S 
ATOM     58  O   UNL A   1      42.505  22.586  24.851  1.00  0.00    -0.237 OA
ATOM     59  O   UNL A   1      43.186  22.495  27.218  1.00  0.00    -0.237 OA
ATOM     60  O   UNL A   1      40.802  22.483  26.635  1.00  0.00    -0.744 OA
ENDBRANCH  54  57
ENDBRANCH  26  50
BRANCH  38  61
ATOM     61  C   UNL A   1      44.766  27.950  33.713  1.00  0.00     0.023 A 
ATOM     62  C   UNL A   1      45.903  28.778  33.647  1.00  0.00     0.012 A 
ATOM     63  C   UNL A   1      44.811  26.768  34.479  1.00  0.00     0.148 A 
ATOM     64  C   UNL A   1      47.073  28.427  34.318  1.00  0.00     0.002 A 
ATOM     65  C   UNL A   1      45.962  26.452  35.189  1.00  0.00     0.091 A 
ATOM     66  F   UNL A   1      43.722  25.986  34.511  1.00  0.00    -0.205 F 
ATOM     67  C   UNL A   1      47.097  27.274  35.101  1.00  0.00     0.022 A 
BRANCH  65  68
ATOM     68  S   UNL A   1      46.053  25.050  36.307  1.00  0.00     0.127 S 
ATOM     69  O   UNL A   1      45.958  23.924  35.380  1.00  0.00    -0.237 OA
ATOM     70  O   UNL A   1      47.370  25.228  36.919  1.00  0.00    -0.237 OA
ATOM     71  O   UNL A   1      44.931  25.193  37.226  1.00  0.00    -0.744 OA
ENDBRANCH  65  68
ENDBRANCH  38  61
ENDBRANCH  12  13
ENDBRANCH   5   7
ENDBRANCH   2   3
ENDBRANCH   1   2
BRANCH   1  72
ATOM     72  C   UNL A   1      31.170  27.482  25.073  1.00  0.00     0.117 C 
BRANCH  72  73
ATOM     73  N   UNL A   1      30.289  26.465  25.706  1.00  0.00    -0.356 N 
ATOM     74  C   UNL A   1      30.328  25.131  26.046  1.00  0.00     0.229 C 
ATOM     75  H   UNL A   1      29.425  26.862  25.957  1.00  0.00     0.163 HD
ATOM     76  O   UNL A   1      29.498  24.774  26.892  1.00  0.00    -0.275 OA
BRANCH  74  77
ATOM     77  C   UNL A   1      31.159  24.060  25.325  1.00  0.00     0.142 C 
ATOM     78  C   UNL A   1      30.615  22.601  25.231  1.00  0.00     0.276 C 
ATOM     79  C   UNL A   1      32.504  23.878  25.953  1.00  0.00     0.065 C 
ATOM     80  N   UNL A   1      31.679  21.673  25.712  1.00  0.00    -0.331 N 
ATOM     81  C   UNL A   1      32.395  22.521  26.620  1.00  0.00     0.267 C 
ATOM     82  H   UNL A   1      31.240  20.833  26.090  1.00  0.00     0.348 HD
BRANCH  79  83
ATOM     83  C   UNL A   1      33.640  24.280  25.057  1.00  0.00    -0.001 C 
ATOM     84  C   UNL A   1      33.646  25.397  24.029  1.00  0.00     0.004 C 
ATOM     85  C   UNL A   1      34.421  25.562  25.292  1.00  0.00     0.004 C 
ENDBRANCH  79  83
BRANCH  80  86
ATOM     86  C   UNL A   1      32.573  20.970  24.757  1.00  0.00     0.304 C 
BRANCH  86  87
ATOM     87  C   UNL A   1      33.745  19.960  25.160  1.00  0.00     0.290 C 
BRANCH  87  88
ATOM     88  O   UNL A   1      35.081  20.224  24.661  1.00  0.00    -0.488 OA
BRANCH  88  89
ATOM     89  C   UNL A   1      35.663  21.427  25.017  1.00  0.00     0.119 A 
ATOM     90  C   UNL A   1      36.179  22.171  23.944  1.00  0.00     0.049 A 
ATOM     91  C   UNL A   1      35.892  21.876  26.321  1.00  0.00     0.049 A 
ATOM     92  C   UNL A   1      37.123  23.176  24.166  1.00  0.00     0.043 A 
ATOM     93  C   UNL A   1      36.793  22.936  26.544  1.00  0.00     0.043 A 
ATOM     94  C   UNL A   1      37.448  23.528  25.468  1.00  0.00     0.123 A 
ATOM     95  F   UNL A   1      38.436  24.405  25.687  1.00  0.00    -0.207 F 
ENDBRANCH  88  89
ENDBRANCH  87  88
ENDBRANCH  86  87
ENDBRANCH  80  86
ENDBRANCH  74  77
ENDBRANCH  72  73
ENDBRANCH   1  72
TORSDOF 18
ENDMDL
