MODEL 1
REMARK VINA RESULT:     -11.7      0.000      0.000
REMARK SMILES C[C@H](O)[C@H](NC(=O)N1CC[N@H+]2CCC[C@@H]2C1)C(=O)NCCCNC(=O)c1ccc(-c2c3nc(c(-c4cccc(S(=O)(=O)[O-])c4F)c4ccc([nH]4)c(-c4cccc(S(=O)(=O)[O-])c4F)c4nc(c(-c5cccc(S(=O)(=O)[O-])c5F)c5ccc2[nH]5)C=C4)C=C3)cc1
REMARK SMILES IDX 21 1 20 2 19 3 17 4 18 5 4 7 2 8 1 9 3 10 5 12 6 13 7 15
REMARK SMILES IDX 8 16 9 17 16 18 10 19 15 20 11 21 14 22 12 23 13 25 22 26
REMARK SMILES IDX 23 27 24 28 25 30 26 31 27 32 88 33 28 34 87 35 29 36 30 37
REMARK SMILES IDX 31 38 81 39 32 40 86 41 80 42 82 43 33 44 85 45 79 46 78 47
REMARK SMILES IDX 34 49 66 50 46 51 65 52 47 53 50 54 64 55 83 56 48 57 49 58
REMARK SMILES IDX 63 60 84 61 51 62 35 63 36 64 44 65 37 66 39 67 45 68 38 69
REMARK SMILES IDX 40 70 41 71 42 72 43 73 67 74 68 75 76 76 69 77 71 78 77 79
REMARK SMILES IDX 70 80 72 81 73 82 74 83 75 84 52 85 53 86 61 87 54 88 56 89
REMARK SMILES IDX 62 90 55 91 57 92 58 93 59 94 60 95
REMARK H PARENT 19 6 3 11 5 14 11 24 23 29 82 48 50 59
REMARK Flexibility Score: inf
ROOT
ATOM      1  C   UNL A   1      31.903  28.535  26.532  1.00  0.00     0.042 C 
ENDROOT
BRANCH   1   2
ATOM      2  C   UNL A   1      31.818  27.212  25.790  1.00  0.00     0.117 C 
BRANCH   2   3
ATOM      3  N   UNL A   1      30.575  27.058  25.039  1.00  0.00    -0.354 N 
ATOM      4  C   UNL A   1      30.372  27.267  23.697  1.00  0.00     0.245 C 
ATOM      5  O   UNL A   1      29.341  26.829  23.178  1.00  0.00    -0.273 OA
ATOM      6  H   UNL A   1      29.790  26.770  25.558  1.00  0.00     0.163 HD
BRANCH   4   7
ATOM      7  C   UNL A   1      31.430  28.018  22.864  1.00  0.00     0.201 C 
BRANCH   7   8
ATOM      8  C   UNL A   1      30.986  29.486  22.573  1.00  0.00     0.143 C 
ATOM      9  C   UNL A   1      29.892  29.927  23.542  1.00  0.00     0.041 C 
BRANCH   8  10
ATOM     10  O   UNL A   1      30.475  29.701  21.253  1.00  0.00    -0.391 OA
ATOM     11  H   UNL A   1      31.214  29.789  20.631  1.00  0.00     0.211 HD
ENDBRANCH   8  10
ENDBRANCH   7   8
BRANCH   7  12
ATOM     12  N   UNL A   1      31.737  27.121  21.730  1.00  0.00    -0.324 N 
ATOM     13  C   UNL A   1      32.410  25.962  21.624  1.00  0.00     0.318 C 
ATOM     14  H   UNL A   1      31.371  27.438  20.873  1.00  0.00     0.166 HD
ATOM     15  O   UNL A   1      32.906  25.691  20.533  1.00  0.00    -0.249 OA
BRANCH  13  16
ATOM     16  N   UNL A   1      32.599  25.195  22.733  1.00  0.00    -0.313 N 
ATOM     17  C   UNL A   1      31.749  24.029  23.015  1.00  0.00     0.183 C 
ATOM     18  C   UNL A   1      33.910  25.299  23.381  1.00  0.00     0.186 C 
ATOM     19  C   UNL A   1      31.953  23.332  24.389  1.00  0.00     0.284 C 
ATOM     20  C   UNL A   1      34.219  24.139  24.314  1.00  0.00     0.204 C 
ATOM     21  N   UNL A   1      33.065  23.858  25.176  1.00  0.00    -0.330 N 
ATOM     22  C   UNL A   1      35.288  24.429  25.350  1.00  0.00     0.073 C 
ATOM     23  C   UNL A   1      33.545  23.002  26.257  1.00  0.00     0.262 C 
ATOM     24  H   UNL A   1      32.674  24.696  25.605  1.00  0.00     0.348 HD
ATOM     25  C   UNL A   1      35.034  23.340  26.386  1.00  0.00     0.068 C 
ENDBRANCH  13  16
ENDBRANCH   7  12
ENDBRANCH   4   7
ENDBRANCH   2   3
ENDBRANCH   1   2
BRANCH   1  26
ATOM     26  C   UNL A   1      32.873  29.516  25.892  1.00  0.00     0.118 C 
BRANCH  26  27
ATOM     27  N   UNL A   1      32.639  30.894  26.313  1.00  0.00    -0.352 N 
ATOM     28  C   UNL A   1      33.316  31.657  27.236  1.00  0.00     0.251 C 
ATOM     29  H   UNL A   1      31.884  31.345  25.871  1.00  0.00     0.163 HD
ATOM     30  O   UNL A   1      32.867  32.740  27.584  1.00  0.00    -0.269 OA
BRANCH  28  31
ATOM     31  C   UNL A   1      34.577  31.149  27.817  1.00  0.00     0.039 A 
ATOM     32  C   UNL A   1      35.646  32.031  27.992  1.00  0.00     0.014 A 
ATOM     33  C   UNL A   1      34.698  29.812  28.202  1.00  0.00     0.014 A 
ATOM     34  C   UNL A   1      36.811  31.585  28.619  1.00  0.00     0.010 A 
ATOM     35  C   UNL A   1      35.819  29.396  28.909  1.00  0.00     0.010 A 
ATOM     36  C   UNL A   1      36.892  30.274  29.118  1.00  0.00    -0.014 A 
BRANCH  36  37
ATOM     37  C   UNL A   1      38.084  29.801  29.867  1.00  0.00     0.031 A 
ATOM     38  C   UNL A   1      38.372  30.336  31.244  1.00  0.00     0.074 A 
ATOM     39  C   UNL A   1      38.955  28.963  29.271  1.00  0.00     0.049 A 
ATOM     40  N   UNL A   1      39.392  30.093  32.025  1.00  0.00    -0.248 NA
ATOM     41  C   UNL A   1      37.403  31.293  31.806  1.00  0.00     0.031 C 
ATOM     42  C   UNL A   1      38.831  28.442  27.907  1.00  0.00     0.029 A 
ATOM     43  N   UNL A   1      40.132  28.424  29.725  1.00  0.00    -0.354 N 
ATOM     44  C   UNL A   1      39.211  30.893  33.147  1.00  0.00     0.074 A 
ATOM     45  C   UNL A   1      38.003  31.656  32.931  1.00  0.00     0.031 C 
ATOM     46  C   UNL A   1      39.884  27.655  27.638  1.00  0.00     0.029 A 
ATOM     47  C   UNL A   1      40.776  27.641  28.794  1.00  0.00     0.049 A 
ATOM     48  H   UNL A   1      40.483  28.582  30.630  1.00  0.00     0.167 HD
ATOM     49  C   UNL A   1      39.965  30.964  34.269  1.00  0.00     0.034 A 
ATOM     50  C   UNL A   1      41.956  26.993  28.860  1.00  0.00     0.034 A 
ATOM     51  C   UNL A   1      41.142  30.170  34.497  1.00  0.00     0.049 A 
ATOM     52  C   UNL A   1      42.752  27.057  30.135  1.00  0.00     0.074 A 
ATOM     53  C   UNL A   1      41.921  30.097  35.638  1.00  0.00     0.029 A 
ATOM     54  N   UNL A   1      41.716  29.321  33.565  1.00  0.00    -0.354 N 
ATOM     55  N   UNL A   1      42.479  27.691  31.249  1.00  0.00    -0.248 NA
ATOM     56  C   UNL A   1      44.004  26.288  30.175  1.00  0.00     0.031 C 
ATOM     57  C   UNL A   1      42.985  29.226  35.385  1.00  0.00     0.029 A 
ATOM     58  C   UNL A   1      42.848  28.728  34.099  1.00  0.00     0.049 A 
ATOM     59  H   UNL A   1      41.370  29.161  32.657  1.00  0.00     0.167 HD
ATOM     60  C   UNL A   1      43.501  27.368  32.133  1.00  0.00     0.074 A 
ATOM     61  C   UNL A   1      44.389  26.465  31.431  1.00  0.00     0.031 C 
ATOM     62  C   UNL A   1      43.694  27.791  33.407  1.00  0.00     0.034 A 
BRANCH  49  63
ATOM     63  C   UNL A   1      39.513  31.900  35.360  1.00  0.00     0.023 A 
ATOM     64  C   UNL A   1      38.598  31.447  36.334  1.00  0.00     0.012 A 
ATOM     65  C   UNL A   1      40.034  33.205  35.458  1.00  0.00     0.148 A 
ATOM     66  C   UNL A   1      38.180  32.288  37.364  1.00  0.00     0.002 A 
ATOM     67  C   UNL A   1      39.650  34.021  36.516  1.00  0.00     0.091 A 
ATOM     68  F   UNL A   1      40.887  33.626  34.513  1.00  0.00    -0.205 F 
ATOM     69  C   UNL A   1      38.715  33.570  37.461  1.00  0.00     0.022 A 
BRANCH  67  70
ATOM     70  S   UNL A   1      40.343  35.657  36.779  1.00  0.00     0.127 S 
ATOM     71  O   UNL A   1      41.761  35.425  36.505  1.00  0.00    -0.237 OA
ATOM     72  O   UNL A   1      39.650  36.451  35.763  1.00  0.00    -0.237 OA
ATOM     73  O   UNL A   1      40.023  36.015  38.153  1.00  0.00    -0.744 OA
ENDBRANCH  67  70
ENDBRANCH  49  63
BRANCH  50  74
ATOM     74  C   UNL A   1      42.424  26.177  27.704  1.00  0.00     0.023 A 
ATOM     75  C   UNL A   1      43.317  26.745  26.774  1.00  0.00     0.012 A 
ATOM     76  C   UNL A   1      42.012  24.842  27.534  1.00  0.00     0.148 A 
ATOM     77  C   UNL A   1      43.761  26.010  25.674  1.00  0.00     0.002 A 
ATOM     78  C   UNL A   1      42.503  24.097  26.467  1.00  0.00     0.091 A 
ATOM     79  F   UNL A   1      41.157  24.322  28.425  1.00  0.00    -0.205 F 
ATOM     80  C   UNL A   1      43.362  24.685  25.526  1.00  0.00     0.022 A 
BRANCH  78  81
ATOM     81  S   UNL A   1      42.146  22.348  26.264  1.00  0.00     0.127 S 
ATOM     82  O   UNL A   1      40.693  22.356  26.114  1.00  0.00    -0.237 OA
ATOM     83  O   UNL A   1      42.890  22.029  25.045  1.00  0.00    -0.237 OA
ATOM     84  O   UNL A   1      42.653  21.702  27.465  1.00  0.00    -0.744 OA
ENDBRANCH  78  81
ENDBRANCH  50  74
BRANCH  62  85
ATOM     85  C   UNL A   1      44.890  27.252  34.149  1.00  0.00     0.023 A 
ATOM     86  C   UNL A   1      46.111  27.954  34.120  1.00  0.00     0.012 A 
ATOM     87  C   UNL A   1      44.779  26.090  34.937  1.00  0.00     0.148 A 
ATOM     88  C   UNL A   1      47.213  27.487  34.836  1.00  0.00     0.002 A 
ATOM     89  C   UNL A   1      45.865  25.660  35.688  1.00  0.00     0.091 A 
ATOM     90  F   UNL A   1      43.613  25.427  34.938  1.00  0.00    -0.205 F 
ATOM     91  C   UNL A   1      47.086  26.349  35.629  1.00  0.00     0.022 A 
BRANCH  89  92
ATOM     92  S   UNL A   1      45.765  24.264  36.815  1.00  0.00     0.127 S 
ATOM     93  O   UNL A   1      47.082  24.298  37.450  1.00  0.00    -0.237 OA
ATOM     94  O   UNL A   1      44.657  24.651  37.690  1.00  0.00    -0.237 OA
ATOM     95  O   UNL A   1      45.502  23.095  35.987  1.00  0.00    -0.744 OA
ENDBRANCH  89  92
ENDBRANCH  62  85
ENDBRANCH  36  37
ENDBRANCH  28  31
ENDBRANCH  26  27
ENDBRANCH   1  26
TORSDOF 17
ENDMDL
MODEL 2
REMARK VINA RESULT:     -11.5      5.114     10.131
REMARK SMILES C[C@H](O)[C@H](NC(=O)N1CC[N@H+]2CCC[C@@H]2C1)C(=O)NCCCNC(=O)c1ccc(-c2c3nc(c(-c4cccc(S(=O)(=O)[O-])c4F)c4ccc([nH]4)c(-c4cccc(S(=O)(=O)[O-])c4F)c4nc(c(-c5cccc(S(=O)(=O)[O-])c5F)c5ccc2[nH]5)C=C4)C=C3)cc1
REMARK SMILES IDX 21 1 20 2 19 3 17 4 18 5 4 7 2 8 1 9 3 10 5 12 6 13 7 15
REMARK SMILES IDX 8 16 9 17 16 18 10 19 15 20 11 21 14 22 12 23 13 25 22 26
REMARK SMILES IDX 23 27 24 28 25 30 26 31 27 32 88 33 28 34 87 35 29 36 30 37
REMARK SMILES IDX 31 38 81 39 32 40 86 41 80 42 82 43 33 44 85 45 79 46 78 47
REMARK SMILES IDX 34 49 66 50 46 51 65 52 47 53 50 54 64 55 83 56 48 57 49 58
REMARK SMILES IDX 63 60 84 61 51 62 35 63 36 64 44 65 37 66 39 67 45 68 38 69
REMARK SMILES IDX 40 70 41 71 42 72 43 73 67 74 68 75 76 76 69 77 71 78 77 79
REMARK SMILES IDX 70 80 72 81 73 82 74 83 75 84 52 85 53 86 61 87 54 88 56 89
REMARK SMILES IDX 62 90 55 91 57 92 58 93 59 94 60 95
REMARK H PARENT 19 6 3 11 5 14 11 24 23 29 82 48 50 59
REMARK Flexibility Score: inf
ROOT
ATOM      1  C   UNL A   1      36.028  22.173  24.315  1.00  0.00     0.042 C 
ENDROOT
BRANCH   1   2
ATOM      2  C   UNL A   1      34.694  22.898  24.261  1.00  0.00     0.117 C 
BRANCH   2   3
ATOM      3  N   UNL A   1      33.668  22.150  23.541  1.00  0.00    -0.354 N 
ATOM      4  C   UNL A   1      32.312  22.370  23.538  1.00  0.00     0.245 C 
ATOM      5  O   UNL A   1      31.625  21.828  22.669  1.00  0.00    -0.273 OA
ATOM      6  H   UNL A   1      33.986  21.398  22.991  1.00  0.00     0.163 HD
BRANCH   4   7
ATOM      7  C   UNL A   1      31.679  23.297  24.596  1.00  0.00     0.201 C 
BRANCH   7   8
ATOM      8  C   UNL A   1      31.162  22.484  25.825  1.00  0.00     0.143 C 
ATOM      9  C   UNL A   1      31.811  22.974  27.116  1.00  0.00     0.041 C 
BRANCH   8  10
ATOM     10  O   UNL A   1      31.407  21.076  25.750  1.00  0.00    -0.391 OA
ATOM     11  H   UNL A   1      32.181  20.912  25.188  1.00  0.00     0.211 HD
ENDBRANCH   8  10
ENDBRANCH   7   8
BRANCH   7  12
ATOM     12  N   UNL A   1      30.733  24.150  23.846  1.00  0.00    -0.324 N 
ATOM     13  C   UNL A   1      30.465  25.467  23.862  1.00  0.00     0.318 C 
ATOM     14  H   UNL A   1      30.186  23.649  23.200  1.00  0.00     0.166 HD
ATOM     15  O   UNL A   1      29.345  25.822  23.502  1.00  0.00    -0.249 OA
BRANCH  13  16
ATOM     16  N   UNL A   1      31.391  26.333  24.360  1.00  0.00    -0.313 N 
ATOM     17  C   UNL A   1      32.531  26.788  23.551  1.00  0.00     0.183 C 
ATOM     18  C   UNL A   1      30.985  27.115  25.531  1.00  0.00     0.186 C 
ATOM     19  C   UNL A   1      33.606  27.642  24.279  1.00  0.00     0.284 C 
ATOM     20  C   UNL A   1      31.853  28.340  25.772  1.00  0.00     0.204 C 
ATOM     21  N   UNL A   1      33.273  27.989  25.658  1.00  0.00    -0.330 N 
ATOM     22  C   UNL A   1      31.803  28.882  27.187  1.00  0.00     0.073 C 
ATOM     23  C   UNL A   1      34.028  29.094  26.240  1.00  0.00     0.262 C 
ATOM     24  H   UNL A   1      33.518  27.147  26.178  1.00  0.00     0.348 HD
ATOM     25  C   UNL A   1      33.068  29.729  27.251  1.00  0.00     0.068 C 
ENDBRANCH  13  16
ENDBRANCH   7  12
ENDBRANCH   4   7
ENDBRANCH   2   3
ENDBRANCH   1   2
BRANCH   1  26
ATOM     26  C   UNL A   1      36.532  21.957  25.734  1.00  0.00     0.118 C 
BRANCH  26  27
ATOM     27  N   UNL A   1      37.591  20.956  25.810  1.00  0.00    -0.352 N 
ATOM     28  C   UNL A   1      38.932  21.114  26.066  1.00  0.00     0.251 C 
ATOM     29  H   UNL A   1      37.302  20.028  25.653  1.00  0.00     0.163 HD
ATOM     30  O   UNL A   1      39.701  20.174  25.917  1.00  0.00    -0.269 OA
BRANCH  28  31
ATOM     31  C   UNL A   1      39.440  22.433  26.502  1.00  0.00     0.039 A 
ATOM     32  C   UNL A   1      40.464  22.484  27.451  1.00  0.00     0.014 A 
ATOM     33  C   UNL A   1      38.918  23.611  25.966  1.00  0.00     0.014 A 
ATOM     34  C   UNL A   1      41.011  23.718  27.807  1.00  0.00     0.010 A 
ATOM     35  C   UNL A   1      39.527  24.828  26.250  1.00  0.00     0.010 A 
ATOM     36  C   UNL A   1      40.574  24.897  27.180  1.00  0.00    -0.014 A 
BRANCH  36  37
ATOM     37  C   UNL A   1      41.200  26.211  27.474  1.00  0.00     0.031 A 
ATOM     38  C   UNL A   1      42.609  26.494  27.026  1.00  0.00     0.074 A 
ATOM     39  C   UNL A   1      40.534  27.111  28.225  1.00  0.00     0.049 A 
ATOM     40  N   UNL A   1      43.344  27.553  27.244  1.00  0.00    -0.248 NA
ATOM     41  C   UNL A   1      43.292  25.438  26.260  1.00  0.00     0.031 C 
ATOM     42  C   UNL A   1      39.197  26.919  28.791  1.00  0.00     0.029 A 
ATOM     43  N   UNL A   1      40.904  28.358  28.665  1.00  0.00    -0.354 N 
ATOM     44  C   UNL A   1      44.584  27.276  26.680  1.00  0.00     0.074 A 
ATOM     45  C   UNL A   1      44.514  25.936  26.142  1.00  0.00     0.031 C 
ATOM     46  C   UNL A   1      38.856  28.009  29.495  1.00  0.00     0.029 A 
ATOM     47  C   UNL A   1      39.960  28.963  29.462  1.00  0.00     0.049 A 
ATOM     48  H   UNL A   1      41.762  28.778  28.431  1.00  0.00     0.167 HD
ATOM     49  C   UNL A   1      45.673  28.075  26.590  1.00  0.00     0.034 A 
ATOM     50  C   UNL A   1      39.986  30.148  30.103  1.00  0.00     0.034 A 
ATOM     51  C   UNL A   1      45.723  29.423  27.088  1.00  0.00     0.049 A 
ATOM     52  C   UNL A   1      41.193  31.033  29.952  1.00  0.00     0.074 A 
ATOM     53  C   UNL A   1      46.744  30.348  26.963  1.00  0.00     0.029 A 
ATOM     54  N   UNL A   1      44.715  30.035  27.815  1.00  0.00    -0.354 N 
ATOM     55  N   UNL A   1      42.295  30.819  29.274  1.00  0.00    -0.248 NA
ATOM     56  C   UNL A   1      41.148  32.339  30.625  1.00  0.00     0.031 C 
ATOM     57  C   UNL A   1      46.365  31.511  27.641  1.00  0.00     0.029 A 
ATOM     58  C   UNL A   1      45.094  31.322  28.158  1.00  0.00     0.049 A 
ATOM     59  H   UNL A   1      43.856  29.618  28.053  1.00  0.00     0.167 HD
ATOM     60  C   UNL A   1      43.055  31.975  29.407  1.00  0.00     0.074 A 
ATOM     61  C   UNL A   1      42.279  32.894  30.214  1.00  0.00     0.031 C 
ATOM     62  C   UNL A   1      44.290  32.245  28.917  1.00  0.00     0.034 A 
BRANCH  49  63
ATOM     63  C   UNL A   1      46.888  27.529  25.885  1.00  0.00     0.023 A 
ATOM     64  C   UNL A   1      47.772  26.675  26.577  1.00  0.00     0.012 A 
ATOM     65  C   UNL A   1      47.124  27.810  24.525  1.00  0.00     0.148 A 
ATOM     66  C   UNL A   1      48.892  26.142  25.940  1.00  0.00     0.002 A 
ATOM     67  C   UNL A   1      48.216  27.236  23.884  1.00  0.00     0.091 A 
ATOM     68  F   UNL A   1      46.285  28.640  23.888  1.00  0.00    -0.205 F 
ATOM     69  C   UNL A   1      49.106  26.412  24.592  1.00  0.00     0.022 A 
BRANCH  67  70
ATOM     70  S   UNL A   1      48.534  27.453  22.129  1.00  0.00     0.127 S 
ATOM     71  O   UNL A   1      47.353  28.206  21.706  1.00  0.00    -0.237 OA
ATOM     72  O   UNL A   1      49.777  28.226  22.137  1.00  0.00    -0.237 OA
ATOM     73  O   UNL A   1      48.653  26.114  21.571  1.00  0.00    -0.744 OA
ENDBRANCH  67  70
ENDBRANCH  49  63
BRANCH  50  74
ATOM     74  C   UNL A   1      38.805  30.593  30.896  1.00  0.00     0.023 A 
ATOM     75  C   UNL A   1      38.778  30.363  32.286  1.00  0.00     0.012 A 
ATOM     76  C   UNL A   1      37.723  31.260  30.289  1.00  0.00     0.148 A 
ATOM     77  C   UNL A   1      37.680  30.756  33.051  1.00  0.00     0.002 A 
ATOM     78  C   UNL A   1      36.657  31.698  31.067  1.00  0.00     0.091 A 
ATOM     79  F   UNL A   1      37.763  31.462  28.966  1.00  0.00    -0.205 F 
ATOM     80  C   UNL A   1      36.625  31.431  32.444  1.00  0.00     0.022 A 
BRANCH  78  81
ATOM     81  S   UNL A   1      35.314  32.685  30.397  1.00  0.00     0.127 S 
ATOM     82  O   UNL A   1      34.406  32.767  31.538  1.00  0.00    -0.237 OA
ATOM     83  O   UNL A   1      35.998  33.935  30.062  1.00  0.00    -0.237 OA
ATOM     84  O   UNL A   1      34.818  31.944  29.246  1.00  0.00    -0.744 OA
ENDBRANCH  78  81
ENDBRANCH  50  74
BRANCH  62  85
ATOM     85  C   UNL A   1      44.872  33.607  29.199  1.00  0.00     0.023 A 
ATOM     86  C   UNL A   1      45.630  33.821  30.367  1.00  0.00     0.012 A 
ATOM     87  C   UNL A   1      44.729  34.652  28.265  1.00  0.00     0.148 A 
ATOM     88  C   UNL A   1      46.207  35.065  30.618  1.00  0.00     0.002 A 
ATOM     89  C   UNL A   1      45.351  35.873  28.498  1.00  0.00     0.091 A 
ATOM     90  F   UNL A   1      43.990  34.434  27.168  1.00  0.00    -0.205 F 
ATOM     91  C   UNL A   1      46.078  36.085  29.679  1.00  0.00     0.022 A 
BRANCH  89  92
ATOM     92  S   UNL A   1      45.324  37.211  27.298  1.00  0.00     0.127 S 
ATOM     93  O   UNL A   1      46.208  36.693  26.255  1.00  0.00    -0.237 OA
ATOM     94  O   UNL A   1      43.910  37.266  26.927  1.00  0.00    -0.237 OA
ATOM     95  O   UNL A   1      45.812  38.391  27.999  1.00  0.00    -0.744 OA
ENDBRANCH  89  92
ENDBRANCH  62  85
ENDBRANCH  36  37
ENDBRANCH  28  31
ENDBRANCH  26  27
ENDBRANCH   1  26
TORSDOF 17
ENDMDL
MODEL 3
REMARK VINA RESULT:     -11.3      5.833      8.898
REMARK SMILES C[C@H](O)[C@H](NC(=O)N1CC[N@H+]2CCC[C@@H]2C1)C(=O)NCCCNC(=O)c1ccc(-c2c3nc(c(-c4cccc(S(=O)(=O)[O-])c4F)c4ccc([nH]4)c(-c4cccc(S(=O)(=O)[O-])c4F)c4nc(c(-c5cccc(S(=O)(=O)[O-])c5F)c5ccc2[nH]5)C=C4)C=C3)cc1
REMARK SMILES IDX 21 1 20 2 19 3 17 4 18 5 4 7 2 8 1 9 3 10 5 12 6 13 7 15
REMARK SMILES IDX 8 16 9 17 16 18 10 19 15 20 11 21 14 22 12 23 13 25 22 26
REMARK SMILES IDX 23 27 24 28 25 30 26 31 27 32 88 33 28 34 87 35 29 36 30 37
REMARK SMILES IDX 31 38 81 39 32 40 86 41 80 42 82 43 33 44 85 45 79 46 78 47
REMARK SMILES IDX 34 49 66 50 46 51 65 52 47 53 50 54 64 55 83 56 48 57 49 58
REMARK SMILES IDX 63 60 84 61 51 62 35 63 36 64 44 65 37 66 39 67 45 68 38 69
REMARK SMILES IDX 40 70 41 71 42 72 43 73 67 74 68 75 76 76 69 77 71 78 77 79
REMARK SMILES IDX 70 80 72 81 73 82 74 83 75 84 52 85 53 86 61 87 54 88 56 89
REMARK SMILES IDX 62 90 55 91 57 92 58 93 59 94 60 95
REMARK H PARENT 19 6 3 11 5 14 11 24 23 29 82 48 50 59
REMARK Flexibility Score: inf
ROOT
ATOM      1  C   UNL A   1      37.741  20.045  24.846  1.00  0.00     0.042 C 
ENDROOT
BRANCH   1   2
ATOM      2  C   UNL A   1      36.604  21.052  24.814  1.00  0.00     0.117 C 
BRANCH   2   3
ATOM      3  N   UNL A   1      36.191  21.486  26.145  1.00  0.00    -0.354 N 
ATOM      4  C   UNL A   1      35.021  22.113  26.499  1.00  0.00     0.245 C 
ATOM      5  O   UNL A   1      34.711  22.161  27.693  1.00  0.00    -0.273 OA
ATOM      6  H   UNL A   1      36.826  21.308  26.875  1.00  0.00     0.163 HD
BRANCH   4   7
ATOM      7  C   UNL A   1      34.112  22.723  25.412  1.00  0.00     0.201 C 
BRANCH   7   8
ATOM      8  C   UNL A   1      34.533  24.188  25.078  1.00  0.00     0.143 C 
ATOM      9  C   UNL A   1      34.345  24.486  23.593  1.00  0.00     0.041 C 
BRANCH   8  10
ATOM     10  O   UNL A   1      35.896  24.499  25.388  1.00  0.00    -0.391 OA
ATOM     11  H   UNL A   1      35.957  24.802  26.308  1.00  0.00     0.211 HD
ENDBRANCH   8  10
ENDBRANCH   7   8
BRANCH   7  12
ATOM     12  N   UNL A   1      32.732  22.457  25.869  1.00  0.00    -0.324 N 
ATOM     13  C   UNL A   1      31.779  21.593  25.477  1.00  0.00     0.318 C 
ATOM     14  H   UNL A   1      32.452  23.032  26.616  1.00  0.00     0.166 HD
ATOM     15  O   UNL A   1      30.610  21.900  25.695  1.00  0.00    -0.249 OA
BRANCH  13  16
ATOM     16  N   UNL A   1      32.133  20.479  24.778  1.00  0.00    -0.313 N 
ATOM     17  C   UNL A   1      32.180  20.476  23.309  1.00  0.00     0.183 C 
ATOM     18  C   UNL A   1      32.871  19.453  25.520  1.00  0.00     0.186 C 
ATOM     19  C   UNL A   1      32.435  19.106  22.621  1.00  0.00     0.284 C 
ATOM     20  C   UNL A   1      33.605  18.467  24.625  1.00  0.00     0.204 C 
ATOM     21  N   UNL A   1      32.725  18.010  23.543  1.00  0.00    -0.330 N 
ATOM     22  C   UNL A   1      33.952  17.148  25.289  1.00  0.00     0.073 C 
ATOM     23  C   UNL A   1      33.356  16.831  22.957  1.00  0.00     0.262 C 
ATOM     24  H   UNL A   1      31.802  17.729  23.871  1.00  0.00     0.348 HD
ATOM     25  C   UNL A   1      34.203  16.242  24.090  1.00  0.00     0.068 C 
ENDBRANCH  13  16
ENDBRANCH   7  12
ENDBRANCH   4   7
ENDBRANCH   2   3
ENDBRANCH   1   2
BRANCH   1  26
ATOM     26  C   UNL A   1      38.885  20.466  25.755  1.00  0.00     0.118 C 
BRANCH  26  27
ATOM     27  N   UNL A   1      39.879  19.412  25.935  1.00  0.00    -0.352 N 
ATOM     28  C   UNL A   1      41.232  19.510  26.161  1.00  0.00     0.251 C 
ATOM     29  H   UNL A   1      39.528  18.494  25.888  1.00  0.00     0.163 HD
ATOM     30  O   UNL A   1      41.935  18.511  26.114  1.00  0.00    -0.269 OA
BRANCH  28  31
ATOM     31  C   UNL A   1      41.830  20.833  26.441  1.00  0.00     0.039 A 
ATOM     32  C   UNL A   1      41.995  21.739  25.390  1.00  0.00     0.014 A 
ATOM     33  C   UNL A   1      42.213  21.183  27.737  1.00  0.00     0.014 A 
ATOM     34  C   UNL A   1      42.478  23.021  25.655  1.00  0.00     0.010 A 
ATOM     35  C   UNL A   1      42.603  22.488  28.013  1.00  0.00     0.010 A 
ATOM     36  C   UNL A   1      42.748  23.419  26.975  1.00  0.00    -0.014 A 
BRANCH  36  37
ATOM     37  C   UNL A   1      43.177  24.805  27.295  1.00  0.00     0.031 A 
ATOM     38  C   UNL A   1      42.204  25.775  27.908  1.00  0.00     0.074 A 
ATOM     39  C   UNL A   1      44.414  25.215  26.947  1.00  0.00     0.049 A 
ATOM     40  N   UNL A   1      42.373  27.038  28.198  1.00  0.00    -0.248 NA
ATOM     41  C   UNL A   1      40.853  25.268  28.207  1.00  0.00     0.031 C 
ATOM     42  C   UNL A   1      45.419  24.394  26.269  1.00  0.00     0.029 A 
ATOM     43  N   UNL A   1      45.025  26.435  27.090  1.00  0.00    -0.354 N 
ATOM     44  C   UNL A   1      41.146  27.487  28.673  1.00  0.00     0.074 A 
ATOM     45  C   UNL A   1      40.230  26.370  28.598  1.00  0.00     0.031 C 
ATOM     46  C   UNL A   1      46.523  25.129  26.062  1.00  0.00     0.029 A 
ATOM     47  C   UNL A   1      46.293  26.483  26.559  1.00  0.00     0.049 A 
ATOM     48  H   UNL A   1      44.597  27.203  27.531  1.00  0.00     0.167 HD
ATOM     49  C   UNL A   1      40.818  28.708  29.156  1.00  0.00     0.034 A 
ATOM     50  C   UNL A   1      47.169  27.503  26.473  1.00  0.00     0.034 A 
ATOM     51  C   UNL A   1      41.744  29.802  29.269  1.00  0.00     0.049 A 
ATOM     52  C   UNL A   1      46.792  28.838  27.055  1.00  0.00     0.074 A 
ATOM     53  C   UNL A   1      41.537  31.048  29.833  1.00  0.00     0.029 A 
ATOM     54  N   UNL A   1      43.048  29.786  28.801  1.00  0.00    -0.354 N 
ATOM     55  N   UNL A   1      45.681  29.196  27.651  1.00  0.00    -0.248 NA
ATOM     56  C   UNL A   1      47.804  29.902  26.985  1.00  0.00     0.031 C 
ATOM     57  C   UNL A   1      42.708  31.797  29.678  1.00  0.00     0.029 A 
ATOM     58  C   UNL A   1      43.655  31.005  29.050  1.00  0.00     0.049 A 
ATOM     59  H   UNL A   1      43.480  29.021  28.357  1.00  0.00     0.167 HD
ATOM     60  C   UNL A   1      45.872  30.510  28.059  1.00  0.00     0.074 A 
ATOM     61  C   UNL A   1      47.215  30.879  27.661  1.00  0.00     0.031 C 
ATOM     62  C   UNL A   1      45.010  31.341  28.695  1.00  0.00     0.034 A 
BRANCH  49  63
ATOM     63  C   UNL A   1      39.407  28.913  29.646  1.00  0.00     0.023 A 
ATOM     64  C   UNL A   1      39.054  28.502  30.948  1.00  0.00     0.012 A 
ATOM     65  C   UNL A   1      38.450  29.563  28.844  1.00  0.00     0.148 A 
ATOM     66  C   UNL A   1      37.761  28.700  31.430  1.00  0.00     0.002 A 
ATOM     67  C   UNL A   1      37.176  29.800  29.349  1.00  0.00     0.091 A 
ATOM     68  F   UNL A   1      38.796  29.928  27.601  1.00  0.00    -0.205 F 
ATOM     69  C   UNL A   1      36.827  29.358  30.636  1.00  0.00     0.022 A 
BRANCH  67  70
ATOM     70  S   UNL A   1      35.926  30.713  28.439  1.00  0.00     0.127 S 
ATOM     71  O   UNL A   1      35.425  29.692  27.520  1.00  0.00    -0.237 OA
ATOM     72  O   UNL A   1      34.989  31.090  29.499  1.00  0.00    -0.237 OA
ATOM     73  O   UNL A   1      36.618  31.831  27.814  1.00  0.00    -0.744 OA
ENDBRANCH  67  70
ENDBRANCH  49  63
BRANCH  50  74
ATOM     74  C   UNL A   1      48.512  27.285  25.864  1.00  0.00     0.023 A 
ATOM     75  C   UNL A   1      49.570  26.823  26.672  1.00  0.00     0.012 A 
ATOM     76  C   UNL A   1      48.740  27.507  24.493  1.00  0.00     0.148 A 
ATOM     77  C   UNL A   1      50.842  26.623  26.133  1.00  0.00     0.002 A 
ATOM     78  C   UNL A   1      49.996  27.253  23.951  1.00  0.00     0.091 A 
ATOM     79  F   UNL A   1      47.723  27.953  23.743  1.00  0.00    -0.205 F 
ATOM     80  C   UNL A   1      51.051  26.829  24.772  1.00  0.00     0.022 A 
BRANCH  78  81
ATOM     81  S   UNL A   1      50.328  27.367  22.189  1.00  0.00     0.127 S 
ATOM     82  O   UNL A   1      51.717  26.922  22.119  1.00  0.00    -0.237 OA
ATOM     83  O   UNL A   1      49.351  26.426  21.638  1.00  0.00    -0.237 OA
ATOM     84  O   UNL A   1      50.090  28.758  21.833  1.00  0.00    -0.744 OA
ENDBRANCH  78  81
ENDBRANCH  50  74
BRANCH  62  85
ATOM     85  C   UNL A   1      45.499  32.724  29.043  1.00  0.00     0.023 A 
ATOM     86  C   UNL A   1      46.142  32.953  30.275  1.00  0.00     0.012 A 
ATOM     87  C   UNL A   1      45.388  33.777  28.114  1.00  0.00     0.148 A 
ATOM     88  C   UNL A   1      46.635  34.219  30.591  1.00  0.00     0.002 A 
ATOM     89  C   UNL A   1      45.927  35.021  28.415  1.00  0.00     0.091 A 
ATOM     90  F   UNL A   1      44.757  33.543  26.954  1.00  0.00    -0.205 F 
ATOM     91  C   UNL A   1      46.539  35.247  29.658  1.00  0.00     0.022 A 
BRANCH  89  92
ATOM     92  S   UNL A   1      45.940  36.376  27.235  1.00  0.00     0.127 S 
ATOM     93  O   UNL A   1      44.511  36.628  27.055  1.00  0.00    -0.237 OA
ATOM     94  O   UNL A   1      46.655  37.420  27.970  1.00  0.00    -0.237 OA
ATOM     95  O   UNL A   1      46.638  35.878  26.057  1.00  0.00    -0.744 OA
ENDBRANCH  89  92
ENDBRANCH  62  85
ENDBRANCH  36  37
ENDBRANCH  28  31
ENDBRANCH  26  27
ENDBRANCH   1  26
TORSDOF 17
ENDMDL
