MODEL 1
REMARK VINA RESULT:     -11.5      0.000      0.000
REMARK SMILES CC(=O)Oc1ccccc1C(=O)NCCCNC(=O)c1ccc(-c2c3nc(c(-c4cccc(S(=O)(=O)[O-])c4F)c4ccc([nH]4)c(-c4cccc(S(=O)(=O)[O-])c4F)c4nc(c(-c5cccc(S(=O)(=O)[O-])c5F)c5ccc2[nH]5)C=C4)C=C3)cc1
REMARK SMILES IDX 15 1 14 2 13 3 11 4 12 5 10 7 5 8 6 9 7 10 9 11 8 12 4 13
REMARK SMILES IDX 2 14 1 15 3 16 16 17 17 18 18 19 19 21 20 22 21 23 82 24
REMARK SMILES IDX 22 25 81 26 23 27 24 28 25 29 75 30 26 31 80 32 74 33 76 34
REMARK SMILES IDX 27 35 79 36 73 37 72 38 28 40 60 41 40 42 59 43 41 44 44 45
REMARK SMILES IDX 58 46 77 47 42 48 43 49 57 51 78 52 45 53 29 54 30 55 38 56
REMARK SMILES IDX 31 57 33 58 39 59 32 60 34 61 35 62 36 63 37 64 61 65 62 66
REMARK SMILES IDX 70 67 63 68 65 69 71 70 64 71 66 72 67 73 68 74 69 75 46 76
REMARK SMILES IDX 47 77 55 78 48 79 50 80 56 81 49 82 51 83 52 84 53 85 54 86
REMARK H PARENT 13 6 17 20 76 39 44 50
REMARK Flexibility Score: inf
ROOT
ATOM      1  C   UNL A   1      35.601  21.970  26.015  1.00  0.00     0.042 C 
ENDROOT
BRANCH   1   2
ATOM      2  C   UNL A   1      34.716  23.189  25.921  1.00  0.00     0.118 C 
BRANCH   2   3
ATOM      3  N   UNL A   1      34.529  23.759  24.611  1.00  0.00    -0.352 N 
ATOM      4  C   UNL A   1      33.917  24.941  24.269  1.00  0.00     0.255 C 
ATOM      5  O   UNL A   1      33.967  25.287  23.086  1.00  0.00    -0.269 OA
ATOM      6  H   UNL A   1      34.887  23.231  23.861  1.00  0.00     0.163 HD
BRANCH   4   7
ATOM      7  C   UNL A   1      33.099  25.749  25.221  1.00  0.00     0.082 A 
ATOM      8  C   UNL A   1      31.746  25.598  25.561  1.00  0.00     0.143 A 
ATOM      9  C   UNL A   1      31.107  26.526  26.396  1.00  0.00     0.048 A 
ATOM     10  C   UNL A   1      31.819  27.589  26.948  1.00  0.00     0.004 A 
ATOM     11  C   UNL A   1      33.806  26.812  25.821  1.00  0.00     0.018 A 
ATOM     12  C   UNL A   1      33.174  27.725  26.672  1.00  0.00     0.001 A 
BRANCH   8  13
ATOM     13  O   UNL A   1      30.869  24.647  25.012  1.00  0.00    -0.426 OA
BRANCH  13  14
ATOM     14  C   UNL A   1      31.012  23.305  25.347  1.00  0.00     0.308 C 
ATOM     15  C   UNL A   1      30.407  23.085  26.711  1.00  0.00     0.139 C 
ATOM     16  O   UNL A   1      31.553  22.442  24.668  1.00  0.00    -0.252 OA
ENDBRANCH  13  14
ENDBRANCH   8  13
ENDBRANCH   4   7
ENDBRANCH   2   3
ENDBRANCH   1   2
BRANCH   1  17
ATOM     17  C   UNL A   1      36.705  21.903  24.970  1.00  0.00     0.118 C 
BRANCH  17  18
ATOM     18  N   UNL A   1      37.687  20.834  25.174  1.00  0.00    -0.352 N 
ATOM     19  C   UNL A   1      38.928  20.818  25.777  1.00  0.00     0.251 C 
ATOM     20  H   UNL A   1      37.410  19.963  24.810  1.00  0.00     0.163 HD
ATOM     21  O   UNL A   1      39.609  19.795  25.722  1.00  0.00    -0.269 OA
BRANCH  19  22
ATOM     22  C   UNL A   1      39.464  22.024  26.447  1.00  0.00     0.039 A 
ATOM     23  C   UNL A   1      40.471  21.898  27.411  1.00  0.00     0.014 A 
ATOM     24  C   UNL A   1      39.000  23.289  26.107  1.00  0.00     0.014 A 
ATOM     25  C   UNL A   1      41.097  23.043  27.918  1.00  0.00     0.010 A 
ATOM     26  C   UNL A   1      39.723  24.410  26.485  1.00  0.00     0.010 A 
ATOM     27  C   UNL A   1      40.779  24.307  27.402  1.00  0.00    -0.014 A 
BRANCH  27  28
ATOM     28  C   UNL A   1      41.501  25.553  27.779  1.00  0.00     0.031 A 
ATOM     29  C   UNL A   1      40.767  26.632  28.537  1.00  0.00     0.074 A 
ATOM     30  C   UNL A   1      42.745  25.785  27.311  1.00  0.00     0.049 A 
ATOM     31  N   UNL A   1      41.115  27.873  28.756  1.00  0.00    -0.248 NA
ATOM     32  C   UNL A   1      39.436  26.285  29.067  1.00  0.00     0.031 C 
ATOM     33  C   UNL A   1      43.540  24.857  26.500  1.00  0.00     0.029 A 
ATOM     34  N   UNL A   1      43.547  26.896  27.413  1.00  0.00    -0.354 N 
ATOM     35  C   UNL A   1      40.024  28.466  29.384  1.00  0.00     0.074 A 
ATOM     36  C   UNL A   1      38.987  27.464  29.470  1.00  0.00     0.031 C 
ATOM     37  C   UNL A   1      44.710  25.434  26.185  1.00  0.00     0.029 A 
ATOM     38  C   UNL A   1      44.736  26.788  26.725  1.00  0.00     0.049 A 
ATOM     39  H   UNL A   1      43.296  27.696  27.931  1.00  0.00     0.167 HD
ATOM     40  C   UNL A   1      39.906  29.720  29.879  1.00  0.00     0.034 A 
ATOM     41  C   UNL A   1      45.724  27.685  26.533  1.00  0.00     0.034 A 
ATOM     42  C   UNL A   1      40.970  30.685  29.864  1.00  0.00     0.049 A 
ATOM     43  C   UNL A   1      45.595  29.052  27.150  1.00  0.00     0.074 A 
ATOM     44  C   UNL A   1      40.991  31.950  30.423  1.00  0.00     0.029 A 
ATOM     45  N   UNL A   1      42.205  30.488  29.268  1.00  0.00    -0.354 N 
ATOM     46  N   UNL A   1      44.605  29.551  27.851  1.00  0.00    -0.248 NA
ATOM     47  C   UNL A   1      46.731  29.971  26.981  1.00  0.00     0.031 C 
ATOM     48  C   UNL A   1      42.236  32.524  30.151  1.00  0.00     0.029 A 
ATOM     49  C   UNL A   1      42.999  31.603  29.451  1.00  0.00     0.049 A 
ATOM     50  H   UNL A   1      42.476  29.673  28.786  1.00  0.00     0.167 HD
ATOM     51  C   UNL A   1      45.019  30.816  28.249  1.00  0.00     0.074 A 
ATOM     52  C   UNL A   1      46.353  31.006  27.719  1.00  0.00     0.031 C 
ATOM     53  C   UNL A   1      44.353  31.741  28.982  1.00  0.00     0.034 A 
BRANCH  40  54
ATOM     54  C   UNL A   1      38.605  30.099  30.539  1.00  0.00     0.023 A 
ATOM     55  C   UNL A   1      38.379  29.748  31.886  1.00  0.00     0.012 A 
ATOM     56  C   UNL A   1      37.634  30.852  29.851  1.00  0.00     0.148 A 
ATOM     57  C   UNL A   1      37.192  30.103  32.526  1.00  0.00     0.002 A 
ATOM     58  C   UNL A   1      36.476  31.247  30.511  1.00  0.00     0.091 A 
ATOM     59  F   UNL A   1      37.857  31.161  28.566  1.00  0.00    -0.205 F 
ATOM     60  C   UNL A   1      36.247  30.861  31.842  1.00  0.00     0.022 A 
BRANCH  58  61
ATOM     61  S   UNL A   1      35.234  32.299  29.750  1.00  0.00     0.127 S 
ATOM     62  O   UNL A   1      34.373  32.610  30.889  1.00  0.00    -0.237 OA
ATOM     63  O   UNL A   1      36.038  33.421  29.267  1.00  0.00    -0.237 OA
ATOM     64  O   UNL A   1      34.616  31.498  28.702  1.00  0.00    -0.744 OA
ENDBRANCH  58  61
ENDBRANCH  40  54
BRANCH  41  65
ATOM     65  C   UNL A   1      46.954  27.301  25.781  1.00  0.00     0.023 A 
ATOM     66  C   UNL A   1      47.962  26.569  26.441  1.00  0.00     0.012 A 
ATOM     67  C   UNL A   1      47.131  27.641  24.426  1.00  0.00     0.148 A 
ATOM     68  C   UNL A   1      49.140  26.221  25.779  1.00  0.00     0.002 A 
ATOM     69  C   UNL A   1      48.283  27.242  23.757  1.00  0.00     0.091 A 
ATOM     70  F   UNL A   1      46.167  28.344  23.817  1.00  0.00    -0.205 F 
ATOM     71  C   UNL A   1      49.297  26.549  24.435  1.00  0.00     0.022 A 
BRANCH  69  72
ATOM     72  S   UNL A   1      48.514  27.505  21.994  1.00  0.00     0.127 S 
ATOM     73  O   UNL A   1      47.232  28.088  21.608  1.00  0.00    -0.237 OA
ATOM     74  O   UNL A   1      49.645  28.434  21.972  1.00  0.00    -0.237 OA
ATOM     75  O   UNL A   1      48.808  26.191  21.438  1.00  0.00    -0.744 OA
ENDBRANCH  69  72
ENDBRANCH  41  65
BRANCH  53  76
ATOM     76  C   UNL A   1      45.071  33.016  29.331  1.00  0.00     0.023 A 
ATOM     77  C   UNL A   1      45.877  33.084  30.483  1.00  0.00     0.012 A 
ATOM     78  C   UNL A   1      45.026  34.114  28.447  1.00  0.00     0.148 A 
ATOM     79  C   UNL A   1      46.611  34.236  30.763  1.00  0.00     0.002 A 
ATOM     80  C   UNL A   1      45.800  35.237  28.706  1.00  0.00     0.091 A 
ATOM     81  F   UNL A   1      44.239  34.032  27.365  1.00  0.00    -0.205 F 
ATOM     82  C   UNL A   1      46.584  35.305  29.868  1.00  0.00     0.022 A 
BRANCH  80  83
ATOM     83  S   UNL A   1      45.910  36.615  27.559  1.00  0.00     0.127 S 
ATOM     84  O   UNL A   1      46.896  37.471  28.217  1.00  0.00    -0.237 OA
ATOM     85  O   UNL A   1      46.385  35.964  26.339  1.00  0.00    -0.237 OA
ATOM     86  O   UNL A   1      44.567  37.171  27.466  1.00  0.00    -0.744 OA
ENDBRANCH  80  83
ENDBRANCH  53  76
ENDBRANCH  27  28
ENDBRANCH  19  22
ENDBRANCH  17  18
ENDBRANCH   1  17
TORSDOF 15
ENDMDL
MODEL 2
REMARK VINA RESULT:     -11.4      5.398     10.380
REMARK SMILES CC(=O)Oc1ccccc1C(=O)NCCCNC(=O)c1ccc(-c2c3nc(c(-c4cccc(S(=O)(=O)[O-])c4F)c4ccc([nH]4)c(-c4cccc(S(=O)(=O)[O-])c4F)c4nc(c(-c5cccc(S(=O)(=O)[O-])c5F)c5ccc2[nH]5)C=C4)C=C3)cc1
REMARK SMILES IDX 15 1 14 2 13 3 11 4 12 5 10 7 5 8 6 9 7 10 9 11 8 12 4 13
REMARK SMILES IDX 2 14 1 15 3 16 16 17 17 18 18 19 19 21 20 22 21 23 82 24
REMARK SMILES IDX 22 25 81 26 23 27 24 28 25 29 75 30 26 31 80 32 74 33 76 34
REMARK SMILES IDX 27 35 79 36 73 37 72 38 28 40 60 41 40 42 59 43 41 44 44 45
REMARK SMILES IDX 58 46 77 47 42 48 43 49 57 51 78 52 45 53 29 54 30 55 38 56
REMARK SMILES IDX 31 57 33 58 39 59 32 60 34 61 35 62 36 63 37 64 61 65 62 66
REMARK SMILES IDX 70 67 63 68 65 69 71 70 64 71 66 72 67 73 68 74 69 75 46 76
REMARK SMILES IDX 47 77 55 78 48 79 50 80 56 81 49 82 51 83 52 84 53 85 54 86
REMARK H PARENT 13 6 17 20 76 39 44 50
REMARK Flexibility Score: inf
ROOT
ATOM      1  C   UNL A   1      31.824  28.597  26.482  1.00  0.00     0.042 C 
ENDROOT
BRANCH   1   2
ATOM      2  C   UNL A   1      32.435  27.227  26.316  1.00  0.00     0.118 C 
BRANCH   2   3
ATOM      3  N   UNL A   1      31.529  26.135  26.065  1.00  0.00    -0.352 N 
ATOM      4  C   UNL A   1      31.816  24.867  25.619  1.00  0.00     0.255 C 
ATOM      5  O   UNL A   1      30.890  24.054  25.579  1.00  0.00    -0.269 OA
ATOM      6  H   UNL A   1      30.578  26.322  26.237  1.00  0.00     0.163 HD
BRANCH   4   7
ATOM      7  C   UNL A   1      33.146  24.470  25.068  1.00  0.00     0.082 A 
ATOM      8  C   UNL A   1      33.536  24.345  23.727  1.00  0.00     0.143 A 
ATOM      9  C   UNL A   1      34.804  23.847  23.391  1.00  0.00     0.048 A 
ATOM     10  C   UNL A   1      35.721  23.518  24.386  1.00  0.00     0.004 A 
ATOM     11  C   UNL A   1      34.105  24.165  26.056  1.00  0.00     0.018 A 
ATOM     12  C   UNL A   1      35.377  23.690  25.721  1.00  0.00     0.001 A 
BRANCH   8  13
ATOM     13  O   UNL A   1      32.701  24.536  22.613  1.00  0.00    -0.426 OA
BRANCH  13  14
ATOM     14  C   UNL A   1      32.692  25.764  21.961  1.00  0.00     0.308 C 
ATOM     15  C   UNL A   1      31.416  26.485  22.316  1.00  0.00     0.139 C 
ATOM     16  O   UNL A   1      33.558  26.191  21.208  1.00  0.00    -0.252 OA
ENDBRANCH  13  14
ENDBRANCH   8  13
ENDBRANCH   4   7
ENDBRANCH   2   3
ENDBRANCH   1   2
BRANCH   1  17
ATOM     17  C   UNL A   1      32.642  29.735  25.891  1.00  0.00     0.118 C 
BRANCH  17  18
ATOM     18  N   UNL A   1      32.336  31.064  26.432  1.00  0.00    -0.352 N 
ATOM     19  C   UNL A   1      33.047  31.916  27.251  1.00  0.00     0.251 C 
ATOM     20  H   UNL A   1      31.457  31.412  26.160  1.00  0.00     0.163 HD
ATOM     21  O   UNL A   1      32.511  32.949  27.651  1.00  0.00    -0.269 OA
BRANCH  19  22
ATOM     22  C   UNL A   1      34.421  31.584  27.687  1.00  0.00     0.039 A 
ATOM     23  C   UNL A   1      35.387  32.593  27.784  1.00  0.00     0.014 A 
ATOM     24  C   UNL A   1      34.759  30.281  28.034  1.00  0.00     0.014 A 
ATOM     25  C   UNL A   1      36.632  32.312  28.359  1.00  0.00     0.010 A 
ATOM     26  C   UNL A   1      35.924  30.040  28.745  1.00  0.00     0.010 A 
ATOM     27  C   UNL A   1      36.884  31.048  28.914  1.00  0.00    -0.014 A 
BRANCH  27  28
ATOM     28  C   UNL A   1      38.122  30.717  29.672  1.00  0.00     0.031 A 
ATOM     29  C   UNL A   1      39.114  29.748  29.078  1.00  0.00     0.074 A 
ATOM     30  C   UNL A   1      38.277  31.150  30.940  1.00  0.00     0.049 A 
ATOM     31  N   UNL A   1      40.120  29.138  29.649  1.00  0.00    -0.248 NA
ATOM     32  C   UNL A   1      38.910  29.365  27.669  1.00  0.00     0.031 C 
ATOM     33  C   UNL A   1      37.353  32.030  31.662  1.00  0.00     0.029 A 
ATOM     34  N   UNL A   1      39.253  30.871  31.867  1.00  0.00    -0.354 N 
ATOM     35  C   UNL A   1      40.620  28.259  28.695  1.00  0.00     0.074 A 
ATOM     36  C   UNL A   1      39.781  28.378  27.525  1.00  0.00     0.031 C 
ATOM     37  C   UNL A   1      37.807  32.221  32.911  1.00  0.00     0.029 A 
ATOM     38  C   UNL A   1      39.025  31.442  33.101  1.00  0.00     0.049 A 
ATOM     39  H   UNL A   1      40.042  30.317  31.669  1.00  0.00     0.167 HD
ATOM     40  C   UNL A   1      41.702  27.449  28.769  1.00  0.00     0.034 A 
ATOM     41  C   UNL A   1      39.708  31.333  34.257  1.00  0.00     0.034 A 
ATOM     42  C   UNL A   1      42.581  27.396  29.904  1.00  0.00     0.049 A 
ATOM     43  C   UNL A   1      40.946  30.476  34.293  1.00  0.00     0.074 A 
ATOM     44  C   UNL A   1      43.759  26.686  30.047  1.00  0.00     0.029 A 
ATOM     45  N   UNL A   1      42.383  28.091  31.087  1.00  0.00    -0.354 N 
ATOM     46  N   UNL A   1      41.474  29.750  33.338  1.00  0.00    -0.248 NA
ATOM     47  C   UNL A   1      41.703  30.449  35.554  1.00  0.00     0.031 C 
ATOM     48  C   UNL A   1      44.265  26.938  31.325  1.00  0.00     0.029 A 
ATOM     49  C   UNL A   1      43.419  27.831  31.963  1.00  0.00     0.049 A 
ATOM     50  H   UNL A   1      41.617  28.680  31.274  1.00  0.00     0.167 HD
ATOM     51  C   UNL A   1      42.648  29.224  33.863  1.00  0.00     0.074 A 
ATOM     52  C   UNL A   1      42.760  29.721  35.219  1.00  0.00     0.031 C 
ATOM     53  C   UNL A   1      43.550  28.398  33.280  1.00  0.00     0.034 A 
BRANCH  40  54
ATOM     54  C   UNL A   1      42.038  26.607  27.565  1.00  0.00     0.023 A 
ATOM     55  C   UNL A   1      42.711  27.190  26.471  1.00  0.00     0.012 A 
ATOM     56  C   UNL A   1      41.744  25.230  27.538  1.00  0.00     0.148 A 
ATOM     57  C   UNL A   1      43.049  26.428  25.354  1.00  0.00     0.002 A 
ATOM     58  C   UNL A   1      42.130  24.465  26.443  1.00  0.00     0.091 A 
ATOM     59  F   UNL A   1      41.087  24.695  28.578  1.00  0.00    -0.205 F 
ATOM     60  C   UNL A   1      42.769  25.065  25.345  1.00  0.00     0.022 A 
BRANCH  58  61
ATOM     61  S   UNL A   1      41.896  22.686  26.368  1.00  0.00     0.127 S 
ATOM     62  O   UNL A   1      42.536  22.357  25.096  1.00  0.00    -0.237 OA
ATOM     63  O   UNL A   1      42.623  22.231  27.553  1.00  0.00    -0.237 OA
ATOM     64  O   UNL A   1      40.457  22.467  26.416  1.00  0.00    -0.744 OA
ENDBRANCH  58  61
ENDBRANCH  40  54
BRANCH  41  65
ATOM     65  C   UNL A   1      39.281  32.105  35.461  1.00  0.00     0.023 A 
ATOM     66  C   UNL A   1      39.612  33.473  35.552  1.00  0.00     0.012 A 
ATOM     67  C   UNL A   1      38.547  31.508  36.503  1.00  0.00     0.148 A 
ATOM     68  C   UNL A   1      39.258  34.219  36.676  1.00  0.00     0.002 A 
ATOM     69  C   UNL A   1      38.149  32.272  37.595  1.00  0.00     0.091 A 
ATOM     70  F   UNL A   1      38.249  30.206  36.404  1.00  0.00    -0.205 F 
ATOM     71  C   UNL A   1      38.518  33.621  37.693  1.00  0.00     0.022 A 
BRANCH  69  72
ATOM     72  S   UNL A   1      37.083  31.622  38.888  1.00  0.00     0.127 S 
ATOM     73  O   UNL A   1      37.940  31.733  40.066  1.00  0.00    -0.237 OA
ATOM     74  O   UNL A   1      35.959  32.557  38.853  1.00  0.00    -0.237 OA
ATOM     75  O   UNL A   1      36.747  30.267  38.473  1.00  0.00    -0.744 OA
ENDBRANCH  69  72
ENDBRANCH  41  65
BRANCH  53  76
ATOM     76  C   UNL A   1      44.783  28.033  34.062  1.00  0.00     0.023 A 
ATOM     77  C   UNL A   1      45.910  28.877  34.044  1.00  0.00     0.012 A 
ATOM     78  C   UNL A   1      44.775  26.900  34.900  1.00  0.00     0.148 A 
ATOM     79  C   UNL A   1      47.021  28.586  34.834  1.00  0.00     0.002 A 
ATOM     80  C   UNL A   1      45.865  26.646  35.723  1.00  0.00     0.091 A 
ATOM     81  F   UNL A   1      43.697  26.103  34.887  1.00  0.00    -0.205 F 
ATOM     82  C   UNL A   1      46.993  27.480  35.683  1.00  0.00     0.022 A 
BRANCH  80  83
ATOM     83  S   UNL A   1      45.874  25.309  36.922  1.00  0.00     0.127 S 
ATOM     84  O   UNL A   1      47.111  25.576  37.654  1.00  0.00    -0.237 OA
ATOM     85  O   UNL A   1      44.649  25.565  37.679  1.00  0.00    -0.237 OA
ATOM     86  O   UNL A   1      45.862  24.073  36.150  1.00  0.00    -0.744 OA
ENDBRANCH  80  83
ENDBRANCH  53  76
ENDBRANCH  27  28
ENDBRANCH  19  22
ENDBRANCH  17  18
ENDBRANCH   1  17
TORSDOF 15
ENDMDL
MODEL 3
REMARK VINA RESULT:     -11.4      5.384     10.043
REMARK SMILES CC(=O)Oc1ccccc1C(=O)NCCCNC(=O)c1ccc(-c2c3nc(c(-c4cccc(S(=O)(=O)[O-])c4F)c4ccc([nH]4)c(-c4cccc(S(=O)(=O)[O-])c4F)c4nc(c(-c5cccc(S(=O)(=O)[O-])c5F)c5ccc2[nH]5)C=C4)C=C3)cc1
REMARK SMILES IDX 15 1 14 2 13 3 11 4 12 5 10 7 5 8 6 9 7 10 9 11 8 12 4 13
REMARK SMILES IDX 2 14 1 15 3 16 16 17 17 18 18 19 19 21 20 22 21 23 82 24
REMARK SMILES IDX 22 25 81 26 23 27 24 28 25 29 75 30 26 31 80 32 74 33 76 34
REMARK SMILES IDX 27 35 79 36 73 37 72 38 28 40 60 41 40 42 59 43 41 44 44 45
REMARK SMILES IDX 58 46 77 47 42 48 43 49 57 51 78 52 45 53 29 54 30 55 38 56
REMARK SMILES IDX 31 57 33 58 39 59 32 60 34 61 35 62 36 63 37 64 61 65 62 66
REMARK SMILES IDX 70 67 63 68 65 69 71 70 64 71 66 72 67 73 68 74 69 75 46 76
REMARK SMILES IDX 47 77 55 78 48 79 50 80 56 81 49 82 51 83 52 84 53 85 54 86
REMARK H PARENT 13 6 17 20 76 39 44 50
REMARK Flexibility Score: inf
ROOT
ATOM      1  C   UNL A   1      31.757  27.858  26.770  1.00  0.00     0.042 C 
ENDROOT
BRANCH   1   2
ATOM      2  C   UNL A   1      31.408  26.657  25.925  1.00  0.00     0.118 C 
BRANCH   2   3
ATOM      3  N   UNL A   1      31.106  25.434  26.624  1.00  0.00    -0.352 N 
ATOM      4  C   UNL A   1      31.832  24.268  26.666  1.00  0.00     0.255 C 
ATOM      5  O   UNL A   1      31.437  23.378  27.423  1.00  0.00    -0.269 OA
ATOM      6  H   UNL A   1      30.268  25.433  27.141  1.00  0.00     0.163 HD
BRANCH   4   7
ATOM      7  C   UNL A   1      32.985  23.983  25.761  1.00  0.00     0.082 A 
ATOM      8  C   UNL A   1      33.038  23.123  24.655  1.00  0.00     0.143 A 
ATOM      9  C   UNL A   1      34.247  22.891  23.982  1.00  0.00     0.048 A 
ATOM     10  C   UNL A   1      35.409  23.554  24.367  1.00  0.00     0.004 A 
ATOM     11  C   UNL A   1      34.167  24.670  26.109  1.00  0.00     0.018 A 
ATOM     12  C   UNL A   1      35.367  24.456  25.424  1.00  0.00     0.001 A 
BRANCH   8  13
ATOM     13  O   UNL A   1      31.986  22.306  24.206  1.00  0.00    -0.426 OA
BRANCH  13  14
ATOM     14  C   UNL A   1      32.114  20.923  24.264  1.00  0.00     0.308 C 
ATOM     15  C   UNL A   1      32.116  20.384  22.856  1.00  0.00     0.139 C 
ATOM     16  O   UNL A   1      32.193  20.245  25.280  1.00  0.00    -0.252 OA
ENDBRANCH  13  14
ENDBRANCH   8  13
ENDBRANCH   4   7
ENDBRANCH   2   3
ENDBRANCH   1   2
BRANCH   1  17
ATOM     17  C   UNL A   1      32.595  28.912  26.061  1.00  0.00     0.118 C 
BRANCH  17  18
ATOM     18  N   UNL A   1      32.288  30.298  26.430  1.00  0.00    -0.352 N 
ATOM     19  C   UNL A   1      33.010  31.258  27.107  1.00  0.00     0.251 C 
ATOM     20  H   UNL A   1      31.397  30.599  26.140  1.00  0.00     0.163 HD
ATOM     21  O   UNL A   1      32.473  32.330  27.382  1.00  0.00    -0.269 OA
BRANCH  19  22
ATOM     22  C   UNL A   1      34.401  30.998  27.543  1.00  0.00     0.039 A 
ATOM     23  C   UNL A   1      35.308  32.059  27.651  1.00  0.00     0.014 A 
ATOM     24  C   UNL A   1      34.809  29.713  27.878  1.00  0.00     0.014 A 
ATOM     25  C   UNL A   1      36.566  31.842  28.226  1.00  0.00     0.010 A 
ATOM     26  C   UNL A   1      35.985  29.530  28.589  1.00  0.00     0.010 A 
ATOM     27  C   UNL A   1      36.887  30.589  28.769  1.00  0.00    -0.014 A 
BRANCH  27  28
ATOM     28  C   UNL A   1      38.140  30.320  29.526  1.00  0.00     0.031 A 
ATOM     29  C   UNL A   1      39.153  29.355  28.959  1.00  0.00     0.074 A 
ATOM     30  C   UNL A   1      38.296  30.805  30.776  1.00  0.00     0.049 A 
ATOM     31  N   UNL A   1      40.180  28.795  29.543  1.00  0.00    -0.248 NA
ATOM     32  C   UNL A   1      38.946  28.914  27.568  1.00  0.00     0.031 C 
ATOM     33  C   UNL A   1      37.356  31.687  31.473  1.00  0.00     0.029 A 
ATOM     34  N   UNL A   1      39.287  30.588  31.702  1.00  0.00    -0.354 N 
ATOM     35  C   UNL A   1      40.695  27.893  28.617  1.00  0.00     0.074 A 
ATOM     36  C   UNL A   1      39.842  27.946  27.453  1.00  0.00     0.031 C 
ATOM     37  C   UNL A   1      37.816  31.938  32.709  1.00  0.00     0.029 A 
ATOM     38  C   UNL A   1      39.056  31.199  32.916  1.00  0.00     0.049 A 
ATOM     39  H   UNL A   1      40.089  30.047  31.517  1.00  0.00     0.167 HD
ATOM     40  C   UNL A   1      41.799  27.116  28.711  1.00  0.00     0.034 A 
ATOM     41  C   UNL A   1      39.753  31.152  34.068  1.00  0.00     0.034 A 
ATOM     42  C   UNL A   1      42.689  27.130  29.838  1.00  0.00     0.049 A 
ATOM     43  C   UNL A   1      41.013  30.331  34.124  1.00  0.00     0.074 A 
ATOM     44  C   UNL A   1      43.887  26.457  29.996  1.00  0.00     0.029 A 
ATOM     45  N   UNL A   1      42.484  27.863  30.996  1.00  0.00    -0.354 N 
ATOM     46  N   UNL A   1      41.552  29.583  33.192  1.00  0.00    -0.248 NA
ATOM     47  C   UNL A   1      41.783  30.372  35.377  1.00  0.00     0.031 C 
ATOM     48  C   UNL A   1      44.398  26.771  31.258  1.00  0.00     0.029 A 
ATOM     49  C   UNL A   1      43.535  27.665  31.871  1.00  0.00     0.049 A 
ATOM     50  H   UNL A   1      41.704  28.439  31.169  1.00  0.00     0.167 HD
ATOM     51  C   UNL A   1      42.744  29.109  33.724  1.00  0.00     0.074 A 
ATOM     52  C   UNL A   1      42.855  29.660  35.059  1.00  0.00     0.031 C 
ATOM     53  C   UNL A   1      43.663  28.285  33.163  1.00  0.00     0.034 A 
BRANCH  40  54
ATOM     54  C   UNL A   1      42.146  26.238  27.536  1.00  0.00     0.023 A 
ATOM     55  C   UNL A   1      42.883  26.771  26.460  1.00  0.00     0.012 A 
ATOM     56  C   UNL A   1      41.797  24.873  27.523  1.00  0.00     0.148 A 
ATOM     57  C   UNL A   1      43.233  25.974  25.370  1.00  0.00     0.002 A 
ATOM     58  C   UNL A   1      42.194  24.072  26.458  1.00  0.00     0.091 A 
ATOM     59  F   UNL A   1      41.080  24.386  28.546  1.00  0.00    -0.205 F 
ATOM     60  C   UNL A   1      42.898  24.624  25.375  1.00  0.00     0.022 A 
BRANCH  58  61
ATOM     61  S   UNL A   1      41.889  22.302  26.406  1.00  0.00     0.127 S 
ATOM     62  O   UNL A   1      40.430  22.256  26.334  1.00  0.00    -0.237 OA
ATOM     63  O   UNL A   1      42.575  21.910  25.175  1.00  0.00    -0.237 OA
ATOM     64  O   UNL A   1      42.470  21.758  27.626  1.00  0.00    -0.744 OA
ENDBRANCH  58  61
ENDBRANCH  40  54
BRANCH  41  65
ATOM     65  C   UNL A   1      39.316  31.959  35.246  1.00  0.00     0.023 A 
ATOM     66  C   UNL A   1      38.416  31.392  36.171  1.00  0.00     0.012 A 
ATOM     67  C   UNL A   1      39.788  33.267  35.464  1.00  0.00     0.148 A 
ATOM     68  C   UNL A   1      37.961  32.127  37.266  1.00  0.00     0.002 A 
ATOM     69  C   UNL A   1      39.374  33.974  36.588  1.00  0.00     0.091 A 
ATOM     70  F   UNL A   1      40.637  33.794  34.571  1.00  0.00    -0.205 F 
ATOM     71  C   UNL A   1      38.447  33.414  37.480  1.00  0.00     0.022 A 
BRANCH  69  72
ATOM     72  S   UNL A   1      40.047  35.585  37.016  1.00  0.00     0.127 S 
ATOM     73  O   UNL A   1      39.538  35.772  38.372  1.00  0.00    -0.237 OA
ATOM     74  O   UNL A   1      41.488  35.346  36.925  1.00  0.00    -0.237 OA
ATOM     75  O   UNL A   1      39.529  36.504  36.011  1.00  0.00    -0.744 OA
ENDBRANCH  69  72
ENDBRANCH  41  65
BRANCH  53  76
ATOM     76  C   UNL A   1      44.912  27.983  33.946  1.00  0.00     0.023 A 
ATOM     77  C   UNL A   1      46.022  28.847  33.871  1.00  0.00     0.012 A 
ATOM     78  C   UNL A   1      44.937  26.893  34.839  1.00  0.00     0.148 A 
ATOM     79  C   UNL A   1      47.148  28.617  34.659  1.00  0.00     0.002 A 
ATOM     80  C   UNL A   1      46.041  26.701  35.659  1.00  0.00     0.091 A 
ATOM     81  F   UNL A   1      43.875  26.076  34.880  1.00  0.00    -0.205 F 
ATOM     82  C   UNL A   1      47.152  27.554  35.562  1.00  0.00     0.022 A 
BRANCH  80  83
ATOM     83  S   UNL A   1      46.092  25.426  36.923  1.00  0.00     0.127 S 
ATOM     84  O   UNL A   1      45.888  24.214  36.130  1.00  0.00    -0.237 OA
ATOM     85  O   UNL A   1      47.442  25.581  37.464  1.00  0.00    -0.237 OA
ATOM     86  O   UNL A   1      45.023  25.743  37.860  1.00  0.00    -0.744 OA
ENDBRANCH  80  83
ENDBRANCH  53  76
ENDBRANCH  27  28
ENDBRANCH  19  22
ENDBRANCH  17  18
ENDBRANCH   1  17
TORSDOF 15
ENDMDL
