MODEL 1
REMARK VINA RESULT:     -12.1      0.000      0.000
REMARK SMILES O=C(NCCCNC(=O)[C@@H]1CC=CC[C@@H]1C(=O)Nc1ccc(Br)cc1Cl)c1ccc(-c2c3nc(c(-c4cccc(S(=O)(=O)[O-])c4F)c4ccc([nH]4)c(-c4cccc(S(=O)(=O)[O-])c4F)c4nc(c(-c5cccc(S(=O)(=O)[O-])c5F)c5ccc2[nH]5)C=C4)C=C3)cc1
REMARK SMILES IDX 4 1 3 2 1 3 2 4 27 6 28 7 89 8 29 9 88 10 30 11 31 12 32 13
REMARK SMILES IDX 82 14 33 15 87 16 81 17 83 18 34 19 86 20 80 21 79 22 35 24
REMARK SMILES IDX 67 25 47 26 66 27 48 28 51 29 65 30 84 31 49 32 50 33 64 35
REMARK SMILES IDX 85 36 52 37 36 38 37 39 45 40 38 41 40 42 46 43 39 44 41 45
REMARK SMILES IDX 42 46 43 47 44 48 68 49 69 50 77 51 70 52 72 53 78 54 71 55
REMARK SMILES IDX 73 56 74 57 75 58 76 59 53 60 54 61 62 62 55 63 57 64 63 65
REMARK SMILES IDX 56 66 58 67 59 68 60 69 61 70 5 71 6 72 7 73 8 74 9 76 10 77
REMARK SMILES IDX 11 78 15 79 12 80 14 81 13 82 16 83 17 84 18 85 19 87 20 88
REMARK SMILES IDX 25 89 21 90 24 91 26 92 22 93 23 94
REMARK H PARENT 3 5 83 23 51 34 7 75 18 86
REMARK Flexibility Score: inf
ROOT
ATOM      1  C   UNL A   1      32.762  29.502  25.687  1.00  0.00     0.118 C 
ENDROOT
BRANCH   1   2
ATOM      2  N   UNL A   1      32.432  30.873  26.055  1.00  0.00    -0.352 N 
ATOM      3  O   UNL A   1      32.481  32.771  27.260  1.00  0.00    -0.269 OA
ATOM      4  C   UNL A   1      33.021  31.710  26.975  1.00  0.00     0.251 C 
ATOM      5  H   UNL A   1      31.668  31.261  25.570  1.00  0.00     0.163 HD
BRANCH   4   6
ATOM      6  C   UNL A   1      34.286  31.310  27.632  1.00  0.00     0.039 A 
ATOM      7  C   UNL A   1      34.504  29.982  28.003  1.00  0.00     0.014 A 
ATOM      8  C   UNL A   1      35.268  32.275  27.872  1.00  0.00     0.014 A 
ATOM      9  C   UNL A   1      35.621  29.653  28.761  1.00  0.00     0.010 A 
ATOM     10  C   UNL A   1      36.438  31.920  28.551  1.00  0.00     0.010 A 
ATOM     11  C   UNL A   1      36.607  30.614  29.035  1.00  0.00    -0.014 A 
BRANCH  11  12
ATOM     12  C   UNL A   1      37.830  30.205  29.771  1.00  0.00     0.031 A 
ATOM     13  C   UNL A   1      38.094  30.670  31.176  1.00  0.00     0.074 A 
ATOM     14  C   UNL A   1      38.704  29.384  29.154  1.00  0.00     0.049 A 
ATOM     15  N   UNL A   1      39.093  30.370  31.965  1.00  0.00    -0.248 NA
ATOM     16  C   UNL A   1      37.118  31.595  31.776  1.00  0.00     0.031 C 
ATOM     17  C   UNL A   1      38.574  28.905  27.775  1.00  0.00     0.029 A 
ATOM     18  N   UNL A   1      39.862  28.803  29.599  1.00  0.00    -0.354 N 
ATOM     19  C   UNL A   1      38.892  31.093  33.134  1.00  0.00     0.074 A 
ATOM     20  C   UNL A   1      37.676  31.856  32.952  1.00  0.00     0.031 C 
ATOM     21  C   UNL A   1      39.591  28.078  27.498  1.00  0.00     0.029 A 
ATOM     22  C   UNL A   1      40.473  28.008  28.657  1.00  0.00     0.049 A 
ATOM     23  H   UNL A   1      40.223  28.942  30.504  1.00  0.00     0.167 HD
ATOM     24  C   UNL A   1      39.641  31.104  34.264  1.00  0.00     0.034 A 
ATOM     25  C   UNL A   1      41.621  27.308  28.713  1.00  0.00     0.034 A 
ATOM     26  C   UNL A   1      40.828  30.311  34.454  1.00  0.00     0.049 A 
ATOM     27  C   UNL A   1      42.412  27.314  29.988  1.00  0.00     0.074 A 
ATOM     28  C   UNL A   1      41.624  30.211  35.582  1.00  0.00     0.029 A 
ATOM     29  N   UNL A   1      41.390  29.483  33.494  1.00  0.00    -0.354 N 
ATOM     30  N   UNL A   1      42.136  27.909  31.124  1.00  0.00    -0.248 NA
ATOM     31  C   UNL A   1      43.658  26.537  30.000  1.00  0.00     0.031 C 
ATOM     32  C   UNL A   1      42.675  29.330  35.299  1.00  0.00     0.029 A 
ATOM     33  C   UNL A   1      42.525  28.872  34.000  1.00  0.00     0.049 A 
ATOM     34  H   UNL A   1      41.034  29.349  32.585  1.00  0.00     0.167 HD
ATOM     35  C   UNL A   1      43.163  27.563  31.992  1.00  0.00     0.074 A 
ATOM     36  C   UNL A   1      44.050  26.680  31.259  1.00  0.00     0.031 C 
ATOM     37  C   UNL A   1      43.369  27.959  33.272  1.00  0.00     0.034 A 
BRANCH  24  38
ATOM     38  C   UNL A   1      39.177  31.966  35.409  1.00  0.00     0.023 A 
ATOM     39  C   UNL A   1      38.275  31.434  36.353  1.00  0.00     0.012 A 
ATOM     40  C   UNL A   1      39.685  33.267  35.596  1.00  0.00     0.148 A 
ATOM     41  C   UNL A   1      37.868  32.191  37.452  1.00  0.00     0.002 A 
ATOM     42  C   UNL A   1      39.302  34.002  36.713  1.00  0.00     0.091 A 
ATOM     43  F   UNL A   1      40.524  33.765  34.677  1.00  0.00    -0.205 F 
ATOM     44  C   UNL A   1      38.389  33.468  37.638  1.00  0.00     0.022 A 
BRANCH  42  45
ATOM     45  S   UNL A   1      39.973  35.629  37.076  1.00  0.00     0.127 S 
ATOM     46  O   UNL A   1      39.272  35.968  38.312  1.00  0.00    -0.237 OA
ATOM     47  O   UNL A   1      41.400  35.348  37.243  1.00  0.00    -0.237 OA
ATOM     48  O   UNL A   1      39.653  36.458  35.922  1.00  0.00    -0.744 OA
ENDBRANCH  42  45
ENDBRANCH  24  38
BRANCH  25  49
ATOM     49  C   UNL A   1      42.049  26.502  27.535  1.00  0.00     0.023 A 
ATOM     50  C   UNL A   1      42.849  27.098  26.542  1.00  0.00     0.012 A 
ATOM     51  C   UNL A   1      41.723  25.136  27.428  1.00  0.00     0.148 A 
ATOM     52  C   UNL A   1      43.300  26.351  25.453  1.00  0.00     0.002 A 
ATOM     53  C   UNL A   1      42.226  24.385  26.373  1.00  0.00     0.091 A 
ATOM     54  F   UNL A   1      40.943  24.591  28.373  1.00  0.00    -0.205 F 
ATOM     55  C   UNL A   1      43.002  24.993  25.376  1.00  0.00     0.022 A 
BRANCH  53  56
ATOM     56  S   UNL A   1      42.012  22.603  26.293  1.00  0.00     0.127 S 
ATOM     57  O   UNL A   1      42.662  22.279  25.028  1.00  0.00    -0.237 OA
ATOM     58  O   UNL A   1      42.727  22.152  27.488  1.00  0.00    -0.237 OA
ATOM     59  O   UNL A   1      40.571  22.388  26.348  1.00  0.00    -0.744 OA
ENDBRANCH  53  56
ENDBRANCH  25  49
BRANCH  37  60
ATOM     60  C   UNL A   1      44.593  27.429  33.969  1.00  0.00     0.023 A 
ATOM     61  C   UNL A   1      45.790  28.171  33.922  1.00  0.00     0.012 A 
ATOM     62  C   UNL A   1      44.545  26.235  34.712  1.00  0.00     0.148 A 
ATOM     63  C   UNL A   1      46.931  27.716  34.583  1.00  0.00     0.002 A 
ATOM     64  C   UNL A   1      45.673  25.811  35.404  1.00  0.00     0.091 A 
ATOM     65  F   UNL A   1      43.402  25.534  34.724  1.00  0.00    -0.205 F 
ATOM     66  C   UNL A   1      46.869  26.544  35.332  1.00  0.00     0.022 A 
BRANCH  64  67
ATOM     67  S   UNL A   1      45.655  24.358  36.461  1.00  0.00     0.127 S 
ATOM     68  O   UNL A   1      47.046  24.297  36.908  1.00  0.00    -0.237 OA
ATOM     69  O   UNL A   1      44.696  24.737  37.500  1.00  0.00    -0.237 OA
ATOM     70  O   UNL A   1      45.218  23.257  35.614  1.00  0.00    -0.744 OA
ENDBRANCH  64  67
ENDBRANCH  37  60
ENDBRANCH  11  12
ENDBRANCH   4   6
ENDBRANCH   1   2
BRANCH   1  71
ATOM     71  C   UNL A   1      31.682  28.502  26.083  1.00  0.00     0.042 C 
BRANCH  71  72
ATOM     72  C   UNL A   1      32.223  27.122  26.423  1.00  0.00     0.117 C 
BRANCH  72  73
ATOM     73  N   UNL A   1      33.323  26.732  25.556  1.00  0.00    -0.356 N 
ATOM     74  C   UNL A   1      33.933  25.532  25.372  1.00  0.00     0.224 C 
ATOM     75  H   UNL A   1      33.687  27.463  25.005  1.00  0.00     0.163 HD
ATOM     76  O   UNL A   1      34.847  25.486  24.547  1.00  0.00    -0.275 OA
BRANCH  74  77
ATOM     77  C   UNL A   1      33.503  24.309  26.171  1.00  0.00     0.095 C 
ATOM     78  C   UNL A   1      34.703  23.345  26.220  1.00  0.00     0.041 C 
ATOM     79  C   UNL A   1      32.216  23.650  25.633  1.00  0.00     0.095 C 
ATOM     80  C   UNL A   1      34.361  22.009  26.798  1.00  0.00    -0.030 C 
ATOM     81  C   UNL A   1      31.924  22.288  26.313  1.00  0.00     0.041 C 
ATOM     82  C   UNL A   1      33.108  21.541  26.845  1.00  0.00    -0.030 C 
BRANCH  79  83
ATOM     83  C   UNL A   1      32.175  23.503  24.128  1.00  0.00     0.228 C 
ATOM     84  O   UNL A   1      32.602  22.462  23.606  1.00  0.00    -0.274 OA
ATOM     85  N   UNL A   1      31.682  24.406  23.244  1.00  0.00    -0.324 N 
ATOM     86  H   UNL A   1      31.710  24.002  22.346  1.00  0.00     0.169 HD
BRANCH  85  87
ATOM     87  C   UNL A   1      31.142  25.712  23.125  1.00  0.00     0.060 A 
ATOM     88  C   UNL A   1      29.860  25.798  23.731  1.00  0.00     0.029 A 
ATOM     89  C   UNL A   1      31.611  26.889  22.518  1.00  0.00     0.065 A 
ATOM     90  C   UNL A   1      29.064  26.947  23.681  1.00  0.00     0.018 A 
ATOM     91  C   UNL A   1      30.784  28.030  22.421  1.00  0.00     0.038 A 
ATOM     92  Cl  UNL A   1      33.198  27.202  21.940  1.00  0.00    -0.082 Cl
ATOM     93  C   UNL A   1      29.521  28.055  22.994  1.00  0.00     0.019 A 
ATOM     94  Br  UNL A   1      28.450  29.604  22.867  1.00  0.00    -0.051 Br
ENDBRANCH  85  87
ENDBRANCH  79  83
ENDBRANCH  74  77
ENDBRANCH  72  73
ENDBRANCH  71  72
ENDBRANCH   1  71
TORSDOF 15
ENDMDL
MODEL 2
REMARK VINA RESULT:     -12.1      1.921      2.808
REMARK SMILES O=C(NCCCNC(=O)[C@@H]1CC=CC[C@@H]1C(=O)Nc1ccc(Br)cc1Cl)c1ccc(-c2c3nc(c(-c4cccc(S(=O)(=O)[O-])c4F)c4ccc([nH]4)c(-c4cccc(S(=O)(=O)[O-])c4F)c4nc(c(-c5cccc(S(=O)(=O)[O-])c5F)c5ccc2[nH]5)C=C4)C=C3)cc1
REMARK SMILES IDX 4 1 3 2 1 3 2 4 27 6 28 7 89 8 29 9 88 10 30 11 31 12 32 13
REMARK SMILES IDX 82 14 33 15 87 16 81 17 83 18 34 19 86 20 80 21 79 22 35 24
REMARK SMILES IDX 67 25 47 26 66 27 48 28 51 29 65 30 84 31 49 32 50 33 64 35
REMARK SMILES IDX 85 36 52 37 36 38 37 39 45 40 38 41 40 42 46 43 39 44 41 45
REMARK SMILES IDX 42 46 43 47 44 48 68 49 69 50 77 51 70 52 72 53 78 54 71 55
REMARK SMILES IDX 73 56 74 57 75 58 76 59 53 60 54 61 62 62 55 63 57 64 63 65
REMARK SMILES IDX 56 66 58 67 59 68 60 69 61 70 5 71 6 72 7 73 8 74 9 76 10 77
REMARK SMILES IDX 11 78 15 79 12 80 14 81 13 82 16 83 17 84 18 85 19 87 20 88
REMARK SMILES IDX 25 89 21 90 24 91 26 92 22 93 23 94
REMARK H PARENT 3 5 83 23 51 34 7 75 18 86
REMARK Flexibility Score: inf
ROOT
ATOM      1  C   UNL A   1      32.943  29.530  25.373  1.00  0.00     0.118 C 
ENDROOT
BRANCH   1   2
ATOM      2  N   UNL A   1      32.507  30.832  25.862  1.00  0.00    -0.352 N 
ATOM      3  O   UNL A   1      32.384  32.595  27.252  1.00  0.00    -0.269 OA
ATOM      4  C   UNL A   1      33.006  31.607  26.885  1.00  0.00     0.251 C 
ATOM      5  H   UNL A   1      31.734  31.216  25.389  1.00  0.00     0.163 HD
BRANCH   4   6
ATOM      6  C   UNL A   1      34.273  31.226  27.548  1.00  0.00     0.039 A 
ATOM      7  C   UNL A   1      34.479  29.917  27.986  1.00  0.00     0.014 A 
ATOM      8  C   UNL A   1      35.270  32.189  27.726  1.00  0.00     0.014 A 
ATOM      9  C   UNL A   1      35.600  29.613  28.749  1.00  0.00     0.010 A 
ATOM     10  C   UNL A   1      36.443  31.856  28.411  1.00  0.00     0.010 A 
ATOM     11  C   UNL A   1      36.601  30.575  28.961  1.00  0.00    -0.014 A 
BRANCH  11  12
ATOM     12  C   UNL A   1      37.827  30.189  29.704  1.00  0.00     0.031 A 
ATOM     13  C   UNL A   1      38.083  30.675  31.104  1.00  0.00     0.074 A 
ATOM     14  C   UNL A   1      38.711  29.371  29.100  1.00  0.00     0.049 A 
ATOM     15  N   UNL A   1      39.084  30.396  31.899  1.00  0.00    -0.248 NA
ATOM     16  C   UNL A   1      37.096  31.597  31.690  1.00  0.00     0.031 C 
ATOM     17  C   UNL A   1      38.589  28.872  27.727  1.00  0.00     0.029 A 
ATOM     18  N   UNL A   1      39.875  28.808  29.554  1.00  0.00    -0.354 N 
ATOM     19  C   UNL A   1      38.872  31.132  33.058  1.00  0.00     0.074 A 
ATOM     20  C   UNL A   1      37.648  31.879  32.863  1.00  0.00     0.031 C 
ATOM     21  C   UNL A   1      39.616  28.052  27.462  1.00  0.00     0.029 A 
ATOM     22  C   UNL A   1      40.497  28.008  28.624  1.00  0.00     0.049 A 
ATOM     23  H   UNL A   1      40.233  28.963  30.458  1.00  0.00     0.167 HD
ATOM     24  C   UNL A   1      39.619  31.166  34.188  1.00  0.00     0.034 A 
ATOM     25  C   UNL A   1      41.653  27.321  28.691  1.00  0.00     0.034 A 
ATOM     26  C   UNL A   1      40.814  30.389  34.391  1.00  0.00     0.049 A 
ATOM     27  C   UNL A   1      42.441  27.354  29.967  1.00  0.00     0.074 A 
ATOM     28  C   UNL A   1      41.609  30.313  35.521  1.00  0.00     0.029 A 
ATOM     29  N   UNL A   1      41.388  29.556  33.443  1.00  0.00    -0.354 N 
ATOM     30  N   UNL A   1      42.156  27.960  31.095  1.00  0.00    -0.248 NA
ATOM     31  C   UNL A   1      43.696  26.591  29.992  1.00  0.00     0.031 C 
ATOM     32  C   UNL A   1      42.670  29.441  35.252  1.00  0.00     0.029 A 
ATOM     33  C   UNL A   1      42.528  28.964  33.959  1.00  0.00     0.049 A 
ATOM     34  H   UNL A   1      41.035  29.406  32.535  1.00  0.00     0.167 HD
ATOM     35  C   UNL A   1      43.186  27.637  31.970  1.00  0.00     0.074 A 
ATOM     36  C   UNL A   1      44.083  26.754  31.250  1.00  0.00     0.031 C 
ATOM     37  C   UNL A   1      43.384  28.051  33.245  1.00  0.00     0.034 A 
BRANCH  24  38
ATOM     38  C   UNL A   1      39.143  32.038  35.322  1.00  0.00     0.023 A 
ATOM     39  C   UNL A   1      38.207  31.525  36.242  1.00  0.00     0.012 A 
ATOM     40  C   UNL A   1      39.672  33.329  35.521  1.00  0.00     0.148 A 
ATOM     41  C   UNL A   1      37.787  32.289  37.330  1.00  0.00     0.002 A 
ATOM     42  C   UNL A   1      39.275  34.072  36.629  1.00  0.00     0.091 A 
ATOM     43  F   UNL A   1      40.543  33.810  34.624  1.00  0.00    -0.205 F 
ATOM     44  C   UNL A   1      38.328  33.556  37.530  1.00  0.00     0.022 A 
BRANCH  42  45
ATOM     45  S   UNL A   1      39.968  35.685  37.009  1.00  0.00     0.127 S 
ATOM     46  O   UNL A   1      41.385  35.366  37.173  1.00  0.00    -0.237 OA
ATOM     47  O   UNL A   1      39.653  36.452  35.803  1.00  0.00    -0.237 OA
ATOM     48  O   UNL A   1      39.282  36.140  38.211  1.00  0.00    -0.744 OA
ENDBRANCH  42  45
ENDBRANCH  24  38
BRANCH  25  49
ATOM     49  C   UNL A   1      42.092  26.506  27.525  1.00  0.00     0.023 A 
ATOM     50  C   UNL A   1      42.934  27.081  26.554  1.00  0.00     0.012 A 
ATOM     51  C   UNL A   1      41.734  25.149  27.407  1.00  0.00     0.148 A 
ATOM     52  C   UNL A   1      43.396  26.324  25.478  1.00  0.00     0.002 A 
ATOM     53  C   UNL A   1      42.247  24.385  26.366  1.00  0.00     0.091 A 
ATOM     54  F   UNL A   1      40.915  24.624  28.330  1.00  0.00    -0.205 F 
ATOM     55  C   UNL A   1      43.066  24.973  25.391  1.00  0.00     0.022 A 
BRANCH  53  56
ATOM     56  S   UNL A   1      41.989  22.609  26.278  1.00  0.00     0.127 S 
ATOM     57  O   UNL A   1      42.666  22.269  25.031  1.00  0.00    -0.237 OA
ATOM     58  O   UNL A   1      42.659  22.139  27.492  1.00  0.00    -0.237 OA
ATOM     59  O   UNL A   1      40.543  22.431  26.293  1.00  0.00    -0.744 OA
ENDBRANCH  53  56
ENDBRANCH  25  49
BRANCH  37  60
ATOM     60  C   UNL A   1      44.613  27.545  33.950  1.00  0.00     0.023 A 
ATOM     61  C   UNL A   1      45.796  28.308  33.912  1.00  0.00     0.012 A 
ATOM     62  C   UNL A   1      44.581  26.350  34.694  1.00  0.00     0.148 A 
ATOM     63  C   UNL A   1      46.940  27.875  34.582  1.00  0.00     0.002 A 
ATOM     64  C   UNL A   1      45.712  25.947  35.393  1.00  0.00     0.091 A 
ATOM     65  F   UNL A   1      43.452  25.627  34.697  1.00  0.00    -0.205 F 
ATOM     66  C   UNL A   1      46.895  26.702  35.330  1.00  0.00     0.022 A 
BRANCH  64  67
ATOM     67  S   UNL A   1      45.714  24.495  36.451  1.00  0.00     0.127 S 
ATOM     68  O   UNL A   1      46.943  24.685  37.218  1.00  0.00    -0.237 OA
ATOM     69  O   UNL A   1      44.480  24.665  37.220  1.00  0.00    -0.237 OA
ATOM     70  O   UNL A   1      45.706  23.349  35.551  1.00  0.00    -0.744 OA
ENDBRANCH  64  67
ENDBRANCH  37  60
ENDBRANCH  11  12
ENDBRANCH   4   6
ENDBRANCH   1   2
BRANCH   1  71
ATOM     71  C   UNL A   1      31.942  28.884  24.422  1.00  0.00     0.042 C 
BRANCH  71  72
ATOM     72  C   UNL A   1      32.533  28.521  23.068  1.00  0.00     0.117 C 
BRANCH  72  73
ATOM     73  N   UNL A   1      31.934  27.321  22.509  1.00  0.00    -0.356 N 
ATOM     74  C   UNL A   1      32.298  26.015  22.601  1.00  0.00     0.224 C 
ATOM     75  H   UNL A   1      31.123  27.481  21.973  1.00  0.00     0.163 HD
ATOM     76  O   UNL A   1      31.584  25.190  22.027  1.00  0.00    -0.275 OA
BRANCH  74  77
ATOM     77  C   UNL A   1      33.545  25.606  23.372  1.00  0.00     0.095 C 
ATOM     78  C   UNL A   1      34.026  24.263  22.793  1.00  0.00     0.041 C 
ATOM     79  C   UNL A   1      33.333  25.568  24.901  1.00  0.00     0.095 C 
ATOM     80  C   UNL A   1      35.126  23.638  23.591  1.00  0.00    -0.030 C 
ATOM     81  C   UNL A   1      34.537  24.937  25.645  1.00  0.00     0.041 C 
ATOM     82  C   UNL A   1      35.357  23.950  24.872  1.00  0.00    -0.030 C 
BRANCH  79  83
ATOM     83  C   UNL A   1      32.044  24.907  25.333  1.00  0.00     0.228 C 
ATOM     84  O   UNL A   1      31.074  25.614  25.650  1.00  0.00    -0.274 OA
ATOM     85  N   UNL A   1      31.803  23.574  25.394  1.00  0.00    -0.324 N 
ATOM     86  H   UNL A   1      30.854  23.444  25.625  1.00  0.00     0.169 HD
BRANCH  85  87
ATOM     87  C   UNL A   1      32.401  22.296  25.252  1.00  0.00     0.060 A 
ATOM     88  C   UNL A   1      32.132  21.740  23.973  1.00  0.00     0.029 A 
ATOM     89  C   UNL A   1      33.165  21.495  26.119  1.00  0.00     0.065 A 
ATOM     90  C   UNL A   1      32.528  20.451  23.599  1.00  0.00     0.018 A 
ATOM     91  C   UNL A   1      33.515  20.175  25.760  1.00  0.00     0.038 A 
ATOM     92  Cl  UNL A   1      33.882  21.962  27.607  1.00  0.00    -0.082 Cl
ATOM     93  C   UNL A   1      33.194  19.658  24.513  1.00  0.00     0.019 A 
ATOM     94  Br  UNL A   1      33.699  17.898  24.055  1.00  0.00    -0.051 Br
ENDBRANCH  85  87
ENDBRANCH  79  83
ENDBRANCH  74  77
ENDBRANCH  72  73
ENDBRANCH  71  72
ENDBRANCH   1  71
TORSDOF 15
ENDMDL
MODEL 3
REMARK VINA RESULT:     -12.1      1.344      1.557
REMARK SMILES O=C(NCCCNC(=O)[C@@H]1CC=CC[C@@H]1C(=O)Nc1ccc(Br)cc1Cl)c1ccc(-c2c3nc(c(-c4cccc(S(=O)(=O)[O-])c4F)c4ccc([nH]4)c(-c4cccc(S(=O)(=O)[O-])c4F)c4nc(c(-c5cccc(S(=O)(=O)[O-])c5F)c5ccc2[nH]5)C=C4)C=C3)cc1
REMARK SMILES IDX 4 1 3 2 1 3 2 4 27 6 28 7 89 8 29 9 88 10 30 11 31 12 32 13
REMARK SMILES IDX 82 14 33 15 87 16 81 17 83 18 34 19 86 20 80 21 79 22 35 24
REMARK SMILES IDX 67 25 47 26 66 27 48 28 51 29 65 30 84 31 49 32 50 33 64 35
REMARK SMILES IDX 85 36 52 37 36 38 37 39 45 40 38 41 40 42 46 43 39 44 41 45
REMARK SMILES IDX 42 46 43 47 44 48 68 49 69 50 77 51 70 52 72 53 78 54 71 55
REMARK SMILES IDX 73 56 74 57 75 58 76 59 53 60 54 61 62 62 55 63 57 64 63 65
REMARK SMILES IDX 56 66 58 67 59 68 60 69 61 70 5 71 6 72 7 73 8 74 9 76 10 77
REMARK SMILES IDX 11 78 15 79 12 80 14 81 13 82 16 83 17 84 18 85 19 87 20 88
REMARK SMILES IDX 25 89 21 90 24 91 26 92 22 93 23 94
REMARK H PARENT 3 5 83 23 51 34 7 75 18 86
REMARK Flexibility Score: inf
ROOT
ATOM      1  C   UNL A   1      32.928  29.590  26.224  1.00  0.00     0.118 C 
ENDROOT
BRANCH   1   2
ATOM      2  N   UNL A   1      32.747  31.010  26.504  1.00  0.00    -0.352 N 
ATOM      3  O   UNL A   1      33.052  32.977  27.548  1.00  0.00    -0.269 OA
ATOM      4  C   UNL A   1      33.475  31.853  27.313  1.00  0.00     0.251 C 
ATOM      5  H   UNL A   1      31.986  31.430  26.043  1.00  0.00     0.163 HD
BRANCH   4   6
ATOM      6  C   UNL A   1      34.746  31.386  27.911  1.00  0.00     0.039 A 
ATOM      7  C   UNL A   1      34.873  30.076  28.375  1.00  0.00     0.014 A 
ATOM      8  C   UNL A   1      35.826  32.270  28.001  1.00  0.00     0.014 A 
ATOM      9  C   UNL A   1      36.011  29.701  29.079  1.00  0.00     0.010 A 
ATOM     10  C   UNL A   1      37.008  31.859  28.625  1.00  0.00     0.010 A 
ATOM     11  C   UNL A   1      37.096  30.583  29.203  1.00  0.00    -0.014 A 
BRANCH  11  12
ATOM     12  C   UNL A   1      38.332  30.117  29.883  1.00  0.00     0.031 A 
ATOM     13  C   UNL A   1      38.682  30.574  31.273  1.00  0.00     0.074 A 
ATOM     14  C   UNL A   1      39.134  29.253  29.232  1.00  0.00     0.049 A 
ATOM     15  N   UNL A   1      39.702  30.228  32.016  1.00  0.00    -0.248 NA
ATOM     16  C   UNL A   1      37.782  31.548  31.911  1.00  0.00     0.031 C 
ATOM     17  C   UNL A   1      38.917  28.775  27.863  1.00  0.00     0.029 A 
ATOM     18  N   UNL A   1      40.282  28.617  29.626  1.00  0.00    -0.354 N 
ATOM     19  C   UNL A   1      39.591  30.964  33.189  1.00  0.00     0.074 A 
ATOM     20  C   UNL A   1      38.406  31.785  33.058  1.00  0.00     0.031 C 
ATOM     21  C   UNL A   1      39.878  27.898  27.544  1.00  0.00     0.029 A 
ATOM     22  C   UNL A   1      40.809  27.790  28.662  1.00  0.00     0.049 A 
ATOM     23  H   UNL A   1      40.692  28.741  30.513  1.00  0.00     0.167 HD
ATOM     24  C   UNL A   1      40.392  30.943  34.282  1.00  0.00     0.034 A 
ATOM     25  C   UNL A   1      41.923  27.034  28.668  1.00  0.00     0.034 A 
ATOM     26  C   UNL A   1      41.546  30.093  34.422  1.00  0.00     0.049 A 
ATOM     27  C   UNL A   1      42.772  27.007  29.905  1.00  0.00     0.074 A 
ATOM     28  C   UNL A   1      42.388  29.959  35.512  1.00  0.00     0.029 A 
ATOM     29  N   UNL A   1      42.022  29.235  33.441  1.00  0.00    -0.354 N 
ATOM     30  N   UNL A   1      42.579  27.618  31.049  1.00  0.00    -0.248 NA
ATOM     31  C   UNL A   1      43.978  26.169  29.864  1.00  0.00     0.031 C 
ATOM     32  C   UNL A   1      43.380  29.027  35.186  1.00  0.00     0.029 A 
ATOM     33  C   UNL A   1      43.148  28.571  33.899  1.00  0.00     0.049 A 
ATOM     34  H   UNL A   1      41.618  29.116  32.551  1.00  0.00     0.167 HD
ATOM     35  C   UNL A   1      43.627  27.226  31.871  1.00  0.00     0.074 A 
ATOM     36  C   UNL A   1      44.434  26.297  31.103  1.00  0.00     0.031 C 
ATOM     37  C   UNL A   1      43.911  27.615  33.138  1.00  0.00     0.034 A 
BRANCH  24  38
ATOM     38  C   UNL A   1      40.024  31.831  35.443  1.00  0.00     0.023 A 
ATOM     39  C   UNL A   1      40.625  33.100  35.560  1.00  0.00     0.012 A 
ATOM     40  C   UNL A   1      39.035  31.446  36.371  1.00  0.00     0.148 A 
ATOM     41  C   UNL A   1      40.266  33.964  36.594  1.00  0.00     0.002 A 
ATOM     42  C   UNL A   1      38.656  32.327  37.378  1.00  0.00     0.091 A 
ATOM     43  F   UNL A   1      38.490  30.227  36.258  1.00  0.00    -0.205 F 
ATOM     44  C   UNL A   1      39.276  33.583  37.495  1.00  0.00     0.022 A 
BRANCH  42  45
ATOM     45  S   UNL A   1      37.341  31.955  38.544  1.00  0.00     0.127 S 
ATOM     46  O   UNL A   1      37.972  32.292  39.818  1.00  0.00    -0.237 OA
ATOM     47  O   UNL A   1      36.284  32.877  38.126  1.00  0.00    -0.237 OA
ATOM     48  O   UNL A   1      37.025  30.547  38.351  1.00  0.00    -0.744 OA
ENDBRANCH  42  45
ENDBRANCH  24  38
BRANCH  25  49
ATOM     49  C   UNL A   1      42.256  26.204  27.477  1.00  0.00     0.023 A 
ATOM     50  C   UNL A   1      43.038  26.756  26.445  1.00  0.00     0.012 A 
ATOM     51  C   UNL A   1      41.858  24.856  27.392  1.00  0.00     0.148 A 
ATOM     52  C   UNL A   1      43.401  25.984  25.341  1.00  0.00     0.002 A 
ATOM     53  C   UNL A   1      42.274  24.076  26.320  1.00  0.00     0.091 A 
ATOM     54  F   UNL A   1      41.097  24.354  28.375  1.00  0.00    -0.205 F 
ATOM     55  C   UNL A   1      43.033  24.642  25.285  1.00  0.00     0.022 A 
BRANCH  53  56
ATOM     56  S   UNL A   1      41.969  22.308  26.260  1.00  0.00     0.127 S 
ATOM     57  O   UNL A   1      42.673  21.922  25.042  1.00  0.00    -0.237 OA
ATOM     58  O   UNL A   1      42.587  21.844  27.504  1.00  0.00    -0.237 OA
ATOM     59  O   UNL A   1      40.518  22.170  26.233  1.00  0.00    -0.744 OA
ENDBRANCH  53  56
ENDBRANCH  25  49
BRANCH  37  60
ATOM     60  C   UNL A   1      45.139  27.029  33.779  1.00  0.00     0.023 A 
ATOM     61  C   UNL A   1      46.357  27.734  33.715  1.00  0.00     0.012 A 
ATOM     62  C   UNL A   1      45.076  25.817  34.492  1.00  0.00     0.148 A 
ATOM     63  C   UNL A   1      47.503  27.226  34.326  1.00  0.00     0.002 A 
ATOM     64  C   UNL A   1      46.212  25.339  35.134  1.00  0.00     0.091 A 
ATOM     65  F   UNL A   1      43.914  25.151  34.521  1.00  0.00    -0.205 F 
ATOM     66  C   UNL A   1      47.427  26.036  35.044  1.00  0.00     0.022 A 
BRANCH  64  67
ATOM     67  S   UNL A   1      46.182  23.858  36.152  1.00  0.00     0.127 S 
ATOM     68  O   UNL A   1      47.551  23.817  36.661  1.00  0.00    -0.237 OA
ATOM     69  O   UNL A   1      45.167  24.187  37.154  1.00  0.00    -0.237 OA
ATOM     70  O   UNL A   1      45.811  22.770  35.258  1.00  0.00    -0.744 OA
ENDBRANCH  64  67
ENDBRANCH  37  60
ENDBRANCH  11  12
ENDBRANCH   4   6
ENDBRANCH   1   2
BRANCH   1  71
ATOM     71  C   UNL A   1      31.705  28.753  26.580  1.00  0.00     0.042 C 
BRANCH  71  72
ATOM     72  C   UNL A   1      32.012  27.274  26.766  1.00  0.00     0.117 C 
BRANCH  72  73
ATOM     73  N   UNL A   1      33.235  26.876  26.089  1.00  0.00    -0.356 N 
ATOM     74  C   UNL A   1      33.691  25.652  25.714  1.00  0.00     0.224 C 
ATOM     75  H   UNL A   1      33.837  27.622  25.861  1.00  0.00     0.163 HD
ATOM     76  O   UNL A   1      34.776  25.609  25.132  1.00  0.00    -0.275 OA
BRANCH  74  77
ATOM     77  C   UNL A   1      32.888  24.395  26.020  1.00  0.00     0.095 C 
ATOM     78  C   UNL A   1      33.872  23.210  26.029  1.00  0.00     0.041 C 
ATOM     79  C   UNL A   1      31.693  24.185  25.066  1.00  0.00     0.095 C 
ATOM     80  C   UNL A   1      33.191  21.881  26.114  1.00  0.00    -0.030 C 
ATOM     81  C   UNL A   1      31.031  22.796  25.250  1.00  0.00     0.041 C 
ATOM     82  C   UNL A   1      31.910  21.701  25.770  1.00  0.00    -0.030 C 
BRANCH  79  83
ATOM     83  C   UNL A   1      32.013  24.425  23.608  1.00  0.00     0.228 C 
ATOM     84  O   UNL A   1      32.543  23.520  22.944  1.00  0.00    -0.274 OA
ATOM     85  N   UNL A   1      31.755  25.554  22.902  1.00  0.00    -0.324 N 
ATOM     86  H   UNL A   1      31.994  25.388  21.961  1.00  0.00     0.169 HD
BRANCH  85  87
ATOM     87  C   UNL A   1      31.272  26.883  23.007  1.00  0.00     0.060 A 
ATOM     88  C   UNL A   1      29.882  26.906  23.296  1.00  0.00     0.029 A 
ATOM     89  C   UNL A   1      31.887  28.138  22.860  1.00  0.00     0.065 A 
ATOM     90  C   UNL A   1      29.132  28.085  23.365  1.00  0.00     0.018 A 
ATOM     91  C   UNL A   1      31.118  29.324  22.876  1.00  0.00     0.038 A 
ATOM     92  Cl  UNL A   1      33.569  28.471  22.775  1.00  0.00    -0.082 Cl
ATOM     93  C   UNL A   1      29.753  29.294  23.121  1.00  0.00     0.019 A 
ATOM     94  Br  UNL A   1      28.760  30.899  23.159  1.00  0.00    -0.051 Br
ENDBRANCH  85  87
ENDBRANCH  79  83
ENDBRANCH  74  77
ENDBRANCH  72  73
ENDBRANCH  71  72
ENDBRANCH   1  71
TORSDOF 15
ENDMDL
