MODEL 1
REMARK VINA RESULT:     -11.3      0.000      0.000
REMARK SMILES Cc1nc(CCC(F)(F)F)[nH]c(=O)c1CCC(=O)NCCCNC(=O)c1ccc(-c2c3nc(c(-c4cccc(S(=O)(=O)[O-])c4F)c4ccc([nH]4)c(-c4cccc(S(=O)(=O)[O-])c4F)c4nc(c(-c5cccc(S(=O)(=O)[O-])c5F)c5ccc2[nH]5)C=C4)C=C3)cc1
REMARK SMILES IDX 20 1 19 2 17 3 18 4 16 6 15 7 14 8 1 9 2 10 3 11 4 12 12 13
REMARK SMILES IDX 11 14 13 15 5 17 6 18 7 19 8 20 9 21 10 22 21 23 22 24 23 25
REMARK SMILES IDX 24 26 25 28 26 29 27 30 88 31 28 32 87 33 29 34 30 35 31 36
REMARK SMILES IDX 81 37 32 38 86 39 80 40 82 41 33 42 85 43 79 44 78 45 34 47
REMARK SMILES IDX 66 48 46 49 65 50 47 51 50 52 64 53 83 54 48 55 49 56 63 58
REMARK SMILES IDX 84 59 51 60 35 61 36 62 44 63 37 64 39 65 45 66 38 67 40 68
REMARK SMILES IDX 41 69 42 70 43 71 67 72 68 73 76 74 69 75 71 76 77 77 70 78
REMARK SMILES IDX 72 79 73 80 74 81 75 82 52 83 53 84 61 85 54 86 56 87 62 88
REMARK SMILES IDX 55 89 57 90 58 91 59 92 60 93
REMARK H PARENT 19 5 11 16 23 27 82 46 50 57
REMARK Flexibility Score: inf
ROOT
ATOM      1  C   UNL A   1      31.838  27.487  26.309  1.00  0.00     0.117 C 
ENDROOT
BRANCH   1   2
ATOM      2  N   UNL A   1      31.098  26.492  25.526  1.00  0.00    -0.356 N 
ATOM      3  C   UNL A   1      31.154  25.133  25.445  1.00  0.00     0.220 C 
ATOM      4  O   UNL A   1      30.440  24.579  24.602  1.00  0.00    -0.275 OA
ATOM      5  H   UNL A   1      30.418  26.889  24.936  1.00  0.00     0.163 HD
BRANCH   3   6
ATOM      6  C   UNL A   1      31.990  24.293  26.394  1.00  0.00     0.105 C 
BRANCH   6   7
ATOM      7  C   UNL A   1      33.387  23.942  25.839  1.00  0.00     0.053 C 
BRANCH   7   8
ATOM      8  C   UNL A   1      33.454  22.479  25.508  1.00  0.00     0.039 A 
ATOM      9  C   UNL A   1      32.967  22.575  23.063  1.00  0.00     0.067 C 
ATOM     10  C   UNL A   1      33.206  21.835  24.349  1.00  0.00     0.048 A 
ATOM     11  N   UNL A   1      33.084  20.459  24.253  1.00  0.00    -0.240 NA
ATOM     12  C   UNL A   1      33.066  19.788  25.359  1.00  0.00     0.109 A 
ATOM     13  C   UNL A   1      33.767  21.617  26.652  1.00  0.00     0.254 A 
ATOM     14  N   UNL A   1      33.252  20.372  26.574  1.00  0.00    -0.310 N 
ATOM     15  O   UNL A   1      34.405  22.021  27.621  1.00  0.00    -0.269 OA
ATOM     16  H   UNL A   1      33.012  19.886  27.395  1.00  0.00     0.171 HD
BRANCH  12  17
ATOM     17  C   UNL A   1      32.823  18.296  25.395  1.00  0.00     0.084 C 
BRANCH  17  18
ATOM     18  C   UNL A   1      32.901  17.582  24.037  1.00  0.00     0.123 C 
BRANCH  18  19
ATOM     19  C   UNL A   1      34.250  16.969  23.725  1.00  0.00     0.389 C 
ATOM     20  F   UNL A   1      35.237  17.807  24.138  1.00  0.00    -0.171 F 
ATOM     21  F   UNL A   1      34.440  15.792  24.331  1.00  0.00    -0.171 F 
ATOM     22  F   UNL A   1      34.420  16.785  22.402  1.00  0.00    -0.171 F 
ENDBRANCH  18  19
ENDBRANCH  17  18
ENDBRANCH  12  17
ENDBRANCH   7   8
ENDBRANCH   6   7
ENDBRANCH   3   6
ENDBRANCH   1   2
BRANCH   1  23
ATOM     23  C   UNL A   1      33.053  28.030  25.522  1.00  0.00     0.042 C 
BRANCH  23  24
ATOM     24  C   UNL A   1      32.822  29.358  24.801  1.00  0.00     0.118 C 
BRANCH  24  25
ATOM     25  N   UNL A   1      32.452  30.447  25.689  1.00  0.00    -0.352 N 
ATOM     26  C   UNL A   1      32.991  31.074  26.786  1.00  0.00     0.251 C 
ATOM     27  H   UNL A   1      31.586  30.840  25.438  1.00  0.00     0.163 HD
ATOM     28  O   UNL A   1      32.314  32.016  27.214  1.00  0.00    -0.269 OA
BRANCH  26  29
ATOM     29  C   UNL A   1      34.259  30.732  27.513  1.00  0.00     0.039 A 
ATOM     30  C   UNL A   1      35.193  31.781  27.667  1.00  0.00     0.014 A 
ATOM     31  C   UNL A   1      34.607  29.496  28.053  1.00  0.00     0.014 A 
ATOM     32  C   UNL A   1      36.420  31.604  28.331  1.00  0.00     0.010 A 
ATOM     33  C   UNL A   1      35.816  29.329  28.761  1.00  0.00     0.010 A 
ATOM     34  C   UNL A   1      36.747  30.372  28.902  1.00  0.00    -0.014 A 
BRANCH  34  35
ATOM     35  C   UNL A   1      38.038  30.151  29.632  1.00  0.00     0.031 A 
ATOM     36  C   UNL A   1      39.083  29.216  29.068  1.00  0.00     0.074 A 
ATOM     37  C   UNL A   1      38.261  30.710  30.842  1.00  0.00     0.049 A 
ATOM     38  N   UNL A   1      40.217  28.825  29.595  1.00  0.00    -0.248 NA
ATOM     39  C   UNL A   1      38.813  28.637  27.743  1.00  0.00     0.031 C 
ATOM     40  C   UNL A   1      37.351  31.617  31.539  1.00  0.00     0.029 A 
ATOM     41  N   UNL A   1      39.305  30.559  31.727  1.00  0.00    -0.354 N 
ATOM     42  C   UNL A   1      40.775  27.930  28.688  1.00  0.00     0.074 A 
ATOM     43  C   UNL A   1      39.835  27.806  27.594  1.00  0.00     0.031 C 
ATOM     44  C   UNL A   1      37.832  31.884  32.762  1.00  0.00     0.029 A 
ATOM     45  C   UNL A   1      39.104  31.191  32.935  1.00  0.00     0.049 A 
ATOM     46  H   UNL A   1      40.120  30.049  31.517  1.00  0.00     0.167 HD
ATOM     47  C   UNL A   1      41.974  27.300  28.732  1.00  0.00     0.034 A 
ATOM     48  C   UNL A   1      39.852  31.222  34.057  1.00  0.00     0.034 A 
ATOM     49  C   UNL A   1      42.948  27.471  29.777  1.00  0.00     0.049 A 
ATOM     50  C   UNL A   1      41.192  30.539  34.071  1.00  0.00     0.074 A 
ATOM     51  C   UNL A   1      44.234  26.962  29.847  1.00  0.00     0.029 A 
ATOM     52  N   UNL A   1      42.748  28.206  30.934  1.00  0.00    -0.354 N 
ATOM     53  N   UNL A   1      41.773  29.846  33.123  1.00  0.00    -0.248 NA
ATOM     54  C   UNL A   1      42.007  30.695  35.286  1.00  0.00     0.031 C 
ATOM     55  C   UNL A   1      44.809  27.383  31.052  1.00  0.00     0.029 A 
ATOM     56  C   UNL A   1      43.884  28.162  31.726  1.00  0.00     0.049 A 
ATOM     57  H   UNL A   1      41.920  28.689  31.160  1.00  0.00     0.167 HD
ATOM     58  C   UNL A   1      43.037  29.526  33.606  1.00  0.00     0.074 A 
ATOM     59  C   UNL A   1      43.143  30.112  34.925  1.00  0.00     0.031 C 
ATOM     60  C   UNL A   1      44.015  28.802  33.010  1.00  0.00     0.034 A 
BRANCH  47  61
ATOM     61  C   UNL A   1      42.341  26.420  27.564  1.00  0.00     0.023 A 
ATOM     62  C   UNL A   1      43.119  26.955  26.517  1.00  0.00     0.012 A 
ATOM     63  C   UNL A   1      41.969  25.062  27.522  1.00  0.00     0.148 A 
ATOM     64  C   UNL A   1      43.485  26.167  25.427  1.00  0.00     0.002 A 
ATOM     65  C   UNL A   1      42.373  24.271  26.452  1.00  0.00     0.091 A 
ATOM     66  F   UNL A   1      41.217  24.571  28.518  1.00  0.00    -0.205 F 
ATOM     67  C   UNL A   1      43.120  24.824  25.399  1.00  0.00     0.022 A 
BRANCH  65  68
ATOM     68  S   UNL A   1      42.018  22.512  26.358  1.00  0.00     0.127 S 
ATOM     69  O   UNL A   1      42.675  22.145  25.105  1.00  0.00    -0.237 OA
ATOM     70  O   UNL A   1      42.671  21.999  27.562  1.00  0.00    -0.237 OA
ATOM     71  O   UNL A   1      40.565  22.398  26.362  1.00  0.00    -0.744 OA
ENDBRANCH  65  68
ENDBRANCH  47  61
BRANCH  48  72
ATOM     72  C   UNL A   1      39.400  32.020  35.233  1.00  0.00     0.023 A 
ATOM     73  C   UNL A   1      38.520  31.431  36.161  1.00  0.00     0.012 A 
ATOM     74  C   UNL A   1      39.842  33.339  35.449  1.00  0.00     0.148 A 
ATOM     75  C   UNL A   1      38.059  32.150  37.264  1.00  0.00     0.002 A 
ATOM     76  C   UNL A   1      39.416  34.036  36.575  1.00  0.00     0.091 A 
ATOM     77  F   UNL A   1      40.673  33.887  34.549  1.00  0.00    -0.205 F 
ATOM     78  C   UNL A   1      38.513  33.449  37.475  1.00  0.00     0.022 A 
BRANCH  76  79
ATOM     79  S   UNL A   1      40.040  35.668  36.996  1.00  0.00     0.127 S 
ATOM     80  O   UNL A   1      41.474  35.416  37.124  1.00  0.00    -0.237 OA
ATOM     81  O   UNL A   1      39.654  36.451  35.822  1.00  0.00    -0.237 OA
ATOM     82  O   UNL A   1      39.348  36.046  38.219  1.00  0.00    -0.744 OA
ENDBRANCH  76  79
ENDBRANCH  48  72
BRANCH  60  83
ATOM     83  C   UNL A   1      45.312  28.624  33.754  1.00  0.00     0.023 A 
ATOM     84  C   UNL A   1      46.345  29.568  33.590  1.00  0.00     0.012 A 
ATOM     85  C   UNL A   1      45.481  27.569  34.672  1.00  0.00     0.148 A 
ATOM     86  C   UNL A   1      47.536  29.448  34.306  1.00  0.00     0.002 A 
ATOM     87  C   UNL A   1      46.653  27.480  35.416  1.00  0.00     0.091 A 
ATOM     88  F   UNL A   1      44.497  26.665  34.798  1.00  0.00    -0.205 F 
ATOM     89  C   UNL A   1      47.685  28.414  35.227  1.00  0.00     0.022 A 
BRANCH  87  90
ATOM     90  S   UNL A   1      46.889  26.236  36.690  1.00  0.00     0.127 S 
ATOM     91  O   UNL A   1      45.882  26.624  37.677  1.00  0.00    -0.237 OA
ATOM     92  O   UNL A   1      46.595  24.994  35.975  1.00  0.00    -0.237 OA
ATOM     93  O   UNL A   1      48.275  26.367  37.122  1.00  0.00    -0.744 OA
ENDBRANCH  87  90
ENDBRANCH  60  83
ENDBRANCH  34  35
ENDBRANCH  26  29
ENDBRANCH  24  25
ENDBRANCH  23  24
ENDBRANCH   1  23
TORSDOF 18
ENDMDL
MODEL 2
REMARK VINA RESULT:     -11.3      3.728      9.111
REMARK SMILES Cc1nc(CCC(F)(F)F)[nH]c(=O)c1CCC(=O)NCCCNC(=O)c1ccc(-c2c3nc(c(-c4cccc(S(=O)(=O)[O-])c4F)c4ccc([nH]4)c(-c4cccc(S(=O)(=O)[O-])c4F)c4nc(c(-c5cccc(S(=O)(=O)[O-])c5F)c5ccc2[nH]5)C=C4)C=C3)cc1
REMARK SMILES IDX 20 1 19 2 17 3 18 4 16 6 15 7 14 8 1 9 2 10 3 11 4 12 12 13
REMARK SMILES IDX 11 14 13 15 5 17 6 18 7 19 8 20 9 21 10 22 21 23 22 24 23 25
REMARK SMILES IDX 24 26 25 28 26 29 27 30 88 31 28 32 87 33 29 34 30 35 31 36
REMARK SMILES IDX 81 37 32 38 86 39 80 40 82 41 33 42 85 43 79 44 78 45 34 47
REMARK SMILES IDX 66 48 46 49 65 50 47 51 50 52 64 53 83 54 48 55 49 56 63 58
REMARK SMILES IDX 84 59 51 60 35 61 36 62 44 63 37 64 39 65 45 66 38 67 40 68
REMARK SMILES IDX 41 69 42 70 43 71 67 72 68 73 76 74 69 75 71 76 77 77 70 78
REMARK SMILES IDX 72 79 73 80 74 81 75 82 52 83 53 84 61 85 54 86 56 87 62 88
REMARK SMILES IDX 55 89 57 90 58 91 59 92 60 93
REMARK H PARENT 19 5 11 16 23 27 82 46 50 57
REMARK Flexibility Score: inf
ROOT
ATOM      1  C   UNL A   1      32.949  29.904  26.252  1.00  0.00     0.117 C 
ENDROOT
BRANCH   1   2
ATOM      2  N   UNL A   1      32.213  28.753  26.783  1.00  0.00    -0.356 N 
ATOM      3  C   UNL A   1      32.218  27.421  26.493  1.00  0.00     0.220 C 
ATOM      4  O   UNL A   1      31.396  26.704  27.072  1.00  0.00    -0.275 OA
ATOM      5  H   UNL A   1      31.583  28.991  27.501  1.00  0.00     0.163 HD
BRANCH   3   6
ATOM      6  C   UNL A   1      33.238  26.796  25.558  1.00  0.00     0.105 C 
BRANCH   6   7
ATOM      7  C   UNL A   1      32.604  26.002  24.395  1.00  0.00     0.053 C 
BRANCH   7   8
ATOM      8  C   UNL A   1      31.711  26.902  23.589  1.00  0.00     0.039 A 
ATOM      9  C   UNL A   1      33.391  28.570  22.800  1.00  0.00     0.067 C 
ATOM     10  C   UNL A   1      31.986  28.057  22.949  1.00  0.00     0.048 A 
ATOM     11  N   UNL A   1      31.010  28.896  22.440  1.00  0.00    -0.240 NA
ATOM     12  C   UNL A   1      29.779  28.616  22.727  1.00  0.00     0.109 A 
ATOM     13  C   UNL A   1      30.305  26.487  23.562  1.00  0.00     0.254 A 
ATOM     14  N   UNL A   1      29.425  27.499  23.417  1.00  0.00    -0.310 N 
ATOM     15  O   UNL A   1      29.966  25.316  23.710  1.00  0.00    -0.269 OA
ATOM     16  H   UNL A   1      28.525  27.428  23.810  1.00  0.00     0.171 HD
BRANCH  12  17
ATOM     17  C   UNL A   1      28.631  29.516  22.329  1.00  0.00     0.084 C 
BRANCH  17  18
ATOM     18  C   UNL A   1      28.951  31.019  22.300  1.00  0.00     0.123 C 
BRANCH  18  19
ATOM     19  C   UNL A   1      28.438  31.795  23.493  1.00  0.00     0.389 C 
ATOM     20  F   UNL A   1      28.167  33.073  23.122  1.00  0.00    -0.171 F 
ATOM     21  F   UNL A   1      27.315  31.279  24.007  1.00  0.00    -0.171 F 
ATOM     22  F   UNL A   1      29.352  31.859  24.479  1.00  0.00    -0.171 F 
ENDBRANCH  18  19
ENDBRANCH  17  18
ENDBRANCH  12  17
ENDBRANCH   7   8
ENDBRANCH   6   7
ENDBRANCH   3   6
ENDBRANCH   1   2
BRANCH   1  23
ATOM     23  C   UNL A   1      32.837  31.125  27.194  1.00  0.00     0.042 C 
BRANCH  23  24
ATOM     24  C   UNL A   1      31.878  32.221  26.731  1.00  0.00     0.118 C 
BRANCH  24  25
ATOM     25  N   UNL A   1      32.157  33.523  27.312  1.00  0.00    -0.352 N 
ATOM     26  C   UNL A   1      33.155  34.093  28.065  1.00  0.00     0.251 C 
ATOM     27  H   UNL A   1      31.442  34.169  27.114  1.00  0.00     0.163 HD
ATOM     28  O   UNL A   1      32.982  35.293  28.311  1.00  0.00    -0.269 OA
BRANCH  26  29
ATOM     29  C   UNL A   1      34.380  33.430  28.625  1.00  0.00     0.039 A 
ATOM     30  C   UNL A   1      34.206  32.714  29.831  1.00  0.00     0.014 A 
ATOM     31  C   UNL A   1      35.662  33.444  28.080  1.00  0.00     0.014 A 
ATOM     32  C   UNL A   1      35.267  32.042  30.465  1.00  0.00     0.010 A 
ATOM     33  C   UNL A   1      36.716  32.731  28.690  1.00  0.00     0.010 A 
ATOM     34  C   UNL A   1      36.542  32.029  29.895  1.00  0.00    -0.014 A 
BRANCH  34  35
ATOM     35  C   UNL A   1      37.691  31.309  30.533  1.00  0.00     0.031 A 
ATOM     36  C   UNL A   1      38.113  31.644  31.946  1.00  0.00     0.074 A 
ATOM     37  C   UNL A   1      38.426  30.413  29.839  1.00  0.00     0.049 A 
ATOM     38  N   UNL A   1      39.135  31.199  32.634  1.00  0.00    -0.248 NA
ATOM     39  C   UNL A   1      37.282  32.614  32.676  1.00  0.00     0.031 C 
ATOM     40  C   UNL A   1      38.172  29.991  28.463  1.00  0.00     0.029 A 
ATOM     41  N   UNL A   1      39.572  29.727  30.179  1.00  0.00    -0.354 N 
ATOM     42  C   UNL A   1      39.093  31.860  33.857  1.00  0.00     0.074 A 
ATOM     43  C   UNL A   1      37.964  32.764  33.803  1.00  0.00     0.031 C 
ATOM     44  C   UNL A   1      39.161  29.184  28.049  1.00  0.00     0.029 A 
ATOM     45  C   UNL A   1      40.113  29.002  29.139  1.00  0.00     0.049 A 
ATOM     46  H   UNL A   1      39.966  29.752  31.080  1.00  0.00     0.167 HD
ATOM     47  C   UNL A   1      39.886  31.703  34.945  1.00  0.00     0.034 A 
ATOM     48  C   UNL A   1      41.241  28.267  29.062  1.00  0.00     0.034 A 
ATOM     49  C   UNL A   1      40.965  30.755  35.038  1.00  0.00     0.049 A 
ATOM     50  C   UNL A   1      42.090  28.084  30.291  1.00  0.00     0.074 A 
ATOM     51  C   UNL A   1      41.748  30.447  36.138  1.00  0.00     0.029 A 
ATOM     52  N   UNL A   1      41.414  29.961  33.996  1.00  0.00    -0.354 N 
ATOM     53  N   UNL A   1      41.920  28.582  31.490  1.00  0.00    -0.248 NA
ATOM     54  C   UNL A   1      43.250  27.188  30.172  1.00  0.00     0.031 C 
ATOM     55  C   UNL A   1      42.677  29.472  35.758  1.00  0.00     0.029 A 
ATOM     56  C   UNL A   1      42.465  29.166  34.423  1.00  0.00     0.049 A 
ATOM     57  H   UNL A   1      41.041  29.961  33.084  1.00  0.00     0.167 HD
ATOM     58  C   UNL A   1      42.919  28.023  32.280  1.00  0.00     0.074 A 
ATOM     59  C   UNL A   1      43.682  27.138  31.425  1.00  0.00     0.031 C 
ATOM     60  C   UNL A   1      43.183  28.235  33.591  1.00  0.00     0.034 A 
BRANCH  47  61
ATOM     61  C   UNL A   1      39.563  32.525  36.167  1.00  0.00     0.023 A 
ATOM     62  C   UNL A   1      40.184  33.778  36.337  1.00  0.00     0.012 A 
ATOM     63  C   UNL A   1      38.614  32.090  37.114  1.00  0.00     0.148 A 
ATOM     64  C   UNL A   1      39.900  34.569  37.450  1.00  0.00     0.002 A 
ATOM     65  C   UNL A   1      38.306  32.903  38.200  1.00  0.00     0.091 A 
ATOM     66  F   UNL A   1      38.043  30.889  36.945  1.00  0.00    -0.205 F 
ATOM     67  C   UNL A   1      38.956  34.135  38.375  1.00  0.00     0.022 A 
BRANCH  65  68
ATOM     68  S   UNL A   1      37.049  32.469  39.408  1.00  0.00     0.127 S 
ATOM     69  O   UNL A   1      37.273  33.478  40.442  1.00  0.00    -0.237 OA
ATOM     70  O   UNL A   1      35.812  32.643  38.645  1.00  0.00    -0.237 OA
ATOM     71  O   UNL A   1      37.330  31.094  39.800  1.00  0.00    -0.744 OA
ENDBRANCH  65  68
ENDBRANCH  47  61
BRANCH  48  72
ATOM     72  C   UNL A   1      41.582  27.554  27.797  1.00  0.00     0.023 A 
ATOM     73  C   UNL A   1      41.965  28.306  26.670  1.00  0.00     0.012 A 
ATOM     74  C   UNL A   1      41.547  26.149  27.705  1.00  0.00     0.148 A 
ATOM     75  C   UNL A   1      42.272  27.678  25.464  1.00  0.00     0.002 A 
ATOM     76  C   UNL A   1      41.900  25.525  26.513  1.00  0.00     0.091 A 
ATOM     77  F   UNL A   1      41.171  25.450  28.786  1.00  0.00    -0.205 F 
ATOM     78  C   UNL A   1      42.248  26.288  25.387  1.00  0.00     0.022 A 
BRANCH  76  79
ATOM     79  S   UNL A   1      42.016  23.739  26.354  1.00  0.00     0.127 S 
ATOM     80  O   UNL A   1      42.843  23.390  27.506  1.00  0.00    -0.237 OA
ATOM     81  O   UNL A   1      40.613  23.335  26.456  1.00  0.00    -0.237 OA
ATOM     82  O   UNL A   1      42.611  23.502  25.047  1.00  0.00    -0.744 OA
ENDBRANCH  76  79
ENDBRANCH  48  72
BRANCH  60  83
ATOM     83  C   UNL A   1      44.324  27.473  34.211  1.00  0.00     0.023 A 
ATOM     84  C   UNL A   1      45.627  28.008  34.167  1.00  0.00     0.012 A 
ATOM     85  C   UNL A   1      44.097  26.267  34.903  1.00  0.00     0.148 A 
ATOM     86  C   UNL A   1      46.689  27.342  34.776  1.00  0.00     0.002 A 
ATOM     87  C   UNL A   1      45.153  25.631  35.548  1.00  0.00     0.091 A 
ATOM     88  F   UNL A   1      42.856  25.759  34.916  1.00  0.00    -0.205 F 
ATOM     89  C   UNL A   1      46.451  26.162  35.477  1.00  0.00     0.022 A 
BRANCH  87  90
ATOM     90  S   UNL A   1      44.918  24.158  36.550  1.00  0.00     0.127 S 
ATOM     91  O   UNL A   1      43.982  24.636  37.567  1.00  0.00    -0.237 OA
ATOM     92  O   UNL A   1      44.346  23.213  35.591  1.00  0.00    -0.237 OA
ATOM     93  O   UNL A   1      46.242  23.793  37.037  1.00  0.00    -0.744 OA
ENDBRANCH  87  90
ENDBRANCH  60  83
ENDBRANCH  34  35
ENDBRANCH  26  29
ENDBRANCH  24  25
ENDBRANCH  23  24
ENDBRANCH   1  23
TORSDOF 18
ENDMDL
MODEL 3
REMARK VINA RESULT:     -11.2      1.610      2.007
REMARK SMILES Cc1nc(CCC(F)(F)F)[nH]c(=O)c1CCC(=O)NCCCNC(=O)c1ccc(-c2c3nc(c(-c4cccc(S(=O)(=O)[O-])c4F)c4ccc([nH]4)c(-c4cccc(S(=O)(=O)[O-])c4F)c4nc(c(-c5cccc(S(=O)(=O)[O-])c5F)c5ccc2[nH]5)C=C4)C=C3)cc1
REMARK SMILES IDX 20 1 19 2 17 3 18 4 16 6 15 7 14 8 1 9 2 10 3 11 4 12 12 13
REMARK SMILES IDX 11 14 13 15 5 17 6 18 7 19 8 20 9 21 10 22 21 23 22 24 23 25
REMARK SMILES IDX 24 26 25 28 26 29 27 30 88 31 28 32 87 33 29 34 30 35 31 36
REMARK SMILES IDX 81 37 32 38 86 39 80 40 82 41 33 42 85 43 79 44 78 45 34 47
REMARK SMILES IDX 66 48 46 49 65 50 47 51 50 52 64 53 83 54 48 55 49 56 63 58
REMARK SMILES IDX 84 59 51 60 35 61 36 62 44 63 37 64 39 65 45 66 38 67 40 68
REMARK SMILES IDX 41 69 42 70 43 71 67 72 68 73 76 74 69 75 71 76 77 77 70 78
REMARK SMILES IDX 72 79 73 80 74 81 75 82 52 83 53 84 61 85 54 86 56 87 62 88
REMARK SMILES IDX 55 89 57 90 58 91 59 92 60 93
REMARK H PARENT 19 5 11 16 23 27 82 46 50 57
REMARK Flexibility Score: inf
ROOT
ATOM      1  C   UNL A   1      31.308  26.858  25.360  1.00  0.00     0.117 C 
ENDROOT
BRANCH   1   2
ATOM      2  N   UNL A   1      31.083  25.690  26.217  1.00  0.00    -0.356 N 
ATOM      3  C   UNL A   1      31.859  24.632  26.584  1.00  0.00     0.220 C 
ATOM      4  O   UNL A   1      31.336  23.745  27.265  1.00  0.00    -0.275 OA
ATOM      5  H   UNL A   1      30.181  25.666  26.612  1.00  0.00     0.163 HD
BRANCH   3   6
ATOM      6  C   UNL A   1      33.339  24.554  26.252  1.00  0.00     0.105 C 
BRANCH   6   7
ATOM      7  C   UNL A   1      33.636  23.833  24.919  1.00  0.00     0.053 C 
BRANCH   7   8
ATOM      8  C   UNL A   1      33.158  22.411  24.990  1.00  0.00     0.039 A 
ATOM      9  C   UNL A   1      34.507  21.607  26.929  1.00  0.00     0.067 C 
ATOM     10  C   UNL A   1      33.557  21.396  25.784  1.00  0.00     0.048 A 
ATOM     11  N   UNL A   1      33.186  20.078  25.578  1.00  0.00    -0.240 NA
ATOM     12  C   UNL A   1      32.547  19.806  24.487  1.00  0.00     0.109 A 
ATOM     13  C   UNL A   1      32.152  22.063  23.981  1.00  0.00     0.254 A 
ATOM     14  N   UNL A   1      32.159  20.768  23.606  1.00  0.00    -0.310 N 
ATOM     15  O   UNL A   1      31.402  22.902  23.489  1.00  0.00    -0.269 OA
ATOM     16  H   UNL A   1      31.882  20.517  22.695  1.00  0.00     0.171 HD
BRANCH  12  17
ATOM     17  C   UNL A   1      32.189  18.391  24.091  1.00  0.00     0.084 C 
BRANCH  17  18
ATOM     18  C   UNL A   1      33.055  17.778  22.980  1.00  0.00     0.123 C 
BRANCH  18  19
ATOM     19  C   UNL A   1      34.147  16.852  23.471  1.00  0.00     0.389 C 
ATOM     20  F   UNL A   1      35.089  17.571  24.135  1.00  0.00    -0.171 F 
ATOM     21  F   UNL A   1      33.694  15.911  24.309  1.00  0.00    -0.171 F 
ATOM     22  F   UNL A   1      34.772  16.232  22.453  1.00  0.00    -0.171 F 
ENDBRANCH  18  19
ENDBRANCH  17  18
ENDBRANCH  12  17
ENDBRANCH   7   8
ENDBRANCH   6   7
ENDBRANCH   3   6
ENDBRANCH   1   2
BRANCH   1  23
ATOM     23  C   UNL A   1      31.805  28.070  26.181  1.00  0.00     0.042 C 
BRANCH  23  24
ATOM     24  C   UNL A   1      32.374  29.226  25.359  1.00  0.00     0.118 C 
BRANCH  24  25
ATOM     25  N   UNL A   1      32.066  30.537  25.905  1.00  0.00    -0.352 N 
ATOM     26  C   UNL A   1      32.654  31.427  26.770  1.00  0.00     0.251 C 
ATOM     27  H   UNL A   1      31.208  30.878  25.564  1.00  0.00     0.163 HD
ATOM     28  O   UNL A   1      32.022  32.480  26.921  1.00  0.00    -0.269 OA
BRANCH  26  29
ATOM     29  C   UNL A   1      33.926  31.254  27.547  1.00  0.00     0.039 A 
ATOM     30  C   UNL A   1      34.210  29.945  27.998  1.00  0.00     0.014 A 
ATOM     31  C   UNL A   1      34.854  32.243  27.864  1.00  0.00     0.014 A 
ATOM     32  C   UNL A   1      35.369  29.638  28.733  1.00  0.00     0.010 A 
ATOM     33  C   UNL A   1      36.040  31.928  28.561  1.00  0.00     0.010 A 
ATOM     34  C   UNL A   1      36.313  30.627  29.017  1.00  0.00    -0.014 A 
BRANCH  34  35
ATOM     35  C   UNL A   1      37.567  30.334  29.784  1.00  0.00     0.031 A 
ATOM     36  C   UNL A   1      38.590  29.365  29.234  1.00  0.00     0.074 A 
ATOM     37  C   UNL A   1      37.773  30.857  31.013  1.00  0.00     0.049 A 
ATOM     38  N   UNL A   1      39.687  28.914  29.790  1.00  0.00    -0.248 NA
ATOM     39  C   UNL A   1      38.340  28.827  27.888  1.00  0.00     0.031 C 
ATOM     40  C   UNL A   1      36.880  31.788  31.699  1.00  0.00     0.029 A 
ATOM     41  N   UNL A   1      38.779  30.641  31.929  1.00  0.00    -0.354 N 
ATOM     42  C   UNL A   1      40.236  28.014  28.882  1.00  0.00     0.074 A 
ATOM     43  C   UNL A   1      39.330  27.955  27.755  1.00  0.00     0.031 C 
ATOM     44  C   UNL A   1      37.330  32.008  32.944  1.00  0.00     0.029 A 
ATOM     45  C   UNL A   1      38.564  31.256  33.143  1.00  0.00     0.049 A 
ATOM     46  H   UNL A   1      39.578  30.100  31.734  1.00  0.00     0.167 HD
ATOM     47  C   UNL A   1      41.404  27.331  28.952  1.00  0.00     0.034 A 
ATOM     48  C   UNL A   1      39.273  31.230  34.290  1.00  0.00     0.034 A 
ATOM     49  C   UNL A   1      42.348  27.437  30.032  1.00  0.00     0.049 A 
ATOM     50  C   UNL A   1      40.582  30.489  34.333  1.00  0.00     0.074 A 
ATOM     51  C   UNL A   1      43.608  26.870  30.133  1.00  0.00     0.029 A 
ATOM     52  N   UNL A   1      42.141  28.156  31.198  1.00  0.00    -0.354 N 
ATOM     53  N   UNL A   1      41.164  29.791  33.390  1.00  0.00    -0.248 NA
ATOM     54  C   UNL A   1      41.361  30.583  35.577  1.00  0.00     0.031 C 
ATOM     55  C   UNL A   1      44.159  27.240  31.365  1.00  0.00     0.029 A 
ATOM     56  C   UNL A   1      43.246  28.045  32.026  1.00  0.00     0.049 A 
ATOM     57  H   UNL A   1      41.328  28.670  31.407  1.00  0.00     0.167 HD
ATOM     58  C   UNL A   1      42.396  29.405  33.907  1.00  0.00     0.074 A 
ATOM     59  C   UNL A   1      42.482  29.958  35.242  1.00  0.00     0.031 C 
ATOM     60  C   UNL A   1      43.361  28.651  33.328  1.00  0.00     0.034 A 
BRANCH  47  61
ATOM     61  C   UNL A   1      41.773  26.460  27.777  1.00  0.00     0.023 A 
ATOM     62  C   UNL A   1      42.513  27.016  26.714  1.00  0.00     0.012 A 
ATOM     63  C   UNL A   1      41.439  25.092  27.744  1.00  0.00     0.148 A 
ATOM     64  C   UNL A   1      42.880  26.237  25.617  1.00  0.00     0.002 A 
ATOM     65  C   UNL A   1      41.843  24.312  26.665  1.00  0.00     0.091 A 
ATOM     66  F   UNL A   1      40.721  24.582  28.755  1.00  0.00    -0.205 F 
ATOM     67  C   UNL A   1      42.552  24.885  25.597  1.00  0.00     0.022 A 
BRANCH  65  68
ATOM     68  S   UNL A   1      41.536  22.543  26.580  1.00  0.00     0.127 S 
ATOM     69  O   UNL A   1      42.194  22.190  25.324  1.00  0.00    -0.237 OA
ATOM     70  O   UNL A   1      42.213  22.053  27.781  1.00  0.00    -0.237 OA
ATOM     71  O   UNL A   1      40.088  22.389  26.597  1.00  0.00    -0.744 OA
ENDBRANCH  65  68
ENDBRANCH  47  61
BRANCH  48  72
ATOM     72  C   UNL A   1      38.817  32.022  35.468  1.00  0.00     0.023 A 
ATOM     73  C   UNL A   1      38.994  33.419  35.463  1.00  0.00     0.012 A 
ATOM     74  C   UNL A   1      38.198  31.413  36.577  1.00  0.00     0.148 A 
ATOM     75  C   UNL A   1      38.598  34.193  36.554  1.00  0.00     0.002 A 
ATOM     76  C   UNL A   1      37.762  32.195  37.642  1.00  0.00     0.091 A 
ATOM     77  F   UNL A   1      38.045  30.081  36.568  1.00  0.00    -0.205 F 
ATOM     78  C   UNL A   1      37.975  33.583  37.639  1.00  0.00     0.022 A 
BRANCH  76  79
ATOM     79  S   UNL A   1      36.842  31.515  39.027  1.00  0.00     0.127 S 
ATOM     80  O   UNL A   1      35.740  32.466  39.149  1.00  0.00    -0.237 OA
ATOM     81  O   UNL A   1      36.466  30.194  38.521  1.00  0.00    -0.237 OA
ATOM     82  O   UNL A   1      37.781  31.482  40.140  1.00  0.00    -0.744 OA
ENDBRANCH  76  79
ENDBRANCH  48  72
BRANCH  60  83
ATOM     83  C   UNL A   1      44.623  28.401  34.111  1.00  0.00     0.023 A 
ATOM     84  C   UNL A   1      45.697  29.307  34.011  1.00  0.00     0.012 A 
ATOM     85  C   UNL A   1      44.718  27.313  35.001  1.00  0.00     0.148 A 
ATOM     86  C   UNL A   1      46.856  29.120  34.764  1.00  0.00     0.002 A 
ATOM     87  C   UNL A   1      45.858  27.157  35.782  1.00  0.00     0.091 A 
ATOM     88  F   UNL A   1      43.697  26.446  35.066  1.00  0.00    -0.205 F 
ATOM     89  C   UNL A   1      46.932  28.054  35.657  1.00  0.00     0.022 A 
BRANCH  87  90
ATOM     90  S   UNL A   1      46.001  25.868  37.025  1.00  0.00     0.127 S 
ATOM     91  O   UNL A   1      44.771  26.056  37.793  1.00  0.00    -0.237 OA
ATOM     92  O   UNL A   1      46.033  24.650  36.214  1.00  0.00    -0.237 OA
ATOM     93  O   UNL A   1      47.239  26.143  37.744  1.00  0.00    -0.744 OA
ENDBRANCH  87  90
ENDBRANCH  60  83
ENDBRANCH  34  35
ENDBRANCH  26  29
ENDBRANCH  24  25
ENDBRANCH  23  24
ENDBRANCH   1  23
TORSDOF 18
ENDMDL
