MODEL 1
REMARK VINA RESULT:     -14.5      0.000      0.000
REMARK SMILES Cc1ccc(-c2cnnc(-n3nc(C)c4c3NC(=O)C[C@@H]4c3ccc(C(=O)NCCCNC(=O)c4ccc(-c5c6nc(c(-c7cccc(S(=O)(=O)[O-])c7F)c7ccc([nH]7)c(-c7cccc(S(=O)(=O)[O-])c7F)c7nc(c(-c8cccc(S(=O)(=O)[O-])c8F)c8ccc5[nH]8)C=C7)C=C6)cc4)cc3)n2)cc1
REMARK SMILES IDX 30 1 29 2 28 3 26 4 27 5 25 7 22 8 23 9 99 10 24 11 98 12
REMARK SMILES IDX 21 13 11 14 12 15 16 16 13 17 15 18 17 19 14 20 18 21 20 23
REMARK SMILES IDX 19 24 10 25 6 26 7 27 100 28 8 29 9 30 5 31 1 32 2 33 3 34
REMARK SMILES IDX 102 35 4 36 101 37 31 38 32 39 33 40 34 42 35 43 36 44 97 45
REMARK SMILES IDX 37 46 96 47 38 48 39 49 40 50 90 51 41 52 95 53 89 54 91 55
REMARK SMILES IDX 42 56 94 57 88 58 87 59 43 61 75 62 55 63 74 64 56 65 59 66
REMARK SMILES IDX 73 67 92 68 57 69 58 70 72 72 93 73 60 74 44 75 45 76 53 77
REMARK SMILES IDX 46 78 48 79 54 80 47 81 49 82 50 83 51 84 52 85 76 86 77 87
REMARK SMILES IDX 85 88 78 89 80 90 86 91 79 92 81 93 82 94 83 95 84 96 61 97
REMARK SMILES IDX 62 98 70 99 63 100 65 101 71 102 64 103 66 104 67 105 68 106
REMARK SMILES IDX 69 107
REMARK H PARENT 28 6 17 22 32 41 91 60 59 71
REMARK Flexibility Score: inf
ROOT
ATOM      1  C   UNL A   1      32.334  31.500  26.953  1.00  0.00     0.042 C 
ENDROOT
BRANCH   1   2
ATOM      2  C   UNL A   1      31.520  30.562  26.072  1.00  0.00     0.118 C 
BRANCH   2   3
ATOM      3  N   UNL A   1      30.645  31.262  25.132  1.00  0.00    -0.352 N 
ATOM      4  C   UNL A   1      29.940  30.779  24.050  1.00  0.00     0.251 C 
ATOM      5  O   UNL A   1      29.056  31.448  23.524  1.00  0.00    -0.269 OA
ATOM      6  H   UNL A   1      30.543  32.227  25.298  1.00  0.00     0.163 HD
BRANCH   4   7
ATOM      7  C   UNL A   1      30.199  29.413  23.549  1.00  0.00     0.039 A 
ATOM      8  C   UNL A   1      30.888  26.749  23.044  1.00  0.00    -0.040 A 
ATOM      9  C   UNL A   1      29.594  27.084  23.489  1.00  0.00     0.005 A 
ATOM     10  C   UNL A   1      31.732  27.788  22.643  1.00  0.00     0.005 A 
ATOM     11  C   UNL A   1      29.248  28.413  23.740  1.00  0.00     0.014 A 
ATOM     12  C   UNL A   1      31.382  29.106  22.891  1.00  0.00     0.014 A 
BRANCH   8  13
ATOM     13  C   UNL A   1      31.301  25.296  23.043  1.00  0.00     0.064 C 
ATOM     14  N   UNL A   1      34.514  24.318  24.394  1.00  0.00    -0.180 N 
ATOM     15  N   UNL A   1      34.142  25.040  25.484  1.00  0.00    -0.168 NA
ATOM     16  C   UNL A   1      33.751  24.732  23.314  1.00  0.00     0.143 A 
ATOM     17  C   UNL A   1      32.893  25.430  25.213  1.00  0.00     0.066 A 
ATOM     18  C   UNL A   1      32.541  25.113  23.867  1.00  0.00     0.026 A 
ATOM     19  N   UNL A   1      33.978  24.877  21.956  1.00  0.00    -0.310 N 
ATOM     20  C   UNL A   1      32.185  26.222  26.252  1.00  0.00     0.069 C 
ATOM     21  C   UNL A   1      32.854  25.185  21.120  1.00  0.00     0.226 C 
ATOM     22  H   UNL A   1      34.880  24.774  21.577  1.00  0.00     0.171 HD
ATOM     23  C   UNL A   1      31.508  24.753  21.630  1.00  0.00     0.113 C 
ATOM     24  O   UNL A   1      33.083  25.666  20.014  1.00  0.00    -0.275 OA
BRANCH  14  25
ATOM     25  C   UNL A   1      35.165  23.058  24.560  1.00  0.00     0.272 A 
ATOM     26  C   UNL A   1      35.217  20.818  24.999  1.00  0.00     0.095 A 
ATOM     27  C   UNL A   1      36.581  20.903  25.222  1.00  0.00     0.164 A 
ATOM     28  N   UNL A   1      34.458  21.917  24.716  1.00  0.00    -0.208 NA
ATOM     29  N   UNL A   1      37.230  22.065  25.100  1.00  0.00    -0.153 NA
ATOM     30  N   UNL A   1      36.514  23.143  24.721  1.00  0.00    -0.109 NA
BRANCH  26  31
ATOM     31  C   UNL A   1      34.563  19.505  24.941  1.00  0.00     0.002 A 
ATOM     32  C   UNL A   1      32.755  15.570  24.946  1.00  0.00     0.044 C 
ATOM     33  C   UNL A   1      33.394  16.926  24.969  1.00  0.00    -0.051 A 
ATOM     34  C   UNL A   1      32.650  18.047  25.354  1.00  0.00     0.004 A 
ATOM     35  C   UNL A   1      34.728  17.097  24.588  1.00  0.00     0.004 A 
ATOM     36  C   UNL A   1      33.229  19.320  25.341  1.00  0.00     0.011 A 
ATOM     37  C   UNL A   1      35.302  18.370  24.571  1.00  0.00     0.011 A 
ENDBRANCH  26  31
ENDBRANCH  14  25
ENDBRANCH   8  13
ENDBRANCH   4   7
ENDBRANCH   2   3
ENDBRANCH   1   2
BRANCH   1  38
ATOM     38  C   UNL A   1      33.606  30.881  27.477  1.00  0.00     0.118 C 
BRANCH  38  39
ATOM     39  N   UNL A   1      34.536  31.858  27.991  1.00  0.00    -0.352 N 
ATOM     40  C   UNL A   1      35.571  31.639  28.882  1.00  0.00     0.251 C 
ATOM     41  H   UNL A   1      34.422  32.782  27.670  1.00  0.00     0.163 HD
ATOM     42  O   UNL A   1      35.914  32.559  29.616  1.00  0.00    -0.269 OA
BRANCH  40  43
ATOM     43  C   UNL A   1      36.365  30.385  28.768  1.00  0.00     0.039 A 
ATOM     44  C   UNL A   1      36.580  29.701  29.970  1.00  0.00     0.014 A 
ATOM     45  C   UNL A   1      37.209  30.163  27.686  1.00  0.00     0.014 A 
ATOM     46  C   UNL A   1      37.805  29.093  30.192  1.00  0.00     0.010 A 
ATOM     47  C   UNL A   1      38.464  29.691  27.935  1.00  0.00     0.010 A 
ATOM     48  C   UNL A   1      38.775  29.233  29.214  1.00  0.00    -0.014 A 
BRANCH  48  49
ATOM     49  C   UNL A   1      40.136  28.783  29.321  1.00  0.00     0.031 A 
ATOM     50  C   UNL A   1      40.367  27.357  29.054  1.00  0.00     0.074 A 
ATOM     51  C   UNL A   1      41.095  29.733  29.330  1.00  0.00     0.049 A 
ATOM     52  N   UNL A   1      41.457  26.740  29.319  1.00  0.00    -0.248 NA
ATOM     53  C   UNL A   1      39.342  26.496  28.457  1.00  0.00     0.031 C 
ATOM     54  C   UNL A   1      42.480  29.622  28.892  1.00  0.00     0.029 A 
ATOM     55  N   UNL A   1      41.038  31.046  29.764  1.00  0.00    -0.354 N 
ATOM     56  C   UNL A   1      41.406  25.537  28.645  1.00  0.00     0.074 A 
ATOM     57  C   UNL A   1      40.035  25.378  28.233  1.00  0.00     0.031 C 
ATOM     58  C   UNL A   1      43.171  30.685  29.348  1.00  0.00     0.029 A 
ATOM     59  C   UNL A   1      42.292  31.411  30.249  1.00  0.00     0.049 A 
ATOM     60  H   UNL A   1      40.244  31.627  29.734  1.00  0.00     0.167 HD
ATOM     61  C   UNL A   1      42.580  24.923  28.336  1.00  0.00     0.034 A 
ATOM     62  C   UNL A   1      42.530  31.573  31.591  1.00  0.00     0.034 A 
ATOM     63  C   UNL A   1      43.701  25.730  28.843  1.00  0.00     0.049 A 
ATOM     64  C   UNL A   1      43.447  30.490  32.156  1.00  0.00     0.074 A 
ATOM     65  C   UNL A   1      44.498  26.696  28.248  1.00  0.00     0.029 A 
ATOM     66  N   UNL A   1      43.854  25.890  30.216  1.00  0.00    -0.354 N 
ATOM     67  N   UNL A   1      43.757  29.392  31.520  1.00  0.00    -0.248 NA
ATOM     68  C   UNL A   1      44.119  30.573  33.449  1.00  0.00     0.031 C 
ATOM     69  C   UNL A   1      45.076  27.485  29.280  1.00  0.00     0.029 A 
ATOM     70  C   UNL A   1      44.653  26.988  30.501  1.00  0.00     0.049 A 
ATOM     71  H   UNL A   1      43.450  25.303  30.894  1.00  0.00     0.167 HD
ATOM     72  C   UNL A   1      44.572  28.602  32.284  1.00  0.00     0.074 A 
ATOM     73  C   UNL A   1      44.815  29.420  33.464  1.00  0.00     0.031 C 
ATOM     74  C   UNL A   1      44.946  27.341  31.890  1.00  0.00     0.034 A 
BRANCH  61  75
ATOM     75  C   UNL A   1      42.736  23.826  27.302  1.00  0.00     0.023 A 
ATOM     76  C   UNL A   1      43.356  24.186  26.084  1.00  0.00     0.012 A 
ATOM     77  C   UNL A   1      42.306  22.481  27.407  1.00  0.00     0.148 A 
ATOM     78  C   UNL A   1      43.476  23.306  25.007  1.00  0.00     0.002 A 
ATOM     79  C   UNL A   1      42.379  21.611  26.311  1.00  0.00     0.091 A 
ATOM     80  F   UNL A   1      41.888  22.007  28.586  1.00  0.00    -0.205 F 
ATOM     81  C   UNL A   1      42.964  22.024  25.110  1.00  0.00     0.022 A 
BRANCH  79  82
ATOM     82  S   UNL A   1      41.681  19.948  26.326  1.00  0.00     0.127 S 
ATOM     83  O   UNL A   1      42.327  19.331  25.164  1.00  0.00    -0.237 OA
ATOM     84  O   UNL A   1      42.131  19.429  27.615  1.00  0.00    -0.237 OA
ATOM     85  O   UNL A   1      40.239  20.114  26.180  1.00  0.00    -0.744 OA
ENDBRANCH  79  82
ENDBRANCH  61  75
BRANCH  62  86
ATOM     86  C   UNL A   1      41.372  32.213  32.296  1.00  0.00     0.023 A 
ATOM     87  C   UNL A   1      40.957  33.468  31.779  1.00  0.00     0.012 A 
ATOM     88  C   UNL A   1      40.451  31.449  33.032  1.00  0.00     0.148 A 
ATOM     89  C   UNL A   1      39.609  33.830  31.779  1.00  0.00     0.002 A 
ATOM     90  C   UNL A   1      39.107  31.830  33.047  1.00  0.00     0.091 A 
ATOM     91  F   UNL A   1      40.878  30.338  33.645  1.00  0.00    -0.205 F 
ATOM     92  C   UNL A   1      38.678  32.981  32.363  1.00  0.00     0.022 A 
BRANCH  90  93
ATOM     93  S   UNL A   1      37.850  30.815  33.834  1.00  0.00     0.127 S 
ATOM     94  O   UNL A   1      37.974  31.222  35.230  1.00  0.00    -0.237 OA
ATOM     95  O   UNL A   1      36.623  31.264  33.179  1.00  0.00    -0.237 OA
ATOM     96  O   UNL A   1      38.227  29.443  33.526  1.00  0.00    -0.744 OA
ENDBRANCH  90  93
ENDBRANCH  62  86
BRANCH  74  97
ATOM     97  C   UNL A   1      45.635  26.295  32.758  1.00  0.00     0.023 A 
ATOM     98  C   UNL A   1      47.031  26.143  32.799  1.00  0.00     0.012 A 
ATOM     99  C   UNL A   1      44.893  25.511  33.687  1.00  0.00     0.148 A 
ATOM    100  C   UNL A   1      47.655  25.230  33.655  1.00  0.00     0.002 A 
ATOM    101  C   UNL A   1      45.526  24.717  34.634  1.00  0.00     0.091 A 
ATOM    102  F   UNL A   1      43.553  25.497  33.644  1.00  0.00    -0.205 F 
ATOM    103  C   UNL A   1      46.907  24.538  34.596  1.00  0.00     0.022 A 
BRANCH 101 104
ATOM    104  S   UNL A   1      44.627  24.033  36.035  1.00  0.00     0.127 S 
ATOM    105  O   UNL A   1      43.872  22.951  35.407  1.00  0.00    -0.237 OA
ATOM    106  O   UNL A   1      45.714  23.591  36.911  1.00  0.00    -0.237 OA
ATOM    107  O   UNL A   1      43.843  25.138  36.568  1.00  0.00    -0.744 OA
ENDBRANCH 101 104
ENDBRANCH  74  97
ENDBRANCH  48  49
ENDBRANCH  40  43
ENDBRANCH  38  39
ENDBRANCH   1  38
TORSDOF 16
ENDMDL
MODEL 2
REMARK VINA RESULT:     -13.7      1.650      1.991
REMARK SMILES Cc1ccc(-c2cnnc(-n3nc(C)c4c3NC(=O)C[C@@H]4c3ccc(C(=O)NCCCNC(=O)c4ccc(-c5c6nc(c(-c7cccc(S(=O)(=O)[O-])c7F)c7ccc([nH]7)c(-c7cccc(S(=O)(=O)[O-])c7F)c7nc(c(-c8cccc(S(=O)(=O)[O-])c8F)c8ccc5[nH]8)C=C7)C=C6)cc4)cc3)n2)cc1
REMARK SMILES IDX 30 1 29 2 28 3 26 4 27 5 25 7 22 8 23 9 99 10 24 11 98 12
REMARK SMILES IDX 21 13 11 14 12 15 16 16 13 17 15 18 17 19 14 20 18 21 20 23
REMARK SMILES IDX 19 24 10 25 6 26 7 27 100 28 8 29 9 30 5 31 1 32 2 33 3 34
REMARK SMILES IDX 102 35 4 36 101 37 31 38 32 39 33 40 34 42 35 43 36 44 97 45
REMARK SMILES IDX 37 46 96 47 38 48 39 49 40 50 90 51 41 52 95 53 89 54 91 55
REMARK SMILES IDX 42 56 94 57 88 58 87 59 43 61 75 62 55 63 74 64 56 65 59 66
REMARK SMILES IDX 73 67 92 68 57 69 58 70 72 72 93 73 60 74 44 75 45 76 53 77
REMARK SMILES IDX 46 78 48 79 54 80 47 81 49 82 50 83 51 84 52 85 76 86 77 87
REMARK SMILES IDX 85 88 78 89 80 90 86 91 79 92 81 93 82 94 83 95 84 96 61 97
REMARK SMILES IDX 62 98 70 99 63 100 65 101 71 102 64 103 66 104 67 105 68 106
REMARK SMILES IDX 69 107
REMARK H PARENT 28 6 17 22 32 41 91 60 59 71
REMARK Flexibility Score: inf
ROOT
ATOM      1  C   UNL A   1      33.333  31.413  26.588  1.00  0.00     0.042 C 
ENDROOT
BRANCH   1   2
ATOM      2  C   UNL A   1      32.136  30.512  26.314  1.00  0.00     0.118 C 
BRANCH   2   3
ATOM      3  N   UNL A   1      31.088  31.161  25.527  1.00  0.00    -0.352 N 
ATOM      4  C   UNL A   1      30.273  30.647  24.541  1.00  0.00     0.251 C 
ATOM      5  O   UNL A   1      29.278  31.257  24.165  1.00  0.00    -0.269 OA
ATOM      6  H   UNL A   1      30.941  32.112  25.735  1.00  0.00     0.163 HD
BRANCH   4   7
ATOM      7  C   UNL A   1      30.557  29.315  23.968  1.00  0.00     0.039 A 
ATOM      8  C   UNL A   1      31.200  26.665  23.345  1.00  0.00    -0.040 A 
ATOM      9  C   UNL A   1      29.862  27.045  23.570  1.00  0.00     0.005 A 
ATOM     10  C   UNL A   1      32.155  27.676  23.211  1.00  0.00     0.005 A 
ATOM     11  C   UNL A   1      29.540  28.368  23.880  1.00  0.00     0.014 A 
ATOM     12  C   UNL A   1      31.828  28.988  23.515  1.00  0.00     0.014 A 
BRANCH   8  13
ATOM     13  C   UNL A   1      31.534  25.193  23.281  1.00  0.00     0.064 C 
ATOM     14  N   UNL A   1      34.777  24.015  24.375  1.00  0.00    -0.180 N 
ATOM     15  N   UNL A   1      34.522  24.725  25.506  1.00  0.00    -0.168 NA
ATOM     16  C   UNL A   1      33.964  24.497  23.363  1.00  0.00     0.143 A 
ATOM     17  C   UNL A   1      33.279  25.186  25.334  1.00  0.00     0.066 A 
ATOM     18  C   UNL A   1      32.817  24.924  24.009  1.00  0.00     0.026 A 
ATOM     19  N   UNL A   1      34.102  24.667  21.996  1.00  0.00    -0.310 N 
ATOM     20  C   UNL A   1      32.689  25.985  26.439  1.00  0.00     0.069 C 
ATOM     21  C   UNL A   1      32.940  25.054  21.249  1.00  0.00     0.226 C 
ATOM     22  H   UNL A   1      34.968  24.527  21.551  1.00  0.00     0.171 HD
ATOM     23  C   UNL A   1      31.612  24.678  21.844  1.00  0.00     0.113 C 
ATOM     24  O   UNL A   1      33.116  25.552  20.141  1.00  0.00    -0.275 OA
BRANCH  14  25
ATOM     25  C   UNL A   1      35.370  22.719  24.464  1.00  0.00     0.272 A 
ATOM     26  C   UNL A   1      35.349  20.479  24.905  1.00  0.00     0.095 A 
ATOM     27  C   UNL A   1      36.732  20.485  24.956  1.00  0.00     0.164 A 
ATOM     28  N   UNL A   1      34.624  21.620  24.714  1.00  0.00    -0.208 NA
ATOM     29  N   UNL A   1      37.426  21.608  24.748  1.00  0.00    -0.153 NA
ATOM     30  N   UNL A   1      36.732  22.726  24.456  1.00  0.00    -0.109 NA
BRANCH  26  31
ATOM     31  C   UNL A   1      34.618  19.206  24.935  1.00  0.00     0.002 A 
ATOM     32  C   UNL A   1      32.593  15.387  25.194  1.00  0.00     0.044 C 
ATOM     33  C   UNL A   1      33.309  16.703  25.128  1.00  0.00    -0.051 A 
ATOM     34  C   UNL A   1      32.659  17.876  25.526  1.00  0.00     0.004 A 
ATOM     35  C   UNL A   1      34.620  16.783  24.651  1.00  0.00     0.004 A 
ATOM     36  C   UNL A   1      33.307  19.112  25.432  1.00  0.00     0.011 A 
ATOM     37  C   UNL A   1      35.264  18.019  24.553  1.00  0.00     0.011 A 
ENDBRANCH  26  31
ENDBRANCH  14  25
ENDBRANCH   8  13
ENDBRANCH   4   7
ENDBRANCH   2   3
ENDBRANCH   1   2
BRANCH   1  38
ATOM     38  C   UNL A   1      34.482  30.702  27.259  1.00  0.00     0.118 C 
BRANCH  38  39
ATOM     39  N   UNL A   1      35.559  31.591  27.621  1.00  0.00    -0.352 N 
ATOM     40  C   UNL A   1      36.655  31.298  28.412  1.00  0.00     0.251 C 
ATOM     41  H   UNL A   1      35.508  32.508  27.265  1.00  0.00     0.163 HD
ATOM     42  O   UNL A   1      37.170  32.204  29.057  1.00  0.00    -0.269 OA
BRANCH  40  43
ATOM     43  C   UNL A   1      37.296  29.960  28.284  1.00  0.00     0.039 A 
ATOM     44  C   UNL A   1      37.216  29.147  29.420  1.00  0.00     0.014 A 
ATOM     45  C   UNL A   1      38.280  29.722  27.331  1.00  0.00     0.014 A 
ATOM     46  C   UNL A   1      38.300  28.355  29.763  1.00  0.00     0.010 A 
ATOM     47  C   UNL A   1      39.406  29.058  27.721  1.00  0.00     0.010 A 
ATOM     48  C   UNL A   1      39.434  28.447  28.973  1.00  0.00    -0.014 A 
BRANCH  48  49
ATOM     49  C   UNL A   1      40.690  27.803  29.243  1.00  0.00     0.031 A 
ATOM     50  C   UNL A   1      40.747  26.360  28.971  1.00  0.00     0.074 A 
ATOM     51  C   UNL A   1      41.766  28.603  29.399  1.00  0.00     0.049 A 
ATOM     52  N   UNL A   1      41.693  25.589  29.359  1.00  0.00    -0.248 NA
ATOM     53  C   UNL A   1      39.697  25.661  28.227  1.00  0.00     0.031 C 
ATOM     54  C   UNL A   1      43.166  28.294  29.141  1.00  0.00     0.029 A 
ATOM     55  N   UNL A   1      41.842  29.908  29.855  1.00  0.00    -0.354 N 
ATOM     56  C   UNL A   1      41.559  24.411  28.654  1.00  0.00     0.074 A 
ATOM     57  C   UNL A   1      40.245  24.455  28.064  1.00  0.00     0.031 C 
ATOM     58  C   UNL A   1      43.936  29.243  29.708  1.00  0.00     0.029 A 
ATOM     59  C   UNL A   1      43.061  30.083  30.507  1.00  0.00     0.049 A 
ATOM     60  H   UNL A   1      41.149  30.598  29.738  1.00  0.00     0.167 HD
ATOM     61  C   UNL A   1      42.663  23.635  28.483  1.00  0.00     0.034 A 
ATOM     62  C   UNL A   1      43.141  30.200  31.872  1.00  0.00     0.034 A 
ATOM     63  C   UNL A   1      43.812  24.266  29.150  1.00  0.00     0.049 A 
ATOM     64  C   UNL A   1      43.811  28.991  32.523  1.00  0.00     0.074 A 
ATOM     65  C   UNL A   1      44.810  25.110  28.687  1.00  0.00     0.029 A 
ATOM     66  N   UNL A   1      43.805  24.394  30.535  1.00  0.00    -0.354 N 
ATOM     67  N   UNL A   1      44.042  27.864  31.904  1.00  0.00    -0.248 NA
ATOM     68  C   UNL A   1      44.313  28.967  33.893  1.00  0.00     0.031 C 
ATOM     69  C   UNL A   1      45.356  25.800  29.805  1.00  0.00     0.029 A 
ATOM     70  C   UNL A   1      44.709  25.362  30.948  1.00  0.00     0.049 A 
ATOM     71  H   UNL A   1      43.236  23.867  31.140  1.00  0.00     0.167 HD
ATOM     72  C   UNL A   1      44.628  26.959  32.746  1.00  0.00     0.074 A 
ATOM     73  C   UNL A   1      44.829  27.725  33.968  1.00  0.00     0.031 C 
ATOM     74  C   UNL A   1      44.865  25.659  32.372  1.00  0.00     0.034 A 
BRANCH  61  75
ATOM     75  C   UNL A   1      42.794  22.533  27.450  1.00  0.00     0.023 A 
ATOM     76  C   UNL A   1      42.025  21.367  27.666  1.00  0.00     0.012 A 
ATOM     77  C   UNL A   1      43.623  22.527  26.303  1.00  0.00     0.148 A 
ATOM     78  C   UNL A   1      42.121  20.236  26.853  1.00  0.00     0.002 A 
ATOM     79  C   UNL A   1      43.760  21.376  25.515  1.00  0.00     0.091 A 
ATOM     80  F   UNL A   1      44.234  23.653  25.919  1.00  0.00    -0.205 F 
ATOM     81  C   UNL A   1      43.009  20.229  25.791  1.00  0.00     0.022 A 
BRANCH  79  82
ATOM     82  S   UNL A   1      44.936  21.248  24.155  1.00  0.00     0.127 S 
ATOM     83  O   UNL A   1      46.224  21.295  24.854  1.00  0.00    -0.237 OA
ATOM     84  O   UNL A   1      44.610  19.947  23.576  1.00  0.00    -0.237 OA
ATOM     85  O   UNL A   1      44.689  22.401  23.296  1.00  0.00    -0.744 OA
ENDBRANCH  79  82
ENDBRANCH  61  75
BRANCH  62  86
ATOM     86  C   UNL A   1      42.005  30.997  32.438  1.00  0.00     0.023 A 
ATOM     87  C   UNL A   1      41.808  32.279  31.861  1.00  0.00     0.012 A 
ATOM     88  C   UNL A   1      40.922  30.373  33.081  1.00  0.00     0.148 A 
ATOM     89  C   UNL A   1      40.524  32.804  31.710  1.00  0.00     0.002 A 
ATOM     90  C   UNL A   1      39.643  30.917  32.946  1.00  0.00     0.091 A 
ATOM     91  F   UNL A   1      41.139  29.236  33.752  1.00  0.00    -0.205 F 
ATOM     92  C   UNL A   1      39.436  32.092  32.202  1.00  0.00     0.022 A 
BRANCH  90  93
ATOM     93  S   UNL A   1      38.192  30.087  33.606  1.00  0.00     0.127 S 
ATOM     94  O   UNL A   1      38.410  30.213  35.043  1.00  0.00    -0.237 OA
ATOM     95  O   UNL A   1      37.096  30.900  33.085  1.00  0.00    -0.237 OA
ATOM     96  O   UNL A   1      38.250  28.738  33.060  1.00  0.00    -0.744 OA
ENDBRANCH  90  93
ENDBRANCH  62  86
BRANCH  74  97
ATOM     97  C   UNL A   1      45.277  24.519  33.294  1.00  0.00     0.023 A 
ATOM     98  C   UNL A   1      44.456  23.407  33.540  1.00  0.00     0.012 A 
ATOM     99  C   UNL A   1      46.591  24.460  33.842  1.00  0.00     0.148 A 
ATOM    100  C   UNL A   1      44.875  22.331  34.330  1.00  0.00     0.002 A 
ATOM    101  C   UNL A   1      47.051  23.326  34.500  1.00  0.00     0.091 A 
ATOM    102  F   UNL A   1      47.407  25.520  33.763  1.00  0.00    -0.205 F 
ATOM    103  C   UNL A   1      46.184  22.275  34.785  1.00  0.00     0.022 A 
BRANCH 101 104
ATOM    104  S   UNL A   1      48.801  23.095  34.854  1.00  0.00     0.127 S 
ATOM    105  O   UNL A   1      49.021  24.065  35.924  1.00  0.00    -0.237 OA
ATOM    106  O   UNL A   1      48.845  21.694  35.280  1.00  0.00    -0.237 OA
ATOM    107  O   UNL A   1      49.487  23.357  33.597  1.00  0.00    -0.744 OA
ENDBRANCH 101 104
ENDBRANCH  74  97
ENDBRANCH  48  49
ENDBRANCH  40  43
ENDBRANCH  38  39
ENDBRANCH   1  38
TORSDOF 16
ENDMDL
MODEL 3
REMARK VINA RESULT:     -12.8      5.588     11.736
REMARK SMILES Cc1ccc(-c2cnnc(-n3nc(C)c4c3NC(=O)C[C@@H]4c3ccc(C(=O)NCCCNC(=O)c4ccc(-c5c6nc(c(-c7cccc(S(=O)(=O)[O-])c7F)c7ccc([nH]7)c(-c7cccc(S(=O)(=O)[O-])c7F)c7nc(c(-c8cccc(S(=O)(=O)[O-])c8F)c8ccc5[nH]8)C=C7)C=C6)cc4)cc3)n2)cc1
REMARK SMILES IDX 30 1 29 2 28 3 26 4 27 5 25 7 22 8 23 9 99 10 24 11 98 12
REMARK SMILES IDX 21 13 11 14 12 15 16 16 13 17 15 18 17 19 14 20 18 21 20 23
REMARK SMILES IDX 19 24 10 25 6 26 7 27 100 28 8 29 9 30 5 31 1 32 2 33 3 34
REMARK SMILES IDX 102 35 4 36 101 37 31 38 32 39 33 40 34 42 35 43 36 44 97 45
REMARK SMILES IDX 37 46 96 47 38 48 39 49 40 50 90 51 41 52 95 53 89 54 91 55
REMARK SMILES IDX 42 56 94 57 88 58 87 59 43 61 75 62 55 63 74 64 56 65 59 66
REMARK SMILES IDX 73 67 92 68 57 69 58 70 72 72 93 73 60 74 44 75 45 76 53 77
REMARK SMILES IDX 46 78 48 79 54 80 47 81 49 82 50 83 51 84 52 85 76 86 77 87
REMARK SMILES IDX 85 88 78 89 80 90 86 91 79 92 81 93 82 94 83 95 84 96 61 97
REMARK SMILES IDX 62 98 70 99 63 100 65 101 71 102 64 103 66 104 67 105 68 106
REMARK SMILES IDX 69 107
REMARK H PARENT 28 6 17 22 32 41 91 60 59 71
REMARK Flexibility Score: inf
ROOT
ATOM      1  C   UNL A   1      41.852  30.352  29.145  1.00  0.00     0.042 C 
ENDROOT
BRANCH   1   2
ATOM      2  C   UNL A   1      43.004  29.915  28.250  1.00  0.00     0.118 C 
BRANCH   2   3
ATOM      3  N   UNL A   1      44.240  29.643  28.984  1.00  0.00    -0.352 N 
ATOM      4  C   UNL A   1      45.174  28.645  28.808  1.00  0.00     0.251 C 
ATOM      5  O   UNL A   1      46.276  28.712  29.342  1.00  0.00    -0.269 OA
ATOM      6  H   UNL A   1      44.434  30.271  29.718  1.00  0.00     0.163 HD
BRANCH   4   7
ATOM      7  C   UNL A   1      44.879  27.507  27.914  1.00  0.00     0.039 A 
ATOM      8  C   UNL A   1      43.862  25.529  26.217  1.00  0.00    -0.040 A 
ATOM      9  C   UNL A   1      44.496  26.671  25.688  1.00  0.00     0.005 A 
ATOM     10  C   UNL A   1      43.961  25.301  27.591  1.00  0.00     0.005 A 
ATOM     11  C   UNL A   1      45.005  27.658  26.535  1.00  0.00     0.014 A 
ATOM     12  C   UNL A   1      44.471  26.282  28.426  1.00  0.00     0.014 A 
BRANCH   8  13
ATOM     13  C   UNL A   1      43.094  24.627  25.278  1.00  0.00     0.064 C 
ATOM     14  N   UNL A   1      40.421  22.540  26.542  1.00  0.00    -0.180 N 
ATOM     15  N   UNL A   1      39.953  23.685  27.107  1.00  0.00    -0.168 NA
ATOM     16  C   UNL A   1      41.765  22.711  26.255  1.00  0.00     0.143 A 
ATOM     17  C   UNL A   1      40.786  24.634  26.667  1.00  0.00     0.066 A 
ATOM     18  C   UNL A   1      41.894  24.060  25.976  1.00  0.00     0.026 A 
ATOM     19  N   UNL A   1      42.878  21.887  26.260  1.00  0.00    -0.310 N 
ATOM     20  C   UNL A   1      40.510  26.032  27.090  1.00  0.00     0.069 C 
ATOM     21  C   UNL A   1      44.101  22.412  25.726  1.00  0.00     0.226 C 
ATOM     22  H   UNL A   1      42.832  20.972  26.619  1.00  0.00     0.171 HD
ATOM     23  C   UNL A   1      43.964  23.509  24.707  1.00  0.00     0.113 C 
ATOM     24  O   UNL A   1      45.147  21.856  26.048  1.00  0.00    -0.275 OA
BRANCH  14  25
ATOM     25  C   UNL A   1      39.514  21.627  25.923  1.00  0.00     0.272 A 
ATOM     26  C   UNL A   1      37.459  20.961  25.184  1.00  0.00     0.095 A 
ATOM     27  C   UNL A   1      37.916  19.655  25.119  1.00  0.00     0.164 A 
ATOM     28  N   UNL A   1      38.238  21.981  25.649  1.00  0.00    -0.208 NA
ATOM     29  N   UNL A   1      39.175  19.347  25.445  1.00  0.00    -0.153 NA
ATOM     30  N   UNL A   1      39.991  20.357  25.808  1.00  0.00    -0.109 NA
BRANCH  26  31
ATOM     31  C   UNL A   1      36.143  21.307  24.633  1.00  0.00     0.002 A 
ATOM     32  C   UNL A   1      32.195  22.379  23.214  1.00  0.00     0.044 C 
ATOM     33  C   UNL A   1      33.554  22.017  23.732  1.00  0.00    -0.051 A 
ATOM     34  C   UNL A   1      34.656  22.829  23.439  1.00  0.00     0.004 A 
ATOM     35  C   UNL A   1      33.749  20.861  24.491  1.00  0.00     0.004 A 
ATOM     36  C   UNL A   1      35.934  22.478  23.886  1.00  0.00     0.011 A 
ATOM     37  C   UNL A   1      35.027  20.509  24.933  1.00  0.00     0.011 A 
ENDBRANCH  26  31
ENDBRANCH  14  25
ENDBRANCH   8  13
ENDBRANCH   4   7
ENDBRANCH   2   3
ENDBRANCH   1   2
BRANCH   1  38
ATOM     38  C   UNL A   1      40.816  29.277  29.360  1.00  0.00     0.118 C 
BRANCH  38  39
ATOM     39  N   UNL A   1      39.643  29.455  28.539  1.00  0.00    -0.352 N 
ATOM     40  C   UNL A   1      38.387  29.858  28.952  1.00  0.00     0.251 C 
ATOM     41  H   UNL A   1      39.750  29.269  27.577  1.00  0.00     0.163 HD
ATOM     42  O   UNL A   1      37.411  29.469  28.320  1.00  0.00    -0.269 OA
BRANCH  40  43
ATOM     43  C   UNL A   1      38.278  30.910  29.999  1.00  0.00     0.039 A 
ATOM     44  C   UNL A   1      38.298  32.228  29.529  1.00  0.00     0.014 A 
ATOM     45  C   UNL A   1      38.605  30.643  31.324  1.00  0.00     0.014 A 
ATOM     46  C   UNL A   1      38.969  33.196  30.259  1.00  0.00     0.010 A 
ATOM     47  C   UNL A   1      39.384  31.546  31.988  1.00  0.00     0.010 A 
ATOM     48  C   UNL A   1      39.626  32.790  31.409  1.00  0.00    -0.014 A 
BRANCH  48  49
ATOM     49  C   UNL A   1      40.472  33.620  32.221  1.00  0.00     0.031 A 
ATOM     50  C   UNL A   1      39.831  34.256  33.381  1.00  0.00     0.074 A 
ATOM     51  C   UNL A   1      41.805  33.485  32.052  1.00  0.00     0.049 A 
ATOM     52  N   UNL A   1      40.360  35.193  34.074  1.00  0.00    -0.248 NA
ATOM     53  C   UNL A   1      38.496  33.872  33.846  1.00  0.00     0.031 C 
ATOM     54  C   UNL A   1      42.866  33.731  33.018  1.00  0.00     0.029 A 
ATOM     55  N   UNL A   1      42.521  33.101  30.932  1.00  0.00    -0.354 N 
ATOM     56  C   UNL A   1      39.619  35.296  35.233  1.00  0.00     0.074 A 
ATOM     57  C   UNL A   1      38.410  34.551  34.991  1.00  0.00     0.031 C 
ATOM     58  C   UNL A   1      44.047  33.776  32.371  1.00  0.00     0.029 A 
ATOM     59  C   UNL A   1      43.755  33.749  30.948  1.00  0.00     0.049 A 
ATOM     60  H   UNL A   1      42.212  32.474  30.240  1.00  0.00     0.167 HD
ATOM     61  C   UNL A   1      40.217  35.825  36.334  1.00  0.00     0.034 A 
ATOM     62  C   UNL A   1      44.045  34.775  30.083  1.00  0.00     0.034 A 
ATOM     63  C   UNL A   1      41.599  36.207  36.003  1.00  0.00     0.049 A 
ATOM     64  C   UNL A   1      44.162  36.121  30.795  1.00  0.00     0.074 A 
ATOM     65  C   UNL A   1      42.808  35.542  36.143  1.00  0.00     0.029 A 
ATOM     66  N   UNL A   1      41.819  37.225  35.082  1.00  0.00    -0.354 N 
ATOM     67  N   UNL A   1      43.776  36.333  32.025  1.00  0.00    -0.248 NA
ATOM     68  C   UNL A   1      44.759  37.316  30.203  1.00  0.00     0.031 C 
ATOM     69  C   UNL A   1      43.739  36.129  35.241  1.00  0.00     0.029 A 
ATOM     70  C   UNL A   1      43.107  37.162  34.571  1.00  0.00     0.049 A 
ATOM     71  H   UNL A   1      41.150  37.900  34.827  1.00  0.00     0.167 HD
ATOM     72  C   UNL A   1      43.981  37.639  32.380  1.00  0.00     0.074 A 
ATOM     73  C   UNL A   1      44.656  38.197  31.217  1.00  0.00     0.031 C 
ATOM     74  C   UNL A   1      43.553  38.144  33.582  1.00  0.00     0.034 A 
BRANCH  61  75
ATOM     75  C   UNL A   1      39.706  35.676  37.753  1.00  0.00     0.023 A 
ATOM     76  C   UNL A   1      39.477  36.871  38.473  1.00  0.00     0.012 A 
ATOM     77  C   UNL A   1      39.455  34.471  38.452  1.00  0.00     0.148 A 
ATOM     78  C   UNL A   1      39.102  36.883  39.818  1.00  0.00     0.002 A 
ATOM     79  C   UNL A   1      39.128  34.480  39.814  1.00  0.00     0.091 A 
ATOM     80  F   UNL A   1      39.459  33.307  37.792  1.00  0.00    -0.205 F 
ATOM     81  C   UNL A   1      38.953  35.687  40.498  1.00  0.00     0.022 A 
BRANCH  79  82
ATOM     82  S   UNL A   1      38.978  32.977  40.801  1.00  0.00     0.127 S 
ATOM     83  O   UNL A   1      40.349  32.458  40.782  1.00  0.00    -0.237 OA
ATOM     84  O   UNL A   1      38.544  33.493  42.097  1.00  0.00    -0.237 OA
ATOM     85  O   UNL A   1      38.017  32.131  40.104  1.00  0.00    -0.744 OA
ENDBRANCH  79  82
ENDBRANCH  61  75
BRANCH  62  86
ATOM     86  C   UNL A   1      43.474  34.539  28.717  1.00  0.00     0.023 A 
ATOM     87  C   UNL A   1      42.432  35.419  28.328  1.00  0.00     0.012 A 
ATOM     88  C   UNL A   1      44.216  33.887  27.717  1.00  0.00     0.148 A 
ATOM     89  C   UNL A   1      42.301  35.828  26.999  1.00  0.00     0.002 A 
ATOM     90  C   UNL A   1      44.062  34.284  26.387  1.00  0.00     0.091 A 
ATOM     91  F   UNL A   1      45.098  32.947  28.077  1.00  0.00    -0.205 F 
ATOM     92  C   UNL A   1      43.157  35.302  26.039  1.00  0.00     0.022 A 
BRANCH  90  93
ATOM     93  S   UNL A   1      45.091  33.607  25.078  1.00  0.00     0.127 S 
ATOM     94  O   UNL A   1      44.499  34.216  23.893  1.00  0.00    -0.237 OA
ATOM     95  O   UNL A   1      46.418  34.115  25.422  1.00  0.00    -0.237 OA
ATOM     96  O   UNL A   1      44.952  32.162  25.199  1.00  0.00    -0.744 OA
ENDBRANCH  90  93
ENDBRANCH  62  86
BRANCH  74  97
ATOM     97  C   UNL A   1      43.507  39.617  33.973  1.00  0.00     0.023 A 
ATOM     98  C   UNL A   1      44.089  40.106  35.154  1.00  0.00     0.012 A 
ATOM     99  C   UNL A   1      42.992  40.596  33.077  1.00  0.00     0.148 A 
ATOM    100  C   UNL A   1      44.105  41.470  35.466  1.00  0.00     0.002 A 
ATOM    101  C   UNL A   1      43.143  41.955  33.323  1.00  0.00     0.091 A 
ATOM    102  F   UNL A   1      42.313  40.223  31.982  1.00  0.00    -0.205 F 
ATOM    103  C   UNL A   1      43.661  42.398  34.537  1.00  0.00     0.022 A 
BRANCH 101 104
ATOM    104  S   UNL A   1      42.843  43.178  32.037  1.00  0.00     0.127 S 
ATOM    105  O   UNL A   1      42.244  44.272  32.798  1.00  0.00    -0.237 OA
ATOM    106  O   UNL A   1      44.197  43.445  31.547  1.00  0.00    -0.237 OA
ATOM    107  O   UNL A   1      41.978  42.518  31.070  1.00  0.00    -0.744 OA
ENDBRANCH 101 104
ENDBRANCH  74  97
ENDBRANCH  48  49
ENDBRANCH  40  43
ENDBRANCH  38  39
ENDBRANCH   1  38
TORSDOF 16
ENDMDL
