MODEL 1
REMARK VINA RESULT:     -11.9      0.000      0.000
REMARK SMILES N#Cc1cccc(CSc2ccnc(C(=O)NCCCNC(=O)c3ccc(-c4c5nc(c(-c6cccc(S(=O)(=O)[O-])c6F)c6ccc([nH]6)c(-c6cccc(S(=O)(=O)[O-])c6F)c6nc(c(-c7cccc(S(=O)(=O)[O-])c7F)c7ccc4[nH]7)C=C6)C=C5)cc3)c2)c1
REMARK SMILES IDX 18 1 17 2 15 3 16 4 14 6 10 7 11 8 87 9 12 10 13 11 9 12
REMARK SMILES IDX 8 13 7 14 3 15 4 16 88 17 5 18 6 19 2 20 1 21 19 22 20 23
REMARK SMILES IDX 21 24 22 25 23 27 24 28 25 29 86 30 26 31 85 32 27 33 28 34
REMARK SMILES IDX 29 35 79 36 30 37 84 38 78 39 80 40 31 41 83 42 77 43 76 44
REMARK SMILES IDX 32 46 64 47 44 48 63 49 45 50 48 51 62 52 81 53 46 54 47 55
REMARK SMILES IDX 61 57 82 58 49 59 33 60 34 61 42 62 35 63 37 64 43 65 36 66
REMARK SMILES IDX 38 67 39 68 40 69 41 70 65 71 66 72 74 73 67 74 69 75 75 76
REMARK SMILES IDX 68 77 70 78 71 79 72 80 73 81 50 82 51 83 59 84 52 85 54 86
REMARK SMILES IDX 60 87 53 88 55 89 56 90 57 91 58 92
REMARK H PARENT 17 5 21 26 80 45 48 56
REMARK Flexibility Score: inf
ROOT
ATOM      1  C   UNL A   1      31.663  28.630  24.330  1.00  0.00     0.118 C 
ENDROOT
BRANCH   1   2
ATOM      2  N   UNL A   1      31.281  27.926  25.538  1.00  0.00    -0.351 N 
ATOM      3  C   UNL A   1      31.142  26.597  25.867  1.00  0.00     0.269 C 
ATOM      4  O   UNL A   1      30.826  26.372  27.038  1.00  0.00    -0.268 OA
ATOM      5  H   UNL A   1      31.079  28.531  26.288  1.00  0.00     0.163 HD
BRANCH   3   6
ATOM      6  C   UNL A   1      31.391  25.448  24.922  1.00  0.00     0.129 A 
ATOM      7  C   UNL A   1      32.563  23.516  24.134  1.00  0.00     0.011 A 
ATOM      8  C   UNL A   1      31.527  23.267  23.243  1.00  0.00     0.035 A 
ATOM      9  C   UNL A   1      32.523  24.654  24.935  1.00  0.00     0.049 A 
ATOM     10  C   UNL A   1      30.476  24.159  23.216  1.00  0.00     0.113 A 
ATOM     11  N   UNL A   1      30.374  25.214  24.048  1.00  0.00    -0.251 NA
BRANCH   7  12
ATOM     12  S   UNL A   1      33.892  22.347  24.358  1.00  0.00    -0.121 SA
BRANCH  12  13
ATOM     13  C   UNL A   1      33.002  21.019  25.250  1.00  0.00     0.110 C 
BRANCH  13  14
ATOM     14  C   UNL A   1      33.017  19.717  24.487  1.00  0.00    -0.036 A 
ATOM     15  C   UNL A   1      33.769  17.418  24.257  1.00  0.00     0.052 A 
ATOM     16  C   UNL A   1      33.148  17.340  23.005  1.00  0.00     0.019 A 
ATOM     17  C   UNL A   1      33.704  18.604  24.996  1.00  0.00     0.024 A 
ATOM     18  C   UNL A   1      32.440  18.432  22.505  1.00  0.00     0.002 A 
ATOM     19  C   UNL A   1      32.361  19.605  23.250  1.00  0.00     0.004 A 
BRANCH  15  20
ATOM     20  C   UNL A   1      34.485  16.285  24.762  1.00  0.00     0.099 C 
ATOM     21  N   UNL A   1      35.046  15.369  25.207  1.00  0.00    -0.192 NA
ENDBRANCH  15  20
ENDBRANCH  13  14
ENDBRANCH  12  13
ENDBRANCH   7  12
ENDBRANCH   3   6
ENDBRANCH   1   2
BRANCH   1  22
ATOM     22  C   UNL A   1      33.086  29.177  24.442  1.00  0.00     0.042 C 
BRANCH  22  23
ATOM     23  C   UNL A   1      33.509  29.392  25.894  1.00  0.00     0.118 C 
BRANCH  23  24
ATOM     24  N   UNL A   1      33.301  30.777  26.308  1.00  0.00    -0.352 N 
ATOM     25  C   UNL A   1      33.852  31.486  27.341  1.00  0.00     0.251 C 
ATOM     26  H   UNL A   1      32.661  31.281  25.756  1.00  0.00     0.163 HD
ATOM     27  O   UNL A   1      33.324  32.534  27.701  1.00  0.00    -0.269 OA
BRANCH  25  28
ATOM     28  C   UNL A   1      35.078  31.001  28.007  1.00  0.00     0.039 A 
ATOM     29  C   UNL A   1      36.195  31.836  28.056  1.00  0.00     0.014 A 
ATOM     30  C   UNL A   1      35.140  29.710  28.536  1.00  0.00     0.014 A 
ATOM     31  C   UNL A   1      37.364  31.385  28.669  1.00  0.00     0.010 A 
ATOM     32  C   UNL A   1      36.269  29.301  29.234  1.00  0.00     0.010 A 
ATOM     33  C   UNL A   1      37.401  30.124  29.287  1.00  0.00    -0.014 A 
BRANCH  33  34
ATOM     34  C   UNL A   1      38.625  29.652  29.980  1.00  0.00     0.031 A 
ATOM     35  C   UNL A   1      38.993  30.208  31.331  1.00  0.00     0.074 A 
ATOM     36  C   UNL A   1      39.434  28.768  29.363  1.00  0.00     0.049 A 
ATOM     37  N   UNL A   1      40.033  29.936  32.072  1.00  0.00    -0.248 NA
ATOM     38  C   UNL A   1      38.090  31.215  31.917  1.00  0.00     0.031 C 
ATOM     39  C   UNL A   1      39.221  28.218  28.021  1.00  0.00     0.029 A 
ATOM     40  N   UNL A   1      40.612  28.194  29.771  1.00  0.00    -0.354 N 
ATOM     41  C   UNL A   1      39.936  30.764  33.183  1.00  0.00     0.074 A 
ATOM     42  C   UNL A   1      38.747  31.567  33.014  1.00  0.00     0.031 C 
ATOM     43  C   UNL A   1      40.226  27.379  27.722  1.00  0.00     0.029 A 
ATOM     44  C   UNL A   1      41.179  27.370  28.827  1.00  0.00     0.049 A 
ATOM     45  H   UNL A   1      41.013  28.356  30.656  1.00  0.00     0.167 HD
ATOM     46  C   UNL A   1      40.756  30.838  34.256  1.00  0.00     0.034 A 
ATOM     47  C   UNL A   1      42.348  26.701  28.838  1.00  0.00     0.034 A 
ATOM     48  C   UNL A   1      41.919  30.013  34.436  1.00  0.00     0.049 A 
ATOM     49  C   UNL A   1      43.220  26.784  30.063  1.00  0.00     0.074 A 
ATOM     50  C   UNL A   1      42.755  29.942  35.536  1.00  0.00     0.029 A 
ATOM     51  N   UNL A   1      42.424  29.139  33.489  1.00  0.00    -0.354 N 
ATOM     52  N   UNL A   1      43.023  27.453  31.172  1.00  0.00    -0.248 NA
ATOM     53  C   UNL A   1      44.456  25.989  30.052  1.00  0.00     0.031 C 
ATOM     54  C   UNL A   1      43.804  29.072  35.228  1.00  0.00     0.029 A 
ATOM     55  C   UNL A   1      43.576  28.543  33.968  1.00  0.00     0.049 A 
ATOM     56  H   UNL A   1      42.023  28.967  32.607  1.00  0.00     0.167 HD
ATOM     57  C   UNL A   1      44.082  27.122  32.008  1.00  0.00     0.074 A 
ATOM     58  C   UNL A   1      44.906  26.176  31.284  1.00  0.00     0.031 C 
ATOM     59  C   UNL A   1      44.357  27.565  33.258  1.00  0.00     0.034 A 
BRANCH  46  60
ATOM     60  C   UNL A   1      40.434  31.832  35.339  1.00  0.00     0.023 A 
ATOM     61  C   UNL A   1      41.115  33.064  35.397  1.00  0.00     0.012 A 
ATOM     62  C   UNL A   1      39.369  31.585  36.228  1.00  0.00     0.148 A 
ATOM     63  C   UNL A   1      40.749  34.031  36.334  1.00  0.00     0.002 A 
ATOM     64  C   UNL A   1      38.977  32.572  37.122  1.00  0.00     0.091 A 
ATOM     65  F   UNL A   1      38.751  30.397  36.167  1.00  0.00    -0.205 F 
ATOM     66  C   UNL A   1      39.671  33.791  37.184  1.00  0.00     0.022 A 
BRANCH  64  67
ATOM     67  S   UNL A   1      37.545  32.395  38.191  1.00  0.00     0.127 S 
ATOM     68  O   UNL A   1      37.983  33.110  39.389  1.00  0.00    -0.237 OA
ATOM     69  O   UNL A   1      36.505  33.074  37.420  1.00  0.00    -0.237 OA
ATOM     70  O   UNL A   1      37.344  30.963  38.367  1.00  0.00    -0.744 OA
ENDBRANCH  64  67
ENDBRANCH  46  60
BRANCH  47  71
ATOM     71  C   UNL A   1      42.771  25.887  27.662  1.00  0.00     0.023 A 
ATOM     72  C   UNL A   1      43.588  26.457  26.666  1.00  0.00     0.012 A 
ATOM     73  C   UNL A   1      42.331  24.558  27.510  1.00  0.00     0.148 A 
ATOM     74  C   UNL A   1      43.903  25.742  25.510  1.00  0.00     0.002 A 
ATOM     75  C   UNL A   1      42.705  23.828  26.389  1.00  0.00     0.091 A 
ATOM     76  F   UNL A   1      41.552  24.033  28.466  1.00  0.00    -0.205 F 
ATOM     77  C   UNL A   1      43.467  24.427  25.374  1.00  0.00     0.022 A 
BRANCH  75  78
ATOM     78  S   UNL A   1      42.302  22.090  26.201  1.00  0.00     0.127 S 
ATOM     79  O   UNL A   1      42.749  21.540  27.478  1.00  0.00    -0.237 OA
ATOM     80  O   UNL A   1      40.851  22.135  26.020  1.00  0.00    -0.237 OA
ATOM     81  O   UNL A   1      43.037  21.641  25.025  1.00  0.00    -0.744 OA
ENDBRANCH  75  78
ENDBRANCH  47  71
BRANCH  59  82
ATOM     82  C   UNL A   1      45.548  26.975  33.965  1.00  0.00     0.023 A 
ATOM     83  C   UNL A   1      46.813  27.586  33.875  1.00  0.00     0.012 A 
ATOM     84  C   UNL A   1      45.389  25.828  34.769  1.00  0.00     0.148 A 
ATOM     85  C   UNL A   1      47.912  27.037  34.534  1.00  0.00     0.002 A 
ATOM     86  C   UNL A   1      46.474  25.324  35.472  1.00  0.00     0.091 A 
ATOM     87  F   UNL A   1      44.180  25.252  34.830  1.00  0.00    -0.205 F 
ATOM     88  C   UNL A   1      47.741  25.914  35.340  1.00  0.00     0.022 A 
BRANCH  86  89
ATOM     89  S   UNL A   1      46.323  23.947  36.614  1.00  0.00     0.127 S 
ATOM     90  O   UNL A   1      45.838  22.884  35.736  1.00  0.00    -0.237 OA
ATOM     91  O   UNL A   1      47.701  23.777  37.075  1.00  0.00    -0.237 OA
ATOM     92  O   UNL A   1      45.388  24.377  37.645  1.00  0.00    -0.744 OA
ENDBRANCH  86  89
ENDBRANCH  59  82
ENDBRANCH  33  34
ENDBRANCH  25  28
ENDBRANCH  23  24
ENDBRANCH  22  23
ENDBRANCH   1  22
TORSDOF 17
ENDMDL
MODEL 2
REMARK VINA RESULT:     -11.9      2.560      8.315
REMARK SMILES N#Cc1cccc(CSc2ccnc(C(=O)NCCCNC(=O)c3ccc(-c4c5nc(c(-c6cccc(S(=O)(=O)[O-])c6F)c6ccc([nH]6)c(-c6cccc(S(=O)(=O)[O-])c6F)c6nc(c(-c7cccc(S(=O)(=O)[O-])c7F)c7ccc4[nH]7)C=C6)C=C5)cc3)c2)c1
REMARK SMILES IDX 18 1 17 2 15 3 16 4 14 6 10 7 11 8 87 9 12 10 13 11 9 12
REMARK SMILES IDX 8 13 7 14 3 15 4 16 88 17 5 18 6 19 2 20 1 21 19 22 20 23
REMARK SMILES IDX 21 24 22 25 23 27 24 28 25 29 86 30 26 31 85 32 27 33 28 34
REMARK SMILES IDX 29 35 79 36 30 37 84 38 78 39 80 40 31 41 83 42 77 43 76 44
REMARK SMILES IDX 32 46 64 47 44 48 63 49 45 50 48 51 62 52 81 53 46 54 47 55
REMARK SMILES IDX 61 57 82 58 49 59 33 60 34 61 42 62 35 63 37 64 43 65 36 66
REMARK SMILES IDX 38 67 39 68 40 69 41 70 65 71 66 72 74 73 67 74 69 75 75 76
REMARK SMILES IDX 68 77 70 78 71 79 72 80 73 81 50 82 51 83 59 84 52 85 54 86
REMARK SMILES IDX 60 87 53 88 55 89 56 90 57 91 58 92
REMARK H PARENT 17 5 21 26 80 45 48 56
REMARK Flexibility Score: inf
ROOT
ATOM      1  C   UNL A   1      31.442  30.796  26.374  1.00  0.00     0.118 C 
ENDROOT
BRANCH   1   2
ATOM      2  N   UNL A   1      31.255  30.429  24.985  1.00  0.00    -0.351 N 
ATOM      3  C   UNL A   1      31.429  29.265  24.272  1.00  0.00     0.269 C 
ATOM      4  O   UNL A   1      31.124  29.325  23.077  1.00  0.00    -0.268 OA
ATOM      5  H   UNL A   1      30.933  31.175  24.430  1.00  0.00     0.163 HD
BRANCH   3   6
ATOM      6  C   UNL A   1      31.907  27.961  24.860  1.00  0.00     0.129 A 
ATOM      7  C   UNL A   1      31.801  25.603  25.255  1.00  0.00     0.011 A 
ATOM      8  C   UNL A   1      33.077  25.650  25.801  1.00  0.00     0.035 A 
ATOM      9  C   UNL A   1      31.185  26.781  24.841  1.00  0.00     0.049 A 
ATOM     10  C   UNL A   1      33.696  26.880  25.879  1.00  0.00     0.113 A 
ATOM     11  N   UNL A   1      33.155  28.017  25.398  1.00  0.00    -0.251 NA
BRANCH   7  12
ATOM     12  S   UNL A   1      30.974  24.048  24.967  1.00  0.00    -0.121 SA
BRANCH  12  13
ATOM     13  C   UNL A   1      31.971  23.412  23.570  1.00  0.00     0.110 C 
BRANCH  13  14
ATOM     14  C   UNL A   1      32.916  22.317  24.003  1.00  0.00    -0.036 A 
ATOM     15  C   UNL A   1      33.291  20.075  24.860  1.00  0.00     0.052 A 
ATOM     16  C   UNL A   1      34.666  20.330  24.926  1.00  0.00     0.019 A 
ATOM     17  C   UNL A   1      32.418  21.066  24.400  1.00  0.00     0.024 A 
ATOM     18  C   UNL A   1      35.171  21.560  24.506  1.00  0.00     0.002 A 
ATOM     19  C   UNL A   1      34.302  22.539  24.031  1.00  0.00     0.004 A 
BRANCH  15  20
ATOM     20  C   UNL A   1      32.788  18.803  25.286  1.00  0.00     0.099 C 
ATOM     21  N   UNL A   1      32.416  17.762  25.646  1.00  0.00    -0.192 NA
ENDBRANCH  15  20
ENDBRANCH  13  14
ENDBRANCH  12  13
ENDBRANCH   7  12
ENDBRANCH   3   6
ENDBRANCH   1   2
BRANCH   1  22
ATOM     22  C   UNL A   1      31.440  32.315  26.544  1.00  0.00     0.042 C 
BRANCH  22  23
ATOM     23  C   UNL A   1      32.738  32.829  27.165  1.00  0.00     0.118 C 
BRANCH  23  24
ATOM     24  N   UNL A   1      32.599  34.211  27.618  1.00  0.00    -0.352 N 
ATOM     25  C   UNL A   1      33.137  34.845  28.705  1.00  0.00     0.251 C 
ATOM     26  H   UNL A   1      32.027  34.776  27.051  1.00  0.00     0.163 HD
ATOM     27  O   UNL A   1      32.661  35.915  29.074  1.00  0.00    -0.269 OA
BRANCH  25  28
ATOM     28  C   UNL A   1      34.287  34.255  29.419  1.00  0.00     0.039 A 
ATOM     29  C   UNL A   1      34.051  33.477  30.553  1.00  0.00     0.014 A 
ATOM     30  C   UNL A   1      35.595  34.511  29.000  1.00  0.00     0.014 A 
ATOM     31  C   UNL A   1      35.129  32.926  31.246  1.00  0.00     0.010 A 
ATOM     32  C   UNL A   1      36.659  33.879  29.631  1.00  0.00     0.010 A 
ATOM     33  C   UNL A   1      36.440  33.101  30.774  1.00  0.00    -0.014 A 
BRANCH  33  34
ATOM     34  C   UNL A   1      37.591  32.484  31.478  1.00  0.00     0.031 A 
ATOM     35  C   UNL A   1      38.347  31.347  30.841  1.00  0.00     0.074 A 
ATOM     36  C   UNL A   1      37.914  32.909  32.715  1.00  0.00     0.049 A 
ATOM     37  N   UNL A   1      39.357  30.668  31.315  1.00  0.00    -0.248 NA
ATOM     38  C   UNL A   1      37.899  30.896  29.511  1.00  0.00     0.031 C 
ATOM     39  C   UNL A   1      37.206  33.951  33.464  1.00  0.00     0.029 A 
ATOM     40  N   UNL A   1      38.905  32.503  33.573  1.00  0.00    -0.354 N 
ATOM     41  C   UNL A   1      39.636  29.689  30.370  1.00  0.00     0.074 A 
ATOM     42  C   UNL A   1      38.676  29.842  29.302  1.00  0.00     0.031 C 
ATOM     43  C   UNL A   1      37.791  34.109  34.662  1.00  0.00     0.029 A 
ATOM     44  C   UNL A   1      38.882  33.148  34.787  1.00  0.00     0.049 A 
ATOM     45  H   UNL A   1      39.571  31.815  33.341  1.00  0.00     0.167 HD
ATOM     46  C   UNL A   1      40.614  28.755  30.385  1.00  0.00     0.034 A 
ATOM     47  C   UNL A   1      39.638  32.970  35.887  1.00  0.00     0.034 A 
ATOM     48  C   UNL A   1      41.588  28.628  31.434  1.00  0.00     0.049 A 
ATOM     49  C   UNL A   1      40.736  31.941  35.855  1.00  0.00     0.074 A 
ATOM     50  C   UNL A   1      42.679  27.780  31.490  1.00  0.00     0.029 A 
ATOM     51  N   UNL A   1      41.575  29.346  32.616  1.00  0.00    -0.354 N 
ATOM     52  N   UNL A   1      41.083  31.135  34.882  1.00  0.00    -0.248 NA
ATOM     53  C   UNL A   1      41.573  31.825  37.057  1.00  0.00     0.031 C 
ATOM     54  C   UNL A   1      43.290  27.940  32.735  1.00  0.00     0.029 A 
ATOM     55  C   UNL A   1      42.625  28.943  33.422  1.00  0.00     0.049 A 
ATOM     56  H   UNL A   1      40.918  30.040  32.850  1.00  0.00     0.167 HD
ATOM     57  C   UNL A   1      42.205  30.452  35.336  1.00  0.00     0.074 A 
ATOM     58  C   UNL A   1      42.492  30.956  36.663  1.00  0.00     0.031 C 
ATOM     59  C   UNL A   1      42.929  29.489  34.717  1.00  0.00     0.034 A 
BRANCH  46  60
ATOM     60  C   UNL A   1      40.705  27.792  29.230  1.00  0.00     0.023 A 
ATOM     61  C   UNL A   1      39.848  26.677  29.168  1.00  0.00     0.012 A 
ATOM     62  C   UNL A   1      41.566  28.068  28.150  1.00  0.00     0.148 A 
ATOM     63  C   UNL A   1      39.856  25.840  28.051  1.00  0.00     0.002 A 
ATOM     64  C   UNL A   1      41.531  27.262  27.021  1.00  0.00     0.091 A 
ATOM     65  F   UNL A   1      42.387  29.124  28.243  1.00  0.00    -0.205 F 
ATOM     66  C   UNL A   1      40.685  26.142  26.973  1.00  0.00     0.022 A 
BRANCH  64  67
ATOM     67  S   UNL A   1      42.491  27.622  25.546  1.00  0.00     0.127 S 
ATOM     68  O   UNL A   1      43.846  27.705  26.090  1.00  0.00    -0.237 OA
ATOM     69  O   UNL A   1      42.235  26.440  24.723  1.00  0.00    -0.237 OA
ATOM     70  O   UNL A   1      41.963  28.869  25.012  1.00  0.00    -0.744 OA
ENDBRANCH  64  67
ENDBRANCH  46  60
BRANCH  47  71
ATOM     71  C   UNL A   1      39.397  33.780  37.116  1.00  0.00     0.023 A 
ATOM     72  C   UNL A   1      39.896  35.094  37.206  1.00  0.00     0.012 A 
ATOM     73  C   UNL A   1      38.705  33.234  38.214  1.00  0.00     0.148 A 
ATOM     74  C   UNL A   1      39.769  35.824  38.388  1.00  0.00     0.002 A 
ATOM     75  C   UNL A   1      38.522  33.990  39.364  1.00  0.00     0.091 A 
ATOM     76  F   UNL A   1      38.239  31.981  38.113  1.00  0.00    -0.205 F 
ATOM     77  C   UNL A   1      39.078  35.274  39.465  1.00  0.00     0.022 A 
BRANCH  75  78
ATOM     78  S   UNL A   1      37.529  33.412  40.743  1.00  0.00     0.127 S 
ATOM     79  O   UNL A   1      38.518  32.699  41.546  1.00  0.00    -0.237 OA
ATOM     80  O   UNL A   1      37.053  34.670  41.320  1.00  0.00    -0.237 OA
ATOM     81  O   UNL A   1      36.479  32.591  40.153  1.00  0.00    -0.744 OA
ENDBRANCH  75  78
ENDBRANCH  47  71
BRANCH  59  82
ATOM     82  C   UNL A   1      44.153  28.971  35.423  1.00  0.00     0.023 A 
ATOM     83  C   UNL A   1      45.413  29.563  35.207  1.00  0.00     0.012 A 
ATOM     84  C   UNL A   1      44.036  27.916  36.351  1.00  0.00     0.148 A 
ATOM     85  C   UNL A   1      46.543  29.082  35.866  1.00  0.00     0.002 A 
ATOM     86  C   UNL A   1      45.154  27.484  37.049  1.00  0.00     0.091 A 
ATOM     87  F   UNL A   1      42.831  27.356  36.532  1.00  0.00    -0.205 F 
ATOM     88  C   UNL A   1      46.412  28.051  36.794  1.00  0.00     0.022 A 
BRANCH  86  89
ATOM     89  S   UNL A   1      45.059  26.236  38.336  1.00  0.00     0.127 S 
ATOM     90  O   UNL A   1      46.453  26.149  38.768  1.00  0.00    -0.237 OA
ATOM     91  O   UNL A   1      44.157  26.861  39.304  1.00  0.00    -0.237 OA
ATOM     92  O   UNL A   1      44.529  25.037  37.700  1.00  0.00    -0.744 OA
ENDBRANCH  86  89
ENDBRANCH  59  82
ENDBRANCH  33  34
ENDBRANCH  25  28
ENDBRANCH  23  24
ENDBRANCH  22  23
ENDBRANCH   1  22
TORSDOF 17
ENDMDL
MODEL 3
REMARK VINA RESULT:     -11.8      5.995     12.102
REMARK SMILES N#Cc1cccc(CSc2ccnc(C(=O)NCCCNC(=O)c3ccc(-c4c5nc(c(-c6cccc(S(=O)(=O)[O-])c6F)c6ccc([nH]6)c(-c6cccc(S(=O)(=O)[O-])c6F)c6nc(c(-c7cccc(S(=O)(=O)[O-])c7F)c7ccc4[nH]7)C=C6)C=C5)cc3)c2)c1
REMARK SMILES IDX 18 1 17 2 15 3 16 4 14 6 10 7 11 8 87 9 12 10 13 11 9 12
REMARK SMILES IDX 8 13 7 14 3 15 4 16 88 17 5 18 6 19 2 20 1 21 19 22 20 23
REMARK SMILES IDX 21 24 22 25 23 27 24 28 25 29 86 30 26 31 85 32 27 33 28 34
REMARK SMILES IDX 29 35 79 36 30 37 84 38 78 39 80 40 31 41 83 42 77 43 76 44
REMARK SMILES IDX 32 46 64 47 44 48 63 49 45 50 48 51 62 52 81 53 46 54 47 55
REMARK SMILES IDX 61 57 82 58 49 59 33 60 34 61 42 62 35 63 37 64 43 65 36 66
REMARK SMILES IDX 38 67 39 68 40 69 41 70 65 71 66 72 74 73 67 74 69 75 75 76
REMARK SMILES IDX 68 77 70 78 71 79 72 80 73 81 50 82 51 83 59 84 52 85 54 86
REMARK SMILES IDX 60 87 53 88 55 89 56 90 57 91 58 92
REMARK H PARENT 17 5 21 26 80 45 48 56
REMARK Flexibility Score: inf
ROOT
ATOM      1  C   UNL A   1      41.506  19.450  26.121  1.00  0.00     0.118 C 
ENDROOT
BRANCH   1   2
ATOM      2  N   UNL A   1      42.731  18.744  25.802  1.00  0.00    -0.351 N 
ATOM      3  C   UNL A   1      43.982  19.138  25.388  1.00  0.00     0.269 C 
ATOM      4  O   UNL A   1      44.805  18.229  25.249  1.00  0.00    -0.268 OA
ATOM      5  H   UNL A   1      42.650  17.768  25.906  1.00  0.00     0.163 HD
BRANCH   3   6
ATOM      6  C   UNL A   1      44.397  20.569  25.151  1.00  0.00     0.129 A 
ATOM      7  C   UNL A   1      45.217  22.717  25.815  1.00  0.00     0.011 A 
ATOM      8  C   UNL A   1      45.350  23.066  24.477  1.00  0.00     0.035 A 
ATOM      9  C   UNL A   1      44.674  21.481  26.154  1.00  0.00     0.049 A 
ATOM     10  C   UNL A   1      44.958  22.141  23.532  1.00  0.00     0.113 A 
ATOM     11  N   UNL A   1      44.518  20.904  23.839  1.00  0.00    -0.251 NA
BRANCH   7  12
ATOM     12  S   UNL A   1      45.834  23.775  27.112  1.00  0.00    -0.121 SA
BRANCH  12  13
ATOM     13  C   UNL A   1      46.099  25.319  26.166  1.00  0.00     0.110 C 
BRANCH  13  14
ATOM     14  C   UNL A   1      47.565  25.637  26.003  1.00  0.00    -0.036 A 
ATOM     15  C   UNL A   1      49.402  26.478  24.651  1.00  0.00     0.052 A 
ATOM     16  C   UNL A   1      50.307  26.110  25.654  1.00  0.00     0.019 A 
ATOM     17  C   UNL A   1      48.034  26.242  24.826  1.00  0.00     0.024 A 
ATOM     18  C   UNL A   1      49.847  25.536  26.837  1.00  0.00     0.002 A 
ATOM     19  C   UNL A   1      48.484  25.318  27.017  1.00  0.00     0.004 A 
BRANCH  15  20
ATOM     20  C   UNL A   1      49.889  27.076  23.444  1.00  0.00     0.099 C 
ATOM     21  N   UNL A   1      50.252  27.587  22.465  1.00  0.00    -0.192 NA
ENDBRANCH  15  20
ENDBRANCH  13  14
ENDBRANCH  12  13
ENDBRANCH   7  12
ENDBRANCH   3   6
ENDBRANCH   1   2
BRANCH   1  22
ATOM     22  C   UNL A   1      41.574  20.061  27.520  1.00  0.00     0.042 C 
BRANCH  22  23
ATOM     23  C   UNL A   1      41.042  21.492  27.552  1.00  0.00     0.118 C 
BRANCH  23  24
ATOM     24  N   UNL A   1      39.867  21.641  26.697  1.00  0.00    -0.352 N 
ATOM     25  C   UNL A   1      39.038  22.713  26.509  1.00  0.00     0.251 C 
ATOM     26  H   UNL A   1      39.636  20.842  26.171  1.00  0.00     0.163 HD
ATOM     27  O   UNL A   1      37.941  22.541  25.983  1.00  0.00    -0.269 OA
BRANCH  25  28
ATOM     28  C   UNL A   1      39.462  24.066  26.923  1.00  0.00     0.039 A 
ATOM     29  C   UNL A   1      39.288  24.451  28.253  1.00  0.00     0.014 A 
ATOM     30  C   UNL A   1      39.983  24.967  25.991  1.00  0.00     0.014 A 
ATOM     31  C   UNL A   1      39.671  25.731  28.653  1.00  0.00     0.010 A 
ATOM     32  C   UNL A   1      40.456  26.203  26.412  1.00  0.00     0.010 A 
ATOM     33  C   UNL A   1      40.283  26.607  27.742  1.00  0.00    -0.014 A 
BRANCH  33  34
ATOM     34  C   UNL A   1      40.734  27.955  28.168  1.00  0.00     0.031 A 
ATOM     35  C   UNL A   1      42.202  28.295  28.176  1.00  0.00     0.074 A 
ATOM     36  C   UNL A   1      39.825  28.849  28.603  1.00  0.00     0.049 A 
ATOM     37  N   UNL A   1      42.783  29.407  28.540  1.00  0.00    -0.248 NA
ATOM     38  C   UNL A   1      43.142  27.247  27.742  1.00  0.00     0.031 C 
ATOM     39  C   UNL A   1      38.383  28.606  28.712  1.00  0.00     0.029 A 
ATOM     40  N   UNL A   1      39.977  30.135  29.059  1.00  0.00    -0.354 N 
ATOM     41  C   UNL A   1      44.148  29.180  28.423  1.00  0.00     0.074 A 
ATOM     42  C   UNL A   1      44.316  27.817  27.975  1.00  0.00     0.031 C 
ATOM     43  C   UNL A   1      37.784  29.708  29.192  1.00  0.00     0.029 A 
ATOM     44  C   UNL A   1      38.801  30.716  29.470  1.00  0.00     0.049 A 
ATOM     45  H   UNL A   1      40.846  30.597  29.087  1.00  0.00     0.167 HD
ATOM     46  C   UNL A   1      45.169  30.036  28.654  1.00  0.00     0.034 A 
ATOM     47  C   UNL A   1      38.569  31.918  30.033  1.00  0.00     0.034 A 
ATOM     48  C   UNL A   1      44.995  31.402  29.066  1.00  0.00     0.049 A 
ATOM     49  C   UNL A   1      39.728  32.855  30.247  1.00  0.00     0.074 A 
ATOM     50  C   UNL A   1      45.963  32.376  29.227  1.00  0.00     0.029 A 
ATOM     51  N   UNL A   1      43.784  31.977  29.407  1.00  0.00    -0.354 N 
ATOM     52  N   UNL A   1      40.997  32.674  29.976  1.00  0.00    -0.248 NA
ATOM     53  C   UNL A   1      39.418  34.178  30.808  1.00  0.00     0.031 C 
ATOM     54  C   UNL A   1      45.344  33.524  29.727  1.00  0.00     0.029 A 
ATOM     55  C   UNL A   1      43.981  33.287  29.803  1.00  0.00     0.049 A 
ATOM     56  H   UNL A   1      42.912  31.523  29.372  1.00  0.00     0.167 HD
ATOM     57  C   UNL A   1      41.627  33.872  30.286  1.00  0.00     0.074 A 
ATOM     58  C   UNL A   1      40.596  34.780  30.745  1.00  0.00     0.031 C 
ATOM     59  C   UNL A   1      42.941  34.194  30.208  1.00  0.00     0.034 A 
BRANCH  46  60
ATOM     60  C   UNL A   1      46.578  29.543  28.457  1.00  0.00     0.023 A 
ATOM     61  C   UNL A   1      47.228  29.727  27.222  1.00  0.00     0.012 A 
ATOM     62  C   UNL A   1      47.292  29.001  29.545  1.00  0.00     0.148 A 
ATOM     63  C   UNL A   1      48.567  29.365  27.067  1.00  0.00     0.002 A 
ATOM     64  C   UNL A   1      48.637  28.693  29.398  1.00  0.00     0.091 A 
ATOM     65  F   UNL A   1      46.644  28.816  30.703  1.00  0.00    -0.205 F 
ATOM     66  C   UNL A   1      49.274  28.865  28.158  1.00  0.00     0.022 A 
BRANCH  64  67
ATOM     67  S   UNL A   1      49.656  28.132  30.766  1.00  0.00     0.127 S 
ATOM     68  O   UNL A   1      50.951  27.947  30.112  1.00  0.00    -0.237 OA
ATOM     69  O   UNL A   1      49.590  29.271  31.680  1.00  0.00    -0.237 OA
ATOM     70  O   UNL A   1      49.035  26.911  31.260  1.00  0.00    -0.744 OA
ENDBRANCH  64  67
ENDBRANCH  46  60
BRANCH  47  71
ATOM     71  C   UNL A   1      37.190  32.317  30.434  1.00  0.00     0.023 A 
ATOM     72  C   UNL A   1      36.723  32.037  31.733  1.00  0.00     0.012 A 
ATOM     73  C   UNL A   1      36.324  32.942  29.515  1.00  0.00     0.148 A 
ATOM     74  C   UNL A   1      35.401  32.310  32.087  1.00  0.00     0.002 A 
ATOM     75  C   UNL A   1      35.031  33.273  29.895  1.00  0.00     0.091 A 
ATOM     76  F   UNL A   1      36.784  33.198  28.282  1.00  0.00    -0.205 F 
ATOM     77  C   UNL A   1      34.557  32.932  31.171  1.00  0.00     0.022 A 
BRANCH  75  78
ATOM     78  S   UNL A   1      33.925  34.196  28.825  1.00  0.00     0.127 S 
ATOM     79  O   UNL A   1      34.791  35.277  28.363  1.00  0.00    -0.237 OA
ATOM     80  O   UNL A   1      33.585  33.198  27.810  1.00  0.00    -0.237 OA
ATOM     81  O   UNL A   1      32.806  34.596  29.667  1.00  0.00    -0.744 OA
ENDBRANCH  75  78
ENDBRANCH  47  71
BRANCH  59  82
ATOM     82  C   UNL A   1      43.337  35.607  30.544  1.00  0.00     0.023 A 
ATOM     83  C   UNL A   1      43.771  35.943  31.841  1.00  0.00     0.012 A 
ATOM     84  C   UNL A   1      43.325  36.597  29.540  1.00  0.00     0.148 A 
ATOM     85  C   UNL A   1      44.140  37.252  32.146  1.00  0.00     0.002 A 
ATOM     86  C   UNL A   1      43.753  37.883  29.836  1.00  0.00     0.091 A 
ATOM     87  F   UNL A   1      42.895  36.261  28.316  1.00  0.00    -0.205 F 
ATOM     88  C   UNL A   1      44.141  38.218  31.142  1.00  0.00     0.022 A 
BRANCH  86  89
ATOM     89  S   UNL A   1      43.888  39.162  28.583  1.00  0.00     0.127 S 
ATOM     90  O   UNL A   1      44.609  40.209  29.304  1.00  0.00    -0.237 OA
ATOM     91  O   UNL A   1      44.665  38.491  27.541  1.00  0.00    -0.237 OA
ATOM     92  O   UNL A   1      42.523  39.498  28.199  1.00  0.00    -0.744 OA
ENDBRANCH  86  89
ENDBRANCH  59  82
ENDBRANCH  33  34
ENDBRANCH  25  28
ENDBRANCH  23  24
ENDBRANCH  22  23
ENDBRANCH   1  22
TORSDOF 17
ENDMDL
