MODEL 1
REMARK VINA RESULT:     -13.2      0.000      0.000
REMARK SMILES COc1ccc(N2C(=O)/C(=C/c3c(C(=O)NCCCNC(=O)c4ccc(-c5c6nc(c(-c7cccc(S(=O)(=O)[O-])c7F)c7ccc([nH]7)c(-c7cccc(S(=O)(=O)[O-])c7F)c7nc(c(-c8cccc(S(=O)(=O)[O-])c8F)c8ccc5[nH]8)C=C7)C=C6)cc4)[nH]c4cc(OC)ccc34)SC2=S)cc1
REMARK SMILES IDX 18 1 17 2 16 3 14 4 15 5 13 7 12 8 94 9 86 10 87 11 93 12
REMARK SMILES IDX 88 14 92 15 89 16 11 17 7 18 8 19 96 20 9 21 10 22 95 23
REMARK SMILES IDX 97 24 6 25 3 26 4 27 99 28 5 29 98 30 2 31 1 32 90 33 91 34
REMARK SMILES IDX 19 35 20 36 21 37 22 39 23 40 24 41 85 42 25 43 84 44 26 45
REMARK SMILES IDX 27 46 28 47 78 48 29 49 83 50 77 51 79 52 30 53 82 54 76 55
REMARK SMILES IDX 75 56 31 58 63 59 43 60 62 61 44 62 47 63 61 64 80 65 45 66
REMARK SMILES IDX 46 67 60 69 81 70 48 71 32 72 33 73 41 74 34 75 36 76 42 77
REMARK SMILES IDX 35 78 37 79 38 80 39 81 40 82 64 83 65 84 73 85 66 86 68 87
REMARK SMILES IDX 74 88 67 89 69 90 70 91 71 92 72 93 49 94 50 95 58 96 51 97
REMARK SMILES IDX 53 98 59 99 52 100 54 101 55 102 56 103 57 104
REMARK H PARENT 16 6 86 13 20 38 79 57 47 68
REMARK Flexibility Score: inf
ROOT
ATOM      1  C   UNL A   1      35.285  23.696  24.979  1.00  0.00     0.042 C 
ENDROOT
BRANCH   1   2
ATOM      2  C   UNL A   1      34.529  24.944  24.565  1.00  0.00     0.118 C 
BRANCH   2   3
ATOM      3  N   UNL A   1      34.568  25.241  23.141  1.00  0.00    -0.351 N 
ATOM      4  C   UNL A   1      33.573  25.817  22.377  1.00  0.00     0.268 C 
ATOM      5  O   UNL A   1      33.673  25.809  21.164  1.00  0.00    -0.268 OA
ATOM      6  H   UNL A   1      35.399  25.002  22.668  1.00  0.00     0.163 HD
BRANCH   4   7
ATOM      7  C   UNL A   1      32.398  26.310  23.061  1.00  0.00     0.112 A 
ATOM      8  C   UNL A   1      31.165  25.750  23.404  1.00  0.00     0.014 A 
ATOM      9  C   UNL A   1      30.263  26.876  23.503  1.00  0.00     0.008 A 
ATOM     10  N   UNL A   1      32.369  27.603  23.512  1.00  0.00    -0.350 N 
ATOM     11  C   UNL A   1      31.067  28.020  23.542  1.00  0.00     0.050 A 
ATOM     12  C   UNL A   1      28.862  27.094  23.501  1.00  0.00     0.015 A 
ATOM     13  H   UNL A   1      33.153  28.139  23.769  1.00  0.00     0.167 HD
ATOM     14  C   UNL A   1      30.579  29.326  23.555  1.00  0.00     0.073 A 
ATOM     15  C   UNL A   1      28.350  28.420  23.469  1.00  0.00     0.047 A 
ATOM     16  C   UNL A   1      29.204  29.522  23.488  1.00  0.00     0.120 A 
BRANCH   8  17
ATOM     17  C   UNL A   1      30.916  24.324  23.302  1.00  0.00     0.032 C 
ATOM     18  N   UNL A   1      32.294  21.552  25.143  1.00  0.00    -0.261 N 
ATOM     19  C   UNL A   1      31.564  22.014  24.040  1.00  0.00     0.270 C 
ATOM     20  C   UNL A   1      32.321  22.376  26.259  1.00  0.00     0.152 C 
ATOM     21  O   UNL A   1      31.400  21.467  22.958  1.00  0.00    -0.268 OA
ATOM     22  C   UNL A   1      31.117  23.428  24.298  1.00  0.00     0.081 C 
ATOM     23  S   UNL A   1      31.286  23.769  25.980  1.00  0.00    -0.054 SA
ATOM     24  S   UNL A   1      33.109  22.169  27.720  1.00  0.00    -0.051 S 
BRANCH  18  25
ATOM     25  C   UNL A   1      33.043  20.338  25.091  1.00  0.00     0.051 A 
ATOM     26  C   UNL A   1      34.458  17.924  24.736  1.00  0.00     0.119 A 
ATOM     27  C   UNL A   1      33.088  17.907  24.979  1.00  0.00     0.048 A 
ATOM     28  C   UNL A   1      35.116  19.148  24.627  1.00  0.00     0.048 A 
ATOM     29  C   UNL A   1      32.383  19.103  25.161  1.00  0.00     0.030 A 
ATOM     30  C   UNL A   1      34.414  20.353  24.817  1.00  0.00     0.030 A 
BRANCH  26  31
ATOM     31  O   UNL A   1      35.039  16.697  24.571  1.00  0.00    -0.497 OA
ATOM     32  C   UNL A   1      34.498  15.654  25.376  1.00  0.00     0.278 C 
ENDBRANCH  26  31
ENDBRANCH  18  25
ENDBRANCH   8  17
BRANCH  16  33
ATOM     33  O   UNL A   1      28.868  30.845  23.405  1.00  0.00    -0.497 OA
ATOM     34  C   UNL A   1      27.501  31.201  23.501  1.00  0.00     0.278 C 
ENDBRANCH  16  33
ENDBRANCH   4   7
ENDBRANCH   2   3
ENDBRANCH   1   2
BRANCH   1  35
ATOM     35  C   UNL A   1      36.704  23.628  24.431  1.00  0.00     0.118 C 
BRANCH  35  36
ATOM     36  N   UNL A   1      37.400  22.363  24.622  1.00  0.00    -0.352 N 
ATOM     37  C   UNL A   1      38.394  22.029  25.519  1.00  0.00     0.251 C 
ATOM     38  H   UNL A   1      37.119  21.637  24.020  1.00  0.00     0.163 HD
ATOM     39  O   UNL A   1      38.878  20.898  25.469  1.00  0.00    -0.269 OA
BRANCH  37  40
ATOM     40  C   UNL A   1      38.942  23.007  26.500  1.00  0.00     0.039 A 
ATOM     41  C   UNL A   1      40.256  22.814  26.950  1.00  0.00     0.014 A 
ATOM     42  C   UNL A   1      38.233  24.121  26.949  1.00  0.00     0.014 A 
ATOM     43  C   UNL A   1      40.898  23.807  27.692  1.00  0.00     0.010 A 
ATOM     44  C   UNL A   1      38.885  25.148  27.613  1.00  0.00     0.010 A 
ATOM     45  C   UNL A   1      40.239  25.020  27.929  1.00  0.00    -0.014 A 
BRANCH  45  46
ATOM     46  C   UNL A   1      40.984  26.254  28.257  1.00  0.00     0.031 A 
ATOM     47  C   UNL A   1      40.311  27.412  28.924  1.00  0.00     0.074 A 
ATOM     48  C   UNL A   1      42.217  26.369  27.723  1.00  0.00     0.049 A 
ATOM     49  N   UNL A   1      40.797  28.592  29.200  1.00  0.00    -0.248 NA
ATOM     50  C   UNL A   1      38.895  27.242  29.289  1.00  0.00     0.031 C 
ATOM     51  C   UNL A   1      42.877  25.344  26.902  1.00  0.00     0.029 A 
ATOM     52  N   UNL A   1      43.115  27.402  27.735  1.00  0.00    -0.354 N 
ATOM     53  C   UNL A   1      39.746  29.316  29.748  1.00  0.00     0.074 A 
ATOM     54  C   UNL A   1      38.584  28.454  29.732  1.00  0.00     0.031 C 
ATOM     55  C   UNL A   1      44.070  25.797  26.495  1.00  0.00     0.029 A 
ATOM     56  C   UNL A   1      44.254  27.147  27.006  1.00  0.00     0.049 A 
ATOM     57  H   UNL A   1      42.961  28.245  28.218  1.00  0.00     0.167 HD
ATOM     58  C   UNL A   1      39.767  30.580  30.239  1.00  0.00     0.034 A 
ATOM     59  C   UNL A   1      45.335  27.916  26.782  1.00  0.00     0.034 A 
ATOM     60  C   UNL A   1      40.949  31.401  30.243  1.00  0.00     0.049 A 
ATOM     61  C   UNL A   1      45.379  29.261  27.443  1.00  0.00     0.074 A 
ATOM     62  C   UNL A   1      41.136  32.650  30.805  1.00  0.00     0.029 A 
ATOM     63  N   UNL A   1      42.152  31.050  29.641  1.00  0.00    -0.354 N 
ATOM     64  N   UNL A   1      44.445  29.858  28.144  1.00  0.00    -0.248 NA
ATOM     65  C   UNL A   1      46.632  30.013  27.336  1.00  0.00     0.031 C 
ATOM     66  C   UNL A   1      42.445  33.061  30.526  1.00  0.00     0.029 A 
ATOM     67  C   UNL A   1      43.085  32.058  29.814  1.00  0.00     0.049 A 
ATOM     68  H   UNL A   1      42.316  30.208  29.158  1.00  0.00     0.167 HD
ATOM     69  C   UNL A   1      45.006  31.043  28.594  1.00  0.00     0.074 A 
ATOM     70  C   UNL A   1      46.371  31.066  28.100  1.00  0.00     0.031 C 
ATOM     71  C   UNL A   1      44.445  32.029  29.337  1.00  0.00     0.034 A 
BRANCH  58  72
ATOM     72  C   UNL A   1      38.500  31.115  30.863  1.00  0.00     0.023 A 
ATOM     73  C   UNL A   1      38.345  31.065  32.264  1.00  0.00     0.012 A 
ATOM     74  C   UNL A   1      37.485  31.705  30.082  1.00  0.00     0.148 A 
ATOM     75  C   UNL A   1      37.190  31.552  32.876  1.00  0.00     0.002 A 
ATOM     76  C   UNL A   1      36.354  32.229  30.703  1.00  0.00     0.091 A 
ATOM     77  F   UNL A   1      37.635  31.731  28.751  1.00  0.00    -0.205 F 
ATOM     78  C   UNL A   1      36.199  32.141  32.096  1.00  0.00     0.022 A 
BRANCH  76  79
ATOM     79  S   UNL A   1      35.052  33.078  29.800  1.00  0.00     0.127 S 
ATOM     80  O   UNL A   1      35.816  34.069  29.044  1.00  0.00    -0.237 OA
ATOM     81  O   UNL A   1      34.485  31.999  28.991  1.00  0.00    -0.237 OA
ATOM     82  O   UNL A   1      34.152  33.619  30.808  1.00  0.00    -0.744 OA
ENDBRANCH  76  79
ENDBRANCH  58  72
BRANCH  59  83
ATOM     83  C   UNL A   1      46.488  27.359  26.021  1.00  0.00     0.023 A 
ATOM     84  C   UNL A   1      46.541  27.551  24.626  1.00  0.00     0.012 A 
ATOM     85  C   UNL A   1      47.575  26.737  26.668  1.00  0.00     0.148 A 
ATOM     86  C   UNL A   1      47.642  27.116  23.887  1.00  0.00     0.002 A 
ATOM     87  C   UNL A   1      48.691  26.352  25.932  1.00  0.00     0.091 A 
ATOM     88  F   UNL A   1      47.509  26.565  27.996  1.00  0.00    -0.205 F 
ATOM     89  C   UNL A   1      48.720  26.527  24.540  1.00  0.00     0.022 A 
BRANCH  87  90
ATOM     90  S   UNL A   1      50.184  25.719  26.709  1.00  0.00     0.127 S 
ATOM     91  O   UNL A   1      49.716  24.455  27.271  1.00  0.00    -0.237 OA
ATOM     92  O   UNL A   1      51.091  25.588  25.569  1.00  0.00    -0.237 OA
ATOM     93  O   UNL A   1      50.582  26.734  27.675  1.00  0.00    -0.744 OA
ENDBRANCH  87  90
ENDBRANCH  59  83
BRANCH  71  94
ATOM     94  C   UNL A   1      45.322  33.203  29.676  1.00  0.00     0.023 A 
ATOM     95  C   UNL A   1      46.141  33.155  30.820  1.00  0.00     0.012 A 
ATOM     96  C   UNL A   1      45.370  34.326  28.829  1.00  0.00     0.148 A 
ATOM     97  C   UNL A   1      46.974  34.227  31.136  1.00  0.00     0.002 A 
ATOM     98  C   UNL A   1      46.239  35.368  29.123  1.00  0.00     0.091 A 
ATOM     99  F   UNL A   1      44.561  34.357  27.760  1.00  0.00    -0.205 F 
ATOM    100  C   UNL A   1      47.032  35.326  30.282  1.00  0.00     0.022 A 
BRANCH  98 101
ATOM    101  S   UNL A   1      46.446  36.775  28.029  1.00  0.00     0.127 S 
ATOM    102  O   UNL A   1      47.462  37.555  28.736  1.00  0.00    -0.237 OA
ATOM    103  O   UNL A   1      46.912  36.143  26.794  1.00  0.00    -0.237 OA
ATOM    104  O   UNL A   1      45.135  37.400  27.927  1.00  0.00    -0.744 OA
ENDBRANCH  98 101
ENDBRANCH  71  94
ENDBRANCH  45  46
ENDBRANCH  37  40
ENDBRANCH  35  36
ENDBRANCH   1  35
TORSDOF 17
ENDMDL
MODEL 2
REMARK VINA RESULT:     -13.2      0.536      7.415
REMARK SMILES COc1ccc(N2C(=O)/C(=C/c3c(C(=O)NCCCNC(=O)c4ccc(-c5c6nc(c(-c7cccc(S(=O)(=O)[O-])c7F)c7ccc([nH]7)c(-c7cccc(S(=O)(=O)[O-])c7F)c7nc(c(-c8cccc(S(=O)(=O)[O-])c8F)c8ccc5[nH]8)C=C7)C=C6)cc4)[nH]c4cc(OC)ccc34)SC2=S)cc1
REMARK SMILES IDX 18 1 17 2 16 3 14 4 15 5 13 7 12 8 94 9 86 10 87 11 93 12
REMARK SMILES IDX 88 14 92 15 89 16 11 17 7 18 8 19 96 20 9 21 10 22 95 23
REMARK SMILES IDX 97 24 6 25 3 26 4 27 99 28 5 29 98 30 2 31 1 32 90 33 91 34
REMARK SMILES IDX 19 35 20 36 21 37 22 39 23 40 24 41 85 42 25 43 84 44 26 45
REMARK SMILES IDX 27 46 28 47 78 48 29 49 83 50 77 51 79 52 30 53 82 54 76 55
REMARK SMILES IDX 75 56 31 58 63 59 43 60 62 61 44 62 47 63 61 64 80 65 45 66
REMARK SMILES IDX 46 67 60 69 81 70 48 71 32 72 33 73 41 74 34 75 36 76 42 77
REMARK SMILES IDX 35 78 37 79 38 80 39 81 40 82 64 83 65 84 73 85 66 86 68 87
REMARK SMILES IDX 74 88 67 89 69 90 70 91 71 92 72 93 49 94 50 95 58 96 51 97
REMARK SMILES IDX 53 98 59 99 52 100 54 101 55 102 56 103 57 104
REMARK H PARENT 16 6 86 13 20 38 79 57 47 68
REMARK Flexibility Score: inf
ROOT
ATOM      1  C   UNL A   1      35.261  23.752  25.231  1.00  0.00     0.042 C 
ENDROOT
BRANCH   1   2
ATOM      2  C   UNL A   1      34.429  24.939  24.784  1.00  0.00     0.118 C 
BRANCH   2   3
ATOM      3  N   UNL A   1      34.604  25.321  23.391  1.00  0.00    -0.351 N 
ATOM      4  C   UNL A   1      33.694  25.967  22.578  1.00  0.00     0.268 C 
ATOM      5  O   UNL A   1      33.905  26.031  21.382  1.00  0.00    -0.268 OA
ATOM      6  H   UNL A   1      35.470  25.092  22.981  1.00  0.00     0.163 HD
BRANCH   4   7
ATOM      7  C   UNL A   1      32.470  26.446  23.183  1.00  0.00     0.112 A 
ATOM      8  C   UNL A   1      31.209  25.887  23.400  1.00  0.00     0.014 A 
ATOM      9  C   UNL A   1      30.311  27.019  23.471  1.00  0.00     0.008 A 
ATOM     10  N   UNL A   1      32.416  27.719  23.684  1.00  0.00    -0.350 N 
ATOM     11  C   UNL A   1      31.119  28.150  23.624  1.00  0.00     0.050 A 
ATOM     12  C   UNL A   1      28.918  27.253  23.363  1.00  0.00     0.015 A 
ATOM     13  H   UNL A   1      33.180  28.235  24.027  1.00  0.00     0.167 HD
ATOM     14  C   UNL A   1      30.643  29.461  23.651  1.00  0.00     0.073 A 
ATOM     15  C   UNL A   1      28.421  28.586  23.344  1.00  0.00     0.047 A 
ATOM     16  C   UNL A   1      29.280  29.676  23.480  1.00  0.00     0.120 A 
BRANCH   8  17
ATOM     17  C   UNL A   1      30.957  24.469  23.218  1.00  0.00     0.032 C 
ATOM     18  N   UNL A   1      32.204  21.604  25.009  1.00  0.00    -0.261 N 
ATOM     19  C   UNL A   1      31.544  22.122  23.887  1.00  0.00     0.270 C 
ATOM     20  C   UNL A   1      32.170  22.377  26.161  1.00  0.00     0.152 C 
ATOM     21  O   UNL A   1      31.442  21.627  22.774  1.00  0.00    -0.268 OA
ATOM     22  C   UNL A   1      31.092  23.528  24.183  1.00  0.00     0.081 C 
ATOM     23  S   UNL A   1      31.162  23.790  25.885  1.00  0.00    -0.054 SA
ATOM     24  S   UNL A   1      32.867  22.097  27.656  1.00  0.00    -0.051 S 
BRANCH  18  25
ATOM     25  C   UNL A   1      32.946  20.387  24.946  1.00  0.00     0.051 A 
ATOM     26  C   UNL A   1      34.381  17.988  24.563  1.00  0.00     0.119 A 
ATOM     27  C   UNL A   1      32.991  17.973  24.635  1.00  0.00     0.048 A 
ATOM     28  C   UNL A   1      35.054  19.207  24.640  1.00  0.00     0.048 A 
ATOM     29  C   UNL A   1      32.276  19.161  24.830  1.00  0.00     0.030 A 
ATOM     30  C   UNL A   1      34.341  20.403  24.844  1.00  0.00     0.030 A 
BRANCH  26  31
ATOM     31  O   UNL A   1      34.970  16.770  24.366  1.00  0.00    -0.497 OA
ATOM     32  C   UNL A   1      34.749  15.814  25.399  1.00  0.00     0.278 C 
ENDBRANCH  26  31
ENDBRANCH  18  25
ENDBRANCH   8  17
BRANCH  16  33
ATOM     33  O   UNL A   1      28.964  31.005  23.425  1.00  0.00    -0.497 OA
ATOM     34  C   UNL A   1      27.598  31.375  23.464  1.00  0.00     0.278 C 
ENDBRANCH  16  33
ENDBRANCH   4   7
ENDBRANCH   2   3
ENDBRANCH   1   2
BRANCH   1  35
ATOM     35  C   UNL A   1      36.493  23.508  24.371  1.00  0.00     0.118 C 
BRANCH  35  36
ATOM     36  N   UNL A   1      37.169  22.234  24.573  1.00  0.00    -0.352 N 
ATOM     37  C   UNL A   1      38.224  21.915  25.404  1.00  0.00     0.251 C 
ATOM     38  H   UNL A   1      36.819  21.487  24.036  1.00  0.00     0.163 HD
ATOM     39  O   UNL A   1      38.671  20.768  25.375  1.00  0.00    -0.269 OA
BRANCH  37  40
ATOM     40  C   UNL A   1      38.877  22.925  26.282  1.00  0.00     0.039 A 
ATOM     41  C   UNL A   1      40.259  22.811  26.493  1.00  0.00     0.014 A 
ATOM     42  C   UNL A   1      38.193  23.995  26.860  1.00  0.00     0.014 A 
ATOM     43  C   UNL A   1      40.961  23.841  27.121  1.00  0.00     0.010 A 
ATOM     44  C   UNL A   1      38.891  25.059  27.409  1.00  0.00     0.010 A 
ATOM     45  C   UNL A   1      40.284  25.013  27.482  1.00  0.00    -0.014 A 
BRANCH  45  46
ATOM     46  C   UNL A   1      41.001  26.289  27.686  1.00  0.00     0.031 A 
ATOM     47  C   UNL A   1      42.438  26.443  27.300  1.00  0.00     0.074 A 
ATOM     48  C   UNL A   1      40.372  27.214  28.441  1.00  0.00     0.049 A 
ATOM     49  N   UNL A   1      43.232  27.461  27.490  1.00  0.00    -0.248 NA
ATOM     50  C   UNL A   1      43.083  25.287  26.654  1.00  0.00     0.031 C 
ATOM     51  C   UNL A   1      39.026  27.062  29.011  1.00  0.00     0.029 A 
ATOM     52  N   UNL A   1      40.785  28.434  28.907  1.00  0.00    -0.354 N 
ATOM     53  C   UNL A   1      44.476  27.067  27.014  1.00  0.00     0.074 A 
ATOM     54  C   UNL A   1      44.340  25.701  26.558  1.00  0.00     0.031 C 
ATOM     55  C   UNL A   1      38.725  28.143  29.742  1.00  0.00     0.029 A 
ATOM     56  C   UNL A   1      39.858  29.055  29.712  1.00  0.00     0.049 A 
ATOM     57  H   UNL A   1      41.659  28.827  28.687  1.00  0.00     0.167 HD
ATOM     58  C   UNL A   1      45.616  27.798  26.947  1.00  0.00     0.034 A 
ATOM     59  C   UNL A   1      39.913  30.238  30.350  1.00  0.00     0.034 A 
ATOM     60  C   UNL A   1      45.704  29.159  27.406  1.00  0.00     0.049 A 
ATOM     61  C   UNL A   1      41.141  31.076  30.154  1.00  0.00     0.074 A 
ATOM     62  C   UNL A   1      46.760  30.045  27.298  1.00  0.00     0.029 A 
ATOM     63  N   UNL A   1      44.687  29.831  28.075  1.00  0.00    -0.354 N 
ATOM     64  N   UNL A   1      42.246  30.771  29.516  1.00  0.00    -0.248 NA
ATOM     65  C   UNL A   1      41.115  32.433  30.708  1.00  0.00     0.031 C 
ATOM     66  C   UNL A   1      46.388  31.244  27.918  1.00  0.00     0.029 A 
ATOM     67  C   UNL A   1      45.089  31.117  28.389  1.00  0.00     0.049 A 
ATOM     68  H   UNL A   1      43.808  29.446  28.297  1.00  0.00     0.167 HD
ATOM     69  C   UNL A   1      43.037  31.908  29.559  1.00  0.00     0.074 A 
ATOM     70  C   UNL A   1      42.271  32.915  30.270  1.00  0.00     0.031 C 
ATOM     71  C   UNL A   1      44.286  32.103  29.068  1.00  0.00     0.034 A 
BRANCH  58  72
ATOM     72  C   UNL A   1      46.824  27.161  26.304  1.00  0.00     0.023 A 
ATOM     73  C   UNL A   1      46.963  27.204  24.900  1.00  0.00     0.012 A 
ATOM     74  C   UNL A   1      47.842  26.563  27.074  1.00  0.00     0.148 A 
ATOM     75  C   UNL A   1      48.067  26.629  24.271  1.00  0.00     0.002 A 
ATOM     76  C   UNL A   1      48.963  26.030  26.443  1.00  0.00     0.091 A 
ATOM     77  F   UNL A   1      47.692  26.513  28.405  1.00  0.00    -0.205 F 
ATOM     78  C   UNL A   1      49.070  26.049  25.042  1.00  0.00     0.022 A 
BRANCH  76  79
ATOM     79  S   UNL A   1      50.350  25.329  27.346  1.00  0.00     0.127 S 
ATOM     80  O   UNL A   1      49.735  24.158  27.968  1.00  0.00    -0.237 OA
ATOM     81  O   UNL A   1      51.294  25.023  26.270  1.00  0.00    -0.237 OA
ATOM     82  O   UNL A   1      50.794  26.366  28.267  1.00  0.00    -0.744 OA
ENDBRANCH  76  79
ENDBRANCH  58  72
BRANCH  59  83
ATOM     83  C   UNL A   1      38.720  30.727  31.095  1.00  0.00     0.023 A 
ATOM     84  C   UNL A   1      38.723  30.667  32.503  1.00  0.00     0.012 A 
ATOM     85  C   UNL A   1      37.635  31.342  30.439  1.00  0.00     0.148 A 
ATOM     86  C   UNL A   1      37.660  31.187  33.242  1.00  0.00     0.002 A 
ATOM     87  C   UNL A   1      36.603  31.903  31.184  1.00  0.00     0.091 A 
ATOM     88  F   UNL A   1      37.650  31.393  29.099  1.00  0.00    -0.205 F 
ATOM     89  C   UNL A   1      36.606  31.814  32.584  1.00  0.00     0.022 A 
BRANCH  87  90
ATOM     90  S   UNL A   1      35.279  32.858  30.428  1.00  0.00     0.127 S 
ATOM     91  O   UNL A   1      34.439  33.169  31.581  1.00  0.00    -0.237 OA
ATOM     92  O   UNL A   1      36.005  33.999  29.869  1.00  0.00    -0.237 OA
ATOM     93  O   UNL A   1      34.686  31.980  29.428  1.00  0.00    -0.744 OA
ENDBRANCH  87  90
ENDBRANCH  59  83
BRANCH  71  94
ATOM     94  C   UNL A   1      44.886  33.467  29.267  1.00  0.00     0.023 A 
ATOM     95  C   UNL A   1      45.514  33.783  30.487  1.00  0.00     0.012 A 
ATOM     96  C   UNL A   1      44.874  34.411  28.223  1.00  0.00     0.148 A 
ATOM     97  C   UNL A   1      46.092  35.036  30.679  1.00  0.00     0.002 A 
ATOM     98  C   UNL A   1      45.496  35.639  28.404  1.00  0.00     0.091 A 
ATOM     99  F   UNL A   1      44.248  34.094  27.081  1.00  0.00    -0.205 F 
ATOM    100  C   UNL A   1      46.094  35.959  29.634  1.00  0.00     0.022 A 
BRANCH  98 101
ATOM    101  S   UNL A   1      45.629  36.845  27.081  1.00  0.00     0.127 S 
ATOM    102  O   UNL A   1      45.999  36.002  25.945  1.00  0.00    -0.237 OA
ATOM    103  O   UNL A   1      44.272  37.391  27.020  1.00  0.00    -0.237 OA
ATOM    104  O   UNL A   1      46.641  37.800  27.511  1.00  0.00    -0.744 OA
ENDBRANCH  98 101
ENDBRANCH  71  94
ENDBRANCH  45  46
ENDBRANCH  37  40
ENDBRANCH  35  36
ENDBRANCH   1  35
TORSDOF 17
ENDMDL
MODEL 3
REMARK VINA RESULT:     -13.1      1.826      7.482
REMARK SMILES COc1ccc(N2C(=O)/C(=C/c3c(C(=O)NCCCNC(=O)c4ccc(-c5c6nc(c(-c7cccc(S(=O)(=O)[O-])c7F)c7ccc([nH]7)c(-c7cccc(S(=O)(=O)[O-])c7F)c7nc(c(-c8cccc(S(=O)(=O)[O-])c8F)c8ccc5[nH]8)C=C7)C=C6)cc4)[nH]c4cc(OC)ccc34)SC2=S)cc1
REMARK SMILES IDX 18 1 17 2 16 3 14 4 15 5 13 7 12 8 94 9 86 10 87 11 93 12
REMARK SMILES IDX 88 14 92 15 89 16 11 17 7 18 8 19 96 20 9 21 10 22 95 23
REMARK SMILES IDX 97 24 6 25 3 26 4 27 99 28 5 29 98 30 2 31 1 32 90 33 91 34
REMARK SMILES IDX 19 35 20 36 21 37 22 39 23 40 24 41 85 42 25 43 84 44 26 45
REMARK SMILES IDX 27 46 28 47 78 48 29 49 83 50 77 51 79 52 30 53 82 54 76 55
REMARK SMILES IDX 75 56 31 58 63 59 43 60 62 61 44 62 47 63 61 64 80 65 45 66
REMARK SMILES IDX 46 67 60 69 81 70 48 71 32 72 33 73 41 74 34 75 36 76 42 77
REMARK SMILES IDX 35 78 37 79 38 80 39 81 40 82 64 83 65 84 73 85 66 86 68 87
REMARK SMILES IDX 74 88 67 89 69 90 70 91 71 92 72 93 49 94 50 95 58 96 51 97
REMARK SMILES IDX 53 98 59 99 52 100 54 101 55 102 56 103 57 104
REMARK H PARENT 16 6 86 13 20 38 79 57 47 68
REMARK Flexibility Score: inf
ROOT
ATOM      1  C   UNL A   1      34.435  25.183  25.659  1.00  0.00     0.042 C 
ENDROOT
BRANCH   1   2
ATOM      2  C   UNL A   1      34.012  26.557  25.177  1.00  0.00     0.118 C 
BRANCH   2   3
ATOM      3  N   UNL A   1      34.225  26.801  23.758  1.00  0.00    -0.351 N 
ATOM      4  C   UNL A   1      33.283  27.181  22.823  1.00  0.00     0.268 C 
ATOM      5  O   UNL A   1      33.569  27.142  21.641  1.00  0.00    -0.268 OA
ATOM      6  H   UNL A   1      35.145  26.681  23.427  1.00  0.00     0.163 HD
BRANCH   4   7
ATOM      7  C   UNL A   1      31.955  27.505  23.296  1.00  0.00     0.112 A 
ATOM      8  C   UNL A   1      30.740  26.817  23.331  1.00  0.00     0.014 A 
ATOM      9  C   UNL A   1      29.730  27.853  23.345  1.00  0.00     0.008 A 
ATOM     10  N   UNL A   1      31.714  28.736  23.846  1.00  0.00    -0.350 N 
ATOM     11  C   UNL A   1      30.396  29.045  23.649  1.00  0.00     0.050 A 
ATOM     12  C   UNL A   1      28.342  27.960  23.080  1.00  0.00     0.015 A 
ATOM     13  H   UNL A   1      32.377  29.301  24.304  1.00  0.00     0.167 HD
ATOM     14  C   UNL A   1      29.789  30.300  23.679  1.00  0.00     0.073 A 
ATOM     15  C   UNL A   1      27.719  29.238  23.063  1.00  0.00     0.047 A 
ATOM     16  C   UNL A   1      28.441  30.395  23.353  1.00  0.00     0.120 A 
BRANCH   8  17
ATOM     17  C   UNL A   1      30.656  25.395  23.053  1.00  0.00     0.032 C 
ATOM     18  N   UNL A   1      31.868  22.555  24.907  1.00  0.00    -0.261 N 
ATOM     19  C   UNL A   1      31.349  23.075  23.713  1.00  0.00     0.270 C 
ATOM     20  C   UNL A   1      31.579  23.257  26.067  1.00  0.00     0.152 C 
ATOM     21  O   UNL A   1      31.472  22.635  22.579  1.00  0.00    -0.268 OA
ATOM     22  C   UNL A   1      30.725  24.417  23.988  1.00  0.00     0.081 C 
ATOM     23  S   UNL A   1      30.498  24.591  25.688  1.00  0.00    -0.054 SA
ATOM     24  S   UNL A   1      32.052  22.957  27.644  1.00  0.00    -0.051 S 
BRANCH  18  25
ATOM     25  C   UNL A   1      32.723  21.412  24.917  1.00  0.00     0.051 A 
ATOM     26  C   UNL A   1      34.387  19.147  24.676  1.00  0.00     0.119 A 
ATOM     27  C   UNL A   1      33.003  19.003  24.716  1.00  0.00     0.048 A 
ATOM     28  C   UNL A   1      34.940  20.426  24.713  1.00  0.00     0.048 A 
ATOM     29  C   UNL A   1      32.175  20.124  24.840  1.00  0.00     0.030 A 
ATOM     30  C   UNL A   1      34.113  21.557  24.846  1.00  0.00     0.030 A 
BRANCH  26  31
ATOM     31  O   UNL A   1      35.093  17.983  24.550  1.00  0.00    -0.497 OA
ATOM     32  C   UNL A   1      34.459  16.967  23.779  1.00  0.00     0.278 C 
ENDBRANCH  26  31
ENDBRANCH  18  25
ENDBRANCH   8  17
BRANCH  16  33
ATOM     33  O   UNL A   1      28.001  31.689  23.323  1.00  0.00    -0.497 OA
ATOM     34  C   UNL A   1      28.586  32.579  22.390  1.00  0.00     0.278 C 
ENDBRANCH  16  33
ENDBRANCH   4   7
ENDBRANCH   2   3
ENDBRANCH   1   2
BRANCH   1  35
ATOM     35  C   UNL A   1      35.915  25.080  26.001  1.00  0.00     0.118 C 
BRANCH  35  36
ATOM     36  N   UNL A   1      36.530  23.777  25.785  1.00  0.00    -0.352 N 
ATOM     37  C   UNL A   1      37.811  23.348  26.067  1.00  0.00     0.251 C 
ATOM     38  H   UNL A   1      35.942  23.101  25.378  1.00  0.00     0.163 HD
ATOM     39  O   UNL A   1      38.131  22.202  25.750  1.00  0.00    -0.269 OA
BRANCH  37  40
ATOM     40  C   UNL A   1      38.832  24.242  26.679  1.00  0.00     0.039 A 
ATOM     41  C   UNL A   1      39.756  24.860  25.824  1.00  0.00     0.014 A 
ATOM     42  C   UNL A   1      38.882  24.527  28.044  1.00  0.00     0.014 A 
ATOM     43  C   UNL A   1      40.591  25.870  26.305  1.00  0.00     0.010 A 
ATOM     44  C   UNL A   1      39.646  25.584  28.513  1.00  0.00     0.010 A 
ATOM     45  C   UNL A   1      40.455  26.302  27.631  1.00  0.00    -0.014 A 
BRANCH  45  46
ATOM     46  C   UNL A   1      40.925  27.634  28.064  1.00  0.00     0.031 A 
ATOM     47  C   UNL A   1      42.382  27.922  28.244  1.00  0.00     0.074 A 
ATOM     48  C   UNL A   1      39.978  28.488  28.505  1.00  0.00     0.049 A 
ATOM     49  N   UNL A   1      42.951  29.005  28.699  1.00  0.00    -0.248 NA
ATOM     50  C   UNL A   1      43.323  26.839  27.914  1.00  0.00     0.031 C 
ATOM     51  C   UNL A   1      38.536  28.207  28.529  1.00  0.00     0.029 A 
ATOM     52  N   UNL A   1      40.075  29.733  29.067  1.00  0.00    -0.354 N 
ATOM     53  C   UNL A   1      44.313  28.732  28.735  1.00  0.00     0.074 A 
ATOM     54  C   UNL A   1      44.481  27.366  28.290  1.00  0.00     0.031 C 
ATOM     55  C   UNL A   1      37.887  29.246  29.070  1.00  0.00     0.029 A 
ATOM     56  C   UNL A   1      38.861  30.257  29.450  1.00  0.00     0.049 A 
ATOM     57  H   UNL A   1      40.929  30.207  29.185  1.00  0.00     0.167 HD
ATOM     58  C   UNL A   1      45.324  29.563  29.087  1.00  0.00     0.034 A 
ATOM     59  C   UNL A   1      38.566  31.431  30.037  1.00  0.00     0.034 A 
ATOM     60  C   UNL A   1      45.110  30.921  29.517  1.00  0.00     0.049 A 
ATOM     61  C   UNL A   1      39.697  32.379  30.300  1.00  0.00     0.074 A 
ATOM     62  C   UNL A   1      46.046  31.899  29.797  1.00  0.00     0.029 A 
ATOM     63  N   UNL A   1      43.861  31.488  29.739  1.00  0.00    -0.354 N 
ATOM     64  N   UNL A   1      40.984  32.184  30.133  1.00  0.00    -0.248 NA
ATOM     65  C   UNL A   1      39.344  33.720  30.775  1.00  0.00     0.031 C 
ATOM     66  C   UNL A   1      45.362  33.051  30.205  1.00  0.00     0.029 A 
ATOM     67  C   UNL A   1      43.999  32.801  30.154  1.00  0.00     0.049 A 
ATOM     68  H   UNL A   1      43.002  31.023  29.621  1.00  0.00     0.167 HD
ATOM     69  C   UNL A   1      41.596  33.387  30.447  1.00  0.00     0.074 A 
ATOM     70  C   UNL A   1      40.531  34.311  30.796  1.00  0.00     0.031 C 
ATOM     71  C   UNL A   1      42.915  33.700  30.460  1.00  0.00     0.034 A 
BRANCH  58  72
ATOM     72  C   UNL A   1      46.737  29.047  28.961  1.00  0.00     0.023 A 
ATOM     73  C   UNL A   1      47.361  28.460  30.082  1.00  0.00     0.012 A 
ATOM     74  C   UNL A   1      47.434  29.097  27.737  1.00  0.00     0.148 A 
ATOM     75  C   UNL A   1      48.665  27.970  30.002  1.00  0.00     0.002 A 
ATOM     76  C   UNL A   1      48.719  28.566  27.652  1.00  0.00     0.091 A 
ATOM     77  F   UNL A   1      46.839  29.672  26.683  1.00  0.00    -0.205 F 
ATOM     78  C   UNL A   1      49.340  28.016  28.786  1.00  0.00     0.022 A 
BRANCH  76  79
ATOM     79  S   UNL A   1      49.648  28.503  26.115  1.00  0.00     0.127 S 
ATOM     80  O   UNL A   1      50.582  27.410  26.380  1.00  0.00    -0.237 OA
ATOM     81  O   UNL A   1      48.605  28.190  25.137  1.00  0.00    -0.237 OA
ATOM     82  O   UNL A   1      50.253  29.818  25.957  1.00  0.00    -0.744 OA
ENDBRANCH  76  79
ENDBRANCH  58  72
BRANCH  59  83
ATOM     83  C   UNL A   1      37.141  31.799  30.267  1.00  0.00     0.023 A 
ATOM     84  C   UNL A   1      36.578  31.585  31.540  1.00  0.00     0.012 A 
ATOM     85  C   UNL A   1      36.374  32.451  29.280  1.00  0.00     0.148 A 
ATOM     86  C   UNL A   1      35.273  31.989  31.821  1.00  0.00     0.002 A 
ATOM     87  C   UNL A   1      35.092  32.897  29.582  1.00  0.00     0.091 A 
ATOM     88  F   UNL A   1      36.927  32.651  28.075  1.00  0.00    -0.205 F 
ATOM     89  C   UNL A   1      34.534  32.654  30.847  1.00  0.00     0.022 A 
BRANCH  87  90
ATOM     90  S   UNL A   1      34.124  33.890  28.438  1.00  0.00     0.127 S 
ATOM     91  O   UNL A   1      33.855  32.935  27.367  1.00  0.00    -0.237 OA
ATOM     92  O   UNL A   1      32.960  34.247  29.250  1.00  0.00    -0.237 OA
ATOM     93  O   UNL A   1      34.974  35.019  28.085  1.00  0.00    -0.744 OA
ENDBRANCH  87  90
ENDBRANCH  59  83
BRANCH  71  94
ATOM     94  C   UNL A   1      43.272  35.110  30.842  1.00  0.00     0.023 A 
ATOM     95  C   UNL A   1      43.546  35.422  32.187  1.00  0.00     0.012 A 
ATOM     96  C   UNL A   1      43.388  36.108  29.856  1.00  0.00     0.148 A 
ATOM     97  C   UNL A   1      43.897  36.719  32.553  1.00  0.00     0.002 A 
ATOM     98  C   UNL A   1      43.788  37.387  30.221  1.00  0.00     0.091 A 
ATOM     99  F   UNL A   1      43.098  35.792  28.586  1.00  0.00    -0.205 F 
ATOM    100  C   UNL A   1      44.030  37.698  31.570  1.00  0.00     0.022 A 
BRANCH  98 101
ATOM    101  S   UNL A   1      44.077  38.679  29.010  1.00  0.00     0.127 S 
ATOM    102  O   UNL A   1      44.397  39.822  29.864  1.00  0.00    -0.237 OA
ATOM    103  O   UNL A   1      45.211  38.147  28.252  1.00  0.00    -0.237 OA
ATOM    104  O   UNL A   1      42.844  38.793  28.244  1.00  0.00    -0.744 OA
ENDBRANCH  98 101
ENDBRANCH  71  94
ENDBRANCH  45  46
ENDBRANCH  37  40
ENDBRANCH  35  36
ENDBRANCH   1  35
TORSDOF 17
ENDMDL
