MODEL 1
REMARK VINA RESULT:     -14.0      0.000      0.000
REMARK SMILES O=C(NCCCNC(=O)c1ccc([C@@H]2CC(O)=Nc3c2ncn3-c2cccc(Cl)c2)cc1)c1ccc(-c2c3nc(c(-c4cccc(S(=O)(=O)[O-])c4F)c4ccc([nH]4)c(-c4cccc(S(=O)(=O)[O-])c4F)c4nc(c(-c5cccc(S(=O)(=O)[O-])c5F)c5ccc2[nH]5)C=C4)C=C3)cc1
REMARK SMILES IDX 4 1 3 2 1 3 2 4 33 6 34 7 95 8 35 9 94 10 36 11 37 12 38 13
REMARK SMILES IDX 88 14 39 15 93 16 87 17 89 18 40 19 92 20 86 21 85 22 41 24
REMARK SMILES IDX 73 25 53 26 72 27 54 28 57 29 71 30 90 31 55 32 56 33 70 35
REMARK SMILES IDX 91 36 58 37 42 38 43 39 51 40 44 41 46 42 52 43 45 44 47 45
REMARK SMILES IDX 48 46 49 47 50 48 74 49 75 50 83 51 76 52 78 53 84 54 77 55
REMARK SMILES IDX 79 56 80 57 81 58 82 59 59 60 60 61 68 62 61 63 63 64 69 65
REMARK SMILES IDX 62 66 64 67 65 68 66 69 67 70 5 71 6 72 7 73 8 74 9 76 10 77
REMARK SMILES IDX 11 78 32 79 12 80 31 81 13 82 14 83 15 84 20 85 16 86 19 87
REMARK SMILES IDX 21 88 18 89 23 90 22 91 17 92 24 94 25 95 30 96 26 97 28 98
REMARK SMILES IDX 27 99 29 100
REMARK H PARENT 3 5 89 23 57 34 7 75 17 93
REMARK Flexibility Score: inf
ROOT
ATOM      1  C   UNL A   1      33.481  30.272  27.627  1.00  0.00     0.118 C 
ENDROOT
BRANCH   1   2
ATOM      2  N   UNL A   1      34.144  31.557  27.729  1.00  0.00    -0.352 N 
ATOM      3  O   UNL A   1      35.605  33.198  27.722  1.00  0.00    -0.269 OA
ATOM      4  C   UNL A   1      35.439  31.981  27.847  1.00  0.00     0.251 C 
ATOM      5  H   UNL A   1      33.507  32.307  27.708  1.00  0.00     0.163 HD
BRANCH   4   6
ATOM      6  C   UNL A   1      36.613  31.125  28.179  1.00  0.00     0.039 A 
ATOM      7  C   UNL A   1      36.747  29.765  27.903  1.00  0.00     0.014 A 
ATOM      8  C   UNL A   1      37.672  31.780  28.841  1.00  0.00     0.014 A 
ATOM      9  C   UNL A   1      37.878  29.067  28.337  1.00  0.00     0.010 A 
ATOM     10  C   UNL A   1      38.802  31.092  29.273  1.00  0.00     0.010 A 
ATOM     11  C   UNL A   1      38.897  29.724  29.040  1.00  0.00    -0.014 A 
BRANCH  11  12
ATOM     12  C   UNL A   1      40.154  29.012  29.297  1.00  0.00     0.031 A 
ATOM     13  C   UNL A   1      40.363  28.691  30.739  1.00  0.00     0.074 A 
ATOM     14  C   UNL A   1      40.984  28.527  28.347  1.00  0.00     0.049 A 
ATOM     15  N   UNL A   1      41.286  29.142  31.526  1.00  0.00    -0.248 NA
ATOM     16  C   UNL A   1      39.334  27.893  31.425  1.00  0.00     0.031 C 
ATOM     17  C   UNL A   1      40.754  28.491  26.901  1.00  0.00     0.029 A 
ATOM     18  N   UNL A   1      42.166  27.848  28.482  1.00  0.00    -0.354 N 
ATOM     19  C   UNL A   1      41.089  28.494  32.747  1.00  0.00     0.074 A 
ATOM     20  C   UNL A   1      39.781  27.904  32.682  1.00  0.00     0.031 C 
ATOM     21  C   UNL A   1      41.629  27.630  26.329  1.00  0.00     0.029 A 
ATOM     22  C   UNL A   1      42.560  27.153  27.337  1.00  0.00     0.049 A 
ATOM     23  H   UNL A   1      42.692  27.849  29.316  1.00  0.00     0.167 HD
ATOM     24  C   UNL A   1      42.122  28.287  33.611  1.00  0.00     0.034 A 
ATOM     25  C   UNL A   1      43.535  26.210  27.236  1.00  0.00     0.034 A 
ATOM     26  C   UNL A   1      43.241  29.138  33.292  1.00  0.00     0.049 A 
ATOM     27  C   UNL A   1      44.428  26.365  28.403  1.00  0.00     0.074 A 
ATOM     28  C   UNL A   1      43.447  30.499  33.192  1.00  0.00     0.029 A 
ATOM     29  N   UNL A   1      44.299  28.544  32.653  1.00  0.00    -0.354 N 
ATOM     30  N   UNL A   1      45.222  27.381  28.575  1.00  0.00    -0.248 NA
ATOM     31  C   UNL A   1      44.151  25.569  29.585  1.00  0.00     0.031 C 
ATOM     32  C   UNL A   1      44.354  30.651  32.102  1.00  0.00     0.029 A 
ATOM     33  C   UNL A   1      44.705  29.378  31.651  1.00  0.00     0.049 A 
ATOM     34  H   UNL A   1      44.696  27.671  32.877  1.00  0.00     0.167 HD
ATOM     35  C   UNL A   1      45.144  27.636  29.936  1.00  0.00     0.074 A 
ATOM     36  C   UNL A   1      44.573  26.425  30.519  1.00  0.00     0.031 C 
ATOM     37  C   UNL A   1      45.273  28.908  30.411  1.00  0.00     0.034 A 
BRANCH  24  38
ATOM     38  C   UNL A   1      42.308  27.054  34.481  1.00  0.00     0.023 A 
ATOM     39  C   UNL A   1      41.934  27.171  35.842  1.00  0.00     0.012 A 
ATOM     40  C   UNL A   1      43.086  25.925  34.135  1.00  0.00     0.148 A 
ATOM     41  C   UNL A   1      42.389  26.276  36.815  1.00  0.00     0.002 A 
ATOM     42  C   UNL A   1      43.477  24.996  35.095  1.00  0.00     0.091 A 
ATOM     43  F   UNL A   1      43.565  25.790  32.898  1.00  0.00    -0.205 F 
ATOM     44  C   UNL A   1      43.165  25.188  36.442  1.00  0.00     0.022 A 
BRANCH  42  45
ATOM     45  S   UNL A   1      44.442  23.541  34.668  1.00  0.00     0.127 S 
ATOM     46  O   UNL A   1      44.581  22.892  35.968  1.00  0.00    -0.237 OA
ATOM     47  O   UNL A   1      43.551  22.861  33.727  1.00  0.00    -0.237 OA
ATOM     48  O   UNL A   1      45.673  24.041  34.070  1.00  0.00    -0.744 OA
ENDBRANCH  42  45
ENDBRANCH  24  38
BRANCH  25  49
ATOM     49  C   UNL A   1      43.663  25.023  26.353  1.00  0.00     0.023 A 
ATOM     50  C   UNL A   1      44.792  24.889  25.514  1.00  0.00     0.012 A 
ATOM     51  C   UNL A   1      42.857  23.884  26.560  1.00  0.00     0.148 A 
ATOM     52  C   UNL A   1      45.130  23.655  24.939  1.00  0.00     0.002 A 
ATOM     53  C   UNL A   1      43.193  22.661  25.984  1.00  0.00     0.091 A 
ATOM     54  F   UNL A   1      41.817  23.978  27.398  1.00  0.00    -0.205 F 
ATOM     55  C   UNL A   1      44.336  22.539  25.183  1.00  0.00     0.022 A 
BRANCH  53  56
ATOM     56  S   UNL A   1      42.243  21.165  26.287  1.00  0.00     0.127 S 
ATOM     57  O   UNL A   1      40.914  21.549  25.814  1.00  0.00    -0.237 OA
ATOM     58  O   UNL A   1      42.936  20.192  25.452  1.00  0.00    -0.237 OA
ATOM     59  O   UNL A   1      42.321  20.932  27.728  1.00  0.00    -0.744 OA
ENDBRANCH  53  56
ENDBRANCH  25  49
BRANCH  37  60
ATOM     60  C   UNL A   1      45.828  29.962  29.491  1.00  0.00     0.023 A 
ATOM     61  C   UNL A   1      47.210  30.198  29.333  1.00  0.00     0.012 A 
ATOM     62  C   UNL A   1      44.923  30.614  28.639  1.00  0.00     0.148 A 
ATOM     63  C   UNL A   1      47.673  31.083  28.356  1.00  0.00     0.002 A 
ATOM     64  C   UNL A   1      45.389  31.448  27.634  1.00  0.00     0.091 A 
ATOM     65  F   UNL A   1      43.612  30.384  28.811  1.00  0.00    -0.205 F 
ATOM     66  C   UNL A   1      46.764  31.695  27.495  1.00  0.00     0.022 A 
BRANCH  64  67
ATOM     67  S   UNL A   1      44.273  32.148  26.418  1.00  0.00     0.127 S 
ATOM     68  O   UNL A   1      45.190  32.522  25.343  1.00  0.00    -0.237 OA
ATOM     69  O   UNL A   1      43.397  31.017  26.109  1.00  0.00    -0.237 OA
ATOM     70  O   UNL A   1      43.600  33.255  27.085  1.00  0.00    -0.744 OA
ENDBRANCH  64  67
ENDBRANCH  37  60
ENDBRANCH  11  12
ENDBRANCH   4   6
ENDBRANCH   1   2
BRANCH   1  71
ATOM     71  C   UNL A   1      32.154  30.287  26.876  1.00  0.00     0.042 C 
BRANCH  71  72
ATOM     72  C   UNL A   1      32.279  30.308  25.356  1.00  0.00     0.118 C 
BRANCH  72  73
ATOM     73  N   UNL A   1      31.193  29.616  24.675  1.00  0.00    -0.352 N 
ATOM     74  C   UNL A   1      31.017  28.287  24.388  1.00  0.00     0.251 C 
ATOM     75  H   UNL A   1      30.463  30.201  24.369  1.00  0.00     0.163 HD
ATOM     76  O   UNL A   1      30.060  27.944  23.695  1.00  0.00    -0.269 OA
BRANCH  74  77
ATOM     77  C   UNL A   1      31.947  27.248  24.892  1.00  0.00     0.039 A 
ATOM     78  C   UNL A   1      33.002  26.846  24.066  1.00  0.00     0.014 A 
ATOM     79  C   UNL A   1      31.731  26.579  26.100  1.00  0.00     0.014 A 
ATOM     80  C   UNL A   1      33.821  25.777  24.441  1.00  0.00     0.005 A 
ATOM     81  C   UNL A   1      32.584  25.545  26.499  1.00  0.00     0.005 A 
ATOM     82  C   UNL A   1      33.598  25.083  25.644  1.00  0.00    -0.038 A 
BRANCH  82  83
ATOM     83  C   UNL A   1      34.260  23.732  25.845  1.00  0.00     0.081 C 
ATOM     84  C   UNL A   1      35.694  23.729  25.259  1.00  0.00     0.111 C 
ATOM     85  C   UNL A   1      33.447  22.609  25.310  1.00  0.00     0.093 A 
ATOM     86  C   UNL A   1      36.101  22.446  24.569  1.00  0.00     0.188 C 
ATOM     87  C   UNL A   1      34.082  21.532  24.731  1.00  0.00     0.164 A 
ATOM     88  N   UNL A   1      32.116  22.352  25.497  1.00  0.00    -0.238 NA
ATOM     89  N   UNL A   1      35.374  21.404  24.346  1.00  0.00    -0.198 NA
ATOM     90  N   UNL A   1      33.121  20.547  24.610  1.00  0.00    -0.283 N 
ATOM     91  C   UNL A   1      31.937  21.134  25.007  1.00  0.00     0.206 A 
BRANCH  86  92
ATOM     92  O   UNL A   1      37.374  22.444  24.129  1.00  0.00    -0.496 OA
ATOM     93  H   UNL A   1      37.615  21.918  23.392  1.00  0.00     0.294 HD
ENDBRANCH  86  92
BRANCH  90  94
ATOM     94  C   UNL A   1      33.350  19.199  24.236  1.00  0.00     0.050 A 
ATOM     95  C   UNL A   1      32.682  18.627  23.151  1.00  0.00     0.027 A 
ATOM     96  C   UNL A   1      34.296  18.449  24.956  1.00  0.00     0.047 A 
ATOM     97  C   UNL A   1      33.023  17.329  22.748  1.00  0.00     0.004 A 
ATOM     98  C   UNL A   1      34.593  17.146  24.571  1.00  0.00     0.043 A 
ATOM     99  C   UNL A   1      33.976  16.589  23.456  1.00  0.00     0.020 A 
ATOM    100  Cl  UNL A   1      35.729  16.225  25.481  1.00  0.00    -0.084 Cl
ENDBRANCH  90  94
ENDBRANCH  82  83
ENDBRANCH  74  77
ENDBRANCH  72  73
ENDBRANCH  71  72
ENDBRANCH   1  71
TORSDOF 16
ENDMDL
MODEL 2
REMARK VINA RESULT:     -13.9      1.396      1.621
REMARK SMILES O=C(NCCCNC(=O)c1ccc([C@@H]2CC(O)=Nc3c2ncn3-c2cccc(Cl)c2)cc1)c1ccc(-c2c3nc(c(-c4cccc(S(=O)(=O)[O-])c4F)c4ccc([nH]4)c(-c4cccc(S(=O)(=O)[O-])c4F)c4nc(c(-c5cccc(S(=O)(=O)[O-])c5F)c5ccc2[nH]5)C=C4)C=C3)cc1
REMARK SMILES IDX 4 1 3 2 1 3 2 4 33 6 34 7 95 8 35 9 94 10 36 11 37 12 38 13
REMARK SMILES IDX 88 14 39 15 93 16 87 17 89 18 40 19 92 20 86 21 85 22 41 24
REMARK SMILES IDX 73 25 53 26 72 27 54 28 57 29 71 30 90 31 55 32 56 33 70 35
REMARK SMILES IDX 91 36 58 37 42 38 43 39 51 40 44 41 46 42 52 43 45 44 47 45
REMARK SMILES IDX 48 46 49 47 50 48 74 49 75 50 83 51 76 52 78 53 84 54 77 55
REMARK SMILES IDX 79 56 80 57 81 58 82 59 59 60 60 61 68 62 61 63 63 64 69 65
REMARK SMILES IDX 62 66 64 67 65 68 66 69 67 70 5 71 6 72 7 73 8 74 9 76 10 77
REMARK SMILES IDX 11 78 32 79 12 80 31 81 13 82 14 83 15 84 20 85 16 86 19 87
REMARK SMILES IDX 21 88 18 89 23 90 22 91 17 92 24 94 25 95 30 96 26 97 28 98
REMARK SMILES IDX 27 99 29 100
REMARK H PARENT 3 5 89 23 57 34 7 75 17 93
REMARK Flexibility Score: inf
ROOT
ATOM      1  C   UNL A   1      33.454  30.312  27.542  1.00  0.00     0.118 C 
ENDROOT
BRANCH   1   2
ATOM      2  N   UNL A   1      33.816  31.431  28.389  1.00  0.00    -0.352 N 
ATOM      3  O   UNL A   1      34.894  32.988  29.504  1.00  0.00    -0.269 OA
ATOM      4  C   UNL A   1      34.959  31.860  29.004  1.00  0.00     0.251 C 
ATOM      5  H   UNL A   1      33.052  32.028  28.563  1.00  0.00     0.163 HD
BRANCH   4   6
ATOM      6  C   UNL A   1      36.210  31.069  29.177  1.00  0.00     0.039 A 
ATOM      7  C   UNL A   1      36.292  29.696  29.411  1.00  0.00     0.014 A 
ATOM      8  C   UNL A   1      37.409  31.807  29.098  1.00  0.00     0.014 A 
ATOM      9  C   UNL A   1      37.535  29.092  29.625  1.00  0.00     0.010 A 
ATOM     10  C   UNL A   1      38.650  31.211  29.307  1.00  0.00     0.010 A 
ATOM     11  C   UNL A   1      38.713  29.852  29.595  1.00  0.00    -0.014 A 
BRANCH  11  12
ATOM     12  C   UNL A   1      40.005  29.157  29.618  1.00  0.00     0.031 A 
ATOM     13  C   UNL A   1      40.554  28.985  30.995  1.00  0.00     0.074 A 
ATOM     14  C   UNL A   1      40.593  28.566  28.554  1.00  0.00     0.049 A 
ATOM     15  N   UNL A   1      41.631  29.505  31.489  1.00  0.00    -0.248 NA
ATOM     16  C   UNL A   1      39.729  28.274  31.984  1.00  0.00     0.031 C 
ATOM     17  C   UNL A   1      40.027  28.382  27.216  1.00  0.00     0.029 A 
ATOM     18  N   UNL A   1      41.783  27.892  28.475  1.00  0.00    -0.354 N 
ATOM     19  C   UNL A   1      41.739  28.990  32.782  1.00  0.00     0.074 A 
ATOM     20  C   UNL A   1      40.461  28.410  33.091  1.00  0.00     0.031 C 
ATOM     21  C   UNL A   1      40.754  27.457  26.545  1.00  0.00     0.029 A 
ATOM     22  C   UNL A   1      41.904  27.077  27.347  1.00  0.00     0.049 A 
ATOM     23  H   UNL A   1      42.491  27.974  29.155  1.00  0.00     0.167 HD
ATOM     24  C   UNL A   1      42.950  28.862  33.394  1.00  0.00     0.034 A 
ATOM     25  C   UNL A   1      42.840  26.118  27.116  1.00  0.00     0.034 A 
ATOM     26  C   UNL A   1      43.949  29.663  32.732  1.00  0.00     0.049 A 
ATOM     27  C   UNL A   1      43.981  26.384  28.015  1.00  0.00     0.074 A 
ATOM     28  C   UNL A   1      44.107  31.004  32.445  1.00  0.00     0.029 A 
ATOM     29  N   UNL A   1      44.834  28.994  31.925  1.00  0.00    -0.354 N 
ATOM     30  N   UNL A   1      44.779  27.403  27.888  1.00  0.00    -0.248 NA
ATOM     31  C   UNL A   1      44.004  25.718  29.306  1.00  0.00     0.031 C 
ATOM     32  C   UNL A   1      44.727  31.032  31.162  1.00  0.00     0.029 A 
ATOM     33  C   UNL A   1      44.979  29.715  30.775  1.00  0.00     0.049 A 
ATOM     34  H   UNL A   1      45.285  28.145  32.138  1.00  0.00     0.167 HD
ATOM     35  C   UNL A   1      45.023  27.799  29.194  1.00  0.00     0.074 A 
ATOM     36  C   UNL A   1      44.623  26.662  30.019  1.00  0.00     0.031 C 
ATOM     37  C   UNL A   1      45.243  29.112  29.490  1.00  0.00     0.034 A 
BRANCH  24  38
ATOM     38  C   UNL A   1      43.354  27.724  34.317  1.00  0.00     0.023 A 
ATOM     39  C   UNL A   1      43.899  28.086  35.573  1.00  0.00     0.012 A 
ATOM     40  C   UNL A   1      43.516  26.376  33.923  1.00  0.00     0.148 A 
ATOM     41  C   UNL A   1      44.644  27.188  36.344  1.00  0.00     0.002 A 
ATOM     42  C   UNL A   1      44.195  25.466  34.727  1.00  0.00     0.091 A 
ATOM     43  F   UNL A   1      43.121  25.976  32.714  1.00  0.00    -0.205 F 
ATOM     44  C   UNL A   1      44.796  25.876  35.919  1.00  0.00     0.022 A 
BRANCH  42  45
ATOM     45  S   UNL A   1      44.385  23.742  34.256  1.00  0.00     0.127 S 
ATOM     46  O   UNL A   1      45.272  23.248  35.305  1.00  0.00    -0.237 OA
ATOM     47  O   UNL A   1      43.006  23.262  34.332  1.00  0.00    -0.237 OA
ATOM     48  O   UNL A   1      44.939  23.757  32.908  1.00  0.00    -0.744 OA
ENDBRANCH  42  45
ENDBRANCH  24  38
BRANCH  25  49
ATOM     49  C   UNL A   1      42.771  24.844  26.356  1.00  0.00     0.023 A 
ATOM     50  C   UNL A   1      43.864  24.444  25.555  1.00  0.00     0.012 A 
ATOM     51  C   UNL A   1      41.788  23.879  26.658  1.00  0.00     0.148 A 
ATOM     52  C   UNL A   1      43.994  23.120  25.109  1.00  0.00     0.002 A 
ATOM     53  C   UNL A   1      41.919  22.566  26.212  1.00  0.00     0.091 A 
ATOM     54  F   UNL A   1      40.777  24.226  27.465  1.00  0.00    -0.205 F 
ATOM     55  C   UNL A   1      43.027  22.180  25.447  1.00  0.00     0.022 A 
BRANCH  53  56
ATOM     56  S   UNL A   1      40.734  21.285  26.642  1.00  0.00     0.127 S 
ATOM     57  O   UNL A   1      40.738  21.346  28.103  1.00  0.00    -0.237 OA
ATOM     58  O   UNL A   1      39.515  21.774  26.009  1.00  0.00    -0.237 OA
ATOM     59  O   UNL A   1      41.277  20.044  26.093  1.00  0.00    -0.744 OA
ENDBRANCH  53  56
ENDBRANCH  25  49
BRANCH  37  60
ATOM     60  C   UNL A   1      45.550  30.058  28.361  1.00  0.00     0.023 A 
ATOM     61  C   UNL A   1      44.552  30.745  27.637  1.00  0.00     0.012 A 
ATOM     62  C   UNL A   1      46.898  30.385  28.143  1.00  0.00     0.148 A 
ATOM     63  C   UNL A   1      44.899  31.724  26.702  1.00  0.00     0.002 A 
ATOM     64  C   UNL A   1      47.235  31.395  27.255  1.00  0.00     0.091 A 
ATOM     65  F   UNL A   1      47.832  29.714  28.834  1.00  0.00    -0.205 F 
ATOM     66  C   UNL A   1      46.240  32.061  26.523  1.00  0.00     0.022 A 
BRANCH  64  67
ATOM     67  S   UNL A   1      48.929  31.959  27.093  1.00  0.00     0.127 S 
ATOM     68  O   UNL A   1      49.593  30.777  26.550  1.00  0.00    -0.237 OA
ATOM     69  O   UNL A   1      48.800  33.075  26.154  1.00  0.00    -0.237 OA
ATOM     70  O   UNL A   1      49.347  32.356  28.432  1.00  0.00    -0.744 OA
ENDBRANCH  64  67
ENDBRANCH  37  60
ENDBRANCH  11  12
ENDBRANCH   4   6
ENDBRANCH   1   2
BRANCH   1  71
ATOM     71  C   UNL A   1      32.149  30.479  26.772  1.00  0.00     0.042 C 
BRANCH  71  72
ATOM     72  C   UNL A   1      32.273  30.327  25.260  1.00  0.00     0.118 C 
BRANCH  72  73
ATOM     73  N   UNL A   1      31.150  29.627  24.652  1.00  0.00    -0.352 N 
ATOM     74  C   UNL A   1      30.950  28.292  24.411  1.00  0.00     0.251 C 
ATOM     75  H   UNL A   1      30.410  30.210  24.368  1.00  0.00     0.163 HD
ATOM     76  O   UNL A   1      29.957  27.939  23.775  1.00  0.00    -0.269 OA
BRANCH  74  77
ATOM     77  C   UNL A   1      31.897  27.258  24.895  1.00  0.00     0.039 A 
ATOM     78  C   UNL A   1      32.892  26.810  24.021  1.00  0.00     0.014 A 
ATOM     79  C   UNL A   1      31.749  26.639  26.140  1.00  0.00     0.014 A 
ATOM     80  C   UNL A   1      33.720  25.743  24.386  1.00  0.00     0.005 A 
ATOM     81  C   UNL A   1      32.611  25.608  26.525  1.00  0.00     0.005 A 
ATOM     82  C   UNL A   1      33.564  25.099  25.626  1.00  0.00    -0.038 A 
BRANCH  82  83
ATOM     83  C   UNL A   1      34.219  23.746  25.839  1.00  0.00     0.081 C 
ATOM     84  C   UNL A   1      35.669  23.746  25.291  1.00  0.00     0.111 C 
ATOM     85  C   UNL A   1      33.421  22.627  25.276  1.00  0.00     0.093 A 
ATOM     86  C   UNL A   1      36.094  22.466  24.607  1.00  0.00     0.188 C 
ATOM     87  C   UNL A   1      34.071  21.552  24.709  1.00  0.00     0.164 A 
ATOM     88  N   UNL A   1      32.085  22.369  25.425  1.00  0.00    -0.238 NA
ATOM     89  N   UNL A   1      35.373  21.426  24.358  1.00  0.00    -0.198 NA
ATOM     90  N   UNL A   1      33.114  20.569  24.556  1.00  0.00    -0.283 N 
ATOM     91  C   UNL A   1      31.919  21.154  24.924  1.00  0.00     0.206 A 
BRANCH  86  92
ATOM     92  O   UNL A   1      37.379  22.467  24.201  1.00  0.00    -0.496 OA
ATOM     93  H   UNL A   1      37.870  23.264  24.198  1.00  0.00     0.294 HD
ENDBRANCH  86  92
BRANCH  90  94
ATOM     94  C   UNL A   1      33.352  19.222  24.182  1.00  0.00     0.050 A 
ATOM     95  C   UNL A   1      32.712  18.655  23.077  1.00  0.00     0.027 A 
ATOM     96  C   UNL A   1      34.280  18.469  24.922  1.00  0.00     0.047 A 
ATOM     97  C   UNL A   1      33.063  17.360  22.677  1.00  0.00     0.004 A 
ATOM     98  C   UNL A   1      34.586  17.168  24.538  1.00  0.00     0.043 A 
ATOM     99  C   UNL A   1      33.998  16.616  23.405  1.00  0.00     0.020 A 
ATOM    100  Cl  UNL A   1      35.699  16.242  25.472  1.00  0.00    -0.084 Cl
ENDBRANCH  90  94
ENDBRANCH  82  83
ENDBRANCH  74  77
ENDBRANCH  72  73
ENDBRANCH  71  72
ENDBRANCH   1  71
TORSDOF 16
ENDMDL
MODEL 3
REMARK VINA RESULT:     -13.8      1.681      2.119
REMARK SMILES O=C(NCCCNC(=O)c1ccc([C@@H]2CC(O)=Nc3c2ncn3-c2cccc(Cl)c2)cc1)c1ccc(-c2c3nc(c(-c4cccc(S(=O)(=O)[O-])c4F)c4ccc([nH]4)c(-c4cccc(S(=O)(=O)[O-])c4F)c4nc(c(-c5cccc(S(=O)(=O)[O-])c5F)c5ccc2[nH]5)C=C4)C=C3)cc1
REMARK SMILES IDX 4 1 3 2 1 3 2 4 33 6 34 7 95 8 35 9 94 10 36 11 37 12 38 13
REMARK SMILES IDX 88 14 39 15 93 16 87 17 89 18 40 19 92 20 86 21 85 22 41 24
REMARK SMILES IDX 73 25 53 26 72 27 54 28 57 29 71 30 90 31 55 32 56 33 70 35
REMARK SMILES IDX 91 36 58 37 42 38 43 39 51 40 44 41 46 42 52 43 45 44 47 45
REMARK SMILES IDX 48 46 49 47 50 48 74 49 75 50 83 51 76 52 78 53 84 54 77 55
REMARK SMILES IDX 79 56 80 57 81 58 82 59 59 60 60 61 68 62 61 63 63 64 69 65
REMARK SMILES IDX 62 66 64 67 65 68 66 69 67 70 5 71 6 72 7 73 8 74 9 76 10 77
REMARK SMILES IDX 11 78 32 79 12 80 31 81 13 82 14 83 15 84 20 85 16 86 19 87
REMARK SMILES IDX 21 88 18 89 23 90 22 91 17 92 24 94 25 95 30 96 26 97 28 98
REMARK SMILES IDX 27 99 29 100
REMARK H PARENT 3 5 89 23 57 34 7 75 17 93
REMARK Flexibility Score: inf
ROOT
ATOM      1  C   UNL A   1      34.592  32.469  28.249  1.00  0.00     0.118 C 
ENDROOT
BRANCH   1   2
ATOM      2  N   UNL A   1      34.418  32.404  29.686  1.00  0.00    -0.352 N 
ATOM      3  O   UNL A   1      34.725  32.270  31.858  1.00  0.00    -0.269 OA
ATOM      4  C   UNL A   1      35.178  31.988  30.744  1.00  0.00     0.251 C 
ATOM      5  H   UNL A   1      33.537  32.742  29.970  1.00  0.00     0.163 HD
BRANCH   4   6
ATOM      6  C   UNL A   1      36.429  31.183  30.660  1.00  0.00     0.039 A 
ATOM      7  C   UNL A   1      36.522  29.793  30.730  1.00  0.00     0.014 A 
ATOM      8  C   UNL A   1      37.617  31.925  30.500  1.00  0.00     0.014 A 
ATOM      9  C   UNL A   1      37.773  29.169  30.708  1.00  0.00     0.010 A 
ATOM     10  C   UNL A   1      38.866  31.310  30.475  1.00  0.00     0.010 A 
ATOM     11  C   UNL A   1      38.948  29.928  30.602  1.00  0.00    -0.014 A 
BRANCH  11  12
ATOM     12  C   UNL A   1      40.221  29.234  30.376  1.00  0.00     0.031 A 
ATOM     13  C   UNL A   1      40.977  28.970  31.634  1.00  0.00     0.074 A 
ATOM     14  C   UNL A   1      40.629  28.719  29.194  1.00  0.00     0.049 A 
ATOM     15  N   UNL A   1      42.123  29.456  31.988  1.00  0.00    -0.248 NA
ATOM     16  C   UNL A   1      40.310  28.191  32.690  1.00  0.00     0.031 C 
ATOM     17  C   UNL A   1      39.859  28.626  27.952  1.00  0.00     0.029 A 
ATOM     18  N   UNL A   1      41.786  28.053  28.885  1.00  0.00    -0.354 N 
ATOM     19  C   UNL A   1      42.426  28.854  33.210  1.00  0.00     0.074 A 
ATOM     20  C   UNL A   1      41.207  28.253  33.675  1.00  0.00     0.031 C 
ATOM     21  C   UNL A   1      40.463  27.750  27.115  1.00  0.00     0.029 A 
ATOM     22  C   UNL A   1      41.721  27.317  27.699  1.00  0.00     0.049 A 
ATOM     23  H   UNL A   1      42.592  28.089  29.449  1.00  0.00     0.167 HD
ATOM     24  C   UNL A   1      43.717  28.687  33.614  1.00  0.00     0.034 A 
ATOM     25  C   UNL A   1      42.600  26.378  27.260  1.00  0.00     0.034 A 
ATOM     26  C   UNL A   1      44.607  29.533  32.859  1.00  0.00     0.049 A 
ATOM     27  C   UNL A   1      43.871  26.583  27.985  1.00  0.00     0.074 A 
ATOM     28  C   UNL A   1      44.731  30.889  32.643  1.00  0.00     0.029 A 
ATOM     29  N   UNL A   1      45.349  28.921  31.880  1.00  0.00    -0.354 N 
ATOM     30  N   UNL A   1      44.649  27.610  27.803  1.00  0.00    -0.248 NA
ATOM     31  C   UNL A   1      44.089  25.831  29.208  1.00  0.00     0.031 C 
ATOM     32  C   UNL A   1      45.144  31.007  31.283  1.00  0.00     0.029 A 
ATOM     33  C   UNL A   1      45.319  29.719  30.773  1.00  0.00     0.049 A 
ATOM     34  H   UNL A   1      45.820  28.060  31.962  1.00  0.00     0.167 HD
ATOM     35  C   UNL A   1      45.097  27.916  29.079  1.00  0.00     0.074 A 
ATOM     36  C   UNL A   1      44.821  26.724  29.877  1.00  0.00     0.031 C 
ATOM     37  C   UNL A   1      45.373  29.206  29.425  1.00  0.00     0.034 A 
BRANCH  24  38
ATOM     38  C   UNL A   1      44.250  27.489  34.384  1.00  0.00     0.023 A 
ATOM     39  C   UNL A   1      45.156  27.761  35.437  1.00  0.00     0.012 A 
ATOM     40  C   UNL A   1      44.163  26.144  33.956  1.00  0.00     0.148 A 
ATOM     41  C   UNL A   1      45.996  26.774  35.965  1.00  0.00     0.002 A 
ATOM     42  C   UNL A   1      44.948  25.151  34.534  1.00  0.00     0.091 A 
ATOM     43  F   UNL A   1      43.410  25.818  32.905  1.00  0.00    -0.205 F 
ATOM     44  C   UNL A   1      45.894  25.467  35.510  1.00  0.00     0.022 A 
BRANCH  42  45
ATOM     45  S   UNL A   1      44.830  23.431  34.023  1.00  0.00     0.127 S 
ATOM     46  O   UNL A   1      44.774  23.561  32.571  1.00  0.00    -0.237 OA
ATOM     47  O   UNL A   1      46.079  22.881  34.550  1.00  0.00    -0.237 OA
ATOM     48  O   UNL A   1      43.630  22.908  34.663  1.00  0.00    -0.744 OA
ENDBRANCH  42  45
ENDBRANCH  24  38
BRANCH  25  49
ATOM     49  C   UNL A   1      42.402  25.158  26.435  1.00  0.00     0.023 A 
ATOM     50  C   UNL A   1      43.330  24.839  25.418  1.00  0.00     0.012 A 
ATOM     51  C   UNL A   1      41.500  24.154  26.844  1.00  0.00     0.148 A 
ATOM     52  C   UNL A   1      43.385  23.553  24.862  1.00  0.00     0.002 A 
ATOM     53  C   UNL A   1      41.556  22.879  26.287  1.00  0.00     0.091 A 
ATOM     54  F   UNL A   1      40.654  24.421  27.847  1.00  0.00    -0.205 F 
ATOM     55  C   UNL A   1      42.506  22.570  25.304  1.00  0.00     0.022 A 
BRANCH  53  56
ATOM     56  S   UNL A   1      40.483  21.545  26.836  1.00  0.00     0.127 S 
ATOM     57  O   UNL A   1      39.168  22.019  26.409  1.00  0.00    -0.237 OA
ATOM     58  O   UNL A   1      41.002  20.410  26.083  1.00  0.00    -0.237 OA
ATOM     59  O   UNL A   1      40.652  21.473  28.286  1.00  0.00    -0.744 OA
ENDBRANCH  53  56
ENDBRANCH  25  49
BRANCH  37  60
ATOM     60  C   UNL A   1      45.508  30.228  28.329  1.00  0.00     0.023 A 
ATOM     61  C   UNL A   1      44.403  30.866  27.728  1.00  0.00     0.012 A 
ATOM     62  C   UNL A   1      46.804  30.672  28.019  1.00  0.00     0.148 A 
ATOM     63  C   UNL A   1      44.592  31.914  26.823  1.00  0.00     0.002 A 
ATOM     64  C   UNL A   1      46.985  31.749  27.164  1.00  0.00     0.091 A 
ATOM     65  F   UNL A   1      47.842  30.046  28.593  1.00  0.00    -0.205 F 
ATOM     66  C   UNL A   1      45.882  32.366  26.554  1.00  0.00     0.022 A 
BRANCH  64  67
ATOM     67  S   UNL A   1      48.611  32.455  26.895  1.00  0.00     0.127 S 
ATOM     68  O   UNL A   1      48.933  32.988  28.217  1.00  0.00    -0.237 OA
ATOM     69  O   UNL A   1      49.399  31.286  26.498  1.00  0.00    -0.237 OA
ATOM     70  O   UNL A   1      48.446  33.446  25.839  1.00  0.00    -0.744 OA
ENDBRANCH  64  67
ENDBRANCH  37  60
ENDBRANCH  11  12
ENDBRANCH   4   6
ENDBRANCH   1   2
BRANCH   1  71
ATOM     71  C   UNL A   1      35.348  31.295  27.636  1.00  0.00     0.042 C 
BRANCH  71  72
ATOM     72  C   UNL A   1      34.502  30.051  27.382  1.00  0.00     0.118 C 
BRANCH  72  73
ATOM     73  N   UNL A   1      33.260  30.329  26.674  1.00  0.00    -0.352 N 
ATOM     74  C   UNL A   1      32.488  29.529  25.871  1.00  0.00     0.251 C 
ATOM     75  H   UNL A   1      32.918  31.244  26.791  1.00  0.00     0.163 HD
ATOM     76  O   UNL A   1      31.526  30.021  25.281  1.00  0.00    -0.269 OA
BRANCH  74  77
ATOM     77  C   UNL A   1      32.777  28.086  25.693  1.00  0.00     0.039 A 
ATOM     78  C   UNL A   1      32.234  27.184  26.614  1.00  0.00     0.014 A 
ATOM     79  C   UNL A   1      33.665  27.619  24.720  1.00  0.00     0.014 A 
ATOM     80  C   UNL A   1      32.590  25.832  26.567  1.00  0.00     0.005 A 
ATOM     81  C   UNL A   1      33.978  26.259  24.641  1.00  0.00     0.005 A 
ATOM     82  C   UNL A   1      33.499  25.357  25.606  1.00  0.00    -0.038 A 
BRANCH  82  83
ATOM     83  C   UNL A   1      34.129  23.989  25.803  1.00  0.00     0.081 C 
ATOM     84  C   UNL A   1      35.575  23.966  25.247  1.00  0.00     0.111 C 
ATOM     85  C   UNL A   1      33.305  22.891  25.235  1.00  0.00     0.093 A 
ATOM     86  C   UNL A   1      35.971  22.684  24.548  1.00  0.00     0.188 C 
ATOM     87  C   UNL A   1      33.931  21.809  24.654  1.00  0.00     0.164 A 
ATOM     88  N   UNL A   1      31.966  22.659  25.389  1.00  0.00    -0.238 NA
ATOM     89  N   UNL A   1      35.229  21.661  24.294  1.00  0.00    -0.198 NA
ATOM     90  N   UNL A   1      32.954  20.846  24.499  1.00  0.00    -0.283 N 
ATOM     91  C   UNL A   1      31.773  21.452  24.879  1.00  0.00     0.206 A 
BRANCH  86  92
ATOM     92  O   UNL A   1      37.253  22.662  24.135  1.00  0.00    -0.496 OA
ATOM     93  H   UNL A   1      37.508  23.141  23.370  1.00  0.00     0.294 HD
ENDBRANCH  86  92
BRANCH  90  94
ATOM     94  C   UNL A   1      33.163  19.499  24.111  1.00  0.00     0.050 A 
ATOM     95  C   UNL A   1      32.481  18.945  23.025  1.00  0.00     0.027 A 
ATOM     96  C   UNL A   1      34.104  18.731  24.818  1.00  0.00     0.047 A 
ATOM     97  C   UNL A   1      32.803  17.647  22.608  1.00  0.00     0.004 A 
ATOM     98  C   UNL A   1      34.382  17.427  24.419  1.00  0.00     0.043 A 
ATOM     99  C   UNL A   1      33.751  16.888  23.303  1.00  0.00     0.020 A 
ATOM    100  Cl  UNL A   1      35.513  16.484  25.312  1.00  0.00    -0.084 Cl
ENDBRANCH  90  94
ENDBRANCH  82  83
ENDBRANCH  74  77
ENDBRANCH  72  73
ENDBRANCH  71  72
ENDBRANCH   1  71
TORSDOF 16
ENDMDL
