MODEL 1
REMARK VINA RESULT:     -11.3      0.000      0.000
REMARK SMILES CCCCCCNC(=O)Oc1cccc(-c2ccc([C@@H](C)C(=O)NCCCNC(=O)c3ccc(-c4c5nc(c(-c6cccc(S(=O)(=O)[O-])c6F)c6ccc([nH]6)c(-c6cccc(S(=O)(=O)[O-])c6F)c6nc(c(-c7cccc(S(=O)(=O)[O-])c7F)c7ccc4[nH]7)C=C6)C=C5)cc3)cc2Cl)c1
REMARK SMILES IDX 20 1 21 2 19 3 16 4 17 5 95 6 18 7 94 8 96 9 15 10 11 11
REMARK SMILES IDX 12 12 97 13 13 14 14 15 10 16 8 17 7 18 9 20 6 21 5 22 4 23
REMARK SMILES IDX 3 24 2 25 1 26 22 27 23 28 24 29 25 31 26 32 27 33 28 34
REMARK SMILES IDX 29 35 30 37 31 38 32 39 93 40 33 41 92 42 34 43 35 44 36 45
REMARK SMILES IDX 86 46 37 47 91 48 85 49 87 50 38 51 90 52 84 53 83 54 39 56
REMARK SMILES IDX 71 57 51 58 70 59 52 60 55 61 69 62 88 63 53 64 54 65 68 67
REMARK SMILES IDX 89 68 56 69 40 70 41 71 49 72 42 73 44 74 50 75 43 76 45 77
REMARK SMILES IDX 46 78 47 79 48 80 72 81 73 82 81 83 74 84 76 85 82 86 75 87
REMARK SMILES IDX 77 88 78 89 79 90 80 91 57 92 58 93 66 94 59 95 61 96 67 97
REMARK SMILES IDX 60 98 62 99 63 100 64 101 65 102
REMARK H PARENT 7 19 24 30 28 36 87 55 55 66
REMARK Flexibility Score: inf
ROOT
ATOM      1  C   UNL A   1      32.963  18.855  24.895  1.00  0.00     0.105 C 
ATOM      2  C   UNL A   1      31.996  17.714  24.586  1.00  0.00     0.023 C 
ENDROOT
BRANCH   1   3
ATOM      3  C   UNL A   1      32.551  20.220  24.371  1.00  0.00    -0.034 A 
ATOM      4  C   UNL A   1      31.974  22.886  23.477  1.00  0.00     0.000 A 
ATOM      5  C   UNL A   1      32.289  21.845  22.583  1.00  0.00     0.010 A 
ATOM      6  C   UNL A   1      31.877  22.533  24.837  1.00  0.00     0.049 A 
ATOM      7  C   UNL A   1      32.524  20.535  23.014  1.00  0.00     0.005 A 
ATOM      8  C   UNL A   1      32.197  21.235  25.274  1.00  0.00     0.025 A 
ATOM      9  Cl  UNL A   1      31.307  23.625  26.059  1.00  0.00    -0.084 Cl
BRANCH   4  10
ATOM     10  C   UNL A   1      31.810  24.258  22.937  1.00  0.00    -0.013 A 
ATOM     11  C   UNL A   1      30.820  26.480  23.035  1.00  0.00     0.133 A 
ATOM     12  C   UNL A   1      31.629  26.926  21.998  1.00  0.00     0.047 A 
ATOM     13  C   UNL A   1      30.911  25.171  23.513  1.00  0.00     0.056 A 
ATOM     14  C   UNL A   1      32.538  26.046  21.423  1.00  0.00     0.004 A 
ATOM     15  C   UNL A   1      32.614  24.724  21.876  1.00  0.00     0.009 A 
BRANCH  11  16
ATOM     16  O   UNL A   1      29.828  27.363  23.490  1.00  0.00    -0.410 OA
BRANCH  16  17
ATOM     17  C   UNL A   1      29.787  28.654  22.991  1.00  0.00     0.412 C 
ATOM     18  N   UNL A   1      30.457  29.547  23.784  1.00  0.00    -0.321 N 
ATOM     19  H   UNL A   1      30.414  30.493  23.520  1.00  0.00     0.167 HD
ATOM     20  O   UNL A   1      29.251  29.019  21.952  1.00  0.00    -0.224 OA
BRANCH  18  21
ATOM     21  C   UNL A   1      31.223  29.237  24.975  1.00  0.00     0.119 C 
BRANCH  21  22
ATOM     22  C   UNL A   1      32.723  29.427  24.737  1.00  0.00     0.021 C 
BRANCH  22  23
ATOM     23  C   UNL A   1      33.624  28.554  25.619  1.00  0.00     0.002 C 
BRANCH  23  24
ATOM     24  C   UNL A   1      33.333  27.050  25.567  1.00  0.00    -0.000 C 
BRANCH  24  25
ATOM     25  C   UNL A   1      34.518  26.142  25.902  1.00  0.00    -0.003 C 
ATOM     26  C   UNL A   1      34.574  24.887  25.044  1.00  0.00     0.004 C 
ENDBRANCH  24  25
ENDBRANCH  23  24
ENDBRANCH  22  23
ENDBRANCH  21  22
ENDBRANCH  18  21
ENDBRANCH  16  17
ENDBRANCH  11  16
ENDBRANCH   4  10
ENDBRANCH   1   3
BRANCH   1  27
ATOM     27  C   UNL A   1      34.445  18.519  24.661  1.00  0.00     0.227 C 
ATOM     28  O   UNL A   1      34.756  17.420  24.184  1.00  0.00    -0.274 OA
ATOM     29  N   UNL A   1      35.475  19.368  24.926  1.00  0.00    -0.356 N 
ATOM     30  H   UNL A   1      36.359  19.011  24.679  1.00  0.00     0.163 HD
BRANCH  29  31
ATOM     31  C   UNL A   1      35.517  20.698  25.501  1.00  0.00     0.117 C 
BRANCH  31  32
ATOM     32  C   UNL A   1      36.025  21.745  24.513  1.00  0.00     0.042 C 
BRANCH  32  33
ATOM     33  C   UNL A   1      37.512  22.048  24.639  1.00  0.00     0.118 C 
BRANCH  33  34
ATOM     34  N   UNL A   1      38.202  21.073  25.474  1.00  0.00    -0.352 N 
ATOM     35  C   UNL A   1      39.288  21.215  26.303  1.00  0.00     0.251 C 
ATOM     36  H   UNL A   1      37.830  20.162  25.436  1.00  0.00     0.163 HD
ATOM     37  O   UNL A   1      39.838  20.205  26.738  1.00  0.00    -0.269 OA
BRANCH  35  38
ATOM     38  C   UNL A   1      39.803  22.554  26.674  1.00  0.00     0.039 A 
ATOM     39  C   UNL A   1      40.780  22.646  27.672  1.00  0.00     0.014 A 
ATOM     40  C   UNL A   1      39.298  23.719  26.094  1.00  0.00     0.014 A 
ATOM     41  C   UNL A   1      41.281  23.897  28.046  1.00  0.00     0.010 A 
ATOM     42  C   UNL A   1      39.860  24.955  26.403  1.00  0.00     0.010 A 
ATOM     43  C   UNL A   1      40.845  25.062  27.394  1.00  0.00    -0.014 A 
BRANCH  43  44
ATOM     44  C   UNL A   1      41.399  26.397  27.738  1.00  0.00     0.031 A 
ATOM     45  C   UNL A   1      42.837  26.725  27.426  1.00  0.00     0.074 A 
ATOM     46  C   UNL A   1      40.636  27.282  28.410  1.00  0.00     0.049 A 
ATOM     47  N   UNL A   1      43.516  27.808  27.704  1.00  0.00    -0.248 NA
ATOM     48  C   UNL A   1      43.624  25.690  26.736  1.00  0.00     0.031 C 
ATOM     49  C   UNL A   1      39.256  27.050  28.843  1.00  0.00     0.029 A 
ATOM     50  N   UNL A   1      40.921  28.542  28.874  1.00  0.00    -0.354 N 
ATOM     51  C   UNL A   1      44.813  27.569  27.267  1.00  0.00     0.074 A 
ATOM     52  C   UNL A   1      44.837  26.226  26.731  1.00  0.00     0.031 C 
ATOM     53  C   UNL A   1      38.815  28.129  29.509  1.00  0.00     0.029 A 
ATOM     54  C   UNL A   1      39.887  29.117  29.578  1.00  0.00     0.049 A 
ATOM     55  H   UNL A   1      41.783  28.991  28.720  1.00  0.00     0.167 HD
ATOM     56  C   UNL A   1      45.883  28.400  27.284  1.00  0.00     0.034 A 
ATOM     57  C   UNL A   1      39.813  30.302  30.214  1.00  0.00     0.034 A 
ATOM     58  C   UNL A   1      45.840  29.752  27.772  1.00  0.00     0.049 A 
ATOM     59  C   UNL A   1      40.998  31.229  30.166  1.00  0.00     0.074 A 
ATOM     60  C   UNL A   1      46.840  30.708  27.741  1.00  0.00     0.029 A 
ATOM     61  N   UNL A   1      44.744  30.337  28.386  1.00  0.00    -0.354 N 
ATOM     62  N   UNL A   1      42.166  31.049  29.596  1.00  0.00    -0.248 NA
ATOM     63  C   UNL A   1      40.845  32.541  30.814  1.00  0.00     0.031 C 
ATOM     64  C   UNL A   1      46.354  31.866  28.359  1.00  0.00     0.029 A 
ATOM     65  C   UNL A   1      45.044  31.639  28.749  1.00  0.00     0.049 A 
ATOM     66  H   UNL A   1      43.879  29.892  28.542  1.00  0.00     0.167 HD
ATOM     67  C   UNL A   1      42.871  32.231  29.786  1.00  0.00     0.074 A 
ATOM     68  C   UNL A   1      41.992  33.131  30.503  1.00  0.00     0.031 C 
ATOM     69  C   UNL A   1      44.138  32.541  29.414  1.00  0.00     0.034 A 
BRANCH  56  70
ATOM     70  C   UNL A   1      47.179  27.892  26.705  1.00  0.00     0.023 A 
ATOM     71  C   UNL A   1      47.476  28.130  25.347  1.00  0.00     0.012 A 
ATOM     72  C   UNL A   1      48.127  27.236  27.514  1.00  0.00     0.148 A 
ATOM     73  C   UNL A   1      48.680  27.694  24.795  1.00  0.00     0.002 A 
ATOM     74  C   UNL A   1      49.345  26.845  26.967  1.00  0.00     0.091 A 
ATOM     75  F   UNL A   1      47.820  27.000  28.798  1.00  0.00    -0.205 F 
ATOM     76  C   UNL A   1      49.617  27.062  25.607  1.00  0.00     0.022 A 
BRANCH  74  77
ATOM     77  S   UNL A   1      50.654  26.097  27.946  1.00  0.00     0.127 S 
ATOM     78  O   UNL A   1      51.660  27.157  27.952  1.00  0.00    -0.237 OA
ATOM     79  O   UNL A   1      49.990  25.878  29.230  1.00  0.00    -0.237 OA
ATOM     80  O   UNL A   1      51.035  24.879  27.243  1.00  0.00    -0.744 OA
ENDBRANCH  74  77
ENDBRANCH  56  70
BRANCH  57  81
ATOM     81  C   UNL A   1      38.545  30.710  30.887  1.00  0.00     0.023 A 
ATOM     82  C   UNL A   1      38.372  30.430  32.256  1.00  0.00     0.012 A 
ATOM     83  C   UNL A   1      37.528  31.395  30.193  1.00  0.00     0.148 A 
ATOM     84  C   UNL A   1      37.197  30.793  32.915  1.00  0.00     0.002 A 
ATOM     85  C   UNL A   1      36.382  31.803  30.867  1.00  0.00     0.091 A 
ATOM     86  F   UNL A   1      37.709  31.649  28.889  1.00  0.00    -0.205 F 
ATOM     87  C   UNL A   1      36.207  31.487  32.224  1.00  0.00     0.022 A 
BRANCH  85  88
ATOM     88  S   UNL A   1      35.105  32.804  30.097  1.00  0.00     0.127 S 
ATOM     89  O   UNL A   1      34.603  31.907  29.060  1.00  0.00    -0.237 OA
ATOM     90  O   UNL A   1      34.185  33.033  31.212  1.00  0.00    -0.237 OA
ATOM     91  O   UNL A   1      35.773  34.005  29.616  1.00  0.00    -0.744 OA
ENDBRANCH  85  88
ENDBRANCH  57  81
BRANCH  69  92
ATOM     92  C   UNL A   1      44.647  33.920  29.740  1.00  0.00     0.023 A 
ATOM     93  C   UNL A   1      45.352  34.143  30.941  1.00  0.00     0.012 A 
ATOM     94  C   UNL A   1      44.496  34.978  28.821  1.00  0.00     0.148 A 
ATOM     95  C   UNL A   1      45.869  35.403  31.235  1.00  0.00     0.002 A 
ATOM     96  C   UNL A   1      45.058  36.217  29.099  1.00  0.00     0.091 A 
ATOM     97  F   UNL A   1      43.808  34.751  27.693  1.00  0.00    -0.205 F 
ATOM     98  C   UNL A   1      45.733  36.436  30.310  1.00  0.00     0.022 A 
BRANCH  96  99
ATOM     99  S   UNL A   1      45.019  37.577  27.924  1.00  0.00     0.127 S 
ATOM    100  O   UNL A   1      43.587  37.861  27.846  1.00  0.00    -0.237 OA
ATOM    101  O   UNL A   1      45.808  38.601  28.609  1.00  0.00    -0.237 OA
ATOM    102  O   UNL A   1      45.623  37.067  26.700  1.00  0.00    -0.744 OA
ENDBRANCH  96  99
ENDBRANCH  69  92
ENDBRANCH  43  44
ENDBRANCH  35  38
ENDBRANCH  33  34
ENDBRANCH  32  33
ENDBRANCH  31  32
ENDBRANCH  29  31
ENDBRANCH   1  27
TORSDOF 22
ENDMDL
MODEL 2
REMARK VINA RESULT:     -11.2      2.044      2.396
REMARK SMILES CCCCCCNC(=O)Oc1cccc(-c2ccc([C@@H](C)C(=O)NCCCNC(=O)c3ccc(-c4c5nc(c(-c6cccc(S(=O)(=O)[O-])c6F)c6ccc([nH]6)c(-c6cccc(S(=O)(=O)[O-])c6F)c6nc(c(-c7cccc(S(=O)(=O)[O-])c7F)c7ccc4[nH]7)C=C6)C=C5)cc3)cc2Cl)c1
REMARK SMILES IDX 20 1 21 2 19 3 16 4 17 5 95 6 18 7 94 8 96 9 15 10 11 11
REMARK SMILES IDX 12 12 97 13 13 14 14 15 10 16 8 17 7 18 9 20 6 21 5 22 4 23
REMARK SMILES IDX 3 24 2 25 1 26 22 27 23 28 24 29 25 31 26 32 27 33 28 34
REMARK SMILES IDX 29 35 30 37 31 38 32 39 93 40 33 41 92 42 34 43 35 44 36 45
REMARK SMILES IDX 86 46 37 47 91 48 85 49 87 50 38 51 90 52 84 53 83 54 39 56
REMARK SMILES IDX 71 57 51 58 70 59 52 60 55 61 69 62 88 63 53 64 54 65 68 67
REMARK SMILES IDX 89 68 56 69 40 70 41 71 49 72 42 73 44 74 50 75 43 76 45 77
REMARK SMILES IDX 46 78 47 79 48 80 72 81 73 82 81 83 74 84 76 85 82 86 75 87
REMARK SMILES IDX 77 88 78 89 79 90 80 91 57 92 58 93 66 94 59 95 61 96 67 97
REMARK SMILES IDX 60 98 62 99 63 100 64 101 65 102
REMARK H PARENT 7 19 24 30 28 36 87 55 55 66
REMARK Flexibility Score: inf
ROOT
ATOM      1  C   UNL A   1      33.153  18.988  24.984  1.00  0.00     0.105 C 
ATOM      2  C   UNL A   1      32.195  17.826  24.727  1.00  0.00     0.023 C 
ENDROOT
BRANCH   1   3
ATOM      3  C   UNL A   1      32.703  20.335  24.444  1.00  0.00    -0.034 A 
ATOM      4  C   UNL A   1      32.054  22.974  23.520  1.00  0.00     0.000 A 
ATOM      5  C   UNL A   1      32.395  21.931  22.638  1.00  0.00     0.010 A 
ATOM      6  C   UNL A   1      31.969  22.634  24.884  1.00  0.00     0.049 A 
ATOM      7  C   UNL A   1      32.665  20.632  23.084  1.00  0.00     0.005 A 
ATOM      8  C   UNL A   1      32.325  21.350  25.336  1.00  0.00     0.025 A 
ATOM      9  Cl  UNL A   1      31.373  23.725  26.094  1.00  0.00    -0.084 Cl
BRANCH   4  10
ATOM     10  C   UNL A   1      31.852  24.334  22.964  1.00  0.00    -0.013 A 
ATOM     11  C   UNL A   1      30.989  26.604  23.149  1.00  0.00     0.133 A 
ATOM     12  C   UNL A   1      31.615  26.977  21.967  1.00  0.00     0.047 A 
ATOM     13  C   UNL A   1      31.110  25.307  23.655  1.00  0.00     0.056 A 
ATOM     14  C   UNL A   1      32.367  26.037  21.274  1.00  0.00     0.004 A 
ATOM     15  C   UNL A   1      32.469  24.728  21.758  1.00  0.00     0.009 A 
BRANCH  11  16
ATOM     16  O   UNL A   1      30.134  27.546  23.739  1.00  0.00    -0.410 OA
BRANCH  16  17
ATOM     17  C   UNL A   1      29.952  28.776  23.128  1.00  0.00     0.412 C 
ATOM     18  N   UNL A   1      30.508  29.805  23.839  1.00  0.00    -0.321 N 
ATOM     19  H   UNL A   1      30.361  30.714  23.491  1.00  0.00     0.167 HD
ATOM     20  O   UNL A   1      29.390  28.984  22.059  1.00  0.00    -0.224 OA
BRANCH  18  21
ATOM     21  C   UNL A   1      31.290  29.691  25.053  1.00  0.00     0.119 C 
BRANCH  21  22
ATOM     22  C   UNL A   1      32.767  29.438  24.742  1.00  0.00     0.021 C 
BRANCH  22  23
ATOM     23  C   UNL A   1      33.305  28.094  25.251  1.00  0.00     0.002 C 
BRANCH  23  24
ATOM     24  C   UNL A   1      34.043  28.150  26.592  1.00  0.00    -0.000 C 
BRANCH  24  25
ATOM     25  C   UNL A   1      34.451  29.550  27.058  1.00  0.00    -0.003 C 
ATOM     26  C   UNL A   1      35.802  29.581  27.756  1.00  0.00     0.004 C 
ENDBRANCH  24  25
ENDBRANCH  23  24
ENDBRANCH  22  23
ENDBRANCH  21  22
ENDBRANCH  18  21
ENDBRANCH  16  17
ENDBRANCH  11  16
ENDBRANCH   4  10
ENDBRANCH   1   3
BRANCH   1  27
ATOM     27  C   UNL A   1      34.632  18.670  24.711  1.00  0.00     0.227 C 
ATOM     28  O   UNL A   1      34.945  17.571  24.233  1.00  0.00    -0.274 OA
ATOM     29  N   UNL A   1      35.658  19.534  24.942  1.00  0.00    -0.356 N 
ATOM     30  H   UNL A   1      36.539  19.187  24.673  1.00  0.00     0.163 HD
BRANCH  29  31
ATOM     31  C   UNL A   1      35.698  20.868  25.506  1.00  0.00     0.117 C 
BRANCH  31  32
ATOM     32  C   UNL A   1      36.520  21.836  24.659  1.00  0.00     0.042 C 
BRANCH  32  33
ATOM     33  C   UNL A   1      37.671  22.493  25.408  1.00  0.00     0.118 C 
BRANCH  33  34
ATOM     34  N   UNL A   1      38.484  21.520  26.127  1.00  0.00    -0.352 N 
ATOM     35  C   UNL A   1      39.699  21.660  26.752  1.00  0.00     0.251 C 
ATOM     36  H   UNL A   1      38.100  20.615  26.172  1.00  0.00     0.163 HD
ATOM     37  O   UNL A   1      40.304  20.649  27.104  1.00  0.00    -0.269 OA
BRANCH  35  38
ATOM     38  C   UNL A   1      40.288  22.996  27.004  1.00  0.00     0.039 A 
ATOM     39  C   UNL A   1      41.185  23.147  28.067  1.00  0.00     0.014 A 
ATOM     40  C   UNL A   1      39.925  24.110  26.243  1.00  0.00     0.014 A 
ATOM     41  C   UNL A   1      41.753  24.398  28.330  1.00  0.00     0.010 A 
ATOM     42  C   UNL A   1      40.557  25.333  26.449  1.00  0.00     0.010 A 
ATOM     43  C   UNL A   1      41.465  25.498  27.505  1.00  0.00    -0.014 A 
BRANCH  43  44
ATOM     44  C   UNL A   1      42.094  26.824  27.732  1.00  0.00     0.031 A 
ATOM     45  C   UNL A   1      43.517  27.074  27.300  1.00  0.00     0.074 A 
ATOM     46  C   UNL A   1      41.418  27.775  28.408  1.00  0.00     0.049 A 
ATOM     47  N   UNL A   1      44.255  28.140  27.467  1.00  0.00    -0.248 NA
ATOM     48  C   UNL A   1      44.210  25.971  26.613  1.00  0.00     0.031 C 
ATOM     49  C   UNL A   1      40.066  27.625  28.952  1.00  0.00     0.029 A 
ATOM     50  N   UNL A   1      41.785  29.044  28.779  1.00  0.00    -0.354 N 
ATOM     51  C   UNL A   1      45.506  27.823  26.951  1.00  0.00     0.074 A 
ATOM     52  C   UNL A   1      45.438  26.454  26.490  1.00  0.00     0.031 C 
ATOM     53  C   UNL A   1      39.718  28.755  29.586  1.00  0.00     0.029 A 
ATOM     54  C   UNL A   1      40.829  29.700  29.522  1.00  0.00     0.049 A 
ATOM     55  H   UNL A   1      42.650  29.448  28.538  1.00  0.00     0.167 HD
ATOM     56  C   UNL A   1      46.605  28.608  26.844  1.00  0.00     0.034 A 
ATOM     57  C   UNL A   1      40.849  30.919  30.095  1.00  0.00     0.034 A 
ATOM     58  C   UNL A   1      46.652  29.984  27.257  1.00  0.00     0.049 A 
ATOM     59  C   UNL A   1      42.062  31.791  29.910  1.00  0.00     0.074 A 
ATOM     60  C   UNL A   1      47.682  30.894  27.101  1.00  0.00     0.029 A 
ATOM     61  N   UNL A   1      45.627  30.647  27.916  1.00  0.00    -0.354 N 
ATOM     62  N   UNL A   1      43.176  31.531  29.268  1.00  0.00    -0.248 NA
ATOM     63  C   UNL A   1      42.009  33.140  30.493  1.00  0.00     0.031 C 
ATOM     64  C   UNL A   1      47.289  32.102  27.687  1.00  0.00     0.029 A 
ATOM     65  C   UNL A   1      46.003  31.953  28.183  1.00  0.00     0.049 A 
ATOM     66  H   UNL A   1      44.760  30.248  28.158  1.00  0.00     0.167 HD
ATOM     67  C   UNL A   1      43.939  32.690  29.340  1.00  0.00     0.074 A 
ATOM     68  C   UNL A   1      43.150  33.663  30.067  1.00  0.00     0.031 C 
ATOM     69  C   UNL A   1      45.185  32.925  28.860  1.00  0.00     0.034 A 
BRANCH  56  70
ATOM     70  C   UNL A   1      47.834  28.015  26.202  1.00  0.00     0.023 A 
ATOM     71  C   UNL A   1      48.824  27.420  27.012  1.00  0.00     0.012 A 
ATOM     72  C   UNL A   1      47.981  27.989  24.801  1.00  0.00     0.148 A 
ATOM     73  C   UNL A   1      49.957  26.841  26.441  1.00  0.00     0.002 A 
ATOM     74  C   UNL A   1      49.091  27.368  24.237  1.00  0.00     0.091 A 
ATOM     75  F   UNL A   1      47.040  28.576  24.048  1.00  0.00    -0.205 F 
ATOM     76  C   UNL A   1      50.084  26.806  25.055  1.00  0.00     0.022 A 
BRANCH  74  77
ATOM     77  S   UNL A   1      49.311  27.197  22.462  1.00  0.00     0.127 S 
ATOM     78  O   UNL A   1      48.403  26.092  22.158  1.00  0.00    -0.237 OA
ATOM     79  O   UNL A   1      48.870  28.502  21.971  1.00  0.00    -0.237 OA
ATOM     80  O   UNL A   1      50.725  26.916  22.257  1.00  0.00    -0.744 OA
ENDBRANCH  74  77
ENDBRANCH  56  70
BRANCH  57  81
ATOM     81  C   UNL A   1      39.651  31.415  30.834  1.00  0.00     0.023 A 
ATOM     82  C   UNL A   1      38.551  31.909  30.107  1.00  0.00     0.012 A 
ATOM     83  C   UNL A   1      39.582  31.373  32.240  1.00  0.00     0.148 A 
ATOM     84  C   UNL A   1      37.417  32.385  30.767  1.00  0.00     0.002 A 
ATOM     85  C   UNL A   1      38.428  31.798  32.890  1.00  0.00     0.091 A 
ATOM     86  F   UNL A   1      40.641  30.905  32.915  1.00  0.00    -0.205 F 
ATOM     87  C   UNL A   1      37.352  32.321  32.156  1.00  0.00     0.022 A 
BRANCH  85  88
ATOM     88  S   UNL A   1      38.200  31.646  34.666  1.00  0.00     0.127 S 
ATOM     89  O   UNL A   1      36.891  32.264  34.856  1.00  0.00    -0.237 OA
ATOM     90  O   UNL A   1      38.228  30.194  34.851  1.00  0.00    -0.237 OA
ATOM     91  O   UNL A   1      39.319  32.350  35.275  1.00  0.00    -0.744 OA
ENDBRANCH  85  88
ENDBRANCH  57  81
BRANCH  69  92
ATOM     92  C   UNL A   1      45.770  34.297  29.071  1.00  0.00     0.023 A 
ATOM     93  C   UNL A   1      46.617  34.538  30.172  1.00  0.00     0.012 A 
ATOM     94  C   UNL A   1      45.544  35.326  28.135  1.00  0.00     0.148 A 
ATOM     95  C   UNL A   1      47.203  35.790  30.355  1.00  0.00     0.002 A 
ATOM     96  C   UNL A   1      46.172  36.555  28.297  1.00  0.00     0.091 A 
ATOM     97  F   UNL A   1      44.721  35.084  27.105  1.00  0.00    -0.205 F 
ATOM     98  C   UNL A   1      46.990  36.794  29.413  1.00  0.00     0.022 A 
BRANCH  96  99
ATOM     99  S   UNL A   1      46.035  37.873  27.083  1.00  0.00     0.127 S 
ATOM    100  O   UNL A   1      46.701  38.980  27.769  1.00  0.00    -0.237 OA
ATOM    101  O   UNL A   1      46.776  37.326  25.946  1.00  0.00    -0.237 OA
ATOM    102  O   UNL A   1      44.609  38.052  26.845  1.00  0.00    -0.744 OA
ENDBRANCH  96  99
ENDBRANCH  69  92
ENDBRANCH  43  44
ENDBRANCH  35  38
ENDBRANCH  33  34
ENDBRANCH  32  33
ENDBRANCH  31  32
ENDBRANCH  29  31
ENDBRANCH   1  27
TORSDOF 22
ENDMDL
MODEL 3
REMARK VINA RESULT:     -11.1      4.952     10.976
REMARK SMILES CCCCCCNC(=O)Oc1cccc(-c2ccc([C@@H](C)C(=O)NCCCNC(=O)c3ccc(-c4c5nc(c(-c6cccc(S(=O)(=O)[O-])c6F)c6ccc([nH]6)c(-c6cccc(S(=O)(=O)[O-])c6F)c6nc(c(-c7cccc(S(=O)(=O)[O-])c7F)c7ccc4[nH]7)C=C6)C=C5)cc3)cc2Cl)c1
REMARK SMILES IDX 20 1 21 2 19 3 16 4 17 5 95 6 18 7 94 8 96 9 15 10 11 11
REMARK SMILES IDX 12 12 97 13 13 14 14 15 10 16 8 17 7 18 9 20 6 21 5 22 4 23
REMARK SMILES IDX 3 24 2 25 1 26 22 27 23 28 24 29 25 31 26 32 27 33 28 34
REMARK SMILES IDX 29 35 30 37 31 38 32 39 93 40 33 41 92 42 34 43 35 44 36 45
REMARK SMILES IDX 86 46 37 47 91 48 85 49 87 50 38 51 90 52 84 53 83 54 39 56
REMARK SMILES IDX 71 57 51 58 70 59 52 60 55 61 69 62 88 63 53 64 54 65 68 67
REMARK SMILES IDX 89 68 56 69 40 70 41 71 49 72 42 73 44 74 50 75 43 76 45 77
REMARK SMILES IDX 46 78 47 79 48 80 72 81 73 82 81 83 74 84 76 85 82 86 75 87
REMARK SMILES IDX 77 88 78 89 79 90 80 91 57 92 58 93 66 94 59 95 61 96 67 97
REMARK SMILES IDX 60 98 62 99 63 100 64 101 65 102
REMARK H PARENT 7 19 24 30 28 36 87 55 55 66
REMARK Flexibility Score: inf
ROOT
ATOM      1  C   UNL A   1      44.676  23.288  25.965  1.00  0.00     0.105 C 
ATOM      2  C   UNL A   1      45.480  24.176  25.017  1.00  0.00     0.023 C 
ENDROOT
BRANCH   1   3
ATOM      3  C   UNL A   1      44.622  23.757  27.409  1.00  0.00    -0.034 A 
ATOM      4  C   UNL A   1      44.498  24.866  30.054  1.00  0.00     0.000 A 
ATOM      5  C   UNL A   1      43.468  24.064  29.526  1.00  0.00     0.010 A 
ATOM      6  C   UNL A   1      45.637  25.032  29.243  1.00  0.00     0.049 A 
ATOM      7  C   UNL A   1      43.548  23.484  28.255  1.00  0.00     0.005 A 
ATOM      8  C   UNL A   1      45.677  24.518  27.934  1.00  0.00     0.025 A 
ATOM      9  Cl  UNL A   1      47.084  25.814  29.795  1.00  0.00    -0.084 Cl
BRANCH   4  10
ATOM     10  C   UNL A   1      44.295  25.496  31.382  1.00  0.00    -0.013 A 
ATOM     11  C   UNL A   1      43.336  27.236  32.789  1.00  0.00     0.133 A 
ATOM     12  C   UNL A   1      43.776  26.598  33.941  1.00  0.00     0.047 A 
ATOM     13  C   UNL A   1      43.576  26.695  31.524  1.00  0.00     0.056 A 
ATOM     14  C   UNL A   1      44.475  25.403  33.827  1.00  0.00     0.004 A 
ATOM     15  C   UNL A   1      44.747  24.869  32.562  1.00  0.00     0.009 A 
BRANCH  11  16
ATOM     16  O   UNL A   1      42.755  28.504  32.948  1.00  0.00    -0.410 OA
BRANCH  16  17
ATOM     17  C   UNL A   1      43.400  29.617  32.434  1.00  0.00     0.412 C 
ATOM     18  N   UNL A   1      42.627  30.745  32.490  1.00  0.00    -0.321 N 
ATOM     19  H   UNL A   1      43.002  31.559  32.084  1.00  0.00     0.167 HD
ATOM     20  O   UNL A   1      44.540  29.659  31.989  1.00  0.00    -0.224 OA
BRANCH  18  21
ATOM     21  C   UNL A   1      41.312  30.862  33.087  1.00  0.00     0.119 C 
BRANCH  21  22
ATOM     22  C   UNL A   1      41.395  31.405  34.515  1.00  0.00     0.021 C 
BRANCH  22  23
ATOM     23  C   UNL A   1      40.510  32.628  34.785  1.00  0.00     0.002 C 
BRANCH  23  24
ATOM     24  C   UNL A   1      39.009  32.414  34.558  1.00  0.00    -0.000 C 
BRANCH  24  25
ATOM     25  C   UNL A   1      38.170  33.691  34.480  1.00  0.00    -0.003 C 
ATOM     26  C   UNL A   1      36.733  33.494  34.937  1.00  0.00     0.004 C 
ENDBRANCH  24  25
ENDBRANCH  23  24
ENDBRANCH  22  23
ENDBRANCH  21  22
ENDBRANCH  18  21
ENDBRANCH  16  17
ENDBRANCH  11  16
ENDBRANCH   4  10
ENDBRANCH   1   3
BRANCH   1  27
ATOM     27  C   UNL A   1      44.938  21.782  25.808  1.00  0.00     0.227 C 
ATOM     28  O   UNL A   1      46.103  21.366  25.751  1.00  0.00    -0.274 OA
ATOM     29  N   UNL A   1      43.963  20.836  25.744  1.00  0.00    -0.356 N 
ATOM     30  H   UNL A   1      44.304  19.914  25.685  1.00  0.00     0.163 HD
BRANCH  29  31
ATOM     31  C   UNL A   1      42.516  20.928  25.748  1.00  0.00     0.117 C 
BRANCH  31  32
ATOM     32  C   UNL A   1      41.905  20.460  27.067  1.00  0.00     0.042 C 
BRANCH  32  33
ATOM     33  C   UNL A   1      40.852  21.403  27.631  1.00  0.00     0.118 C 
BRANCH  33  34
ATOM     34  N   UNL A   1      39.758  21.629  26.694  1.00  0.00    -0.352 N 
ATOM     35  C   UNL A   1      39.040  22.766  26.416  1.00  0.00     0.251 C 
ATOM     36  H   UNL A   1      39.489  20.836  26.177  1.00  0.00     0.163 HD
ATOM     37  O   UNL A   1      38.013  22.670  25.748  1.00  0.00    -0.269 OA
BRANCH  35  38
ATOM     38  C   UNL A   1      39.479  24.094  26.906  1.00  0.00     0.039 A 
ATOM     39  C   UNL A   1      39.259  24.423  28.248  1.00  0.00     0.014 A 
ATOM     40  C   UNL A   1      40.052  25.037  26.050  1.00  0.00     0.014 A 
ATOM     41  C   UNL A   1      39.658  25.671  28.737  1.00  0.00     0.010 A 
ATOM     42  C   UNL A   1      40.529  26.243  26.557  1.00  0.00     0.010 A 
ATOM     43  C   UNL A   1      40.323  26.582  27.902  1.00  0.00    -0.014 A 
BRANCH  43  44
ATOM     44  C   UNL A   1      40.803  27.894  28.409  1.00  0.00     0.031 A 
ATOM     45  C   UNL A   1      39.818  28.922  28.904  1.00  0.00     0.074 A 
ATOM     46  C   UNL A   1      42.115  28.194  28.342  1.00  0.00     0.049 A 
ATOM     47  N   UNL A   1      40.038  30.141  29.324  1.00  0.00    -0.248 NA
ATOM     48  C   UNL A   1      38.395  28.542  28.900  1.00  0.00     0.031 C 
ATOM     49  C   UNL A   1      43.157  27.315  27.806  1.00  0.00     0.029 A 
ATOM     50  N   UNL A   1      42.794  29.332  28.698  1.00  0.00    -0.354 N 
ATOM     51  C   UNL A   1      38.788  30.685  29.590  1.00  0.00     0.074 A 
ATOM     52  C   UNL A   1      37.808  29.676  29.256  1.00  0.00     0.031 C 
ATOM     53  C   UNL A   1      44.340  27.945  27.867  1.00  0.00     0.029 A 
ATOM     54  C   UNL A   1      44.141  29.282  28.418  1.00  0.00     0.049 A 
ATOM     55  H   UNL A   1      42.359  30.112  29.114  1.00  0.00     0.167 HD
ATOM     56  C   UNL A   1      38.481  31.906  30.093  1.00  0.00     0.034 A 
ATOM     57  C   UNL A   1      45.104  30.209  28.578  1.00  0.00     0.034 A 
ATOM     58  C   UNL A   1      39.462  32.887  30.471  1.00  0.00     0.049 A 
ATOM     59  C   UNL A   1      44.744  31.535  29.192  1.00  0.00     0.074 A 
ATOM     60  C   UNL A   1      39.261  34.112  31.082  1.00  0.00     0.029 A 
ATOM     61  N   UNL A   1      40.827  32.760  30.267  1.00  0.00    -0.354 N 
ATOM     62  N   UNL A   1      43.574  31.967  29.596  1.00  0.00    -0.248 NA
ATOM     63  C   UNL A   1      45.842  32.488  29.412  1.00  0.00     0.031 C 
ATOM     64  C   UNL A   1      40.505  34.736  31.226  1.00  0.00     0.029 A 
ATOM     65  C   UNL A   1      41.482  33.888  30.731  1.00  0.00     0.049 A 
ATOM     66  H   UNL A   1      41.267  31.982  29.853  1.00  0.00     0.167 HD
ATOM     67  C   UNL A   1      43.798  33.224  30.146  1.00  0.00     0.074 A 
ATOM     68  C   UNL A   1      45.221  33.474  30.047  1.00  0.00     0.031 C 
ATOM     69  C   UNL A   1      42.906  34.099  30.674  1.00  0.00     0.034 A 
BRANCH  56  70
ATOM     70  C   UNL A   1      37.026  32.229  30.320  1.00  0.00     0.023 A 
ATOM     71  C   UNL A   1      36.461  32.036  31.597  1.00  0.00     0.012 A 
ATOM     72  C   UNL A   1      36.236  32.780  29.292  1.00  0.00     0.148 A 
ATOM     73  C   UNL A   1      35.124  32.352  31.839  1.00  0.00     0.002 A 
ATOM     74  C   UNL A   1      34.917  33.137  29.553  1.00  0.00     0.091 A 
ATOM     75  F   UNL A   1      36.784  32.939  28.078  1.00  0.00    -0.205 F 
ATOM     76  C   UNL A   1      34.357  32.912  30.821  1.00  0.00     0.022 A 
BRANCH  74  77
ATOM     77  S   UNL A   1      33.869  33.940  28.335  1.00  0.00     0.127 S 
ATOM     78  O   UNL A   1      33.116  32.807  27.801  1.00  0.00    -0.237 OA
ATOM     79  O   UNL A   1      33.085  34.857  29.162  1.00  0.00    -0.237 OA
ATOM     80  O   UNL A   1      34.770  34.590  27.394  1.00  0.00    -0.744 OA
ENDBRANCH  74  77
ENDBRANCH  56  70
BRANCH  57  81
ATOM     81  C   UNL A   1      46.516  29.888  28.217  1.00  0.00     0.023 A 
ATOM     82  C   UNL A   1      46.932  30.022  26.879  1.00  0.00     0.012 A 
ATOM     83  C   UNL A   1      47.453  29.481  29.189  1.00  0.00     0.148 A 
ATOM     84  C   UNL A   1      48.244  29.725  26.507  1.00  0.00     0.002 A 
ATOM     85  C   UNL A   1      48.772  29.239  28.822  1.00  0.00     0.091 A 
ATOM     86  F   UNL A   1      47.037  29.354  30.457  1.00  0.00    -0.205 F 
ATOM     87  C   UNL A   1      49.165  29.343  27.478  1.00  0.00     0.022 A 
BRANCH  85  88
ATOM     88  S   UNL A   1      50.059  28.859  30.016  1.00  0.00     0.127 S 
ATOM     89  O   UNL A   1      51.233  28.717  29.159  1.00  0.00    -0.237 OA
ATOM     90  O   UNL A   1      50.053  30.055  30.860  1.00  0.00    -0.237 OA
ATOM     91  O   UNL A   1      49.630  27.645  30.695  1.00  0.00    -0.744 OA
ENDBRANCH  85  88
ENDBRANCH  57  81
BRANCH  69  92
ATOM     92  C   UNL A   1      43.438  35.398  31.220  1.00  0.00     0.023 A 
ATOM     93  C   UNL A   1      43.578  36.512  30.368  1.00  0.00     0.012 A 
ATOM     94  C   UNL A   1      43.723  35.537  32.593  1.00  0.00     0.148 A 
ATOM     95  C   UNL A   1      44.025  37.734  30.868  1.00  0.00     0.002 A 
ATOM     96  C   UNL A   1      44.120  36.771  33.092  1.00  0.00     0.091 A 
ATOM     97  F   UNL A   1      43.601  34.461  33.383  1.00  0.00    -0.205 F 
ATOM     98  C   UNL A   1      44.284  37.867  32.230  1.00  0.00     0.022 A 
BRANCH  96  99
ATOM     99  S   UNL A   1      44.380  37.061  34.847  1.00  0.00     0.127 S 
ATOM    100  O   UNL A   1      45.422  36.084  35.158  1.00  0.00    -0.237 OA
ATOM    101  O   UNL A   1      44.824  38.455  34.868  1.00  0.00    -0.237 OA
ATOM    102  O   UNL A   1      43.092  36.828  35.486  1.00  0.00    -0.744 OA
ENDBRANCH  96  99
ENDBRANCH  69  92
ENDBRANCH  43  44
ENDBRANCH  35  38
ENDBRANCH  33  34
ENDBRANCH  32  33
ENDBRANCH  31  32
ENDBRANCH  29  31
ENDBRANCH   1  27
TORSDOF 22
ENDMDL
