MODEL 1
REMARK VINA RESULT:     -14.2      0.000      0.000
REMARK SMILES Cc1ccccc1-c1c(Cl)ccc2c1C=C(C(=O)NCCCNC(=O)c1ccc(-c3c4nc(c(-c5cccc(S(=O)(=O)[O-])c5F)c5ccc([nH]5)c(-c5cccc(S(=O)(=O)[O-])c5F)c5nc(c(-c6cccc(S(=O)(=O)[O-])c6F)c6ccc3[nH]6)C=C5)C=C4)cc1)[C@@H](C(F)(F)F)O2
REMARK SMILES IDX 22 1 21 2 20 3 19 4 17 5 18 6 16 8 8 9 9 10 14 11 10 12
REMARK SMILES IDX 11 13 13 14 15 15 12 16 94 17 89 18 7 19 1 20 2 21 3 22 4 23
REMARK SMILES IDX 6 24 5 25 90 26 91 27 92 28 93 29 23 30 24 31 25 33 26 34
REMARK SMILES IDX 27 35 88 36 28 37 87 38 29 39 30 40 31 41 81 42 32 43 86 44
REMARK SMILES IDX 80 45 82 46 33 47 85 48 79 49 78 50 34 52 66 53 46 54 65 55
REMARK SMILES IDX 47 56 50 57 64 58 83 59 48 60 49 61 63 63 84 64 51 65 35 66
REMARK SMILES IDX 36 67 44 68 37 69 39 70 45 71 38 72 40 73 41 74 42 75 43 76
REMARK SMILES IDX 67 77 68 78 76 79 69 80 71 81 77 82 70 83 72 84 73 85 74 86
REMARK SMILES IDX 75 87 52 88 53 89 61 90 54 91 56 92 62 93 55 94 57 95 58 96
REMARK SMILES IDX 59 97 60 98
REMARK H PARENT 19 7 23 32 82 51 50 62
REMARK Flexibility Score: inf
ROOT
ATOM      1  C   UNL A   1      34.471  30.479  27.290  1.00  0.00     0.118 C 
ENDROOT
BRANCH   1   2
ATOM      2  C   UNL A   1      33.011  30.880  27.406  1.00  0.00     0.042 C 
BRANCH   2   3
ATOM      3  C   UNL A   1      32.121  30.071  26.482  1.00  0.00     0.118 C 
BRANCH   3   4
ATOM      4  N   UNL A   1      31.858  28.738  26.994  1.00  0.00    -0.352 N 
ATOM      5  C   UNL A   1      32.113  27.509  26.469  1.00  0.00     0.251 C 
ATOM      6  O   UNL A   1      31.698  26.520  27.071  1.00  0.00    -0.270 OA
ATOM      7  H   UNL A   1      31.417  28.720  27.874  1.00  0.00     0.163 HD
BRANCH   5   8
ATOM      8  C   UNL A   1      32.850  27.355  25.161  1.00  0.00     0.067 C 
ATOM      9  C   UNL A   1      33.132  23.761  24.278  1.00  0.00     0.012 A 
ATOM     10  C   UNL A   1      32.204  22.796  23.821  1.00  0.00     0.049 A 
ATOM     11  C   UNL A   1      32.696  25.113  24.307  1.00  0.00     0.027 A 
ATOM     12  Cl  UNL A   1      32.573  21.100  23.815  1.00  0.00    -0.084 Cl
ATOM     13  C   UNL A   1      30.939  23.162  23.345  1.00  0.00     0.025 A 
ATOM     14  C   UNL A   1      31.457  25.474  23.741  1.00  0.00     0.128 A 
ATOM     15  C   UNL A   1      33.476  26.174  24.980  1.00  0.00     0.026 C 
ATOM     16  C   UNL A   1      30.579  24.503  23.276  1.00  0.00     0.049 A 
ATOM     17  O   UNL A   1      31.026  26.771  23.606  1.00  0.00    -0.475 OA
ATOM     18  C   UNL A   1      31.959  27.807  24.008  1.00  0.00     0.314 C 
BRANCH   9  19
ATOM     19  C   UNL A   1      34.544  23.388  24.558  1.00  0.00    -0.013 A 
ATOM     20  C   UNL A   1      34.243  22.973  27.080  1.00  0.00     0.045 C 
ATOM     21  C   UNL A   1      35.069  23.074  25.829  1.00  0.00    -0.043 A 
ATOM     22  C   UNL A   1      36.443  22.778  25.960  1.00  0.00     0.004 A 
ATOM     23  C   UNL A   1      37.291  22.758  24.855  1.00  0.00     0.000 A 
ATOM     24  C   UNL A   1      35.432  23.363  23.456  1.00  0.00     0.009 A 
ATOM     25  C   UNL A   1      36.782  23.039  23.598  1.00  0.00     0.001 A 
ENDBRANCH   9  19
BRANCH  18  26
ATOM     26  C   UNL A   1      32.781  28.321  22.817  1.00  0.00     0.429 C 
ATOM     27  F   UNL A   1      32.128  29.298  22.142  1.00  0.00    -0.167 F 
ATOM     28  F   UNL A   1      33.961  28.854  23.227  1.00  0.00    -0.167 F 
ATOM     29  F   UNL A   1      33.079  27.350  21.922  1.00  0.00    -0.167 F 
ENDBRANCH  18  26
ENDBRANCH   5   8
ENDBRANCH   3   4
ENDBRANCH   2   3
ENDBRANCH   1   2
BRANCH   1  30
ATOM     30  N   UNL A   1      35.405  31.515  27.713  1.00  0.00    -0.352 N 
ATOM     31  C   UNL A   1      36.654  31.382  28.301  1.00  0.00     0.251 C 
ATOM     32  H   UNL A   1      35.108  32.441  27.559  1.00  0.00     0.163 HD
ATOM     33  O   UNL A   1      37.214  32.384  28.739  1.00  0.00    -0.269 OA
BRANCH  31  34
ATOM     34  C   UNL A   1      37.339  30.067  28.274  1.00  0.00     0.039 A 
ATOM     35  C   UNL A   1      37.345  29.301  29.446  1.00  0.00     0.014 A 
ATOM     36  C   UNL A   1      38.170  29.719  27.215  1.00  0.00     0.014 A 
ATOM     37  C   UNL A   1      38.373  28.387  29.662  1.00  0.00     0.010 A 
ATOM     38  C   UNL A   1      39.248  28.903  27.462  1.00  0.00     0.010 A 
ATOM     39  C   UNL A   1      39.385  28.299  28.714  1.00  0.00    -0.014 A 
BRANCH  39  40
ATOM     40  C   UNL A   1      40.648  27.610  28.905  1.00  0.00     0.031 A 
ATOM     41  C   UNL A   1      40.718  26.158  28.704  1.00  0.00     0.074 A 
ATOM     42  C   UNL A   1      41.766  28.357  29.029  1.00  0.00     0.049 A 
ATOM     43  N   UNL A   1      41.692  25.413  29.091  1.00  0.00    -0.248 NA
ATOM     44  C   UNL A   1      39.638  25.427  28.060  1.00  0.00     0.031 C 
ATOM     45  C   UNL A   1      43.145  27.946  28.814  1.00  0.00     0.029 A 
ATOM     46  N   UNL A   1      41.870  29.634  29.585  1.00  0.00    -0.354 N 
ATOM     47  C   UNL A   1      41.527  24.185  28.484  1.00  0.00     0.074 A 
ATOM     48  C   UNL A   1      40.182  24.213  27.963  1.00  0.00     0.031 C 
ATOM     49  C   UNL A   1      43.952  28.797  29.467  1.00  0.00     0.029 A 
ATOM     50  C   UNL A   1      43.100  29.660  30.268  1.00  0.00     0.049 A 
ATOM     51  H   UNL A   1      41.217  30.367  29.514  1.00  0.00     0.167 HD
ATOM     52  C   UNL A   1      42.616  23.373  28.351  1.00  0.00     0.034 A 
ATOM     53  C   UNL A   1      43.197  29.847  31.619  1.00  0.00     0.034 A 
ATOM     54  C   UNL A   1      43.767  23.927  29.092  1.00  0.00     0.049 A 
ATOM     55  C   UNL A   1      43.848  28.667  32.324  1.00  0.00     0.074 A 
ATOM     56  C   UNL A   1      44.879  24.658  28.703  1.00  0.00     0.029 A 
ATOM     57  N   UNL A   1      43.703  24.033  30.480  1.00  0.00    -0.354 N 
ATOM     58  N   UNL A   1      44.174  27.546  31.737  1.00  0.00    -0.248 NA
ATOM     59  C   UNL A   1      44.143  28.640  33.755  1.00  0.00     0.031 C 
ATOM     60  C   UNL A   1      45.406  25.304  29.856  1.00  0.00     0.029 A 
ATOM     61  C   UNL A   1      44.643  24.938  30.953  1.00  0.00     0.049 A 
ATOM     62  H   UNL A   1      43.074  23.532  31.050  1.00  0.00     0.167 HD
ATOM     63  C   UNL A   1      44.541  26.619  32.675  1.00  0.00     0.074 A 
ATOM     64  C   UNL A   1      44.601  27.385  33.910  1.00  0.00     0.031 C 
ATOM     65  C   UNL A   1      44.686  25.289  32.374  1.00  0.00     0.034 A 
BRANCH  52  66
ATOM     66  C   UNL A   1      42.758  22.266  27.305  1.00  0.00     0.023 A 
ATOM     67  C   UNL A   1      42.063  21.057  27.547  1.00  0.00     0.012 A 
ATOM     68  C   UNL A   1      43.580  22.268  26.151  1.00  0.00     0.148 A 
ATOM     69  C   UNL A   1      42.242  19.909  26.764  1.00  0.00     0.002 A 
ATOM     70  C   UNL A   1      43.803  21.109  25.399  1.00  0.00     0.091 A 
ATOM     71  F   UNL A   1      44.102  23.407  25.703  1.00  0.00    -0.205 F 
ATOM     72  C   UNL A   1      43.138  19.923  25.708  1.00  0.00     0.022 A 
BRANCH  70  73
ATOM     73  S   UNL A   1      44.990  21.048  24.040  1.00  0.00     0.127 S 
ATOM     74  O   UNL A   1      46.265  21.226  24.738  1.00  0.00    -0.237 OA
ATOM     75  O   UNL A   1      44.776  19.707  23.498  1.00  0.00    -0.237 OA
ATOM     76  O   UNL A   1      44.645  22.145  23.143  1.00  0.00    -0.744 OA
ENDBRANCH  70  73
ENDBRANCH  52  66
BRANCH  53  77
ATOM     77  C   UNL A   1      42.088  30.689  32.170  1.00  0.00     0.023 A 
ATOM     78  C   UNL A   1      41.943  31.982  31.604  1.00  0.00     0.012 A 
ATOM     79  C   UNL A   1      40.988  30.114  32.826  1.00  0.00     0.148 A 
ATOM     80  C   UNL A   1      40.688  32.584  31.508  1.00  0.00     0.002 A 
ATOM     81  C   UNL A   1      39.741  30.736  32.749  1.00  0.00     0.091 A 
ATOM     82  F   UNL A   1      41.143  28.934  33.439  1.00  0.00    -0.205 F 
ATOM     83  C   UNL A   1      39.578  31.937  32.039  1.00  0.00     0.022 A 
BRANCH  81  84
ATOM     84  S   UNL A   1      38.283  29.956  33.454  1.00  0.00     0.127 S 
ATOM     85  O   UNL A   1      38.526  30.119  34.884  1.00  0.00    -0.237 OA
ATOM     86  O   UNL A   1      37.191  30.769  32.922  1.00  0.00    -0.237 OA
ATOM     87  O   UNL A   1      38.319  28.595  32.938  1.00  0.00    -0.744 OA
ENDBRANCH  81  84
ENDBRANCH  53  77
BRANCH  65  88
ATOM     88  C   UNL A   1      44.862  24.190  33.408  1.00  0.00     0.023 A 
ATOM     89  C   UNL A   1      43.848  23.254  33.690  1.00  0.00     0.012 A 
ATOM     90  C   UNL A   1      46.117  23.977  34.035  1.00  0.00     0.148 A 
ATOM     91  C   UNL A   1      44.032  22.216  34.611  1.00  0.00     0.002 A 
ATOM     92  C   UNL A   1      46.329  22.874  34.859  1.00  0.00     0.091 A 
ATOM     93  F   UNL A   1      47.113  24.856  33.850  1.00  0.00    -0.205 F 
ATOM     94  C   UNL A   1      45.278  22.014  35.182  1.00  0.00     0.022 A 
BRANCH  92  95
ATOM     95  S   UNL A   1      47.987  22.431  35.398  1.00  0.00     0.127 S 
ATOM     96  O   UNL A   1      48.211  23.366  36.499  1.00  0.00    -0.237 OA
ATOM     97  O   UNL A   1      47.826  21.034  35.810  1.00  0.00    -0.237 OA
ATOM     98  O   UNL A   1      48.825  22.608  34.220  1.00  0.00    -0.744 OA
ENDBRANCH  92  95
ENDBRANCH  65  88
ENDBRANCH  39  40
ENDBRANCH  31  34
ENDBRANCH   1  30
TORSDOF 15
ENDMDL
MODEL 2
REMARK VINA RESULT:     -14.1      4.396     10.311
REMARK SMILES Cc1ccccc1-c1c(Cl)ccc2c1C=C(C(=O)NCCCNC(=O)c1ccc(-c3c4nc(c(-c5cccc(S(=O)(=O)[O-])c5F)c5ccc([nH]5)c(-c5cccc(S(=O)(=O)[O-])c5F)c5nc(c(-c6cccc(S(=O)(=O)[O-])c6F)c6ccc3[nH]6)C=C5)C=C4)cc1)[C@@H](C(F)(F)F)O2
REMARK SMILES IDX 22 1 21 2 20 3 19 4 17 5 18 6 16 8 8 9 9 10 14 11 10 12
REMARK SMILES IDX 11 13 13 14 15 15 12 16 94 17 89 18 7 19 1 20 2 21 3 22 4 23
REMARK SMILES IDX 6 24 5 25 90 26 91 27 92 28 93 29 23 30 24 31 25 33 26 34
REMARK SMILES IDX 27 35 88 36 28 37 87 38 29 39 30 40 31 41 81 42 32 43 86 44
REMARK SMILES IDX 80 45 82 46 33 47 85 48 79 49 78 50 34 52 66 53 46 54 65 55
REMARK SMILES IDX 47 56 50 57 64 58 83 59 48 60 49 61 63 63 84 64 51 65 35 66
REMARK SMILES IDX 36 67 44 68 37 69 39 70 45 71 38 72 40 73 41 74 42 75 43 76
REMARK SMILES IDX 67 77 68 78 76 79 69 80 71 81 77 82 70 83 72 84 73 85 74 86
REMARK SMILES IDX 75 87 52 88 53 89 61 90 54 91 56 92 62 93 55 94 57 95 58 96
REMARK SMILES IDX 59 97 60 98
REMARK H PARENT 19 7 23 32 82 51 50 62
REMARK Flexibility Score: inf
ROOT
ATOM      1  C   UNL A   1      38.531  22.864  26.299  1.00  0.00     0.118 C 
ENDROOT
BRANCH   1   2
ATOM      2  C   UNL A   1      38.356  21.671  25.377  1.00  0.00     0.042 C 
BRANCH   2   3
ATOM      3  C   UNL A   1      36.907  21.463  24.979  1.00  0.00     0.118 C 
BRANCH   3   4
ATOM      4  N   UNL A   1      36.448  22.452  24.020  1.00  0.00    -0.352 N 
ATOM      5  C   UNL A   1      35.432  23.354  24.078  1.00  0.00     0.251 C 
ATOM      6  O   UNL A   1      35.189  24.024  23.076  1.00  0.00    -0.270 OA
ATOM      7  H   UNL A   1      36.962  22.473  23.180  1.00  0.00     0.163 HD
BRANCH   5   8
ATOM      8  C   UNL A   1      34.591  23.505  25.322  1.00  0.00     0.067 C 
ATOM      9  C   UNL A   1      31.985  26.092  24.786  1.00  0.00     0.012 A 
ATOM     10  C   UNL A   1      30.792  26.129  24.026  1.00  0.00     0.049 A 
ATOM     11  C   UNL A   1      32.628  24.833  24.918  1.00  0.00     0.027 A 
ATOM     12  Cl  UNL A   1      29.950  27.614  23.712  1.00  0.00    -0.084 Cl
ATOM     13  C   UNL A   1      30.226  24.965  23.491  1.00  0.00     0.025 A 
ATOM     14  C   UNL A   1      32.000  23.661  24.453  1.00  0.00     0.128 A 
ATOM     15  C   UNL A   1      33.991  24.702  25.478  1.00  0.00     0.026 C 
ATOM     16  C   UNL A   1      30.814  23.728  23.733  1.00  0.00     0.049 A 
ATOM     17  O   UNL A   1      32.489  22.394  24.664  1.00  0.00    -0.475 OA
ATOM     18  C   UNL A   1      33.682  22.291  25.484  1.00  0.00     0.314 C 
BRANCH   9  19
ATOM     19  C   UNL A   1      32.446  27.289  25.540  1.00  0.00    -0.013 A 
ATOM     20  C   UNL A   1      34.027  28.190  23.721  1.00  0.00     0.045 C 
ATOM     21  C   UNL A   1      33.403  28.220  25.087  1.00  0.00    -0.043 A 
ATOM     22  C   UNL A   1      33.782  29.291  25.925  1.00  0.00     0.004 A 
ATOM     23  C   UNL A   1      33.207  29.470  27.181  1.00  0.00     0.000 A 
ATOM     24  C   UNL A   1      31.883  27.496  26.822  1.00  0.00     0.009 A 
ATOM     25  C   UNL A   1      32.246  28.577  27.626  1.00  0.00     0.001 A 
ENDBRANCH   9  19
BRANCH  18  26
ATOM     26  C   UNL A   1      33.335  22.029  26.957  1.00  0.00     0.429 C 
ATOM     27  F   UNL A   1      34.233  22.604  27.794  1.00  0.00    -0.167 F 
ATOM     28  F   UNL A   1      32.120  22.544  27.275  1.00  0.00    -0.167 F 
ATOM     29  F   UNL A   1      33.294  20.710  27.264  1.00  0.00    -0.167 F 
ENDBRANCH  18  26
ENDBRANCH   5   8
ENDBRANCH   3   4
ENDBRANCH   2   3
ENDBRANCH   1   2
BRANCH   1  30
ATOM     30  N   UNL A   1      39.744  22.817  27.106  1.00  0.00    -0.352 N 
ATOM     31  C   UNL A   1      40.477  23.861  27.648  1.00  0.00     0.251 C 
ATOM     32  H   UNL A   1      40.093  21.915  27.293  1.00  0.00     0.163 HD
ATOM     33  O   UNL A   1      41.569  23.620  28.157  1.00  0.00    -0.269 OA
BRANCH  31  34
ATOM     34  C   UNL A   1      39.878  25.216  27.720  1.00  0.00     0.039 A 
ATOM     35  C   UNL A   1      40.366  26.201  26.854  1.00  0.00     0.014 A 
ATOM     36  C   UNL A   1      39.052  25.574  28.780  1.00  0.00     0.014 A 
ATOM     37  C   UNL A   1      40.269  27.542  27.216  1.00  0.00     0.010 A 
ATOM     38  C   UNL A   1      39.047  26.882  29.202  1.00  0.00     0.010 A 
ATOM     39  C   UNL A   1      39.722  27.851  28.456  1.00  0.00    -0.014 A 
BRANCH  39  40
ATOM     40  C   UNL A   1      39.791  29.151  29.096  1.00  0.00     0.031 A 
ATOM     41  C   UNL A   1      38.810  30.184  28.744  1.00  0.00     0.074 A 
ATOM     42  C   UNL A   1      40.606  29.290  30.163  1.00  0.00     0.049 A 
ATOM     43  N   UNL A   1      38.924  31.431  29.039  1.00  0.00    -0.248 NA
ATOM     44  C   UNL A   1      37.612  29.867  27.983  1.00  0.00     0.031 C 
ATOM     45  C   UNL A   1      40.552  30.305  31.204  1.00  0.00     0.029 A 
ATOM     46  N   UNL A   1      41.805  28.614  30.404  1.00  0.00    -0.354 N 
ATOM     47  C   UNL A   1      37.699  32.017  28.795  1.00  0.00     0.074 A 
ATOM     48  C   UNL A   1      36.970  31.035  28.030  1.00  0.00     0.031 C 
ATOM     49  C   UNL A   1      41.758  30.382  31.791  1.00  0.00     0.029 A 
ATOM     50  C   UNL A   1      42.661  29.549  31.014  1.00  0.00     0.049 A 
ATOM     51  H   UNL A   1      42.009  27.675  30.191  1.00  0.00     0.167 HD
ATOM     52  C   UNL A   1      37.402  33.190  29.426  1.00  0.00     0.034 A 
ATOM     53  C   UNL A   1      43.838  29.958  30.452  1.00  0.00     0.034 A 
ATOM     54  C   UNL A   1      38.590  33.713  30.130  1.00  0.00     0.049 A 
ATOM     55  C   UNL A   1      43.863  31.453  30.175  1.00  0.00     0.074 A 
ATOM     56  C   UNL A   1      38.997  33.675  31.454  1.00  0.00     0.029 A 
ATOM     57  N   UNL A   1      39.708  34.102  29.394  1.00  0.00    -0.354 N 
ATOM     58  N   UNL A   1      42.841  32.250  30.341  1.00  0.00    -0.248 NA
ATOM     59  C   UNL A   1      45.029  32.161  29.651  1.00  0.00     0.031 C 
ATOM     60  C   UNL A   1      40.398  33.922  31.491  1.00  0.00     0.029 A 
ATOM     61  C   UNL A   1      40.839  34.150  30.198  1.00  0.00     0.049 A 
ATOM     62  H   UNL A   1      39.697  34.315  28.433  1.00  0.00     0.167 HD
ATOM     63  C   UNL A   1      43.121  33.482  29.812  1.00  0.00     0.074 A 
ATOM     64  C   UNL A   1      44.536  33.402  29.485  1.00  0.00     0.031 C 
ATOM     65  C   UNL A   1      42.152  34.431  29.614  1.00  0.00     0.034 A 
BRANCH  52  66
ATOM     66  C   UNL A   1      35.986  33.705  29.692  1.00  0.00     0.023 A 
ATOM     67  C   UNL A   1      35.271  34.224  28.587  1.00  0.00     0.012 A 
ATOM     68  C   UNL A   1      35.325  33.808  30.941  1.00  0.00     0.148 A 
ATOM     69  C   UNL A   1      34.041  34.882  28.721  1.00  0.00     0.002 A 
ATOM     70  C   UNL A   1      34.123  34.511  31.086  1.00  0.00     0.091 A 
ATOM     71  F   UNL A   1      35.797  33.161  32.004  1.00  0.00    -0.205 F 
ATOM     72  C   UNL A   1      33.480  35.056  29.976  1.00  0.00     0.022 A 
BRANCH  70  73
ATOM     73  S   UNL A   1      33.365  34.811  32.697  1.00  0.00     0.127 S 
ATOM     74  O   UNL A   1      33.276  33.458  33.252  1.00  0.00    -0.237 OA
ATOM     75  O   UNL A   1      34.350  35.672  33.350  1.00  0.00    -0.237 OA
ATOM     76  O   UNL A   1      32.072  35.432  32.435  1.00  0.00    -0.744 OA
ENDBRANCH  70  73
ENDBRANCH  52  66
BRANCH  53  77
ATOM     77  C   UNL A   1      44.471  28.902  29.598  1.00  0.00     0.023 A 
ATOM     78  C   UNL A   1      44.797  27.684  30.247  1.00  0.00     0.012 A 
ATOM     79  C   UNL A   1      44.322  28.903  28.201  1.00  0.00     0.148 A 
ATOM     80  C   UNL A   1      44.760  26.473  29.555  1.00  0.00     0.002 A 
ATOM     81  C   UNL A   1      44.315  27.689  27.512  1.00  0.00     0.091 A 
ATOM     82  F   UNL A   1      44.103  30.064  27.573  1.00  0.00    -0.205 F 
ATOM     83  C   UNL A   1      44.472  26.472  28.195  1.00  0.00     0.022 A 
BRANCH  81  84
ATOM     84  S   UNL A   1      43.983  27.642  25.746  1.00  0.00     0.127 S 
ATOM     85  O   UNL A   1      45.271  28.050  25.195  1.00  0.00    -0.237 OA
ATOM     86  O   UNL A   1      43.636  26.239  25.520  1.00  0.00    -0.237 OA
ATOM     87  O   UNL A   1      42.873  28.566  25.565  1.00  0.00    -0.744 OA
ENDBRANCH  81  84
ENDBRANCH  53  77
BRANCH  65  88
ATOM     88  C   UNL A   1      42.357  35.714  28.827  1.00  0.00     0.023 A 
ATOM     89  C   UNL A   1      41.746  35.934  27.576  1.00  0.00     0.012 A 
ATOM     90  C   UNL A   1      43.066  36.807  29.389  1.00  0.00     0.148 A 
ATOM     91  C   UNL A   1      41.902  37.136  26.875  1.00  0.00     0.002 A 
ATOM     92  C   UNL A   1      43.118  38.039  28.741  1.00  0.00     0.091 A 
ATOM     93  F   UNL A   1      43.713  36.654  30.554  1.00  0.00    -0.205 F 
ATOM     94  C   UNL A   1      42.573  38.196  27.465  1.00  0.00     0.022 A 
BRANCH  92  95
ATOM     95  S   UNL A   1      43.741  39.500  29.585  1.00  0.00     0.127 S 
ATOM     96  O   UNL A   1      45.175  39.228  29.651  1.00  0.00    -0.237 OA
ATOM     97  O   UNL A   1      43.368  40.581  28.669  1.00  0.00    -0.237 OA
ATOM     98  O   UNL A   1      43.030  39.530  30.856  1.00  0.00    -0.744 OA
ENDBRANCH  92  95
ENDBRANCH  65  88
ENDBRANCH  39  40
ENDBRANCH  31  34
ENDBRANCH   1  30
TORSDOF 15
ENDMDL
MODEL 3
REMARK VINA RESULT:     -13.7      4.373      9.629
REMARK SMILES Cc1ccccc1-c1c(Cl)ccc2c1C=C(C(=O)NCCCNC(=O)c1ccc(-c3c4nc(c(-c5cccc(S(=O)(=O)[O-])c5F)c5ccc([nH]5)c(-c5cccc(S(=O)(=O)[O-])c5F)c5nc(c(-c6cccc(S(=O)(=O)[O-])c6F)c6ccc3[nH]6)C=C5)C=C4)cc1)[C@@H](C(F)(F)F)O2
REMARK SMILES IDX 22 1 21 2 20 3 19 4 17 5 18 6 16 8 8 9 9 10 14 11 10 12
REMARK SMILES IDX 11 13 13 14 15 15 12 16 94 17 89 18 7 19 1 20 2 21 3 22 4 23
REMARK SMILES IDX 6 24 5 25 90 26 91 27 92 28 93 29 23 30 24 31 25 33 26 34
REMARK SMILES IDX 27 35 88 36 28 37 87 38 29 39 30 40 31 41 81 42 32 43 86 44
REMARK SMILES IDX 80 45 82 46 33 47 85 48 79 49 78 50 34 52 66 53 46 54 65 55
REMARK SMILES IDX 47 56 50 57 64 58 83 59 48 60 49 61 63 63 84 64 51 65 35 66
REMARK SMILES IDX 36 67 44 68 37 69 39 70 45 71 38 72 40 73 41 74 42 75 43 76
REMARK SMILES IDX 67 77 68 78 76 79 69 80 71 81 77 82 70 83 72 84 73 85 74 86
REMARK SMILES IDX 75 87 52 88 53 89 61 90 54 91 56 92 62 93 55 94 57 95 58 96
REMARK SMILES IDX 59 97 60 98
REMARK H PARENT 19 7 23 32 82 51 50 62
REMARK Flexibility Score: inf
ROOT
ATOM      1  C   UNL A   1      38.624  22.389  25.734  1.00  0.00     0.118 C 
ENDROOT
BRANCH   1   2
ATOM      2  C   UNL A   1      38.058  21.075  25.225  1.00  0.00     0.042 C 
BRANCH   2   3
ATOM      3  C   UNL A   1      36.578  21.174  24.906  1.00  0.00     0.118 C 
BRANCH   3   4
ATOM      4  N   UNL A   1      36.276  22.282  24.017  1.00  0.00    -0.352 N 
ATOM      5  C   UNL A   1      35.384  23.302  24.128  1.00  0.00     0.251 C 
ATOM      6  O   UNL A   1      35.255  24.070  23.175  1.00  0.00    -0.270 OA
ATOM      7  H   UNL A   1      36.809  22.297  23.190  1.00  0.00     0.163 HD
BRANCH   5   8
ATOM      8  C   UNL A   1      34.538  23.472  25.366  1.00  0.00     0.067 C 
ATOM      9  C   UNL A   1      31.956  26.076  24.794  1.00  0.00     0.012 A 
ATOM     10  C   UNL A   1      30.767  26.116  24.029  1.00  0.00     0.049 A 
ATOM     11  C   UNL A   1      32.588  24.813  24.941  1.00  0.00     0.027 A 
ATOM     12  Cl  UNL A   1      29.939  27.604  23.696  1.00  0.00    -0.084 Cl
ATOM     13  C   UNL A   1      30.194  24.951  23.502  1.00  0.00     0.025 A 
ATOM     14  C   UNL A   1      31.952  23.641  24.484  1.00  0.00     0.128 A 
ATOM     15  C   UNL A   1      33.947  24.676  25.508  1.00  0.00     0.026 C 
ATOM     16  C   UNL A   1      30.771  23.712  23.757  1.00  0.00     0.049 A 
ATOM     17  O   UNL A   1      32.430  22.373  24.709  1.00  0.00    -0.475 OA
ATOM     18  C   UNL A   1      33.618  22.268  25.536  1.00  0.00     0.314 C 
BRANCH   9  19
ATOM     19  C   UNL A   1      32.423  27.276  25.539  1.00  0.00    -0.013 A 
ATOM     20  C   UNL A   1      33.992  28.167  23.704  1.00  0.00     0.045 C 
ATOM     21  C   UNL A   1      33.377  28.204  25.075  1.00  0.00    -0.043 A 
ATOM     22  C   UNL A   1      33.764  29.279  25.905  1.00  0.00     0.004 A 
ATOM     23  C   UNL A   1      33.198  29.464  27.165  1.00  0.00     0.000 A 
ATOM     24  C   UNL A   1      31.870  27.489  26.825  1.00  0.00     0.009 A 
ATOM     25  C   UNL A   1      32.240  28.573  27.621  1.00  0.00     0.001 A 
ENDBRANCH   9  19
BRANCH  18  26
ATOM     26  C   UNL A   1      33.262  22.021  27.009  1.00  0.00     0.429 C 
ATOM     27  F   UNL A   1      34.119  22.658  27.844  1.00  0.00    -0.167 F 
ATOM     28  F   UNL A   1      32.020  22.485  27.299  1.00  0.00    -0.167 F 
ATOM     29  F   UNL A   1      33.280  20.710  27.345  1.00  0.00    -0.167 F 
ENDBRANCH  18  26
ENDBRANCH   5   8
ENDBRANCH   3   4
ENDBRANCH   2   3
ENDBRANCH   1   2
BRANCH   1  30
ATOM     30  N   UNL A   1      40.052  22.346  26.025  1.00  0.00    -0.352 N 
ATOM     31  C   UNL A   1      40.908  23.382  26.365  1.00  0.00     0.251 C 
ATOM     32  H   UNL A   1      40.467  21.455  25.974  1.00  0.00     0.163 HD
ATOM     33  O   UNL A   1      42.116  23.165  26.406  1.00  0.00    -0.269 OA
BRANCH  31  34
ATOM     34  C   UNL A   1      40.345  24.685  26.797  1.00  0.00     0.039 A 
ATOM     35  C   UNL A   1      40.807  25.845  26.164  1.00  0.00     0.014 A 
ATOM     36  C   UNL A   1      39.589  24.784  27.959  1.00  0.00     0.014 A 
ATOM     37  C   UNL A   1      40.762  27.061  26.843  1.00  0.00     0.010 A 
ATOM     38  C   UNL A   1      39.638  25.951  28.682  1.00  0.00     0.010 A 
ATOM     39  C   UNL A   1      40.293  27.066  28.151  1.00  0.00    -0.014 A 
BRANCH  39  40
ATOM     40  C   UNL A   1      40.428  28.172  29.080  1.00  0.00     0.031 A 
ATOM     41  C   UNL A   1      39.543  29.336  28.953  1.00  0.00     0.074 A 
ATOM     42  C   UNL A   1      41.201  27.993  30.173  1.00  0.00     0.049 A 
ATOM     43  N   UNL A   1      39.736  30.467  29.535  1.00  0.00    -0.248 NA
ATOM     44  C   UNL A   1      38.362  29.304  28.106  1.00  0.00     0.031 C 
ATOM     45  C   UNL A   1      41.174  28.741  31.420  1.00  0.00     0.029 A 
ATOM     46  N   UNL A   1      42.334  27.183  30.282  1.00  0.00    -0.354 N 
ATOM     47  C   UNL A   1      38.570  31.193  29.401  1.00  0.00     0.074 A 
ATOM     48  C   UNL A   1      37.807  30.478  28.408  1.00  0.00     0.031 C 
ATOM     49  C   UNL A   1      42.354  28.579  32.042  1.00  0.00     0.029 A 
ATOM     50  C   UNL A   1      43.228  27.878  31.117  1.00  0.00     0.049 A 
ATOM     51  H   UNL A   1      42.478  26.305  29.860  1.00  0.00     0.167 HD
ATOM     52  C   UNL A   1      38.331  32.209  30.281  1.00  0.00     0.034 A 
ATOM     53  C   UNL A   1      44.457  28.307  30.699  1.00  0.00     0.034 A 
ATOM     54  C   UNL A   1      39.521  32.455  31.120  1.00  0.00     0.049 A 
ATOM     55  C   UNL A   1      44.605  29.818  30.781  1.00  0.00     0.074 A 
ATOM     56  C   UNL A   1      39.863  32.078  32.410  1.00  0.00     0.029 A 
ATOM     57  N   UNL A   1      40.697  32.909  30.527  1.00  0.00    -0.354 N 
ATOM     58  N   UNL A   1      43.638  30.636  31.101  1.00  0.00    -0.248 NA
ATOM     59  C   UNL A   1      45.843  30.529  30.469  1.00  0.00     0.031 C 
ATOM     60  C   UNL A   1      41.275  32.193  32.542  1.00  0.00     0.029 A 
ATOM     61  C   UNL A   1      41.791  32.677  31.351  1.00  0.00     0.049 A 
ATOM     62  H   UNL A   1      40.746  33.340  29.642  1.00  0.00     0.167 HD
ATOM     63  C   UNL A   1      44.032  31.930  30.883  1.00  0.00     0.074 A 
ATOM     64  C   UNL A   1      45.451  31.811  30.585  1.00  0.00     0.031 C 
ATOM     65  C   UNL A   1      43.147  32.976  30.886  1.00  0.00     0.034 A 
BRANCH  52  66
ATOM     66  C   UNL A   1      36.947  32.763  30.620  1.00  0.00     0.023 A 
ATOM     67  C   UNL A   1      36.396  32.402  31.873  1.00  0.00     0.012 A 
ATOM     68  C   UNL A   1      36.098  33.534  29.788  1.00  0.00     0.148 A 
ATOM     69  C   UNL A   1      35.075  32.695  32.234  1.00  0.00     0.002 A 
ATOM     70  C   UNL A   1      34.761  33.783  30.122  1.00  0.00     0.091 A 
ATOM     71  F   UNL A   1      36.581  34.115  28.693  1.00  0.00    -0.205 F 
ATOM     72  C   UNL A   1      34.243  33.358  31.345  1.00  0.00     0.022 A 
BRANCH  70  73
ATOM     73  S   UNL A   1      33.616  34.601  28.992  1.00  0.00     0.127 S 
ATOM     74  O   UNL A   1      33.277  33.521  28.063  1.00  0.00    -0.237 OA
ATOM     75  O   UNL A   1      32.528  34.999  29.883  1.00  0.00    -0.237 OA
ATOM     76  O   UNL A   1      34.354  35.700  28.381  1.00  0.00    -0.744 OA
ENDBRANCH  70  73
ENDBRANCH  52  66
BRANCH  53  77
ATOM     77  C   UNL A   1      45.048  27.428  29.640  1.00  0.00     0.023 A 
ATOM     78  C   UNL A   1      45.287  26.079  30.006  1.00  0.00     0.012 A 
ATOM     79  C   UNL A   1      44.935  27.746  28.276  1.00  0.00     0.148 A 
ATOM     80  C   UNL A   1      45.198  25.055  29.062  1.00  0.00     0.002 A 
ATOM     81  C   UNL A   1      44.874  26.718  27.335  1.00  0.00     0.091 A 
ATOM     82  F   UNL A   1      44.799  29.029  27.919  1.00  0.00    -0.205 F 
ATOM     83  C   UNL A   1      44.944  25.372  27.733  1.00  0.00     0.022 A 
BRANCH  81  84
ATOM     84  S   UNL A   1      44.584  27.082  25.599  1.00  0.00     0.127 S 
ATOM     85  O   UNL A   1      45.937  27.361  25.127  1.00  0.00    -0.237 OA
ATOM     86  O   UNL A   1      44.007  25.835  25.099  1.00  0.00    -0.237 OA
ATOM     87  O   UNL A   1      43.656  28.203  25.617  1.00  0.00    -0.744 OA
ENDBRANCH  81  84
ENDBRANCH  53  77
BRANCH  65  88
ATOM     88  C   UNL A   1      43.482  34.384  30.427  1.00  0.00     0.023 A 
ATOM     89  C   UNL A   1      43.893  35.390  31.324  1.00  0.00     0.012 A 
ATOM     90  C   UNL A   1      43.528  34.707  29.046  1.00  0.00     0.148 A 
ATOM     91  C   UNL A   1      44.244  36.673  30.890  1.00  0.00     0.002 A 
ATOM     92  C   UNL A   1      43.991  35.948  28.614  1.00  0.00     0.091 A 
ATOM     93  F   UNL A   1      43.105  33.816  28.138  1.00  0.00    -0.205 F 
ATOM     94  C   UNL A   1      44.311  36.948  29.534  1.00  0.00     0.022 A 
BRANCH  92  95
ATOM     95  S   UNL A   1      44.344  36.247  26.876  1.00  0.00     0.127 S 
ATOM     96  O   UNL A   1      45.256  35.150  26.555  1.00  0.00    -0.237 OA
ATOM     97  O   UNL A   1      43.021  36.137  26.258  1.00  0.00    -0.237 OA
ATOM     98  O   UNL A   1      44.908  37.589  26.833  1.00  0.00    -0.744 OA
ENDBRANCH  92  95
ENDBRANCH  65  88
ENDBRANCH  39  40
ENDBRANCH  31  34
ENDBRANCH   1  30
TORSDOF 15
ENDMDL
