MODEL 1
REMARK VINA RESULT:     -12.3      0.000      0.000
REMARK SMILES Cc1nn(C(C)C)c(C)c1S(=O)(=O)Nc1cccc(C(=O)NCCCNC(=O)c2ccc(-c3c4nc(c(-c5cccc(S(=O)(=O)[O-])c5F)c5ccc([nH]5)c(-c5cccc(S(=O)(=O)[O-])c5F)c5nc(c(-c6cccc(S(=O)(=O)[O-])c6F)c6ccc3[nH]6)C=C5)C=C4)cc2)c1C
REMARK SMILES IDX 23 1 22 2 20 3 21 4 19 6 15 7 16 8 92 9 17 10 93 11 18 12
REMARK SMILES IDX 14 13 11 15 12 16 13 17 10 18 1 19 2 20 3 21 4 22 8 23 9 24
REMARK SMILES IDX 5 25 6 26 7 27 24 28 25 29 26 30 27 31 28 33 29 34 30 35
REMARK SMILES IDX 91 36 31 37 90 38 32 39 33 40 34 41 84 42 35 43 89 44 83 45
REMARK SMILES IDX 85 46 36 47 88 48 82 49 81 50 37 52 69 53 49 54 68 55 50 56
REMARK SMILES IDX 53 57 67 58 86 59 51 60 52 61 66 63 87 64 54 65 38 66 39 67
REMARK SMILES IDX 47 68 40 69 42 70 48 71 41 72 43 73 44 74 45 75 46 76 70 77
REMARK SMILES IDX 71 78 79 79 72 80 74 81 80 82 73 83 75 84 76 85 77 86 78 87
REMARK SMILES IDX 55 88 56 89 64 90 57 91 59 92 65 93 58 94 60 95 61 96 62 97
REMARK SMILES IDX 63 98
REMARK H PARENT 22 5 14 14 26 32 85 51 53 62
REMARK Flexibility Score: inf
ROOT
ATOM      1  C   UNL A   1      34.925  29.304  27.624  1.00  0.00     0.118 C 
ENDROOT
BRANCH   1   2
ATOM      2  N   UNL A   1      33.481  29.421  27.535  1.00  0.00    -0.352 N 
ATOM      3  C   UNL A   1      32.555  29.075  26.580  1.00  0.00     0.251 C 
ATOM      4  O   UNL A   1      31.384  29.315  26.869  1.00  0.00    -0.269 OA
ATOM      5  H   UNL A   1      33.077  29.836  28.331  1.00  0.00     0.163 HD
BRANCH   3   6
ATOM      6  C   UNL A   1      32.888  28.413  25.264  1.00  0.00     0.044 A 
ATOM      7  C   UNL A   1      33.635  26.492  23.971  1.00  0.00     0.053 A 
ATOM      8  C   UNL A   1      33.652  27.239  22.796  1.00  0.00     0.027 A 
ATOM      9  C   UNL A   1      33.090  27.016  25.173  1.00  0.00    -0.014 A 
ATOM     10  C   UNL A   1      33.330  28.578  22.852  1.00  0.00     0.003 A 
ATOM     11  C   UNL A   1      32.861  26.059  26.321  1.00  0.00     0.047 C 
ATOM     12  C   UNL A   1      33.007  29.155  24.079  1.00  0.00     0.014 A 
BRANCH   7  13
ATOM     13  N   UNL A   1      34.186  25.182  24.032  1.00  0.00    -0.279 N 
ATOM     14  H   UNL A   1      35.043  25.057  24.501  1.00  0.00     0.180 HD
BRANCH  13  15
ATOM     15  S   UNL A   1      33.457  23.845  23.351  1.00  0.00     0.265 S 
ATOM     16  O   UNL A   1      34.024  23.658  22.028  1.00  0.00    -0.201 OA
ATOM     17  O   UNL A   1      32.032  24.067  23.491  1.00  0.00    -0.201 OA
BRANCH  15  18
ATOM     18  C   UNL A   1      33.703  22.312  24.110  1.00  0.00     0.131 A 
ATOM     19  C   UNL A   1      35.186  22.680  26.291  1.00  0.00     0.070 C 
ATOM     20  C   UNL A   1      34.442  21.928  25.257  1.00  0.00     0.080 A 
ATOM     21  N   UNL A   1      34.438  20.595  25.408  1.00  0.00    -0.176 NA
ATOM     22  N   UNL A   1      33.621  20.137  24.450  1.00  0.00    -0.266 N 
ATOM     23  C   UNL A   1      33.126  21.131  23.649  1.00  0.00     0.056 A 
ATOM     24  C   UNL A   1      32.153  20.888  22.554  1.00  0.00     0.068 C 
BRANCH  22  25
ATOM     25  C   UNL A   1      33.352  18.703  24.386  1.00  0.00     0.101 C 
ATOM     26  C   UNL A   1      34.649  17.905  24.254  1.00  0.00     0.033 C 
ATOM     27  C   UNL A   1      32.529  18.231  25.586  1.00  0.00     0.033 C 
ENDBRANCH  22  25
ENDBRANCH  15  18
ENDBRANCH  13  15
ENDBRANCH   7  13
ENDBRANCH   3   6
ENDBRANCH   1   2
BRANCH   1  28
ATOM     28  C   UNL A   1      35.541  30.485  28.363  1.00  0.00     0.042 C 
BRANCH  28  29
ATOM     29  C   UNL A   1      35.483  31.808  27.626  1.00  0.00     0.118 C 
BRANCH  29  30
ATOM     30  N   UNL A   1      34.587  32.760  28.260  1.00  0.00    -0.352 N 
ATOM     31  C   UNL A   1      34.729  33.401  29.475  1.00  0.00     0.251 C 
ATOM     32  H   UNL A   1      33.770  32.977  27.756  1.00  0.00     0.163 HD
ATOM     33  O   UNL A   1      33.793  34.058  29.925  1.00  0.00    -0.269 OA
BRANCH  31  34
ATOM     34  C   UNL A   1      36.056  33.399  30.133  1.00  0.00     0.039 A 
ATOM     35  C   UNL A   1      37.146  33.805  29.358  1.00  0.00     0.014 A 
ATOM     36  C   UNL A   1      36.255  32.731  31.338  1.00  0.00     0.014 A 
ATOM     37  C   UNL A   1      38.407  33.292  29.636  1.00  0.00     0.010 A 
ATOM     38  C   UNL A   1      37.478  32.145  31.564  1.00  0.00     0.010 A 
ATOM     39  C   UNL A   1      38.525  32.363  30.662  1.00  0.00    -0.014 A 
BRANCH  39  40
ATOM     40  C   UNL A   1      39.684  31.520  30.873  1.00  0.00     0.031 A 
ATOM     41  C   UNL A   1      39.748  30.199  30.243  1.00  0.00     0.074 A 
ATOM     42  C   UNL A   1      40.768  32.068  31.462  1.00  0.00     0.049 A 
ATOM     43  N   UNL A   1      40.635  29.310  30.523  1.00  0.00    -0.248 NA
ATOM     44  C   UNL A   1      38.762  29.760  29.266  1.00  0.00     0.031 C 
ATOM     45  C   UNL A   1      42.147  31.607  31.396  1.00  0.00     0.029 A 
ATOM     46  N   UNL A   1      40.789  33.075  32.432  1.00  0.00    -0.354 N 
ATOM     47  C   UNL A   1      40.553  28.345  29.544  1.00  0.00     0.074 A 
ATOM     48  C   UNL A   1      39.282  28.583  28.908  1.00  0.00     0.031 C 
ATOM     49  C   UNL A   1      42.817  32.110  32.444  1.00  0.00     0.029 A 
ATOM     50  C   UNL A   1      41.834  32.737  33.311  1.00  0.00     0.049 A 
ATOM     51  H   UNL A   1      40.194  33.858  32.490  1.00  0.00     0.167 HD
ATOM     52  C   UNL A   1      41.663  27.593  29.291  1.00  0.00     0.034 A 
ATOM     53  C   UNL A   1      41.619  32.417  34.622  1.00  0.00     0.034 A 
ATOM     54  C   UNL A   1      42.679  27.791  30.349  1.00  0.00     0.049 A 
ATOM     55  C   UNL A   1      42.040  30.990  34.969  1.00  0.00     0.074 A 
ATOM     56  C   UNL A   1      43.901  28.442  30.433  1.00  0.00     0.029 A 
ATOM     57  N   UNL A   1      42.331  27.487  31.660  1.00  0.00    -0.354 N 
ATOM     58  N   UNL A   1      42.664  30.165  34.171  1.00  0.00    -0.248 NA
ATOM     59  C   UNL A   1      41.670  30.357  36.234  1.00  0.00     0.031 C 
ATOM     60  C   UNL A   1      44.247  28.570  31.817  1.00  0.00     0.029 A 
ATOM     61  C   UNL A   1      43.260  27.964  32.574  1.00  0.00     0.049 A 
ATOM     62  H   UNL A   1      41.519  26.992  31.912  1.00  0.00     0.167 HD
ATOM     63  C   UNL A   1      42.616  28.893  34.695  1.00  0.00     0.074 A 
ATOM     64  C   UNL A   1      42.010  29.079  36.005  1.00  0.00     0.031 C 
ATOM     65  C   UNL A   1      42.989  27.770  33.997  1.00  0.00     0.034 A 
BRANCH  52  66
ATOM     66  C   UNL A   1      41.954  26.869  27.974  1.00  0.00     0.023 A 
ATOM     67  C   UNL A   1      41.844  27.626  26.785  1.00  0.00     0.012 A 
ATOM     68  C   UNL A   1      42.230  25.490  27.787  1.00  0.00     0.148 A 
ATOM     69  C   UNL A   1      41.925  27.048  25.508  1.00  0.00     0.002 A 
ATOM     70  C   UNL A   1      42.296  24.907  26.518  1.00  0.00     0.091 A 
ATOM     71  F   UNL A   1      42.458  24.698  28.828  1.00  0.00    -0.205 F 
ATOM     72  C   UNL A   1      42.133  25.684  25.373  1.00  0.00     0.022 A 
BRANCH  70  73
ATOM     73  S   UNL A   1      42.541  23.132  26.277  1.00  0.00     0.127 S 
ATOM     74  O   UNL A   1      43.736  22.877  27.083  1.00  0.00    -0.237 OA
ATOM     75  O   UNL A   1      41.307  22.571  26.825  1.00  0.00    -0.237 OA
ATOM     76  O   UNL A   1      42.729  22.926  24.846  1.00  0.00    -0.744 OA
ENDBRANCH  70  73
ENDBRANCH  52  66
BRANCH  53  77
ATOM     77  C   UNL A   1      40.445  33.135  35.211  1.00  0.00     0.023 A 
ATOM     78  C   UNL A   1      39.173  32.531  35.054  1.00  0.00     0.012 A 
ATOM     79  C   UNL A   1      40.606  34.118  36.203  1.00  0.00     0.148 A 
ATOM     80  C   UNL A   1      38.137  32.796  35.950  1.00  0.00     0.002 A 
ATOM     81  C   UNL A   1      39.562  34.387  37.086  1.00  0.00     0.091 A 
ATOM     82  F   UNL A   1      41.795  34.717  36.332  1.00  0.00    -0.205 F 
ATOM     83  C   UNL A   1      38.343  33.697  36.988  1.00  0.00     0.022 A 
BRANCH  81  84
ATOM     84  S   UNL A   1      39.778  35.526  38.460  1.00  0.00     0.127 S 
ATOM     85  O   UNL A   1      41.127  35.194  38.903  1.00  0.00    -0.237 OA
ATOM     86  O   UNL A   1      39.646  36.830  37.811  1.00  0.00    -0.237 OA
ATOM     87  O   UNL A   1      38.696  35.206  39.380  1.00  0.00    -0.744 OA
ENDBRANCH  81  84
ENDBRANCH  53  77
BRANCH  65  88
ATOM     88  C   UNL A   1      43.026  26.361  34.595  1.00  0.00     0.023 A 
ATOM     89  C   UNL A   1      41.855  25.723  35.051  1.00  0.00     0.012 A 
ATOM     90  C   UNL A   1      44.240  25.655  34.819  1.00  0.00     0.148 A 
ATOM     91  C   UNL A   1      41.857  24.411  35.539  1.00  0.00     0.002 A 
ATOM     92  C   UNL A   1      44.248  24.363  35.342  1.00  0.00     0.091 A 
ATOM     93  F   UNL A   1      45.413  26.244  34.572  1.00  0.00    -0.205 F 
ATOM     94  C   UNL A   1      43.052  23.722  35.667  1.00  0.00     0.022 A 
BRANCH  92  95
ATOM     95  S   UNL A   1      45.771  23.463  35.673  1.00  0.00     0.127 S 
ATOM     96  O   UNL A   1      46.371  23.403  34.341  1.00  0.00    -0.237 OA
ATOM     97  O   UNL A   1      46.452  24.357  36.610  1.00  0.00    -0.237 OA
ATOM     98  O   UNL A   1      45.375  22.179  36.236  1.00  0.00    -0.744 OA
ENDBRANCH  92  95
ENDBRANCH  65  88
ENDBRANCH  39  40
ENDBRANCH  31  34
ENDBRANCH  29  30
ENDBRANCH  28  29
ENDBRANCH   1  28
TORSDOF 17
ENDMDL
MODEL 2
REMARK VINA RESULT:     -11.7      1.528      2.223
REMARK SMILES Cc1nn(C(C)C)c(C)c1S(=O)(=O)Nc1cccc(C(=O)NCCCNC(=O)c2ccc(-c3c4nc(c(-c5cccc(S(=O)(=O)[O-])c5F)c5ccc([nH]5)c(-c5cccc(S(=O)(=O)[O-])c5F)c5nc(c(-c6cccc(S(=O)(=O)[O-])c6F)c6ccc3[nH]6)C=C5)C=C4)cc2)c1C
REMARK SMILES IDX 23 1 22 2 20 3 21 4 19 6 15 7 16 8 92 9 17 10 93 11 18 12
REMARK SMILES IDX 14 13 11 15 12 16 13 17 10 18 1 19 2 20 3 21 4 22 8 23 9 24
REMARK SMILES IDX 5 25 6 26 7 27 24 28 25 29 26 30 27 31 28 33 29 34 30 35
REMARK SMILES IDX 91 36 31 37 90 38 32 39 33 40 34 41 84 42 35 43 89 44 83 45
REMARK SMILES IDX 85 46 36 47 88 48 82 49 81 50 37 52 69 53 49 54 68 55 50 56
REMARK SMILES IDX 53 57 67 58 86 59 51 60 52 61 66 63 87 64 54 65 38 66 39 67
REMARK SMILES IDX 47 68 40 69 42 70 48 71 41 72 43 73 44 74 45 75 46 76 70 77
REMARK SMILES IDX 71 78 79 79 72 80 74 81 80 82 73 83 75 84 76 85 77 86 78 87
REMARK SMILES IDX 55 88 56 89 64 90 57 91 59 92 65 93 58 94 60 95 61 96 62 97
REMARK SMILES IDX 63 98
REMARK H PARENT 22 5 14 14 26 32 85 51 53 62
REMARK Flexibility Score: inf
ROOT
ATOM      1  C   UNL A   1      34.412  29.221  26.094  1.00  0.00     0.118 C 
ENDROOT
BRANCH   1   2
ATOM      2  N   UNL A   1      33.253  30.070  25.886  1.00  0.00    -0.352 N 
ATOM      3  C   UNL A   1      31.947  29.827  25.533  1.00  0.00     0.251 C 
ATOM      4  O   UNL A   1      31.224  30.821  25.471  1.00  0.00    -0.269 OA
ATOM      5  H   UNL A   1      33.444  31.025  26.029  1.00  0.00     0.163 HD
BRANCH   3   6
ATOM      6  C   UNL A   1      31.373  28.457  25.263  1.00  0.00     0.044 A 
ATOM      7  C   UNL A   1      30.959  26.150  25.918  1.00  0.00     0.053 A 
ATOM      8  C   UNL A   1      30.419  25.851  24.671  1.00  0.00     0.027 A 
ATOM      9  C   UNL A   1      31.277  27.485  26.286  1.00  0.00    -0.014 A 
ATOM     10  C   UNL A   1      30.389  26.833  23.703  1.00  0.00     0.003 A 
ATOM     11  C   UNL A   1      31.599  27.760  27.738  1.00  0.00     0.047 C 
ATOM     12  C   UNL A   1      30.908  28.094  23.991  1.00  0.00     0.014 A 
BRANCH   7  13
ATOM     13  N   UNL A   1      31.246  25.134  26.873  1.00  0.00    -0.279 N 
ATOM     14  H   UNL A   1      31.343  25.395  27.817  1.00  0.00     0.180 HD
BRANCH  13  15
ATOM     15  S   UNL A   1      31.426  23.524  26.475  1.00  0.00     0.265 S 
ATOM     16  O   UNL A   1      30.422  23.201  25.478  1.00  0.00    -0.201 OA
ATOM     17  O   UNL A   1      31.433  22.812  27.738  1.00  0.00    -0.201 OA
BRANCH  15  18
ATOM     18  C   UNL A   1      32.904  23.035  25.728  1.00  0.00     0.131 A 
ATOM     19  C   UNL A   1      32.695  20.469  25.045  1.00  0.00     0.070 C 
ATOM     20  C   UNL A   1      33.347  21.785  25.224  1.00  0.00     0.080 A 
ATOM     21  N   UNL A   1      34.627  21.851  24.830  1.00  0.00    -0.176 NA
ATOM     22  N   UNL A   1      34.969  23.139  24.967  1.00  0.00    -0.266 N 
ATOM     23  C   UNL A   1      33.961  23.909  25.481  1.00  0.00     0.056 A 
ATOM     24  C   UNL A   1      34.072  25.377  25.673  1.00  0.00     0.068 C 
BRANCH  22  25
ATOM     25  C   UNL A   1      36.307  23.555  24.554  1.00  0.00     0.101 C 
ATOM     26  C   UNL A   1      37.339  23.242  25.636  1.00  0.00     0.033 C 
ATOM     27  C   UNL A   1      36.701  22.933  23.213  1.00  0.00     0.033 C 
ENDBRANCH  22  25
ENDBRANCH  15  18
ENDBRANCH  13  15
ENDBRANCH   7  13
ENDBRANCH   3   6
ENDBRANCH   1   2
BRANCH   1  28
ATOM     28  C   UNL A   1      34.986  29.385  27.496  1.00  0.00     0.042 C 
BRANCH  28  29
ATOM     29  C   UNL A   1      35.712  30.691  27.746  1.00  0.00     0.118 C 
BRANCH  29  30
ATOM     30  N   UNL A   1      34.817  31.755  28.167  1.00  0.00    -0.352 N 
ATOM     31  C   UNL A   1      34.863  32.516  29.319  1.00  0.00     0.251 C 
ATOM     32  H   UNL A   1      34.079  31.961  27.549  1.00  0.00     0.163 HD
ATOM     33  O   UNL A   1      33.928  33.269  29.584  1.00  0.00    -0.269 OA
BRANCH  31  34
ATOM     34  C   UNL A   1      36.103  32.512  30.128  1.00  0.00     0.039 A 
ATOM     35  C   UNL A   1      37.203  33.198  29.602  1.00  0.00     0.014 A 
ATOM     36  C   UNL A   1      36.266  31.618  31.182  1.00  0.00     0.014 A 
ATOM     37  C   UNL A   1      38.486  32.777  29.928  1.00  0.00     0.010 A 
ATOM     38  C   UNL A   1      37.528  31.134  31.437  1.00  0.00     0.010 A 
ATOM     39  C   UNL A   1      38.622  31.661  30.744  1.00  0.00    -0.014 A 
BRANCH  39  40
ATOM     40  C   UNL A   1      39.856  30.924  30.923  1.00  0.00     0.031 A 
ATOM     41  C   UNL A   1      40.064  29.665  30.202  1.00  0.00     0.074 A 
ATOM     42  C   UNL A   1      40.870  31.533  31.575  1.00  0.00     0.049 A 
ATOM     43  N   UNL A   1      41.032  28.851  30.440  1.00  0.00    -0.248 NA
ATOM     44  C   UNL A   1      39.144  29.203  29.173  1.00  0.00     0.031 C 
ATOM     45  C   UNL A   1      42.290  31.218  31.510  1.00  0.00     0.029 A 
ATOM     46  N   UNL A   1      40.773  32.464  32.614  1.00  0.00    -0.354 N 
ATOM     47  C   UNL A   1      41.064  27.956  29.394  1.00  0.00     0.074 A 
ATOM     48  C   UNL A   1      39.786  28.113  28.746  1.00  0.00     0.031 C 
ATOM     49  C   UNL A   1      42.888  31.706  32.607  1.00  0.00     0.029 A 
ATOM     50  C   UNL A   1      41.832  32.168  33.492  1.00  0.00     0.049 A 
ATOM     51  H   UNL A   1      40.101  33.177  32.713  1.00  0.00     0.167 HD
ATOM     52  C   UNL A   1      42.248  27.339  29.115  1.00  0.00     0.034 A 
ATOM     53  C   UNL A   1      41.628  31.733  34.771  1.00  0.00     0.034 A 
ATOM     54  C   UNL A   1      43.221  27.559  30.209  1.00  0.00     0.049 A 
ATOM     55  C   UNL A   1      42.184  30.334  35.027  1.00  0.00     0.074 A 
ATOM     56  C   UNL A   1      44.369  28.320  30.368  1.00  0.00     0.029 A 
ATOM     57  N   UNL A   1      42.883  27.128  31.486  1.00  0.00    -0.354 N 
ATOM     58  N   UNL A   1      42.902  29.635  34.187  1.00  0.00    -0.248 NA
ATOM     59  C   UNL A   1      41.859  29.577  36.234  1.00  0.00     0.031 C 
ATOM     60  C   UNL A   1      44.678  28.381  31.765  1.00  0.00     0.029 A 
ATOM     61  C   UNL A   1      43.744  27.626  32.454  1.00  0.00     0.049 A 
ATOM     62  H   UNL A   1      42.121  26.537  31.682  1.00  0.00     0.167 HD
ATOM     63  C   UNL A   1      42.973  28.330  34.619  1.00  0.00     0.074 A 
ATOM     64  C   UNL A   1      42.330  28.360  35.924  1.00  0.00     0.031 C 
ATOM     65  C   UNL A   1      43.470  27.303  33.852  1.00  0.00     0.034 A 
BRANCH  52  66
ATOM     66  C   UNL A   1      42.633  26.746  27.758  1.00  0.00     0.023 A 
ATOM     67  C   UNL A   1      42.389  27.540  26.614  1.00  0.00     0.012 A 
ATOM     68  C   UNL A   1      43.121  25.440  27.491  1.00  0.00     0.148 A 
ATOM     69  C   UNL A   1      42.543  27.055  25.306  1.00  0.00     0.002 A 
ATOM     70  C   UNL A   1      43.262  24.947  26.190  1.00  0.00     0.091 A 
ATOM     71  F   UNL A   1      43.486  24.638  28.484  1.00  0.00    -0.205 F 
ATOM     72  C   UNL A   1      42.963  25.751  25.092  1.00  0.00     0.022 A 
BRANCH  70  73
ATOM     73  S   UNL A   1      43.782  23.250  25.847  1.00  0.00     0.127 S 
ATOM     74  O   UNL A   1      42.771  22.811  24.882  1.00  0.00    -0.237 OA
ATOM     75  O   UNL A   1      45.117  23.441  25.284  1.00  0.00    -0.237 OA
ATOM     76  O   UNL A   1      43.745  22.536  27.118  1.00  0.00    -0.744 OA
ENDBRANCH  70  73
ENDBRANCH  52  66
BRANCH  53  77
ATOM     77  C   UNL A   1      40.378  32.287  35.381  1.00  0.00     0.023 A 
ATOM     78  C   UNL A   1      39.146  31.853  34.834  1.00  0.00     0.012 A 
ATOM     79  C   UNL A   1      40.379  32.870  36.661  1.00  0.00     0.148 A 
ATOM     80  C   UNL A   1      37.976  31.868  35.596  1.00  0.00     0.002 A 
ATOM     81  C   UNL A   1      39.205  32.893  37.411  1.00  0.00     0.091 A 
ATOM     82  F   UNL A   1      41.534  33.314  37.167  1.00  0.00    -0.205 F 
ATOM     83  C   UNL A   1      38.014  32.355  36.897  1.00  0.00     0.022 A 
BRANCH  81  84
ATOM     84  S   UNL A   1      39.197  33.492  39.106  1.00  0.00     0.127 S 
ATOM     85  O   UNL A   1      40.160  32.594  39.734  1.00  0.00    -0.237 OA
ATOM     86  O   UNL A   1      39.651  34.874  38.953  1.00  0.00    -0.237 OA
ATOM     87  O   UNL A   1      37.814  33.363  39.538  1.00  0.00    -0.744 OA
ENDBRANCH  81  84
ENDBRANCH  53  77
BRANCH  65  88
ATOM     88  C   UNL A   1      43.639  25.866  34.350  1.00  0.00     0.023 A 
ATOM     89  C   UNL A   1      42.528  25.070  34.695  1.00  0.00     0.012 A 
ATOM     90  C   UNL A   1      44.913  25.281  34.588  1.00  0.00     0.148 A 
ATOM     91  C   UNL A   1      42.655  23.732  35.088  1.00  0.00     0.002 A 
ATOM     92  C   UNL A   1      45.043  23.962  35.018  1.00  0.00     0.091 A 
ATOM     93  F   UNL A   1      46.022  26.012  34.448  1.00  0.00    -0.205 F 
ATOM     94  C   UNL A   1      43.914  23.171  35.231  1.00  0.00     0.022 A 
BRANCH  92  95
ATOM     95  S   UNL A   1      46.641  23.211  35.367  1.00  0.00     0.127 S 
ATOM     96  O   UNL A   1      46.980  23.827  36.649  1.00  0.00    -0.237 OA
ATOM     97  O   UNL A   1      46.296  21.791  35.445  1.00  0.00    -0.237 OA
ATOM     98  O   UNL A   1      47.513  23.565  34.256  1.00  0.00    -0.744 OA
ENDBRANCH  92  95
ENDBRANCH  65  88
ENDBRANCH  39  40
ENDBRANCH  31  34
ENDBRANCH  29  30
ENDBRANCH  28  29
ENDBRANCH   1  28
TORSDOF 17
ENDMDL
MODEL 3
REMARK VINA RESULT:     -11.7      2.288      3.238
REMARK SMILES Cc1nn(C(C)C)c(C)c1S(=O)(=O)Nc1cccc(C(=O)NCCCNC(=O)c2ccc(-c3c4nc(c(-c5cccc(S(=O)(=O)[O-])c5F)c5ccc([nH]5)c(-c5cccc(S(=O)(=O)[O-])c5F)c5nc(c(-c6cccc(S(=O)(=O)[O-])c6F)c6ccc3[nH]6)C=C5)C=C4)cc2)c1C
REMARK SMILES IDX 23 1 22 2 20 3 21 4 19 6 15 7 16 8 92 9 17 10 93 11 18 12
REMARK SMILES IDX 14 13 11 15 12 16 13 17 10 18 1 19 2 20 3 21 4 22 8 23 9 24
REMARK SMILES IDX 5 25 6 26 7 27 24 28 25 29 26 30 27 31 28 33 29 34 30 35
REMARK SMILES IDX 91 36 31 37 90 38 32 39 33 40 34 41 84 42 35 43 89 44 83 45
REMARK SMILES IDX 85 46 36 47 88 48 82 49 81 50 37 52 69 53 49 54 68 55 50 56
REMARK SMILES IDX 53 57 67 58 86 59 51 60 52 61 66 63 87 64 54 65 38 66 39 67
REMARK SMILES IDX 47 68 40 69 42 70 48 71 41 72 43 73 44 74 45 75 46 76 70 77
REMARK SMILES IDX 71 78 79 79 72 80 74 81 80 82 73 83 75 84 76 85 77 86 78 87
REMARK SMILES IDX 55 88 56 89 64 90 57 91 59 92 65 93 58 94 60 95 61 96 62 97
REMARK SMILES IDX 63 98
REMARK H PARENT 22 5 14 14 26 32 85 51 53 62
REMARK Flexibility Score: inf
ROOT
ATOM      1  C   UNL A   1      32.160  28.366  27.255  1.00  0.00     0.118 C 
ENDROOT
BRANCH   1   2
ATOM      2  N   UNL A   1      31.482  29.052  26.171  1.00  0.00    -0.352 N 
ATOM      3  C   UNL A   1      31.332  28.796  24.828  1.00  0.00     0.251 C 
ATOM      4  O   UNL A   1      30.654  29.613  24.208  1.00  0.00    -0.269 OA
ATOM      5  H   UNL A   1      31.031  29.878  26.459  1.00  0.00     0.163 HD
BRANCH   3   6
ATOM      6  C   UNL A   1      31.908  27.596  24.116  1.00  0.00     0.044 A 
ATOM      7  C   UNL A   1      32.010  25.197  23.719  1.00  0.00     0.053 A 
ATOM      8  C   UNL A   1      33.108  25.343  22.875  1.00  0.00     0.027 A 
ATOM      9  C   UNL A   1      31.295  26.324  24.204  1.00  0.00    -0.014 A 
ATOM     10  C   UNL A   1      33.637  26.601  22.679  1.00  0.00     0.003 A 
ATOM     11  C   UNL A   1      29.966  26.079  24.884  1.00  0.00     0.047 C 
ATOM     12  C   UNL A   1      33.069  27.693  23.335  1.00  0.00     0.014 A 
BRANCH   7  13
ATOM     13  N   UNL A   1      31.569  23.917  24.158  1.00  0.00    -0.279 N 
ATOM     14  H   UNL A   1      30.639  23.825  24.468  1.00  0.00     0.180 HD
BRANCH  13  15
ATOM     15  S   UNL A   1      32.545  22.565  24.174  1.00  0.00     0.265 S 
ATOM     16  O   UNL A   1      32.999  22.331  22.816  1.00  0.00    -0.201 OA
ATOM     17  O   UNL A   1      31.778  21.541  24.857  1.00  0.00    -0.201 OA
BRANCH  15  18
ATOM     18  C   UNL A   1      34.015  22.637  25.080  1.00  0.00     0.131 A 
ATOM     19  C   UNL A   1      33.442  22.242  27.650  1.00  0.00     0.070 C 
ATOM     20  C   UNL A   1      34.281  22.541  26.469  1.00  0.00     0.080 A 
ATOM     21  N   UNL A   1      35.577  22.770  26.728  1.00  0.00    -0.176 NA
ATOM     22  N   UNL A   1      36.157  22.895  25.526  1.00  0.00    -0.266 N 
ATOM     23  C   UNL A   1      35.267  22.798  24.490  1.00  0.00     0.056 A 
ATOM     24  C   UNL A   1      35.670  22.845  23.062  1.00  0.00     0.068 C 
BRANCH  22  25
ATOM     25  C   UNL A   1      37.603  23.091  25.464  1.00  0.00     0.101 C 
ATOM     26  C   UNL A   1      38.062  24.125  26.491  1.00  0.00     0.033 C 
ATOM     27  C   UNL A   1      38.358  21.771  25.629  1.00  0.00     0.033 C 
ENDBRANCH  22  25
ENDBRANCH  15  18
ENDBRANCH  13  15
ENDBRANCH   7  13
ENDBRANCH   3   6
ENDBRANCH   1   2
BRANCH   1  28
ATOM     28  C   UNL A   1      33.657  28.648  27.251  1.00  0.00     0.042 C 
BRANCH  28  29
ATOM     29  C   UNL A   1      34.074  29.904  26.512  1.00  0.00     0.118 C 
BRANCH  29  30
ATOM     30  N   UNL A   1      34.415  30.992  27.411  1.00  0.00    -0.352 N 
ATOM     31  C   UNL A   1      35.386  31.028  28.393  1.00  0.00     0.251 C 
ATOM     32  H   UNL A   1      33.884  31.814  27.307  1.00  0.00     0.163 HD
ATOM     33  O   UNL A   1      35.429  31.983  29.165  1.00  0.00    -0.269 OA
BRANCH  31  34
ATOM     34  C   UNL A   1      36.437  29.985  28.396  1.00  0.00     0.039 A 
ATOM     35  C   UNL A   1      36.643  29.297  29.595  1.00  0.00     0.014 A 
ATOM     36  C   UNL A   1      37.377  29.916  27.371  1.00  0.00     0.014 A 
ATOM     37  C   UNL A   1      37.903  28.788  29.881  1.00  0.00     0.010 A 
ATOM     38  C   UNL A   1      38.651  29.501  27.683  1.00  0.00     0.010 A 
ATOM     39  C   UNL A   1      38.924  29.017  28.967  1.00  0.00    -0.014 A 
BRANCH  39  40
ATOM     40  C   UNL A   1      40.332  28.828  29.249  1.00  0.00     0.031 A 
ATOM     41  C   UNL A   1      40.989  27.575  28.867  1.00  0.00     0.074 A 
ATOM     42  C   UNL A   1      41.049  29.899  29.651  1.00  0.00     0.049 A 
ATOM     43  N   UNL A   1      42.173  27.239  29.243  1.00  0.00    -0.248 NA
ATOM     44  C   UNL A   1      40.321  26.568  28.056  1.00  0.00     0.031 C 
ATOM     45  C   UNL A   1      42.490  30.088  29.577  1.00  0.00     0.029 A 
ATOM     46  N   UNL A   1      40.600  30.979  30.419  1.00  0.00    -0.354 N 
ATOM     47  C   UNL A   1      42.548  26.167  28.465  1.00  0.00     0.074 A 
ATOM     48  C   UNL A   1      41.316  25.694  27.885  1.00  0.00     0.031 C 
ATOM     49  C   UNL A   1      42.846  31.026  30.467  1.00  0.00     0.029 A 
ATOM     50  C   UNL A   1      41.670  31.312  31.271  1.00  0.00     0.049 A 
ATOM     51  H   UNL A   1      39.719  31.416  30.373  1.00  0.00     0.167 HD
ATOM     52  C   UNL A   1      43.881  25.945  28.277  1.00  0.00     0.034 A 
ATOM     53  C   UNL A   1      41.593  31.191  32.629  1.00  0.00     0.034 A 
ATOM     54  C   UNL A   1      44.682  26.771  29.210  1.00  0.00     0.049 A 
ATOM     55  C   UNL A   1      42.596  30.191  33.202  1.00  0.00     0.074 A 
ATOM     56  C   UNL A   1      45.485  27.895  29.089  1.00  0.00     0.029 A 
ATOM     57  N   UNL A   1      44.479  26.606  30.574  1.00  0.00    -0.354 N 
ATOM     58  N   UNL A   1      43.538  29.587  32.526  1.00  0.00    -0.248 NA
ATOM     59  C   UNL A   1      42.521  29.719  34.582  1.00  0.00     0.031 C 
ATOM     60  C   UNL A   1      45.711  28.428  30.399  1.00  0.00     0.029 A 
ATOM     61  C   UNL A   1      45.082  27.609  31.321  1.00  0.00     0.049 A 
ATOM     62  H   UNL A   1      43.967  25.863  30.967  1.00  0.00     0.167 HD
ATOM     63  C   UNL A   1      44.049  28.552  33.275  1.00  0.00     0.074 A 
ATOM     64  C   UNL A   1      43.397  28.703  34.568  1.00  0.00     0.031 C 
ATOM     65  C   UNL A   1      44.896  27.595  32.770  1.00  0.00     0.034 A 
BRANCH  52  66
ATOM     66  C   UNL A   1      44.489  25.184  27.098  1.00  0.00     0.023 A 
ATOM     67  C   UNL A   1      45.310  25.917  26.211  1.00  0.00     0.012 A 
ATOM     68  C   UNL A   1      44.251  23.836  26.722  1.00  0.00     0.148 A 
ATOM     69  C   UNL A   1      45.795  25.382  25.008  1.00  0.00     0.002 A 
ATOM     70  C   UNL A   1      44.719  23.302  25.518  1.00  0.00     0.091 A 
ATOM     71  F   UNL A   1      43.583  23.017  27.526  1.00  0.00    -0.205 F 
ATOM     72  C   UNL A   1      45.484  24.079  24.650  1.00  0.00     0.022 A 
BRANCH  70  73
ATOM     73  S   UNL A   1      44.328  21.620  24.985  1.00  0.00     0.127 S 
ATOM     74  O   UNL A   1      44.531  21.704  23.537  1.00  0.00    -0.237 OA
ATOM     75  O   UNL A   1      45.331  20.828  25.694  1.00  0.00    -0.237 OA
ATOM     76  O   UNL A   1      42.949  21.365  25.382  1.00  0.00    -0.744 OA
ENDBRANCH  70  73
ENDBRANCH  52  66
BRANCH  53  77
ATOM     77  C   UNL A   1      40.210  31.420  33.157  1.00  0.00     0.023 A 
ATOM     78  C   UNL A   1      39.221  30.468  32.807  1.00  0.00     0.012 A 
ATOM     79  C   UNL A   1      39.971  32.271  34.250  1.00  0.00     0.148 A 
ATOM     80  C   UNL A   1      38.095  30.276  33.610  1.00  0.00     0.002 A 
ATOM     81  C   UNL A   1      38.839  32.081  35.039  1.00  0.00     0.091 A 
ATOM     82  F   UNL A   1      40.887  33.194  34.562  1.00  0.00    -0.205 F 
ATOM     83  C   UNL A   1      37.923  31.058  34.746  1.00  0.00     0.022 A 
BRANCH  81  84
ATOM     84  S   UNL A   1      38.573  33.047  36.532  1.00  0.00     0.127 S 
ATOM     85  O   UNL A   1      37.194  32.705  36.857  1.00  0.00    -0.237 OA
ATOM     86  O   UNL A   1      39.577  32.498  37.444  1.00  0.00    -0.237 OA
ATOM     87  O   UNL A   1      38.823  34.424  36.130  1.00  0.00    -0.744 OA
ENDBRANCH  81  84
ENDBRANCH  53  77
BRANCH  65  88
ATOM     88  C   UNL A   1      45.543  26.492  33.611  1.00  0.00     0.023 A 
ATOM     89  C   UNL A   1      46.930  26.474  33.861  1.00  0.00     0.012 A 
ATOM     90  C   UNL A   1      44.813  25.375  34.104  1.00  0.00     0.148 A 
ATOM     91  C   UNL A   1      47.532  25.512  34.682  1.00  0.00     0.002 A 
ATOM     92  C   UNL A   1      45.418  24.395  34.889  1.00  0.00     0.091 A 
ATOM     93  F   UNL A   1      43.527  25.220  33.779  1.00  0.00    -0.205 F 
ATOM     94  C   UNL A   1      46.772  24.483  35.213  1.00  0.00     0.022 A 
BRANCH  92  95
ATOM     95  S   UNL A   1      44.529  22.952  35.491  1.00  0.00     0.127 S 
ATOM     96  O   UNL A   1      43.217  23.523  35.797  1.00  0.00    -0.237 OA
ATOM     97  O   UNL A   1      44.552  22.073  34.321  1.00  0.00    -0.237 OA
ATOM     98  O   UNL A   1      45.276  22.457  36.638  1.00  0.00    -0.744 OA
ENDBRANCH  92  95
ENDBRANCH  65  88
ENDBRANCH  39  40
ENDBRANCH  31  34
ENDBRANCH  29  30
ENDBRANCH  28  29
ENDBRANCH   1  28
TORSDOF 17
ENDMDL
