MODEL 1
REMARK VINA RESULT:     -13.4      0.000      0.000
REMARK SMILES Cc1ccc([C@H](C)Nc2ccc(C(=O)NCCCNC(=O)c3ccc(-c4c5nc(c(-c6cccc(S(=O)(=O)[O-])c6F)c6ccc([nH]6)c(-c6cccc(S(=O)(=O)[O-])c6F)c6nc(c(-c7cccc(S(=O)(=O)[O-])c7F)c7ccc4[nH]7)C=C6)C=C5)cc3)cc2Cl)cc1F
REMARK SMILES IDX 17 1 16 2 15 3 13 4 14 5 12 7 9 8 10 9 86 10 11 11 85 12
REMARK SMILES IDX 87 13 8 14 6 16 7 17 5 18 1 19 2 20 3 21 89 22 4 23 88 24
REMARK SMILES IDX 90 25 18 26 19 27 20 28 21 30 22 31 23 32 84 33 24 34 83 35
REMARK SMILES IDX 25 36 26 37 27 38 77 39 28 40 82 41 76 42 78 43 29 44 81 45
REMARK SMILES IDX 75 46 74 47 30 49 62 50 42 51 61 52 43 53 46 54 60 55 79 56
REMARK SMILES IDX 44 57 45 58 59 60 80 61 47 62 31 63 32 64 40 65 33 66 35 67
REMARK SMILES IDX 41 68 34 69 36 70 37 71 38 72 39 73 63 74 64 75 72 76 65 77
REMARK SMILES IDX 67 78 73 79 66 80 68 81 69 82 70 83 71 84 48 85 49 86 57 87
REMARK SMILES IDX 50 88 52 89 58 90 51 91 53 92 54 93 55 94 56 95
REMARK H PARENT 15 6 8 15 19 29 78 48 46 59
REMARK Flexibility Score: inf
ROOT
ATOM      1  C   UNL A   1      36.476  22.763  25.088  1.00  0.00     0.042 C 
ENDROOT
BRANCH   1   2
ATOM      2  C   UNL A   1      35.669  21.907  26.078  1.00  0.00     0.118 C 
BRANCH   2   3
ATOM      3  N   UNL A   1      35.160  20.705  25.428  1.00  0.00    -0.352 N 
ATOM      4  C   UNL A   1      33.963  20.443  24.802  1.00  0.00     0.251 C 
ATOM      5  O   UNL A   1      33.786  19.330  24.306  1.00  0.00    -0.269 OA
ATOM      6  H   UNL A   1      35.786  19.946  25.438  1.00  0.00     0.163 HD
BRANCH   4   7
ATOM      7  C   UNL A   1      32.890  21.469  24.661  1.00  0.00     0.041 A 
ATOM      8  C   UNL A   1      30.932  23.540  24.430  1.00  0.00     0.053 A 
ATOM      9  C   UNL A   1      31.850  23.251  23.395  1.00  0.00     0.028 A 
ATOM     10  C   UNL A   1      31.046  22.776  25.590  1.00  0.00     0.065 A 
ATOM     11  C   UNL A   1      32.834  22.254  23.515  1.00  0.00     0.016 A 
ATOM     12  C   UNL A   1      31.934  21.712  25.632  1.00  0.00     0.036 A 
ATOM     13  Cl  UNL A   1      30.164  22.973  27.069  1.00  0.00    -0.082 Cl
BRANCH   8  14
ATOM     14  N   UNL A   1      30.035  24.564  24.208  1.00  0.00    -0.377 N 
ATOM     15  H   UNL A   1      29.081  24.346  24.316  1.00  0.00     0.161 HD
BRANCH  14  16
ATOM     16  C   UNL A   1      30.355  25.932  23.828  1.00  0.00     0.106 C 
ATOM     17  C   UNL A   1      29.008  26.653  23.658  1.00  0.00     0.036 C 
BRANCH  16  18
ATOM     18  C   UNL A   1      31.376  26.520  24.804  1.00  0.00    -0.023 A 
ATOM     19  C   UNL A   1      34.057  28.880  27.278  1.00  0.00     0.047 C 
ATOM     20  C   UNL A   1      33.152  28.019  26.454  1.00  0.00    -0.015 A 
ATOM     21  C   UNL A   1      32.014  27.411  26.990  1.00  0.00     0.007 A 
ATOM     22  C   UNL A   1      33.415  27.842  25.102  1.00  0.00     0.126 A 
ATOM     23  C   UNL A   1      31.134  26.679  26.174  1.00  0.00     0.006 A 
ATOM     24  C   UNL A   1      32.568  27.082  24.302  1.00  0.00     0.045 A 
ATOM     25  F   UNL A   1      34.482  28.430  24.543  1.00  0.00    -0.207 F 
ENDBRANCH  16  18
ENDBRANCH  14  16
ENDBRANCH   8  14
ENDBRANCH   4   7
ENDBRANCH   2   3
ENDBRANCH   1   2
BRANCH   1  26
ATOM     26  C   UNL A   1      37.470  23.601  25.821  1.00  0.00     0.118 C 
BRANCH  26  27
ATOM     27  N   UNL A   1      38.554  22.771  26.339  1.00  0.00    -0.352 N 
ATOM     28  C   UNL A   1      39.813  23.201  26.721  1.00  0.00     0.251 C 
ATOM     29  H   UNL A   1      38.371  21.807  26.424  1.00  0.00     0.163 HD
ATOM     30  O   UNL A   1      40.787  22.483  26.675  1.00  0.00    -0.269 OA
BRANCH  28  31
ATOM     31  C   UNL A   1      39.903  24.597  27.184  1.00  0.00     0.039 A 
ATOM     32  C   UNL A   1      40.439  25.619  26.399  1.00  0.00     0.014 A 
ATOM     33  C   UNL A   1      39.466  24.846  28.478  1.00  0.00     0.014 A 
ATOM     34  C   UNL A   1      40.538  26.889  26.957  1.00  0.00     0.010 A 
ATOM     35  C   UNL A   1      39.251  26.112  28.885  1.00  0.00     0.010 A 
ATOM     36  C   UNL A   1      39.952  27.097  28.206  1.00  0.00    -0.014 A 
BRANCH  36  37
ATOM     37  C   UNL A   1      40.100  28.270  29.034  1.00  0.00     0.031 A 
ATOM     38  C   UNL A   1      39.177  29.373  28.831  1.00  0.00     0.074 A 
ATOM     39  C   UNL A   1      40.923  28.086  30.094  1.00  0.00     0.049 A 
ATOM     40  N   UNL A   1      39.417  30.590  29.142  1.00  0.00    -0.248 NA
ATOM     41  C   UNL A   1      37.877  29.190  28.185  1.00  0.00     0.031 C 
ATOM     42  C   UNL A   1      41.075  28.815  31.338  1.00  0.00     0.029 A 
ATOM     43  N   UNL A   1      41.932  27.122  30.160  1.00  0.00    -0.354 N 
ATOM     44  C   UNL A   1      38.196  31.221  29.174  1.00  0.00     0.074 A 
ATOM     45  C   UNL A   1      37.325  30.393  28.373  1.00  0.00     0.031 C 
ATOM     46  C   UNL A   1      42.274  28.502  31.874  1.00  0.00     0.029 A 
ATOM     47  C   UNL A   1      42.974  27.643  30.924  1.00  0.00     0.049 A 
ATOM     48  H   UNL A   1      41.910  26.231  29.741  1.00  0.00     0.167 HD
ATOM     49  C   UNL A   1      38.014  32.228  30.079  1.00  0.00     0.034 A 
ATOM     50  C   UNL A   1      44.126  27.948  30.251  1.00  0.00     0.034 A 
ATOM     51  C   UNL A   1      39.254  32.432  30.839  1.00  0.00     0.049 A 
ATOM     52  C   UNL A   1      44.253  29.450  30.145  1.00  0.00     0.074 A 
ATOM     53  C   UNL A   1      39.643  32.045  32.111  1.00  0.00     0.029 A 
ATOM     54  N   UNL A   1      40.427  32.742  30.156  1.00  0.00    -0.354 N 
ATOM     55  N   UNL A   1      43.240  30.277  30.099  1.00  0.00    -0.248 NA
ATOM     56  C   UNL A   1      45.539  30.130  30.208  1.00  0.00     0.031 C 
ATOM     57  C   UNL A   1      41.066  32.026  32.148  1.00  0.00     0.029 A 
ATOM     58  C   UNL A   1      41.541  32.407  30.902  1.00  0.00     0.049 A 
ATOM     59  H   UNL A   1      40.459  33.145  29.258  1.00  0.00     0.167 HD
ATOM     60  C   UNL A   1      43.702  31.560  30.242  1.00  0.00     0.074 A 
ATOM     61  C   UNL A   1      45.148  31.413  30.278  1.00  0.00     0.031 C 
ATOM     62  C   UNL A   1      42.882  32.647  30.375  1.00  0.00     0.034 A 
BRANCH  49  63
ATOM     63  C   UNL A   1      36.658  32.774  30.485  1.00  0.00     0.023 A 
ATOM     64  C   UNL A   1      36.136  32.636  31.791  1.00  0.00     0.012 A 
ATOM     65  C   UNL A   1      35.834  33.469  29.570  1.00  0.00     0.148 A 
ATOM     66  C   UNL A   1      34.932  33.230  32.199  1.00  0.00     0.002 A 
ATOM     67  C   UNL A   1      34.617  34.032  29.968  1.00  0.00     0.091 A 
ATOM     68  F   UNL A   1      36.207  33.595  28.290  1.00  0.00    -0.205 F 
ATOM     69  C   UNL A   1      34.169  33.933  31.285  1.00  0.00     0.022 A 
BRANCH  67  70
ATOM     70  S   UNL A   1      33.607  34.882  28.750  1.00  0.00     0.127 S 
ATOM     71  O   UNL A   1      33.166  33.796  27.879  1.00  0.00    -0.237 OA
ATOM     72  O   UNL A   1      32.586  35.532  29.564  1.00  0.00    -0.237 OA
ATOM     73  O   UNL A   1      34.551  35.811  28.123  1.00  0.00    -0.744 OA
ENDBRANCH  67  70
ENDBRANCH  49  63
BRANCH  50  74
ATOM     74  C   UNL A   1      44.420  26.924  29.176  1.00  0.00     0.023 A 
ATOM     75  C   UNL A   1      45.252  25.817  29.419  1.00  0.00     0.012 A 
ATOM     76  C   UNL A   1      44.278  27.366  27.833  1.00  0.00     0.148 A 
ATOM     77  C   UNL A   1      46.007  25.253  28.374  1.00  0.00     0.002 A 
ATOM     78  C   UNL A   1      45.106  26.870  26.826  1.00  0.00     0.091 A 
ATOM     79  F   UNL A   1      43.427  28.374  27.581  1.00  0.00    -0.205 F 
ATOM     80  C   UNL A   1      45.978  25.811  27.092  1.00  0.00     0.022 A 
BRANCH  78  81
ATOM     81  S   UNL A   1      45.275  27.798  25.288  1.00  0.00     0.127 S 
ATOM     82  O   UNL A   1      43.901  27.863  24.801  1.00  0.00    -0.237 OA
ATOM     83  O   UNL A   1      45.877  29.062  25.706  1.00  0.00    -0.237 OA
ATOM     84  O   UNL A   1      46.177  26.976  24.479  1.00  0.00    -0.744 OA
ENDBRANCH  78  81
ENDBRANCH  50  74
BRANCH  62  85
ATOM     85  C   UNL A   1      43.285  34.087  30.138  1.00  0.00     0.023 A 
ATOM     86  C   UNL A   1      43.530  34.916  31.265  1.00  0.00     0.012 A 
ATOM     87  C   UNL A   1      43.323  34.718  28.889  1.00  0.00     0.148 A 
ATOM     88  C   UNL A   1      43.770  36.286  31.160  1.00  0.00     0.002 A 
ATOM     89  C   UNL A   1      43.710  36.052  28.778  1.00  0.00     0.091 A 
ATOM     90  F   UNL A   1      42.923  34.077  27.785  1.00  0.00    -0.205 F 
ATOM     91  C   UNL A   1      43.892  36.854  29.905  1.00  0.00     0.022 A 
BRANCH  89  92
ATOM     92  S   UNL A   1      44.128  36.670  27.151  1.00  0.00     0.127 S 
ATOM     93  O   UNL A   1      42.856  36.563  26.441  1.00  0.00    -0.237 OA
ATOM     94  O   UNL A   1      44.613  38.022  27.410  1.00  0.00    -0.237 OA
ATOM     95  O   UNL A   1      45.157  35.738  26.688  1.00  0.00    -0.744 OA
ENDBRANCH  89  92
ENDBRANCH  62  85
ENDBRANCH  36  37
ENDBRANCH  28  31
ENDBRANCH  26  27
ENDBRANCH   1  26
TORSDOF 16
ENDMDL
MODEL 2
REMARK VINA RESULT:     -13.1      4.144      9.332
REMARK SMILES Cc1ccc([C@H](C)Nc2ccc(C(=O)NCCCNC(=O)c3ccc(-c4c5nc(c(-c6cccc(S(=O)(=O)[O-])c6F)c6ccc([nH]6)c(-c6cccc(S(=O)(=O)[O-])c6F)c6nc(c(-c7cccc(S(=O)(=O)[O-])c7F)c7ccc4[nH]7)C=C6)C=C5)cc3)cc2Cl)cc1F
REMARK SMILES IDX 17 1 16 2 15 3 13 4 14 5 12 7 9 8 10 9 86 10 11 11 85 12
REMARK SMILES IDX 87 13 8 14 6 16 7 17 5 18 1 19 2 20 3 21 89 22 4 23 88 24
REMARK SMILES IDX 90 25 18 26 19 27 20 28 21 30 22 31 23 32 84 33 24 34 83 35
REMARK SMILES IDX 25 36 26 37 27 38 77 39 28 40 82 41 76 42 78 43 29 44 81 45
REMARK SMILES IDX 75 46 74 47 30 49 62 50 42 51 61 52 43 53 46 54 60 55 79 56
REMARK SMILES IDX 44 57 45 58 59 60 80 61 47 62 31 63 32 64 40 65 33 66 35 67
REMARK SMILES IDX 41 68 34 69 36 70 37 71 38 72 39 73 63 74 64 75 72 76 65 77
REMARK SMILES IDX 67 78 73 79 66 80 68 81 69 82 70 83 71 84 48 85 49 86 57 87
REMARK SMILES IDX 50 88 52 89 58 90 51 91 53 92 54 93 55 94 56 95
REMARK H PARENT 15 6 8 15 19 29 78 48 46 59
REMARK Flexibility Score: inf
ROOT
ATOM      1  C   UNL A   1      32.985  28.963  26.425  1.00  0.00     0.042 C 
ENDROOT
BRANCH   1   2
ATOM      2  C   UNL A   1      33.011  29.531  24.996  1.00  0.00     0.118 C 
BRANCH   2   3
ATOM      3  N   UNL A   1      31.660  29.815  24.527  1.00  0.00    -0.352 N 
ATOM      4  C   UNL A   1      30.716  29.014  23.925  1.00  0.00     0.251 C 
ATOM      5  O   UNL A   1      29.622  29.501  23.640  1.00  0.00    -0.269 OA
ATOM      6  H   UNL A   1      31.371  30.745  24.668  1.00  0.00     0.163 HD
BRANCH   4   7
ATOM      7  C   UNL A   1      30.951  27.568  23.646  1.00  0.00     0.041 A 
ATOM      8  C   UNL A   1      31.265  24.789  23.048  1.00  0.00     0.053 A 
ATOM      9  C   UNL A   1      31.515  25.800  22.092  1.00  0.00     0.028 A 
ATOM     10  C   UNL A   1      30.829  25.217  24.302  1.00  0.00     0.065 A 
ATOM     11  C   UNL A   1      31.333  27.165  22.372  1.00  0.00     0.016 A 
ATOM     12  C   UNL A   1      30.787  26.572  24.593  1.00  0.00     0.036 A 
ATOM     13  Cl  UNL A   1      30.319  24.228  25.630  1.00  0.00    -0.082 Cl
BRANCH   8  14
ATOM     14  N   UNL A   1      31.446  23.483  22.646  1.00  0.00    -0.377 N 
ATOM     15  H   UNL A   1      31.090  23.239  21.762  1.00  0.00     0.161 HD
BRANCH  14  16
ATOM     16  C   UNL A   1      32.110  22.427  23.398  1.00  0.00     0.106 C 
ATOM     17  C   UNL A   1      32.074  21.179  22.500  1.00  0.00     0.036 C 
BRANCH  16  18
ATOM     18  C   UNL A   1      33.467  22.919  23.904  1.00  0.00    -0.023 A 
ATOM     19  C   UNL A   1      37.421  23.580  25.579  1.00  0.00     0.047 C 
ATOM     20  C   UNL A   1      36.058  23.409  24.984  1.00  0.00    -0.015 A 
ATOM     21  C   UNL A   1      35.849  23.383  23.603  1.00  0.00     0.007 A 
ATOM     22  C   UNL A   1      34.963  23.225  25.817  1.00  0.00     0.126 A 
ATOM     23  C   UNL A   1      34.572  23.134  23.071  1.00  0.00     0.006 A 
ATOM     24  C   UNL A   1      33.691  23.021  25.292  1.00  0.00     0.045 A 
ATOM     25  F   UNL A   1      35.126  23.216  27.148  1.00  0.00    -0.207 F 
ENDBRANCH  16  18
ENDBRANCH  14  16
ENDBRANCH   8  14
ENDBRANCH   4   7
ENDBRANCH   2   3
ENDBRANCH   1   2
BRANCH   1  26
ATOM     26  C   UNL A   1      34.306  29.171  27.087  1.00  0.00     0.118 C 
BRANCH  26  27
ATOM     27  N   UNL A   1      34.570  30.596  27.264  1.00  0.00    -0.352 N 
ATOM     28  C   UNL A   1      35.503  31.165  28.115  1.00  0.00     0.251 C 
ATOM     29  H   UNL A   1      34.029  31.216  26.723  1.00  0.00     0.163 HD
ATOM     30  O   UNL A   1      35.366  32.274  28.580  1.00  0.00    -0.269 OA
BRANCH  28  31
ATOM     31  C   UNL A   1      36.676  30.332  28.430  1.00  0.00     0.039 A 
ATOM     32  C   UNL A   1      36.806  29.637  29.634  1.00  0.00     0.014 A 
ATOM     33  C   UNL A   1      37.688  30.308  27.479  1.00  0.00     0.014 A 
ATOM     34  C   UNL A   1      37.984  28.934  29.859  1.00  0.00     0.010 A 
ATOM     35  C   UNL A   1      38.656  29.374  27.551  1.00  0.00     0.010 A 
ATOM     36  C   UNL A   1      38.895  28.838  28.806  1.00  0.00    -0.014 A 
BRANCH  36  37
ATOM     37  C   UNL A   1      40.241  28.323  28.885  1.00  0.00     0.031 A 
ATOM     38  C   UNL A   1      40.442  26.898  28.685  1.00  0.00     0.074 A 
ATOM     39  C   UNL A   1      41.193  29.286  28.870  1.00  0.00     0.049 A 
ATOM     40  N   UNL A   1      41.440  26.234  29.132  1.00  0.00    -0.248 NA
ATOM     41  C   UNL A   1      39.465  26.066  27.982  1.00  0.00     0.031 C 
ATOM     42  C   UNL A   1      42.611  29.240  28.568  1.00  0.00     0.029 A 
ATOM     43  N   UNL A   1      40.989  30.612  29.259  1.00  0.00    -0.354 N 
ATOM     44  C   UNL A   1      41.470  25.064  28.409  1.00  0.00     0.074 A 
ATOM     45  C   UNL A   1      40.132  24.911  27.889  1.00  0.00     0.031 C 
ATOM     46  C   UNL A   1      43.193  30.347  29.078  1.00  0.00     0.029 A 
ATOM     47  C   UNL A   1      42.174  31.082  29.821  1.00  0.00     0.049 A 
ATOM     48  H   UNL A   1      40.155  31.125  29.153  1.00  0.00     0.167 HD
ATOM     49  C   UNL A   1      42.687  24.506  28.137  1.00  0.00     0.034 A 
ATOM     50  C   UNL A   1      42.158  31.304  31.171  1.00  0.00     0.034 A 
ATOM     51  C   UNL A   1      43.747  25.324  28.739  1.00  0.00     0.049 A 
ATOM     52  C   UNL A   1      42.964  30.226  31.859  1.00  0.00     0.074 A 
ATOM     53  C   UNL A   1      44.623  26.256  28.206  1.00  0.00     0.029 A 
ATOM     54  N   UNL A   1      43.732  25.553  30.112  1.00  0.00    -0.354 N 
ATOM     55  N   UNL A   1      43.104  29.005  31.407  1.00  0.00    -0.248 NA
ATOM     56  C   UNL A   1      43.767  30.489  33.044  1.00  0.00     0.031 C 
ATOM     57  C   UNL A   1      45.050  27.110  29.262  1.00  0.00     0.029 A 
ATOM     58  C   UNL A   1      44.440  26.695  30.435  1.00  0.00     0.049 A 
ATOM     59  H   UNL A   1      43.275  24.977  30.768  1.00  0.00     0.167 HD
ATOM     60  C   UNL A   1      44.073  28.366  32.136  1.00  0.00     0.074 A 
ATOM     61  C   UNL A   1      44.434  29.329  33.165  1.00  0.00     0.031 C 
ATOM     62  C   UNL A   1      44.554  27.123  31.827  1.00  0.00     0.034 A 
BRANCH  49  63
ATOM     63  C   UNL A   1      42.919  23.443  27.078  1.00  0.00     0.023 A 
ATOM     64  C   UNL A   1      43.699  23.671  25.922  1.00  0.00     0.012 A 
ATOM     65  C   UNL A   1      42.368  22.147  27.196  1.00  0.00     0.148 A 
ATOM     66  C   UNL A   1      44.003  22.663  24.996  1.00  0.00     0.002 A 
ATOM     67  C   UNL A   1      42.643  21.150  26.254  1.00  0.00     0.091 A 
ATOM     68  F   UNL A   1      41.558  21.850  28.220  1.00  0.00    -0.205 F 
ATOM     69  C   UNL A   1      43.476  21.395  25.162  1.00  0.00     0.022 A 
BRANCH  67  70
ATOM     70  S   UNL A   1      41.892  19.530  26.450  1.00  0.00     0.127 S 
ATOM     71  O   UNL A   1      40.471  19.807  26.267  1.00  0.00    -0.237 OA
ATOM     72  O   UNL A   1      42.549  18.735  25.419  1.00  0.00    -0.237 OA
ATOM     73  O   UNL A   1      42.261  19.155  27.817  1.00  0.00    -0.744 OA
ENDBRANCH  67  70
ENDBRANCH  49  63
BRANCH  50  74
ATOM     74  C   UNL A   1      40.833  31.884  31.616  1.00  0.00     0.023 A 
ATOM     75  C   UNL A   1      40.638  33.271  31.736  1.00  0.00     0.012 A 
ATOM     76  C   UNL A   1      39.999  31.028  32.382  1.00  0.00     0.148 A 
ATOM     77  C   UNL A   1      39.727  33.782  32.678  1.00  0.00     0.002 A 
ATOM     78  C   UNL A   1      39.176  31.542  33.385  1.00  0.00     0.091 A 
ATOM     79  F   UNL A   1      40.125  29.701  32.218  1.00  0.00    -0.205 F 
ATOM     80  C   UNL A   1      39.038  32.923  33.540  1.00  0.00     0.022 A 
BRANCH  78  81
ATOM     81  S   UNL A   1      38.553  30.434  34.666  1.00  0.00     0.127 S 
ATOM     82  O   UNL A   1      37.795  29.451  33.899  1.00  0.00    -0.237 OA
ATOM     83  O   UNL A   1      39.761  29.950  35.330  1.00  0.00    -0.237 OA
ATOM     84  O   UNL A   1      37.742  31.306  35.520  1.00  0.00    -0.744 OA
ENDBRANCH  78  81
ENDBRANCH  50  74
BRANCH  62  85
ATOM     85  C   UNL A   1      45.302  26.209  32.774  1.00  0.00     0.023 A 
ATOM     86  C   UNL A   1      46.719  26.154  32.684  1.00  0.00     0.012 A 
ATOM     87  C   UNL A   1      44.705  25.308  33.663  1.00  0.00     0.148 A 
ATOM     88  C   UNL A   1      47.489  25.246  33.412  1.00  0.00     0.002 A 
ATOM     89  C   UNL A   1      45.485  24.508  34.495  1.00  0.00     0.091 A 
ATOM     90  F   UNL A   1      43.377  25.145  33.685  1.00  0.00    -0.205 F 
ATOM     91  C   UNL A   1      46.871  24.437  34.348  1.00  0.00     0.022 A 
BRANCH  89  92
ATOM     92  S   UNL A   1      44.679  23.694  35.871  1.00  0.00     0.127 S 
ATOM     93  O   UNL A   1      44.000  24.804  36.535  1.00  0.00    -0.237 OA
ATOM     94  O   UNL A   1      43.823  22.702  35.230  1.00  0.00    -0.237 OA
ATOM     95  O   UNL A   1      45.795  23.129  36.631  1.00  0.00    -0.744 OA
ENDBRANCH  89  92
ENDBRANCH  62  85
ENDBRANCH  36  37
ENDBRANCH  28  31
ENDBRANCH  26  27
ENDBRANCH   1  26
TORSDOF 16
ENDMDL
MODEL 3
REMARK VINA RESULT:     -12.7      4.272      9.553
REMARK SMILES Cc1ccc([C@H](C)Nc2ccc(C(=O)NCCCNC(=O)c3ccc(-c4c5nc(c(-c6cccc(S(=O)(=O)[O-])c6F)c6ccc([nH]6)c(-c6cccc(S(=O)(=O)[O-])c6F)c6nc(c(-c7cccc(S(=O)(=O)[O-])c7F)c7ccc4[nH]7)C=C6)C=C5)cc3)cc2Cl)cc1F
REMARK SMILES IDX 17 1 16 2 15 3 13 4 14 5 12 7 9 8 10 9 86 10 11 11 85 12
REMARK SMILES IDX 87 13 8 14 6 16 7 17 5 18 1 19 2 20 3 21 89 22 4 23 88 24
REMARK SMILES IDX 90 25 18 26 19 27 20 28 21 30 22 31 23 32 84 33 24 34 83 35
REMARK SMILES IDX 25 36 26 37 27 38 77 39 28 40 82 41 76 42 78 43 29 44 81 45
REMARK SMILES IDX 75 46 74 47 30 49 62 50 42 51 61 52 43 53 46 54 60 55 79 56
REMARK SMILES IDX 44 57 45 58 59 60 80 61 47 62 31 63 32 64 40 65 33 66 35 67
REMARK SMILES IDX 41 68 34 69 36 70 37 71 38 72 39 73 63 74 64 75 72 76 65 77
REMARK SMILES IDX 67 78 73 79 66 80 68 81 69 82 70 83 71 84 48 85 49 86 57 87
REMARK SMILES IDX 50 88 52 89 58 90 51 91 53 92 54 93 55 94 56 95
REMARK H PARENT 15 6 8 15 19 29 78 48 46 59
REMARK Flexibility Score: inf
ROOT
ATOM      1  C   UNL A   1      32.930  29.096  26.436  1.00  0.00     0.042 C 
ENDROOT
BRANCH   1   2
ATOM      2  C   UNL A   1      33.027  29.264  24.911  1.00  0.00     0.118 C 
BRANCH   2   3
ATOM      3  N   UNL A   1      31.700  29.333  24.312  1.00  0.00    -0.352 N 
ATOM      4  C   UNL A   1      30.786  28.351  24.003  1.00  0.00     0.251 C 
ATOM      5  O   UNL A   1      29.706  28.682  23.512  1.00  0.00    -0.269 OA
ATOM      6  H   UNL A   1      31.405  30.245  24.089  1.00  0.00     0.163 HD
BRANCH   4   7
ATOM      7  C   UNL A   1      31.033  26.908  24.283  1.00  0.00     0.041 A 
ATOM      8  C   UNL A   1      31.623  24.179  24.905  1.00  0.00     0.053 A 
ATOM      9  C   UNL A   1      30.872  25.005  25.771  1.00  0.00     0.028 A 
ATOM     10  C   UNL A   1      32.090  24.774  23.733  1.00  0.00     0.065 A 
ATOM     11  C   UNL A   1      30.604  26.355  25.484  1.00  0.00     0.016 A 
ATOM     12  C   UNL A   1      31.700  26.065  23.411  1.00  0.00     0.036 A 
ATOM     13  Cl  UNL A   1      33.137  24.072  22.544  1.00  0.00    -0.082 Cl
BRANCH   8  14
ATOM     14  N   UNL A   1      31.849  22.881  25.310  1.00  0.00    -0.377 N 
ATOM     15  H   UNL A   1      31.066  22.285  25.338  1.00  0.00     0.161 HD
BRANCH  14  16
ATOM     16  C   UNL A   1      33.126  22.304  25.704  1.00  0.00     0.106 C 
ATOM     17  C   UNL A   1      33.142  22.314  27.241  1.00  0.00     0.036 C 
BRANCH  16  18
ATOM     18  C   UNL A   1      33.341  20.971  24.984  1.00  0.00    -0.023 A 
ATOM     19  C   UNL A   1      34.018  16.890  23.658  1.00  0.00     0.047 C 
ATOM     20  C   UNL A   1      33.778  18.311  24.058  1.00  0.00    -0.015 A 
ATOM     21  C   UNL A   1      32.517  18.907  23.963  1.00  0.00     0.007 A 
ATOM     22  C   UNL A   1      34.821  19.063  24.582  1.00  0.00     0.126 A 
ATOM     23  C   UNL A   1      32.301  20.216  24.427  1.00  0.00     0.006 A 
ATOM     24  C   UNL A   1      34.617  20.373  25.002  1.00  0.00     0.045 A 
ATOM     25  F   UNL A   1      36.039  18.520  24.714  1.00  0.00    -0.207 F 
ENDBRANCH  16  18
ENDBRANCH  14  16
ENDBRANCH   8  14
ENDBRANCH   4   7
ENDBRANCH   2   3
ENDBRANCH   1   2
BRANCH   1  26
ATOM     26  C   UNL A   1      34.269  29.291  27.064  1.00  0.00     0.118 C 
BRANCH  26  27
ATOM     27  N   UNL A   1      34.517  30.709  27.309  1.00  0.00    -0.352 N 
ATOM     28  C   UNL A   1      35.428  31.247  28.201  1.00  0.00     0.251 C 
ATOM     29  H   UNL A   1      33.980  31.348  26.786  1.00  0.00     0.163 HD
ATOM     30  O   UNL A   1      35.273  32.333  28.712  1.00  0.00    -0.269 OA
BRANCH  28  31
ATOM     31  C   UNL A   1      36.603  30.411  28.502  1.00  0.00     0.039 A 
ATOM     32  C   UNL A   1      36.745  29.714  29.703  1.00  0.00     0.014 A 
ATOM     33  C   UNL A   1      37.604  30.385  27.540  1.00  0.00     0.014 A 
ATOM     34  C   UNL A   1      37.924  29.007  29.914  1.00  0.00     0.010 A 
ATOM     35  C   UNL A   1      38.570  29.449  27.598  1.00  0.00     0.010 A 
ATOM     36  C   UNL A   1      38.822  28.911  28.850  1.00  0.00    -0.014 A 
BRANCH  36  37
ATOM     37  C   UNL A   1      40.167  28.392  28.913  1.00  0.00     0.031 A 
ATOM     38  C   UNL A   1      40.364  26.969  28.693  1.00  0.00     0.074 A 
ATOM     39  C   UNL A   1      41.122  29.353  28.905  1.00  0.00     0.049 A 
ATOM     40  N   UNL A   1      41.364  26.297  29.123  1.00  0.00    -0.248 NA
ATOM     41  C   UNL A   1      39.381  26.148  27.985  1.00  0.00     0.031 C 
ATOM     42  C   UNL A   1      42.537  29.308  28.592  1.00  0.00     0.029 A 
ATOM     43  N   UNL A   1      40.923  30.674  29.313  1.00  0.00    -0.354 N 
ATOM     44  C   UNL A   1      41.387  25.137  28.384  1.00  0.00     0.074 A 
ATOM     45  C   UNL A   1      40.045  24.994  27.871  1.00  0.00     0.031 C 
ATOM     46  C   UNL A   1      43.125  30.407  29.113  1.00  0.00     0.029 A 
ATOM     47  C   UNL A   1      42.113  31.134  29.873  1.00  0.00     0.049 A 
ATOM     48  H   UNL A   1      40.089  31.190  29.220  1.00  0.00     0.167 HD
ATOM     49  C   UNL A   1      42.600  24.580  28.096  1.00  0.00     0.034 A 
ATOM     50  C   UNL A   1      42.107  31.337  31.226  1.00  0.00     0.034 A 
ATOM     51  C   UNL A   1      43.666  25.388  28.702  1.00  0.00     0.049 A 
ATOM     52  C   UNL A   1      42.914  30.248  31.894  1.00  0.00     0.074 A 
ATOM     53  C   UNL A   1      44.540  26.326  28.176  1.00  0.00     0.029 A 
ATOM     54  N   UNL A   1      43.661  25.598  30.079  1.00  0.00    -0.354 N 
ATOM     55  N   UNL A   1      43.049  29.034  31.425  1.00  0.00    -0.248 NA
ATOM     56  C   UNL A   1      43.726  30.494  33.077  1.00  0.00     0.031 C 
ATOM     57  C   UNL A   1      44.977  27.165  29.240  1.00  0.00     0.029 A 
ATOM     58  C   UNL A   1      44.374  26.734  30.412  1.00  0.00     0.049 A 
ATOM     59  H   UNL A   1      43.208  25.014  30.729  1.00  0.00     0.167 HD
ATOM     60  C   UNL A   1      44.022  28.383  32.138  1.00  0.00     0.074 A 
ATOM     61  C   UNL A   1      44.391  29.331  33.177  1.00  0.00     0.031 C 
ATOM     62  C   UNL A   1      44.499  27.143  31.809  1.00  0.00     0.034 A 
BRANCH  49  63
ATOM     63  C   UNL A   1      42.823  23.532  27.021  1.00  0.00     0.023 A 
ATOM     64  C   UNL A   1      43.561  23.786  25.844  1.00  0.00     0.012 A 
ATOM     65  C   UNL A   1      42.306  22.222  27.146  1.00  0.00     0.148 A 
ATOM     66  C   UNL A   1      43.859  22.793  24.900  1.00  0.00     0.002 A 
ATOM     67  C   UNL A   1      42.574  21.240  26.187  1.00  0.00     0.091 A 
ATOM     68  F   UNL A   1      41.537  21.898  28.192  1.00  0.00    -0.205 F 
ATOM     69  C   UNL A   1      43.366  21.512  25.072  1.00  0.00     0.022 A 
BRANCH  67  70
ATOM     70  S   UNL A   1      41.867  19.601  26.393  1.00  0.00     0.127 S 
ATOM     71  O   UNL A   1      42.551  18.822  25.366  1.00  0.00    -0.237 OA
ATOM     72  O   UNL A   1      42.177  19.280  27.782  1.00  0.00    -0.237 OA
ATOM     73  O   UNL A   1      40.441  19.817  26.135  1.00  0.00    -0.744 OA
ENDBRANCH  67  70
ENDBRANCH  49  63
BRANCH  50  74
ATOM     74  C   UNL A   1      40.786  31.914  31.688  1.00  0.00     0.023 A 
ATOM     75  C   UNL A   1      40.590  33.301  31.813  1.00  0.00     0.012 A 
ATOM     76  C   UNL A   1      39.962  31.055  32.462  1.00  0.00     0.148 A 
ATOM     77  C   UNL A   1      39.688  33.808  32.767  1.00  0.00     0.002 A 
ATOM     78  C   UNL A   1      39.151  31.565  33.476  1.00  0.00     0.091 A 
ATOM     79  F   UNL A   1      40.089  29.728  32.294  1.00  0.00    -0.205 F 
ATOM     80  C   UNL A   1      39.011  32.946  33.636  1.00  0.00     0.022 A 
BRANCH  78  81
ATOM     81  S   UNL A   1      38.544  30.453  34.762  1.00  0.00     0.127 S 
ATOM     82  O   UNL A   1      37.773  29.475  34.002  1.00  0.00    -0.237 OA
ATOM     83  O   UNL A   1      39.761  29.964  35.405  1.00  0.00    -0.237 OA
ATOM     84  O   UNL A   1      37.749  31.323  35.632  1.00  0.00    -0.744 OA
ENDBRANCH  78  81
ENDBRANCH  50  74
BRANCH  62  85
ATOM     85  C   UNL A   1      45.250  26.215  32.738  1.00  0.00     0.023 A 
ATOM     86  C   UNL A   1      46.666  26.150  32.631  1.00  0.00     0.012 A 
ATOM     87  C   UNL A   1      44.657  25.310  33.626  1.00  0.00     0.148 A 
ATOM     88  C   UNL A   1      47.438  25.230  33.340  1.00  0.00     0.002 A 
ATOM     89  C   UNL A   1      45.442  24.496  34.441  1.00  0.00     0.091 A 
ATOM     90  F   UNL A   1      43.329  25.156  33.662  1.00  0.00    -0.205 F 
ATOM     91  C   UNL A   1      46.825  24.418  34.276  1.00  0.00     0.022 A 
BRANCH  89  92
ATOM     92  S   UNL A   1      44.646  23.676  35.819  1.00  0.00     0.127 S 
ATOM     93  O   UNL A   1      43.823  22.672  35.150  1.00  0.00    -0.237 OA
ATOM     94  O   UNL A   1      45.764  23.173  36.611  1.00  0.00    -0.237 OA
ATOM     95  O   UNL A   1      43.887  24.750  36.460  1.00  0.00    -0.744 OA
ENDBRANCH  89  92
ENDBRANCH  62  85
ENDBRANCH  36  37
ENDBRANCH  28  31
ENDBRANCH  26  27
ENDBRANCH   1  26
TORSDOF 16
ENDMDL
