MODEL 1
REMARK VINA RESULT:     -11.9      0.000      0.000
REMARK SMILES CCOc1ccc(-n2ncc(C(=O)NCCCNC(=O)c3ccc(-c4c5nc(c(-c6cccc(S(=O)(=O)[O-])c6F)c6ccc([nH]6)c(-c6cccc(S(=O)(=O)[O-])c6F)c6nc(c(-c7cccc(S(=O)(=O)[O-])c7F)c7ccc4[nH]7)C=C6)C=C5)cc3)c2C)nn1
REMARK SMILES IDX 16 1 15 2 14 3 12 4 13 5 11 7 8 8 9 9 84 10 10 11 85 12 7 13
REMARK SMILES IDX 4 14 5 15 87 16 6 17 86 18 3 19 2 20 1 21 17 22 18 23 19 24
REMARK SMILES IDX 20 26 21 27 22 28 83 29 23 30 82 31 24 32 25 33 26 34 76 35
REMARK SMILES IDX 27 36 81 37 75 38 77 39 28 40 80 41 74 42 73 43 29 45 61 46
REMARK SMILES IDX 41 47 60 48 42 49 45 50 59 51 78 52 43 53 44 54 58 56 79 57
REMARK SMILES IDX 46 58 30 59 31 60 39 61 32 62 34 63 40 64 33 65 35 66 36 67
REMARK SMILES IDX 37 68 38 69 62 70 63 71 71 72 64 73 66 74 72 75 65 76 67 77
REMARK SMILES IDX 68 78 69 79 70 80 47 81 48 82 56 83 49 84 51 85 57 86 50 87
REMARK SMILES IDX 52 88 53 89 54 90 55 91
REMARK H PARENT 14 6 18 25 77 44 45 55
REMARK Flexibility Score: inf
ROOT
ATOM      1  C   UNL A   1      37.585  19.746  24.881  1.00  0.00     0.042 C 
ENDROOT
BRANCH   1   2
ATOM      2  C   UNL A   1      36.397  20.686  25.100  1.00  0.00     0.118 C 
BRANCH   2   3
ATOM      3  N   UNL A   1      35.160  19.961  25.320  1.00  0.00    -0.352 N 
ATOM      4  C   UNL A   1      33.839  20.329  25.284  1.00  0.00     0.254 C 
ATOM      5  O   UNL A   1      33.020  19.423  25.423  1.00  0.00    -0.269 OA
ATOM      6  H   UNL A   1      35.297  19.011  25.541  1.00  0.00     0.163 HD
BRANCH   4   7
ATOM      7  C   UNL A   1      33.423  21.705  25.030  1.00  0.00     0.081 A 
ATOM      8  N   UNL A   1      32.874  23.849  25.367  1.00  0.00    -0.217 N 
ATOM      9  N   UNL A   1      32.502  23.570  24.086  1.00  0.00    -0.174 NA
ATOM     10  C   UNL A   1      33.451  22.741  25.972  1.00  0.00     0.056 A 
ATOM     11  C   UNL A   1      32.937  22.333  23.873  1.00  0.00     0.149 A 
ATOM     12  C   UNL A   1      33.919  22.686  27.389  1.00  0.00     0.068 C 
BRANCH   8  13
ATOM     13  C   UNL A   1      32.618  25.155  25.878  1.00  0.00     0.176 A 
ATOM     14  C   UNL A   1      32.213  27.620  26.920  1.00  0.00     0.233 A 
ATOM     15  C   UNL A   1      33.409  27.380  26.280  1.00  0.00     0.074 A 
ATOM     16  N   UNL A   1      31.247  26.688  27.038  1.00  0.00    -0.110 NA
ATOM     17  C   UNL A   1      33.617  26.118  25.747  1.00  0.00     0.057 A 
ATOM     18  N   UNL A   1      31.447  25.442  26.492  1.00  0.00    -0.127 NA
BRANCH  14  19
ATOM     19  O   UNL A   1      32.031  28.831  27.539  1.00  0.00    -0.477 OA
BRANCH  19  20
ATOM     20  C   UNL A   1      32.691  29.869  26.812  1.00  0.00     0.228 C 
ATOM     21  C   UNL A   1      31.801  31.100  26.733  1.00  0.00     0.049 C 
ENDBRANCH  19  20
ENDBRANCH  14  19
ENDBRANCH   8  13
ENDBRANCH   4   7
ENDBRANCH   2   3
ENDBRANCH   1   2
BRANCH   1  22
ATOM     22  C   UNL A   1      38.856  20.291  25.525  1.00  0.00     0.118 C 
BRANCH  22  23
ATOM     23  N   UNL A   1      39.910  19.277  25.583  1.00  0.00    -0.352 N 
ATOM     24  C   UNL A   1      41.239  19.419  25.928  1.00  0.00     0.251 C 
ATOM     25  H   UNL A   1      39.631  18.364  25.342  1.00  0.00     0.163 HD
ATOM     26  O   UNL A   1      42.041  18.540  25.664  1.00  0.00    -0.269 OA
BRANCH  24  27
ATOM     27  C   UNL A   1      41.674  20.663  26.589  1.00  0.00     0.039 A 
ATOM     28  C   UNL A   1      42.117  21.741  25.819  1.00  0.00     0.014 A 
ATOM     29  C   UNL A   1      41.589  20.761  27.974  1.00  0.00     0.014 A 
ATOM     30  C   UNL A   1      42.383  22.953  26.448  1.00  0.00     0.010 A 
ATOM     31  C   UNL A   1      41.730  21.991  28.577  1.00  0.00     0.010 A 
ATOM     32  C   UNL A   1      42.159  23.085  27.827  1.00  0.00    -0.014 A 
BRANCH  32  33
ATOM     33  C   UNL A   1      42.268  24.400  28.457  1.00  0.00     0.031 A 
ATOM     34  C   UNL A   1      41.110  25.318  28.246  1.00  0.00     0.074 A 
ATOM     35  C   UNL A   1      43.227  24.719  29.353  1.00  0.00     0.049 A 
ATOM     36  N   UNL A   1      41.102  26.451  27.622  1.00  0.00    -0.248 NA
ATOM     37  C   UNL A   1      39.784  24.879  28.700  1.00  0.00     0.031 C 
ATOM     38  C   UNL A   1      44.244  23.841  29.943  1.00  0.00     0.029 A 
ATOM     39  N   UNL A   1      43.386  25.879  30.049  1.00  0.00    -0.354 N 
ATOM     40  C   UNL A   1      39.818  26.973  27.791  1.00  0.00     0.074 A 
ATOM     41  C   UNL A   1      39.014  25.896  28.308  1.00  0.00     0.031 C 
ATOM     42  C   UNL A   1      44.710  24.402  31.079  1.00  0.00     0.029 A 
ATOM     43  C   UNL A   1      44.168  25.742  31.188  1.00  0.00     0.049 A 
ATOM     44  H   UNL A   1      42.985  26.733  29.770  1.00  0.00     0.167 HD
ATOM     45  C   UNL A   1      39.571  28.311  27.702  1.00  0.00     0.034 A 
ATOM     46  C   UNL A   1      44.320  26.649  32.180  1.00  0.00     0.034 A 
ATOM     47  C   UNL A   1      40.672  29.015  27.095  1.00  0.00     0.049 A 
ATOM     48  C   UNL A   1      43.948  27.971  31.628  1.00  0.00     0.074 A 
ATOM     49  C   UNL A   1      41.348  28.939  25.895  1.00  0.00     0.029 A 
ATOM     50  N   UNL A   1      41.475  29.754  27.929  1.00  0.00    -0.354 N 
ATOM     51  N   UNL A   1      44.624  28.580  30.693  1.00  0.00    -0.248 NA
ATOM     52  C   UNL A   1      42.592  28.449  31.834  1.00  0.00     0.031 C 
ATOM     53  C   UNL A   1      42.711  29.197  26.228  1.00  0.00     0.029 A 
ATOM     54  C   UNL A   1      42.770  29.464  27.598  1.00  0.00     0.049 A 
ATOM     55  H   UNL A   1      41.176  30.374  28.633  1.00  0.00     0.167 HD
ATOM     56  C   UNL A   1      43.654  29.184  29.904  1.00  0.00     0.074 A 
ATOM     57  C   UNL A   1      42.446  29.180  30.726  1.00  0.00     0.031 C 
ATOM     58  C   UNL A   1      43.844  29.364  28.563  1.00  0.00     0.034 A 
BRANCH  45  59
ATOM     59  C   UNL A   1      38.498  29.063  28.461  1.00  0.00     0.023 A 
ATOM     60  C   UNL A   1      37.710  29.985  27.729  1.00  0.00     0.012 A 
ATOM     61  C   UNL A   1      38.409  29.131  29.869  1.00  0.00     0.148 A 
ATOM     62  C   UNL A   1      36.934  30.962  28.363  1.00  0.00     0.002 A 
ATOM     63  C   UNL A   1      37.570  30.049  30.494  1.00  0.00     0.091 A 
ATOM     64  F   UNL A   1      39.234  28.405  30.629  1.00  0.00    -0.205 F 
ATOM     65  C   UNL A   1      36.858  30.990  29.748  1.00  0.00     0.022 A 
BRANCH  63  66
ATOM     66  S   UNL A   1      37.385  30.081  32.281  1.00  0.00     0.127 S 
ATOM     67  O   UNL A   1      37.052  28.689  32.565  1.00  0.00    -0.237 OA
ATOM     68  O   UNL A   1      38.719  30.502  32.715  1.00  0.00    -0.237 OA
ATOM     69  O   UNL A   1      36.340  31.064  32.540  1.00  0.00    -0.744 OA
ENDBRANCH  63  66
ENDBRANCH  45  59
BRANCH  46  70
ATOM     70  C   UNL A   1      44.554  26.428  33.623  1.00  0.00     0.023 A 
ATOM     71  C   UNL A   1      45.845  26.603  34.154  1.00  0.00     0.012 A 
ATOM     72  C   UNL A   1      43.469  26.306  34.521  1.00  0.00     0.148 A 
ATOM     73  C   UNL A   1      46.048  26.686  35.537  1.00  0.00     0.002 A 
ATOM     74  C   UNL A   1      43.676  26.381  35.894  1.00  0.00     0.091 A 
ATOM     75  F   UNL A   1      42.228  26.208  34.026  1.00  0.00    -0.205 F 
ATOM     76  C   UNL A   1      44.964  26.584  36.406  1.00  0.00     0.022 A 
BRANCH  74  77
ATOM     77  S   UNL A   1      42.325  26.273  37.075  1.00  0.00     0.127 S 
ATOM     78  O   UNL A   1      41.789  24.940  36.803  1.00  0.00    -0.237 OA
ATOM     79  O   UNL A   1      43.027  26.404  38.349  1.00  0.00    -0.237 OA
ATOM     80  O   UNL A   1      41.418  27.362  36.735  1.00  0.00    -0.744 OA
ENDBRANCH  74  77
ENDBRANCH  46  70
BRANCH  58  81
ATOM     81  C   UNL A   1      45.226  29.147  27.994  1.00  0.00     0.023 A 
ATOM     82  C   UNL A   1      46.215  30.152  28.024  1.00  0.00     0.012 A 
ATOM     83  C   UNL A   1      45.591  27.848  27.599  1.00  0.00     0.148 A 
ATOM     84  C   UNL A   1      47.532  29.874  27.647  1.00  0.00     0.002 A 
ATOM     85  C   UNL A   1      46.913  27.565  27.271  1.00  0.00     0.091 A 
ATOM     86  F   UNL A   1      44.644  26.898  27.580  1.00  0.00    -0.205 F 
ATOM     87  C   UNL A   1      47.884  28.576  27.284  1.00  0.00     0.022 A 
BRANCH  85  88
ATOM     88  S   UNL A   1      47.453  25.887  26.928  1.00  0.00     0.127 S 
ATOM     89  O   UNL A   1      48.888  26.065  26.718  1.00  0.00    -0.237 OA
ATOM     90  O   UNL A   1      47.098  25.182  28.162  1.00  0.00    -0.237 OA
ATOM     91  O   UNL A   1      46.693  25.454  25.762  1.00  0.00    -0.744 OA
ENDBRANCH  85  88
ENDBRANCH  58  81
ENDBRANCH  32  33
ENDBRANCH  24  27
ENDBRANCH  22  23
ENDBRANCH   1  22
TORSDOF 16
ENDMDL
MODEL 2
REMARK VINA RESULT:     -10.9      2.938      6.940
REMARK SMILES CCOc1ccc(-n2ncc(C(=O)NCCCNC(=O)c3ccc(-c4c5nc(c(-c6cccc(S(=O)(=O)[O-])c6F)c6ccc([nH]6)c(-c6cccc(S(=O)(=O)[O-])c6F)c6nc(c(-c7cccc(S(=O)(=O)[O-])c7F)c7ccc4[nH]7)C=C6)C=C5)cc3)c2C)nn1
REMARK SMILES IDX 16 1 15 2 14 3 12 4 13 5 11 7 8 8 9 9 84 10 10 11 85 12 7 13
REMARK SMILES IDX 4 14 5 15 87 16 6 17 86 18 3 19 2 20 1 21 17 22 18 23 19 24
REMARK SMILES IDX 20 26 21 27 22 28 83 29 23 30 82 31 24 32 25 33 26 34 76 35
REMARK SMILES IDX 27 36 81 37 75 38 77 39 28 40 80 41 74 42 73 43 29 45 61 46
REMARK SMILES IDX 41 47 60 48 42 49 45 50 59 51 78 52 43 53 44 54 58 56 79 57
REMARK SMILES IDX 46 58 30 59 31 60 39 61 32 62 34 63 40 64 33 65 35 66 36 67
REMARK SMILES IDX 37 68 38 69 62 70 63 71 71 72 64 73 66 74 72 75 65 76 67 77
REMARK SMILES IDX 68 78 69 79 70 80 47 81 48 82 56 83 49 84 51 85 57 86 50 87
REMARK SMILES IDX 52 88 53 89 54 90 55 91
REMARK H PARENT 14 6 18 25 77 44 45 55
REMARK Flexibility Score: inf
ROOT
ATOM      1  C   UNL A   1      36.134  21.794  25.896  1.00  0.00     0.042 C 
ENDROOT
BRANCH   1   2
ATOM      2  C   UNL A   1      35.776  20.627  24.971  1.00  0.00     0.118 C 
BRANCH   2   3
ATOM      3  N   UNL A   1      34.519  20.003  25.339  1.00  0.00    -0.352 N 
ATOM      4  C   UNL A   1      33.208  20.332  25.109  1.00  0.00     0.254 C 
ATOM      5  O   UNL A   1      32.370  19.513  25.481  1.00  0.00    -0.269 OA
ATOM      6  H   UNL A   1      34.631  19.174  25.859  1.00  0.00     0.163 HD
BRANCH   4   7
ATOM      7  C   UNL A   1      32.825  21.551  24.404  1.00  0.00     0.081 A 
ATOM      8  N   UNL A   1      32.161  23.653  24.015  1.00  0.00    -0.217 N 
ATOM      9  N   UNL A   1      32.091  23.017  22.812  1.00  0.00    -0.174 NA
ATOM     10  C   UNL A   1      32.616  22.798  25.008  1.00  0.00     0.056 A 
ATOM     11  C   UNL A   1      32.593  21.809  23.045  1.00  0.00     0.149 A 
ATOM     12  C   UNL A   1      32.757  23.158  26.450  1.00  0.00     0.068 C 
BRANCH   8  13
ATOM     13  C   UNL A   1      31.764  25.021  24.081  1.00  0.00     0.176 A 
ATOM     14  C   UNL A   1      30.928  27.595  24.139  1.00  0.00     0.233 A 
ATOM     15  C   UNL A   1      30.098  26.636  24.677  1.00  0.00     0.074 A 
ATOM     16  N   UNL A   1      32.128  27.305  23.601  1.00  0.00    -0.110 NA
ATOM     17  C   UNL A   1      30.525  25.318  24.646  1.00  0.00     0.057 A 
ATOM     18  N   UNL A   1      32.559  25.999  23.588  1.00  0.00    -0.127 NA
BRANCH  14  19
ATOM     19  O   UNL A   1      30.478  28.889  24.072  1.00  0.00    -0.477 OA
BRANCH  19  20
ATOM     20  C   UNL A   1      30.188  29.249  22.720  1.00  0.00     0.228 C 
ATOM     21  C   UNL A   1      28.685  29.238  22.486  1.00  0.00     0.049 C 
ENDBRANCH  19  20
ENDBRANCH  14  19
ENDBRANCH   8  13
ENDBRANCH   4   7
ENDBRANCH   2   3
ENDBRANCH   1   2
BRANCH   1  22
ATOM     22  C   UNL A   1      37.467  22.426  25.510  1.00  0.00     0.118 C 
BRANCH  22  23
ATOM     23  N   UNL A   1      38.575  21.481  25.656  1.00  0.00    -0.352 N 
ATOM     24  C   UNL A   1      39.832  21.686  26.191  1.00  0.00     0.251 C 
ATOM     25  H   UNL A   1      38.400  20.570  25.326  1.00  0.00     0.163 HD
ATOM     26  O   UNL A   1      40.724  20.881  25.992  1.00  0.00    -0.269 OA
BRANCH  24  27
ATOM     27  C   UNL A   1      40.080  22.907  26.978  1.00  0.00     0.039 A 
ATOM     28  C   UNL A   1      41.188  22.976  27.825  1.00  0.00     0.014 A 
ATOM     29  C   UNL A   1      39.228  23.998  26.826  1.00  0.00     0.014 A 
ATOM     30  C   UNL A   1      41.488  24.185  28.445  1.00  0.00     0.010 A 
ATOM     31  C   UNL A   1      39.595  25.221  27.338  1.00  0.00     0.010 A 
ATOM     32  C   UNL A   1      40.705  25.317  28.175  1.00  0.00    -0.014 A 
BRANCH  32  33
ATOM     33  C   UNL A   1      41.120  26.624  28.684  1.00  0.00     0.031 A 
ATOM     34  C   UNL A   1      42.406  27.153  28.141  1.00  0.00     0.074 A 
ATOM     35  C   UNL A   1      40.322  27.423  29.424  1.00  0.00     0.049 A 
ATOM     36  N   UNL A   1      43.500  27.391  28.788  1.00  0.00    -0.248 NA
ATOM     37  C   UNL A   1      42.517  27.350  26.689  1.00  0.00     0.031 C 
ATOM     38  C   UNL A   1      38.909  27.224  29.767  1.00  0.00     0.029 A 
ATOM     39  N   UNL A   1      40.574  28.677  29.891  1.00  0.00    -0.354 N 
ATOM     40  C   UNL A   1      44.371  27.974  27.865  1.00  0.00     0.074 A 
ATOM     41  C   UNL A   1      43.780  27.765  26.570  1.00  0.00     0.031 C 
ATOM     42  C   UNL A   1      38.367  28.408  30.126  1.00  0.00     0.029 A 
ATOM     43  C   UNL A   1      39.428  29.391  30.217  1.00  0.00     0.049 A 
ATOM     44  H   UNL A   1      41.482  29.042  29.990  1.00  0.00     0.167 HD
ATOM     45  C   UNL A   1      45.401  28.776  28.260  1.00  0.00     0.034 A 
ATOM     46  C   UNL A   1      39.349  30.713  30.493  1.00  0.00     0.034 A 
ATOM     47  C   UNL A   1      45.661  28.652  29.671  1.00  0.00     0.049 A 
ATOM     48  C   UNL A   1      40.702  31.161  30.890  1.00  0.00     0.074 A 
ATOM     49  C   UNL A   1      45.981  27.617  30.526  1.00  0.00     0.029 A 
ATOM     50  N   UNL A   1      45.243  29.684  30.476  1.00  0.00    -0.354 N 
ATOM     51  N   UNL A   1      41.305  30.765  31.977  1.00  0.00    -0.248 NA
ATOM     52  C   UNL A   1      41.560  31.751  29.877  1.00  0.00     0.031 C 
ATOM     53  C   UNL A   1      45.274  27.908  31.731  1.00  0.00     0.029 A 
ATOM     54  C   UNL A   1      44.610  29.123  31.551  1.00  0.00     0.049 A 
ATOM     55  H   UNL A   1      45.374  30.646  30.311  1.00  0.00     0.167 HD
ATOM     56  C   UNL A   1      42.636  30.634  31.605  1.00  0.00     0.074 A 
ATOM     57  C   UNL A   1      42.751  31.377  30.352  1.00  0.00     0.031 C 
ATOM     58  C   UNL A   1      43.445  29.699  32.188  1.00  0.00     0.034 A 
BRANCH  45  59
ATOM     59  C   UNL A   1      45.968  29.938  27.471  1.00  0.00     0.023 A 
ATOM     60  C   UNL A   1      47.373  30.115  27.495  1.00  0.00     0.012 A 
ATOM     61  C   UNL A   1      45.203  31.008  26.955  1.00  0.00     0.148 A 
ATOM     62  C   UNL A   1      47.975  31.313  27.094  1.00  0.00     0.002 A 
ATOM     63  C   UNL A   1      45.814  32.165  26.480  1.00  0.00     0.091 A 
ATOM     64  F   UNL A   1      43.871  30.982  27.043  1.00  0.00    -0.205 F 
ATOM     65  C   UNL A   1      47.195  32.338  26.579  1.00  0.00     0.022 A 
BRANCH  63  66
ATOM     66  S   UNL A   1      44.853  33.493  25.743  1.00  0.00     0.127 S 
ATOM     67  O   UNL A   1      45.904  34.402  25.298  1.00  0.00    -0.237 OA
ATOM     68  O   UNL A   1      44.143  32.793  24.671  1.00  0.00    -0.237 OA
ATOM     69  O   UNL A   1      43.987  33.976  26.811  1.00  0.00    -0.744 OA
ENDBRANCH  63  66
ENDBRANCH  45  59
BRANCH  46  70
ATOM     70  C   UNL A   1      38.243  31.659  30.231  1.00  0.00     0.023 A 
ATOM     71  C   UNL A   1      37.712  31.768  28.933  1.00  0.00     0.012 A 
ATOM     72  C   UNL A   1      37.535  32.256  31.299  1.00  0.00     0.148 A 
ATOM     73  C   UNL A   1      36.496  32.424  28.706  1.00  0.00     0.002 A 
ATOM     74  C   UNL A   1      36.331  32.914  31.068  1.00  0.00     0.091 A 
ATOM     75  F   UNL A   1      37.995  32.100  32.547  1.00  0.00    -0.205 F 
ATOM     76  C   UNL A   1      35.802  32.989  29.774  1.00  0.00     0.022 A 
BRANCH  74  77
ATOM     77  S   UNL A   1      35.373  33.653  32.397  1.00  0.00     0.127 S 
ATOM     78  O   UNL A   1      36.184  34.820  32.745  1.00  0.00    -0.237 OA
ATOM     79  O   UNL A   1      34.113  33.961  31.726  1.00  0.00    -0.237 OA
ATOM     80  O   UNL A   1      35.304  32.640  33.443  1.00  0.00    -0.744 OA
ENDBRANCH  74  77
ENDBRANCH  46  70
BRANCH  58  81
ATOM     81  C   UNL A   1      42.955  28.994  33.430  1.00  0.00     0.023 A 
ATOM     82  C   UNL A   1      41.966  27.989  33.380  1.00  0.00     0.012 A 
ATOM     83  C   UNL A   1      43.640  29.211  34.638  1.00  0.00     0.148 A 
ATOM     84  C   UNL A   1      41.650  27.236  34.514  1.00  0.00     0.002 A 
ATOM     85  C   UNL A   1      43.356  28.426  35.751  1.00  0.00     0.091 A 
ATOM     86  F   UNL A   1      44.583  30.164  34.672  1.00  0.00    -0.205 F 
ATOM     87  C   UNL A   1      42.356  27.444  35.696  1.00  0.00     0.022 A 
BRANCH  85  88
ATOM     88  S   UNL A   1      44.324  28.555  37.258  1.00  0.00     0.127 S 
ATOM     89  O   UNL A   1      43.874  29.835  37.801  1.00  0.00    -0.237 OA
ATOM     90  O   UNL A   1      43.888  27.381  38.016  1.00  0.00    -0.237 OA
ATOM     91  O   UNL A   1      45.720  28.504  36.840  1.00  0.00    -0.744 OA
ENDBRANCH  85  88
ENDBRANCH  58  81
ENDBRANCH  32  33
ENDBRANCH  24  27
ENDBRANCH  22  23
ENDBRANCH   1  22
TORSDOF 16
ENDMDL
MODEL 3
REMARK VINA RESULT:     -10.7      3.073      8.087
REMARK SMILES CCOc1ccc(-n2ncc(C(=O)NCCCNC(=O)c3ccc(-c4c5nc(c(-c6cccc(S(=O)(=O)[O-])c6F)c6ccc([nH]6)c(-c6cccc(S(=O)(=O)[O-])c6F)c6nc(c(-c7cccc(S(=O)(=O)[O-])c7F)c7ccc4[nH]7)C=C6)C=C5)cc3)c2C)nn1
REMARK SMILES IDX 16 1 15 2 14 3 12 4 13 5 11 7 8 8 9 9 84 10 10 11 85 12 7 13
REMARK SMILES IDX 4 14 5 15 87 16 6 17 86 18 3 19 2 20 1 21 17 22 18 23 19 24
REMARK SMILES IDX 20 26 21 27 22 28 83 29 23 30 82 31 24 32 25 33 26 34 76 35
REMARK SMILES IDX 27 36 81 37 75 38 77 39 28 40 80 41 74 42 73 43 29 45 61 46
REMARK SMILES IDX 41 47 60 48 42 49 45 50 59 51 78 52 43 53 44 54 58 56 79 57
REMARK SMILES IDX 46 58 30 59 31 60 39 61 32 62 34 63 40 64 33 65 35 66 36 67
REMARK SMILES IDX 37 68 38 69 62 70 63 71 71 72 64 73 66 74 72 75 65 76 67 77
REMARK SMILES IDX 68 78 69 79 70 80 47 81 48 82 56 83 49 84 51 85 57 86 50 87
REMARK SMILES IDX 52 88 53 89 54 90 55 91
REMARK H PARENT 14 6 18 25 77 44 45 55
REMARK Flexibility Score: inf
ROOT
ATOM      1  C   UNL A   1      33.536  28.866  27.244  1.00  0.00     0.042 C 
ENDROOT
BRANCH   1   2
ATOM      2  C   UNL A   1      33.593  27.807  26.139  1.00  0.00     0.118 C 
BRANCH   2   3
ATOM      3  N   UNL A   1      32.674  28.098  25.054  1.00  0.00    -0.352 N 
ATOM      4  C   UNL A   1      32.242  27.374  23.974  1.00  0.00     0.254 C 
ATOM      5  O   UNL A   1      31.363  27.894  23.289  1.00  0.00    -0.269 OA
ATOM      6  H   UNL A   1      32.282  29.000  25.105  1.00  0.00     0.163 HD
BRANCH   4   7
ATOM      7  C   UNL A   1      32.744  26.034  23.685  1.00  0.00     0.081 A 
ATOM      8  N   UNL A   1      33.109  23.830  23.835  1.00  0.00    -0.217 N 
ATOM      9  N   UNL A   1      34.015  24.293  22.929  1.00  0.00    -0.174 NA
ATOM     10  C   UNL A   1      32.307  24.859  24.310  1.00  0.00     0.056 A 
ATOM     11  C   UNL A   1      33.708  25.576  22.774  1.00  0.00     0.149 A 
ATOM     12  C   UNL A   1      31.250  24.709  25.354  1.00  0.00     0.068 C 
BRANCH   8  13
ATOM     13  C   UNL A   1      33.123  22.442  24.159  1.00  0.00     0.176 A 
ATOM     14  C   UNL A   1      33.248  19.799  24.726  1.00  0.00     0.233 A 
ATOM     15  C   UNL A   1      34.177  20.627  25.316  1.00  0.00     0.074 A 
ATOM     16  N   UNL A   1      32.287  20.249  23.896  1.00  0.00    -0.110 NA
ATOM     17  C   UNL A   1      34.114  21.981  25.025  1.00  0.00     0.057 A 
ATOM     18  N   UNL A   1      32.214  21.595  23.624  1.00  0.00    -0.127 NA
BRANCH  14  19
ATOM     19  O   UNL A   1      33.356  18.445  24.925  1.00  0.00    -0.477 OA
BRANCH  19  20
ATOM     20  C   UNL A   1      34.311  17.882  24.024  1.00  0.00     0.228 C 
ATOM     21  C   UNL A   1      34.030  16.400  23.823  1.00  0.00     0.049 C 
ENDBRANCH  19  20
ENDBRANCH  14  19
ENDBRANCH   8  13
ENDBRANCH   4   7
ENDBRANCH   2   3
ENDBRANCH   1   2
BRANCH   1  22
ATOM     22  C   UNL A   1      34.492  30.020  26.964  1.00  0.00     0.118 C 
BRANCH  22  23
ATOM     23  N   UNL A   1      34.191  31.185  27.797  1.00  0.00    -0.352 N 
ATOM     24  C   UNL A   1      34.827  31.626  28.941  1.00  0.00     0.251 C 
ATOM     25  H   UNL A   1      33.428  31.730  27.500  1.00  0.00     0.163 HD
ATOM     26  O   UNL A   1      34.292  32.448  29.664  1.00  0.00    -0.269 OA
BRANCH  24  27
ATOM     27  C   UNL A   1      36.146  31.063  29.285  1.00  0.00     0.039 A 
ATOM     28  C   UNL A   1      36.259  29.711  29.614  1.00  0.00     0.014 A 
ATOM     29  C   UNL A   1      37.270  31.882  29.228  1.00  0.00     0.014 A 
ATOM     30  C   UNL A   1      37.527  29.165  29.792  1.00  0.00     0.010 A 
ATOM     31  C   UNL A   1      38.523  31.316  29.280  1.00  0.00     0.010 A 
ATOM     32  C   UNL A   1      38.662  29.966  29.594  1.00  0.00    -0.014 A 
BRANCH  32  33
ATOM     33  C   UNL A   1      39.991  29.356  29.607  1.00  0.00     0.031 A 
ATOM     34  C   UNL A   1      40.590  29.135  30.956  1.00  0.00     0.074 A 
ATOM     35  C   UNL A   1      40.574  28.817  28.514  1.00  0.00     0.049 A 
ATOM     36  N   UNL A   1      41.657  29.675  31.446  1.00  0.00    -0.248 NA
ATOM     37  C   UNL A   1      39.862  28.284  31.908  1.00  0.00     0.031 C 
ATOM     38  C   UNL A   1      39.997  28.632  27.178  1.00  0.00     0.029 A 
ATOM     39  N   UNL A   1      41.767  28.167  28.422  1.00  0.00    -0.354 N 
ATOM     40  C   UNL A   1      41.858  29.070  32.688  1.00  0.00     0.074 A 
ATOM     41  C   UNL A   1      40.643  28.359  32.987  1.00  0.00     0.031 C 
ATOM     42  C   UNL A   1      40.704  27.693  26.514  1.00  0.00     0.029 A 
ATOM     43  C   UNL A   1      41.875  27.358  27.298  1.00  0.00     0.049 A 
ATOM     44  H   UNL A   1      42.485  28.263  29.088  1.00  0.00     0.167 HD
ATOM     45  C   UNL A   1      43.091  29.018  33.269  1.00  0.00     0.034 A 
ATOM     46  C   UNL A   1      42.836  26.437  27.054  1.00  0.00     0.034 A 
ATOM     47  C   UNL A   1      44.014  29.927  32.639  1.00  0.00     0.049 A 
ATOM     48  C   UNL A   1      44.001  26.781  27.898  1.00  0.00     0.074 A 
ATOM     49  C   UNL A   1      44.051  31.286  32.400  1.00  0.00     0.029 A 
ATOM     50  N   UNL A   1      44.963  29.378  31.811  1.00  0.00    -0.354 N 
ATOM     51  N   UNL A   1      44.714  27.862  27.740  1.00  0.00    -0.248 NA
ATOM     52  C   UNL A   1      44.144  26.119  29.182  1.00  0.00     0.031 C 
ATOM     53  C   UNL A   1      44.648  31.413  31.111  1.00  0.00     0.029 A 
ATOM     54  C   UNL A   1      44.982  30.131  30.669  1.00  0.00     0.049 A 
ATOM     55  H   UNL A   1      45.522  28.591  32.002  1.00  0.00     0.167 HD
ATOM     56  C   UNL A   1      45.029  28.261  29.032  1.00  0.00     0.074 A 
ATOM     57  C   UNL A   1      44.767  27.086  29.861  1.00  0.00     0.031 C 
ATOM     58  C   UNL A   1      45.189  29.581  29.346  1.00  0.00     0.034 A 
BRANCH  45  59
ATOM     59  C   UNL A   1      43.593  27.917  34.180  1.00  0.00     0.023 A 
ATOM     60  C   UNL A   1      44.209  28.309  35.394  1.00  0.00     0.012 A 
ATOM     61  C   UNL A   1      43.752  26.568  33.795  1.00  0.00     0.148 A 
ATOM     62  C   UNL A   1      44.994  27.426  36.144  1.00  0.00     0.002 A 
ATOM     63  C   UNL A   1      44.464  25.672  34.588  1.00  0.00     0.091 A 
ATOM     64  F   UNL A   1      43.337  26.160  32.593  1.00  0.00    -0.205 F 
ATOM     65  C   UNL A   1      45.117  26.103  35.744  1.00  0.00     0.022 A 
BRANCH  63  66
ATOM     66  S   UNL A   1      44.596  23.935  34.149  1.00  0.00     0.127 S 
ATOM     67  O   UNL A   1      45.355  24.005  32.904  1.00  0.00    -0.237 OA
ATOM     68  O   UNL A   1      45.328  23.388  35.292  1.00  0.00    -0.237 OA
ATOM     69  O   UNL A   1      43.221  23.462  34.043  1.00  0.00    -0.744 OA
ENDBRANCH  63  66
ENDBRANCH  45  59
BRANCH  46  70
ATOM     70  C   UNL A   1      42.743  25.163  26.309  1.00  0.00     0.023 A 
ATOM     71  C   UNL A   1      43.645  24.900  25.262  1.00  0.00     0.012 A 
ATOM     72  C   UNL A   1      41.948  24.099  26.794  1.00  0.00     0.148 A 
ATOM     73  C   UNL A   1      43.777  23.611  24.734  1.00  0.00     0.002 A 
ATOM     74  C   UNL A   1      42.077  22.821  26.260  1.00  0.00     0.091 A 
ATOM     75  F   UNL A   1      41.136  24.321  27.836  1.00  0.00    -0.205 F 
ATOM     76  C   UNL A   1      43.000  22.570  25.237  1.00  0.00     0.022 A 
BRANCH  74  77
ATOM     77  S   UNL A   1      41.120  21.427  26.869  1.00  0.00     0.127 S 
ATOM     78  O   UNL A   1      41.478  21.408  28.288  1.00  0.00    -0.237 OA
ATOM     79  O   UNL A   1      39.752  21.855  26.589  1.00  0.00    -0.237 OA
ATOM     80  O   UNL A   1      41.589  20.269  26.119  1.00  0.00    -0.744 OA
ENDBRANCH  74  77
ENDBRANCH  46  70
BRANCH  58  81
ATOM     81  C   UNL A   1      45.289  30.584  28.222  1.00  0.00     0.023 A 
ATOM     82  C   UNL A   1      44.148  31.096  27.570  1.00  0.00     0.012 A 
ATOM     83  C   UNL A   1      46.542  31.163  27.951  1.00  0.00     0.148 A 
ATOM     84  C   UNL A   1      44.256  32.143  26.652  1.00  0.00     0.002 A 
ATOM     85  C   UNL A   1      46.638  32.238  27.073  1.00  0.00     0.091 A 
ATOM     86  F   UNL A   1      47.619  30.673  28.583  1.00  0.00    -0.205 F 
ATOM     87  C   UNL A   1      45.499  32.725  26.414  1.00  0.00     0.022 A 
BRANCH  85  88
ATOM     88  S   UNL A   1      48.187  33.113  26.832  1.00  0.00     0.127 S 
ATOM     89  O   UNL A   1      47.840  34.062  25.777  1.00  0.00    -0.237 OA
ATOM     90  O   UNL A   1      48.417  33.717  28.147  1.00  0.00    -0.237 OA
ATOM     91  O   UNL A   1      49.166  32.097  26.469  1.00  0.00    -0.744 OA
ENDBRANCH  85  88
ENDBRANCH  58  81
ENDBRANCH  32  33
ENDBRANCH  24  27
ENDBRANCH  22  23
ENDBRANCH   1  22
TORSDOF 16
ENDMDL
