MODEL 1
REMARK VINA RESULT:     -12.9      0.000      0.000
REMARK SMILES O=C(NCCCNC(=O)c1ccc(-n2cnc3ccccc32)nc1)c1ccc(-c2c3nc(c(-c4cccc(S(=O)(=O)[O-])c4F)c4ccc([nH]4)c(-c4cccc(S(=O)(=O)[O-])c4F)c4nc(c(-c5cccc(S(=O)(=O)[O-])c5F)c5ccc2[nH]5)C=C4)C=C3)cc1
REMARK SMILES IDX 4 1 3 2 1 3 2 4 25 6 26 7 87 8 27 9 86 10 28 11 29 12 30 13
REMARK SMILES IDX 80 14 31 15 85 16 79 17 81 18 32 19 84 20 78 21 77 22 33 24
REMARK SMILES IDX 65 25 45 26 64 27 46 28 49 29 63 30 82 31 47 32 48 33 62 35
REMARK SMILES IDX 83 36 50 37 34 38 35 39 43 40 36 41 38 42 44 43 37 44 39 45
REMARK SMILES IDX 40 46 41 47 42 48 66 49 67 50 75 51 68 52 70 53 76 54 69 55
REMARK SMILES IDX 71 56 72 57 73 58 74 59 51 60 52 61 60 62 53 63 55 64 61 65
REMARK SMILES IDX 54 66 56 67 57 68 58 69 59 70 5 71 6 72 7 73 8 74 9 76 10 77
REMARK SMILES IDX 11 78 24 79 12 80 23 81 13 82 14 83 15 84 22 85 16 86 17 87
REMARK SMILES IDX 21 88 18 89 20 90 19 91
REMARK H PARENT 3 5 81 23 49 34 7 75
REMARK Flexibility Score: inf
ROOT
ATOM      1  C   UNL A   1      39.036  20.665  25.758  1.00  0.00     0.118 C 
ENDROOT
BRANCH   1   2
ATOM      2  N   UNL A   1      39.943  19.499  25.783  1.00  0.00    -0.352 N 
ATOM      3  O   UNL A   1      42.011  18.530  25.662  1.00  0.00    -0.269 OA
ATOM      4  C   UNL A   1      41.326  19.504  25.942  1.00  0.00     0.251 C 
ATOM      5  H   UNL A   1      39.521  18.617  25.674  1.00  0.00     0.163 HD
BRANCH   4   6
ATOM      6  C   UNL A   1      41.927  20.728  26.491  1.00  0.00     0.039 A 
ATOM      7  C   UNL A   1      42.391  21.788  25.709  1.00  0.00     0.014 A 
ATOM      8  C   UNL A   1      41.816  20.847  27.864  1.00  0.00     0.014 A 
ATOM      9  C   UNL A   1      42.633  23.008  26.340  1.00  0.00     0.010 A 
ATOM     10  C   UNL A   1      41.701  22.100  28.375  1.00  0.00     0.010 A 
ATOM     11  C   UNL A   1      42.248  23.163  27.682  1.00  0.00    -0.014 A 
BRANCH  11  12
ATOM     12  C   UNL A   1      42.331  24.425  28.405  1.00  0.00     0.031 A 
ATOM     13  C   UNL A   1      41.167  25.324  28.218  1.00  0.00     0.074 A 
ATOM     14  C   UNL A   1      43.304  24.669  29.318  1.00  0.00     0.049 A 
ATOM     15  N   UNL A   1      41.137  26.405  27.512  1.00  0.00    -0.248 NA
ATOM     16  C   UNL A   1      39.849  24.902  28.718  1.00  0.00     0.031 C 
ATOM     17  C   UNL A   1      44.360  23.768  29.817  1.00  0.00     0.029 A 
ATOM     18  N   UNL A   1      43.471  25.755  30.113  1.00  0.00    -0.354 N 
ATOM     19  C   UNL A   1      39.868  26.939  27.702  1.00  0.00     0.074 A 
ATOM     20  C   UNL A   1      39.065  25.883  28.260  1.00  0.00     0.031 C 
ATOM     21  C   UNL A   1      44.845  24.229  30.989  1.00  0.00     0.029 A 
ATOM     22  C   UNL A   1      44.306  25.551  31.210  1.00  0.00     0.049 A 
ATOM     23  H   UNL A   1      43.036  26.620  29.930  1.00  0.00     0.167 HD
ATOM     24  C   UNL A   1      39.652  28.281  27.635  1.00  0.00     0.034 A 
ATOM     25  C   UNL A   1      44.519  26.414  32.233  1.00  0.00     0.034 A 
ATOM     26  C   UNL A   1      40.790  28.978  27.092  1.00  0.00     0.049 A 
ATOM     27  C   UNL A   1      44.171  27.753  31.704  1.00  0.00     0.074 A 
ATOM     28  C   UNL A   1      41.487  28.918  25.903  1.00  0.00     0.029 A 
ATOM     29  N   UNL A   1      41.632  29.575  28.001  1.00  0.00    -0.354 N 
ATOM     30  N   UNL A   1      44.825  28.335  30.737  1.00  0.00    -0.248 NA
ATOM     31  C   UNL A   1      42.824  28.245  31.940  1.00  0.00     0.031 C 
ATOM     32  C   UNL A   1      42.858  29.033  26.279  1.00  0.00     0.029 A 
ATOM     33  C   UNL A   1      42.916  29.238  27.659  1.00  0.00     0.049 A 
ATOM     34  H   UNL A   1      41.363  30.143  28.759  1.00  0.00     0.167 HD
ATOM     35  C   UNL A   1      43.834  28.919  29.960  1.00  0.00     0.074 A 
ATOM     36  C   UNL A   1      42.642  28.926  30.805  1.00  0.00     0.031 C 
ATOM     37  C   UNL A   1      43.992  29.067  28.613  1.00  0.00     0.034 A 
BRANCH  24  38
ATOM     38  C   UNL A   1      38.580  29.009  28.395  1.00  0.00     0.023 A 
ATOM     39  C   UNL A   1      37.742  29.889  27.679  1.00  0.00     0.012 A 
ATOM     40  C   UNL A   1      38.526  29.065  29.806  1.00  0.00     0.148 A 
ATOM     41  C   UNL A   1      36.898  30.789  28.338  1.00  0.00     0.002 A 
ATOM     42  C   UNL A   1      37.633  29.905  30.455  1.00  0.00     0.091 A 
ATOM     43  F   UNL A   1      39.437  28.405  30.530  1.00  0.00    -0.205 F 
ATOM     44  C   UNL A   1      36.831  30.788  29.727  1.00  0.00     0.022 A 
BRANCH  42  45
ATOM     45  S   UNL A   1      37.488  29.920  32.246  1.00  0.00     0.127 S 
ATOM     46  O   UNL A   1      38.787  30.457  32.639  1.00  0.00    -0.237 OA
ATOM     47  O   UNL A   1      36.355  30.823  32.446  1.00  0.00    -0.237 OA
ATOM     48  O   UNL A   1      37.223  28.537  32.623  1.00  0.00    -0.744 OA
ENDBRANCH  42  45
ENDBRANCH  24  38
BRANCH  25  49
ATOM     49  C   UNL A   1      44.749  26.171  33.680  1.00  0.00     0.023 A 
ATOM     50  C   UNL A   1      46.056  26.326  34.192  1.00  0.00     0.012 A 
ATOM     51  C   UNL A   1      43.682  26.110  34.604  1.00  0.00     0.148 A 
ATOM     52  C   UNL A   1      46.285  26.498  35.562  1.00  0.00     0.002 A 
ATOM     53  C   UNL A   1      43.916  26.275  35.969  1.00  0.00     0.091 A 
ATOM     54  F   UNL A   1      42.430  25.990  34.144  1.00  0.00    -0.205 F 
ATOM     55  C   UNL A   1      45.215  26.490  36.448  1.00  0.00     0.022 A 
BRANCH  53  56
ATOM     56  S   UNL A   1      42.583  26.296  37.176  1.00  0.00     0.127 S 
ATOM     57  O   UNL A   1      43.314  26.422  38.438  1.00  0.00    -0.237 OA
ATOM     58  O   UNL A   1      41.836  27.487  36.780  1.00  0.00    -0.237 OA
ATOM     59  O   UNL A   1      41.887  25.027  37.011  1.00  0.00    -0.744 OA
ENDBRANCH  53  56
ENDBRANCH  25  49
BRANCH  37  60
ATOM     60  C   UNL A   1      45.353  28.799  28.018  1.00  0.00     0.023 A 
ATOM     61  C   UNL A   1      46.413  29.728  28.102  1.00  0.00     0.012 A 
ATOM     62  C   UNL A   1      45.623  27.497  27.571  1.00  0.00     0.148 A 
ATOM     63  C   UNL A   1      47.716  29.360  27.753  1.00  0.00     0.002 A 
ATOM     64  C   UNL A   1      46.925  27.123  27.263  1.00  0.00     0.091 A 
ATOM     65  F   UNL A   1      44.603  26.628  27.512  1.00  0.00    -0.205 F 
ATOM     66  C   UNL A   1      47.974  28.053  27.349  1.00  0.00     0.022 A 
BRANCH  64  67
ATOM     67  S   UNL A   1      47.346  25.431  26.846  1.00  0.00     0.127 S 
ATOM     68  O   UNL A   1      48.755  25.549  26.475  1.00  0.00    -0.237 OA
ATOM     69  O   UNL A   1      47.102  24.731  28.108  1.00  0.00    -0.237 OA
ATOM     70  O   UNL A   1      46.452  25.043  25.763  1.00  0.00    -0.744 OA
ENDBRANCH  64  67
ENDBRANCH  37  60
ENDBRANCH  11  12
ENDBRANCH   4   6
ENDBRANCH   1   2
BRANCH   1  71
ATOM     71  C   UNL A   1      37.936  20.557  24.723  1.00  0.00     0.042 C 
BRANCH  71  72
ATOM     72  C   UNL A   1      36.552  20.601  25.366  1.00  0.00     0.118 C 
BRANCH  72  73
ATOM     73  N   UNL A   1      35.647  19.547  24.916  1.00  0.00    -0.352 N 
ATOM     74  C   UNL A   1      34.279  19.577  24.743  1.00  0.00     0.252 C 
ATOM     75  H   UNL A   1      36.078  18.688  24.705  1.00  0.00     0.163 HD
ATOM     76  O   UNL A   1      33.663  18.621  24.332  1.00  0.00    -0.269 OA
BRANCH  74  77
ATOM     77  C   UNL A   1      33.577  20.829  25.032  1.00  0.00     0.058 A 
ATOM     78  C   UNL A   1      33.251  21.693  23.993  1.00  0.00     0.019 A 
ATOM     79  C   UNL A   1      33.297  21.195  26.338  1.00  0.00     0.127 A 
ATOM     80  C   UNL A   1      32.729  22.935  24.301  1.00  0.00     0.048 A 
ATOM     81  N   UNL A   1      32.779  22.410  26.664  1.00  0.00    -0.238 NA
ATOM     82  C   UNL A   1      32.473  23.242  25.635  1.00  0.00     0.138 A 
BRANCH  82  83
ATOM     83  N   UNL A   1      31.833  24.467  25.938  1.00  0.00    -0.283 N 
ATOM     84  C   UNL A   1      30.478  24.646  26.087  1.00  0.00     0.206 A 
ATOM     85  C   UNL A   1      32.424  25.714  26.081  1.00  0.00     0.074 A 
ATOM     86  N   UNL A   1      30.172  25.882  26.422  1.00  0.00    -0.236 NA
ATOM     87  C   UNL A   1      31.361  26.562  26.383  1.00  0.00     0.089 A 
ATOM     88  C   UNL A   1      33.733  26.194  25.894  1.00  0.00     0.029 A 
ATOM     89  C   UNL A   1      31.610  27.933  26.559  1.00  0.00     0.030 A 
ATOM     90  C   UNL A   1      33.959  27.559  26.065  1.00  0.00     0.002 A 
ATOM     91  C   UNL A   1      32.914  28.419  26.395  1.00  0.00     0.002 A 
ENDBRANCH  82  83
ENDBRANCH  74  77
ENDBRANCH  72  73
ENDBRANCH  71  72
ENDBRANCH   1  71
TORSDOF 14
ENDMDL
MODEL 2
REMARK VINA RESULT:     -12.7      1.443      1.683
REMARK SMILES O=C(NCCCNC(=O)c1ccc(-n2cnc3ccccc32)nc1)c1ccc(-c2c3nc(c(-c4cccc(S(=O)(=O)[O-])c4F)c4ccc([nH]4)c(-c4cccc(S(=O)(=O)[O-])c4F)c4nc(c(-c5cccc(S(=O)(=O)[O-])c5F)c5ccc2[nH]5)C=C4)C=C3)cc1
REMARK SMILES IDX 4 1 3 2 1 3 2 4 25 6 26 7 87 8 27 9 86 10 28 11 29 12 30 13
REMARK SMILES IDX 80 14 31 15 85 16 79 17 81 18 32 19 84 20 78 21 77 22 33 24
REMARK SMILES IDX 65 25 45 26 64 27 46 28 49 29 63 30 82 31 47 32 48 33 62 35
REMARK SMILES IDX 83 36 50 37 34 38 35 39 43 40 36 41 38 42 44 43 37 44 39 45
REMARK SMILES IDX 40 46 41 47 42 48 66 49 67 50 75 51 68 52 70 53 76 54 69 55
REMARK SMILES IDX 71 56 72 57 73 58 74 59 51 60 52 61 60 62 53 63 55 64 61 65
REMARK SMILES IDX 54 66 56 67 57 68 58 69 59 70 5 71 6 72 7 73 8 74 9 76 10 77
REMARK SMILES IDX 11 78 24 79 12 80 23 81 13 82 14 83 15 84 22 85 16 86 17 87
REMARK SMILES IDX 21 88 18 89 20 90 19 91
REMARK H PARENT 3 5 81 23 49 34 7 75
REMARK Flexibility Score: inf
ROOT
ATOM      1  C   UNL A   1      39.059  20.622  25.756  1.00  0.00     0.118 C 
ENDROOT
BRANCH   1   2
ATOM      2  N   UNL A   1      40.001  19.484  25.798  1.00  0.00    -0.352 N 
ATOM      3  O   UNL A   1      42.098  18.576  25.698  1.00  0.00    -0.269 OA
ATOM      4  C   UNL A   1      41.381  19.532  25.965  1.00  0.00     0.251 C 
ATOM      5  H   UNL A   1      39.606  18.589  25.694  1.00  0.00     0.163 HD
BRANCH   4   6
ATOM      6  C   UNL A   1      41.943  20.779  26.507  1.00  0.00     0.039 A 
ATOM      7  C   UNL A   1      42.334  21.864  25.721  1.00  0.00     0.014 A 
ATOM      8  C   UNL A   1      41.867  20.882  27.883  1.00  0.00     0.014 A 
ATOM      9  C   UNL A   1      42.539  23.089  26.355  1.00  0.00     0.010 A 
ATOM     10  C   UNL A   1      41.710  22.125  28.409  1.00  0.00     0.010 A 
ATOM     11  C   UNL A   1      42.188  23.217  27.709  1.00  0.00    -0.014 A 
BRANCH  11  12
ATOM     12  C   UNL A   1      42.234  24.476  28.440  1.00  0.00     0.031 A 
ATOM     13  C   UNL A   1      41.057  25.355  28.237  1.00  0.00     0.074 A 
ATOM     14  C   UNL A   1      43.186  24.732  29.372  1.00  0.00     0.049 A 
ATOM     15  N   UNL A   1      41.021  26.439  27.536  1.00  0.00    -0.248 NA
ATOM     16  C   UNL A   1      39.739  24.906  28.711  1.00  0.00     0.031 C 
ATOM     17  C   UNL A   1      44.249  23.848  29.885  1.00  0.00     0.029 A 
ATOM     18  N   UNL A   1      43.318  25.817  30.175  1.00  0.00    -0.354 N 
ATOM     19  C   UNL A   1      39.739  26.948  27.706  1.00  0.00     0.074 A 
ATOM     20  C   UNL A   1      38.945  25.874  28.244  1.00  0.00     0.031 C 
ATOM     21  C   UNL A   1      44.704  24.311  31.068  1.00  0.00     0.029 A 
ATOM     22  C   UNL A   1      44.138  25.621  31.286  1.00  0.00     0.049 A 
ATOM     23  H   UNL A   1      42.872  26.675  29.989  1.00  0.00     0.167 HD
ATOM     24  C   UNL A   1      39.499  28.287  27.643  1.00  0.00     0.034 A 
ATOM     25  C   UNL A   1      44.316  26.482  32.318  1.00  0.00     0.034 A 
ATOM     26  C   UNL A   1      40.633  29.007  27.124  1.00  0.00     0.049 A 
ATOM     27  C   UNL A   1      43.953  27.818  31.789  1.00  0.00     0.074 A 
ATOM     28  C   UNL A   1      41.352  28.967  25.947  1.00  0.00     0.029 A 
ATOM     29  N   UNL A   1      41.448  29.615  28.051  1.00  0.00    -0.354 N 
ATOM     30  N   UNL A   1      44.614  28.417  30.838  1.00  0.00    -0.248 NA
ATOM     31  C   UNL A   1      42.594  28.284  32.003  1.00  0.00     0.031 C 
ATOM     32  C   UNL A   1      42.714  29.104  26.349  1.00  0.00     0.029 A 
ATOM     33  C   UNL A   1      42.744  29.303  27.731  1.00  0.00     0.049 A 
ATOM     34  H   UNL A   1      41.155  30.173  28.807  1.00  0.00     0.167 HD
ATOM     35  C   UNL A   1      43.627  28.988  30.045  1.00  0.00     0.074 A 
ATOM     36  C   UNL A   1      42.419  28.968  30.869  1.00  0.00     0.031 C 
ATOM     37  C   UNL A   1      43.805  29.147  28.703  1.00  0.00     0.034 A 
BRANCH  24  38
ATOM     38  C   UNL A   1      38.400  28.990  28.387  1.00  0.00     0.023 A 
ATOM     39  C   UNL A   1      37.508  29.794  27.647  1.00  0.00     0.012 A 
ATOM     40  C   UNL A   1      38.362  29.105  29.795  1.00  0.00     0.148 A 
ATOM     41  C   UNL A   1      36.626  30.677  28.279  1.00  0.00     0.002 A 
ATOM     42  C   UNL A   1      37.434  29.926  30.421  1.00  0.00     0.091 A 
ATOM     43  F   UNL A   1      39.316  28.525  30.533  1.00  0.00    -0.205 F 
ATOM     44  C   UNL A   1      36.578  30.732  29.668  1.00  0.00     0.022 A 
BRANCH  42  45
ATOM     45  S   UNL A   1      37.313  30.011  32.211  1.00  0.00     0.127 S 
ATOM     46  O   UNL A   1      38.584  30.639  32.561  1.00  0.00    -0.237 OA
ATOM     47  O   UNL A   1      36.132  30.856  32.390  1.00  0.00    -0.237 OA
ATOM     48  O   UNL A   1      37.134  28.634  32.652  1.00  0.00    -0.744 OA
ENDBRANCH  42  45
ENDBRANCH  24  38
BRANCH  25  49
ATOM     49  C   UNL A   1      44.525  26.236  33.767  1.00  0.00     0.023 A 
ATOM     50  C   UNL A   1      45.815  26.431  34.307  1.00  0.00     0.012 A 
ATOM     51  C   UNL A   1      43.441  26.130  34.668  1.00  0.00     0.148 A 
ATOM     52  C   UNL A   1      46.010  26.599  35.683  1.00  0.00     0.002 A 
ATOM     53  C   UNL A   1      43.643  26.292  36.039  1.00  0.00     0.091 A 
ATOM     54  F   UNL A   1      42.205  25.971  34.181  1.00  0.00    -0.205 F 
ATOM     55  C   UNL A   1      44.922  26.547  36.546  1.00  0.00     0.022 A 
BRANCH  53  56
ATOM     56  S   UNL A   1      42.284  26.257  37.218  1.00  0.00     0.127 S 
ATOM     57  O   UNL A   1      41.686  24.947  36.957  1.00  0.00    -0.237 OA
ATOM     58  O   UNL A   1      42.989  26.366  38.493  1.00  0.00    -0.237 OA
ATOM     59  O   UNL A   1      41.433  27.385  36.866  1.00  0.00    -0.744 OA
ENDBRANCH  53  56
ENDBRANCH  25  49
BRANCH  37  60
ATOM     60  C   UNL A   1      45.182  28.907  28.131  1.00  0.00     0.023 A 
ATOM     61  C   UNL A   1      45.520  27.722  27.442  1.00  0.00     0.012 A 
ATOM     62  C   UNL A   1      46.070  29.992  28.095  1.00  0.00     0.148 A 
ATOM     63  C   UNL A   1      46.718  27.628  26.727  1.00  0.00     0.002 A 
ATOM     64  C   UNL A   1      47.240  29.910  27.352  1.00  0.00     0.091 A 
ATOM     65  F   UNL A   1      45.721  31.112  28.746  1.00  0.00    -0.205 F 
ATOM     66  C   UNL A   1      47.570  28.728  26.668  1.00  0.00     0.022 A 
BRANCH  64  67
ATOM     67  S   UNL A   1      48.325  31.322  27.140  1.00  0.00     0.127 S 
ATOM     68  O   UNL A   1      47.546  32.176  26.246  1.00  0.00    -0.237 OA
ATOM     69  O   UNL A   1      48.453  31.823  28.510  1.00  0.00    -0.237 OA
ATOM     70  O   UNL A   1      49.564  30.802  26.575  1.00  0.00    -0.744 OA
ENDBRANCH  64  67
ENDBRANCH  37  60
ENDBRANCH  11  12
ENDBRANCH   4   6
ENDBRANCH   1   2
BRANCH   1  71
ATOM     71  C   UNL A   1      37.992  20.490  24.690  1.00  0.00     0.042 C 
BRANCH  71  72
ATOM     72  C   UNL A   1      36.589  20.597  25.283  1.00  0.00     0.118 C 
BRANCH  72  73
ATOM     73  N   UNL A   1      35.687  19.519  24.889  1.00  0.00    -0.352 N 
ATOM     74  C   UNL A   1      34.313  19.524  24.761  1.00  0.00     0.252 C 
ATOM     75  H   UNL A   1      36.124  18.662  24.685  1.00  0.00     0.163 HD
ATOM     76  O   UNL A   1      33.699  18.549  24.395  1.00  0.00    -0.269 OA
BRANCH  74  77
ATOM     77  C   UNL A   1      33.601  20.773  25.044  1.00  0.00     0.058 A 
ATOM     78  C   UNL A   1      33.234  21.609  23.997  1.00  0.00     0.019 A 
ATOM     79  C   UNL A   1      33.352  21.162  26.349  1.00  0.00     0.127 A 
ATOM     80  C   UNL A   1      32.703  22.850  24.293  1.00  0.00     0.048 A 
ATOM     81  N   UNL A   1      32.826  22.377  26.663  1.00  0.00    -0.238 NA
ATOM     82  C   UNL A   1      32.480  23.182  25.626  1.00  0.00     0.138 A 
BRANCH  82  83
ATOM     83  N   UNL A   1      31.830  24.404  25.921  1.00  0.00    -0.283 N 
ATOM     84  C   UNL A   1      30.473  24.577  26.055  1.00  0.00     0.206 A 
ATOM     85  C   UNL A   1      32.414  25.654  26.070  1.00  0.00     0.074 A 
ATOM     86  N   UNL A   1      30.158  25.812  26.385  1.00  0.00    -0.236 NA
ATOM     87  C   UNL A   1      31.344  26.498  26.359  1.00  0.00     0.089 A 
ATOM     88  C   UNL A   1      33.723  26.140  25.898  1.00  0.00     0.029 A 
ATOM     89  C   UNL A   1      31.584  27.870  26.537  1.00  0.00     0.030 A 
ATOM     90  C   UNL A   1      33.940  27.507  26.071  1.00  0.00     0.002 A 
ATOM     91  C   UNL A   1      32.888  28.361  26.388  1.00  0.00     0.002 A 
ENDBRANCH  82  83
ENDBRANCH  74  77
ENDBRANCH  72  73
ENDBRANCH  71  72
ENDBRANCH   1  71
TORSDOF 14
ENDMDL
MODEL 3
REMARK VINA RESULT:     -12.5      4.318      9.658
REMARK SMILES O=C(NCCCNC(=O)c1ccc(-n2cnc3ccccc32)nc1)c1ccc(-c2c3nc(c(-c4cccc(S(=O)(=O)[O-])c4F)c4ccc([nH]4)c(-c4cccc(S(=O)(=O)[O-])c4F)c4nc(c(-c5cccc(S(=O)(=O)[O-])c5F)c5ccc2[nH]5)C=C4)C=C3)cc1
REMARK SMILES IDX 4 1 3 2 1 3 2 4 25 6 26 7 87 8 27 9 86 10 28 11 29 12 30 13
REMARK SMILES IDX 80 14 31 15 85 16 79 17 81 18 32 19 84 20 78 21 77 22 33 24
REMARK SMILES IDX 65 25 45 26 64 27 46 28 49 29 63 30 82 31 47 32 48 33 62 35
REMARK SMILES IDX 83 36 50 37 34 38 35 39 43 40 36 41 38 42 44 43 37 44 39 45
REMARK SMILES IDX 40 46 41 47 42 48 66 49 67 50 75 51 68 52 70 53 76 54 69 55
REMARK SMILES IDX 71 56 72 57 73 58 74 59 51 60 52 61 60 62 53 63 55 64 61 65
REMARK SMILES IDX 54 66 56 67 57 68 58 69 59 70 5 71 6 72 7 73 8 74 9 76 10 77
REMARK SMILES IDX 11 78 24 79 12 80 23 81 13 82 14 83 15 84 22 85 16 86 17 87
REMARK SMILES IDX 21 88 18 89 20 90 19 91
REMARK H PARENT 3 5 81 23 49 34 7 75
REMARK Flexibility Score: inf
ROOT
ATOM      1  C   UNL A   1      32.944  32.205  27.260  1.00  0.00     0.118 C 
ENDROOT
BRANCH   1   2
ATOM      2  N   UNL A   1      32.550  33.594  27.571  1.00  0.00    -0.352 N 
ATOM      3  O   UNL A   1      32.474  35.430  28.934  1.00  0.00    -0.269 OA
ATOM      4  C   UNL A   1      33.057  34.416  28.573  1.00  0.00     0.251 C 
ATOM      5  H   UNL A   1      31.845  33.983  27.005  1.00  0.00     0.163 HD
BRANCH   4   6
ATOM      6  C   UNL A   1      34.347  34.027  29.162  1.00  0.00     0.039 A 
ATOM      7  C   UNL A   1      34.476  33.176  30.261  1.00  0.00     0.014 A 
ATOM      8  C   UNL A   1      35.447  34.407  28.417  1.00  0.00     0.014 A 
ATOM      9  C   UNL A   1      35.733  32.629  30.519  1.00  0.00     0.010 A 
ATOM     10  C   UNL A   1      36.539  33.599  28.458  1.00  0.00     0.010 A 
ATOM     11  C   UNL A   1      36.760  32.824  29.581  1.00  0.00    -0.014 A 
BRANCH  11  12
ATOM     12  C   UNL A   1      38.071  32.196  29.677  1.00  0.00     0.031 A 
ATOM     13  C   UNL A   1      38.143  30.823  29.121  1.00  0.00     0.074 A 
ATOM     14  C   UNL A   1      39.172  32.884  30.070  1.00  0.00     0.049 A 
ATOM     15  N   UNL A   1      38.217  29.724  29.796  1.00  0.00    -0.248 NA
ATOM     16  C   UNL A   1      37.940  30.624  27.678  1.00  0.00     0.031 C 
ATOM     17  C   UNL A   1      39.311  34.320  30.380  1.00  0.00     0.029 A 
ATOM     18  N   UNL A   1      40.459  32.461  30.142  1.00  0.00    -0.354 N 
ATOM     19  C   UNL A   1      38.342  28.714  28.850  1.00  0.00     0.074 A 
ATOM     20  C   UNL A   1      37.950  29.290  27.589  1.00  0.00     0.031 C 
ATOM     21  C   UNL A   1      40.610  34.682  30.318  1.00  0.00     0.029 A 
ATOM     22  C   UNL A   1      41.405  33.484  30.190  1.00  0.00     0.049 A 
ATOM     23  H   UNL A   1      40.705  31.508  30.159  1.00  0.00     0.167 HD
ATOM     24  C   UNL A   1      39.012  27.564  29.133  1.00  0.00     0.034 A 
ATOM     25  C   UNL A   1      42.751  33.340  30.112  1.00  0.00     0.034 A 
ATOM     26  C   UNL A   1      39.293  27.443  30.540  1.00  0.00     0.049 A 
ATOM     27  C   UNL A   1      43.027  31.944  30.524  1.00  0.00     0.074 A 
ATOM     28  C   UNL A   1      38.523  27.408  31.684  1.00  0.00     0.029 A 
ATOM     29  N   UNL A   1      40.561  27.794  30.942  1.00  0.00    -0.354 N 
ATOM     30  N   UNL A   1      42.789  31.489  31.722  1.00  0.00    -0.248 NA
ATOM     31  C   UNL A   1      43.142  30.941  29.479  1.00  0.00     0.031 C 
ATOM     32  C   UNL A   1      39.238  28.202  32.628  1.00  0.00     0.029 A 
ATOM     33  C   UNL A   1      40.438  28.607  32.039  1.00  0.00     0.049 A 
ATOM     34  H   UNL A   1      41.405  27.512  30.520  1.00  0.00     0.167 HD
ATOM     35  C   UNL A   1      42.269  30.219  31.507  1.00  0.00     0.074 A 
ATOM     36  C   UNL A   1      42.613  29.897  30.123  1.00  0.00     0.031 C 
ATOM     37  C   UNL A   1      41.356  29.677  32.364  1.00  0.00     0.034 A 
BRANCH  24  38
ATOM     38  C   UNL A   1      39.740  26.731  28.115  1.00  0.00     0.023 A 
ATOM     39  C   UNL A   1      39.476  25.345  28.083  1.00  0.00     0.012 A 
ATOM     40  C   UNL A   1      40.848  27.199  27.375  1.00  0.00     0.148 A 
ATOM     41  C   UNL A   1      40.285  24.467  27.355  1.00  0.00     0.002 A 
ATOM     42  C   UNL A   1      41.603  26.336  26.593  1.00  0.00     0.091 A 
ATOM     43  F   UNL A   1      41.263  28.461  27.531  1.00  0.00    -0.205 F 
ATOM     44  C   UNL A   1      41.340  24.963  26.596  1.00  0.00     0.022 A 
BRANCH  42  45
ATOM     45  S   UNL A   1      42.957  26.931  25.574  1.00  0.00     0.127 S 
ATOM     46  O   UNL A   1      43.412  25.697  24.943  1.00  0.00    -0.237 OA
ATOM     47  O   UNL A   1      42.271  27.870  24.686  1.00  0.00    -0.237 OA
ATOM     48  O   UNL A   1      43.889  27.561  26.502  1.00  0.00    -0.744 OA
ENDBRANCH  42  45
ENDBRANCH  24  38
BRANCH  25  49
ATOM     49  C   UNL A   1      43.787  34.200  29.486  1.00  0.00     0.023 A 
ATOM     50  C   UNL A   1      44.581  35.017  30.319  1.00  0.00     0.012 A 
ATOM     51  C   UNL A   1      44.219  33.995  28.157  1.00  0.00     0.148 A 
ATOM     52  C   UNL A   1      45.800  35.544  29.875  1.00  0.00     0.002 A 
ATOM     53  C   UNL A   1      45.431  34.528  27.716  1.00  0.00     0.091 A 
ATOM     54  F   UNL A   1      43.498  33.203  27.353  1.00  0.00    -0.205 F 
ATOM     55  C   UNL A   1      46.233  35.284  28.580  1.00  0.00     0.022 A 
BRANCH  53  56
ATOM     56  S   UNL A   1      46.069  34.222  26.062  1.00  0.00     0.127 S 
ATOM     57  O   UNL A   1      47.235  35.105  26.016  1.00  0.00    -0.237 OA
ATOM     58  O   UNL A   1      46.383  32.797  26.120  1.00  0.00    -0.237 OA
ATOM     59  O   UNL A   1      44.996  34.599  25.154  1.00  0.00    -0.744 OA
ENDBRANCH  53  56
ENDBRANCH  25  49
BRANCH  37  60
ATOM     60  C   UNL A   1      41.098  30.383  33.673  1.00  0.00     0.023 A 
ATOM     61  C   UNL A   1      41.993  30.309  34.762  1.00  0.00     0.012 A 
ATOM     62  C   UNL A   1      40.049  31.314  33.715  1.00  0.00     0.148 A 
ATOM     63  C   UNL A   1      41.846  31.154  35.867  1.00  0.00     0.002 A 
ATOM     64  C   UNL A   1      39.929  32.178  34.795  1.00  0.00     0.091 A 
ATOM     65  F   UNL A   1      39.219  31.374  32.663  1.00  0.00    -0.205 F 
ATOM     66  C   UNL A   1      40.823  32.099  35.876  1.00  0.00     0.022 A 
BRANCH  64  67
ATOM     67  S   UNL A   1      38.709  33.491  34.821  1.00  0.00     0.127 S 
ATOM     68  O   UNL A   1      37.455  32.748  34.716  1.00  0.00    -0.237 OA
ATOM     69  O   UNL A   1      38.947  34.110  36.127  1.00  0.00    -0.237 OA
ATOM     70  O   UNL A   1      39.014  34.353  33.686  1.00  0.00    -0.744 OA
ENDBRANCH  64  67
ENDBRANCH  37  60
ENDBRANCH  11  12
ENDBRANCH   4   6
ENDBRANCH   1   2
BRANCH   1  71
ATOM     71  C   UNL A   1      31.771  31.272  27.047  1.00  0.00     0.042 C 
BRANCH  71  72
ATOM     72  C   UNL A   1      31.891  30.511  25.728  1.00  0.00     0.118 C 
BRANCH  72  73
ATOM     73  N   UNL A   1      30.747  30.673  24.836  1.00  0.00    -0.352 N 
ATOM     74  C   UNL A   1      30.281  29.837  23.843  1.00  0.00     0.252 C 
ATOM     75  H   UNL A   1      30.233  31.503  24.961  1.00  0.00     0.163 HD
ATOM     76  O   UNL A   1      29.292  30.096  23.196  1.00  0.00    -0.269 OA
BRANCH  74  77
ATOM     77  C   UNL A   1      30.998  28.581  23.608  1.00  0.00     0.058 A 
ATOM     78  C   UNL A   1      30.656  27.447  24.334  1.00  0.00     0.019 A 
ATOM     79  C   UNL A   1      32.060  28.531  22.722  1.00  0.00     0.127 A 
ATOM     80  C   UNL A   1      31.443  26.318  24.212  1.00  0.00     0.048 A 
ATOM     81  N   UNL A   1      32.844  27.428  22.580  1.00  0.00    -0.238 NA
ATOM     82  C   UNL A   1      32.498  26.332  23.303  1.00  0.00     0.138 A 
BRANCH  82  83
ATOM     83  N   UNL A   1      33.229  25.139  23.094  1.00  0.00    -0.283 N 
ATOM     84  C   UNL A   1      33.030  24.248  22.067  1.00  0.00     0.206 A 
ATOM     85  C   UNL A   1      34.229  24.612  23.899  1.00  0.00     0.074 A 
ATOM     86  N   UNL A   1      33.894  23.255  22.093  1.00  0.00    -0.236 NA
ATOM     87  C   UNL A   1      34.616  23.446  23.242  1.00  0.00     0.089 A 
ATOM     88  C   UNL A   1      34.761  24.976  25.150  1.00  0.00     0.029 A 
ATOM     89  C   UNL A   1      35.606  22.634  23.818  1.00  0.00     0.030 A 
ATOM     90  C   UNL A   1      35.737  24.153  25.709  1.00  0.00     0.002 A 
ATOM     91  C   UNL A   1      36.158  22.999  25.054  1.00  0.00     0.002 A 
ENDBRANCH  82  83
ENDBRANCH  74  77
ENDBRANCH  72  73
ENDBRANCH  71  72
ENDBRANCH   1  71
TORSDOF 14
ENDMDL
