MODEL 1
REMARK VINA RESULT:     -12.2      0.000      0.000
REMARK SMILES Cc1cc2c(c(C)c1Br)C=C(C(=O)NCCCNC(=O)c1ccc(-c3c4nc(c(-c5cccc(S(=O)(=O)[O-])c5F)c5ccc([nH]5)c(-c5cccc(S(=O)(=O)[O-])c5F)c5nc(c(-c6cccc(S(=O)(=O)[O-])c6F)c6ccc3[nH]6)C=C5)C=C4)cc1)[C@@H](C(F)(F)F)O2
REMARK SMILES IDX 17 1 16 2 15 3 14 4 12 5 13 6 11 8 1 9 2 10 3 11 8 12 4 13
REMARK SMILES IDX 6 14 9 15 5 16 89 17 7 18 10 19 84 20 85 21 86 22 87 23
REMARK SMILES IDX 88 24 18 25 19 26 20 28 21 29 22 30 83 31 23 32 82 33 24 34
REMARK SMILES IDX 25 35 26 36 76 37 27 38 81 39 75 40 77 41 28 42 80 43 74 44
REMARK SMILES IDX 73 45 29 47 61 48 41 49 60 50 42 51 45 52 59 53 78 54 43 55
REMARK SMILES IDX 44 56 58 58 79 59 46 60 30 61 31 62 39 63 32 64 34 65 40 66
REMARK SMILES IDX 33 67 35 68 36 69 37 70 38 71 62 72 63 73 71 74 64 75 66 76
REMARK SMILES IDX 72 77 65 78 67 79 68 80 69 81 70 82 47 83 48 84 56 85 49 86
REMARK SMILES IDX 51 87 57 88 50 89 52 90 53 91 54 92 55 93
REMARK H PARENT 14 7 18 27 77 46 45 57
REMARK Flexibility Score: inf
ROOT
ATOM      1  C   UNL A   1      34.210  28.686  26.015  1.00  0.00     0.118 C 
ENDROOT
BRANCH   1   2
ATOM      2  C   UNL A   1      33.935  28.521  24.527  1.00  0.00     0.042 C 
BRANCH   2   3
ATOM      3  C   UNL A   1      32.494  28.121  24.252  1.00  0.00     0.118 C 
BRANCH   3   4
ATOM      4  N   UNL A   1      31.763  27.834  25.477  1.00  0.00    -0.352 N 
ATOM      5  C   UNL A   1      31.404  26.740  26.186  1.00  0.00     0.251 C 
ATOM      6  O   UNL A   1      30.778  26.968  27.226  1.00  0.00    -0.270 OA
ATOM      7  H   UNL A   1      31.443  28.661  25.906  1.00  0.00     0.163 HD
BRANCH   5   8
ATOM      8  C   UNL A   1      31.721  25.331  25.808  1.00  0.00     0.067 C 
ATOM      9  C   UNL A   1      34.246  19.486  24.498  1.00  0.00     0.046 C 
ATOM     10  C   UNL A   1      34.005  20.918  24.896  1.00  0.00    -0.033 A 
ATOM     11  C   UNL A   1      32.683  21.362  24.954  1.00  0.00     0.051 A 
ATOM     12  C   UNL A   1      35.042  21.820  25.217  1.00  0.00     0.024 A 
ATOM     13  C   UNL A   1      32.393  22.676  25.298  1.00  0.00     0.128 A 
ATOM     14  C   UNL A   1      34.759  23.162  25.586  1.00  0.00    -0.026 A 
ATOM     15  Br  UNL A   1      36.846  21.181  25.149  1.00  0.00    -0.050 Br
ATOM     16  C   UNL A   1      33.405  23.584  25.619  1.00  0.00     0.021 A 
ATOM     17  O   UNL A   1      31.065  22.985  25.334  1.00  0.00    -0.475 OA
ATOM     18  C   UNL A   1      35.843  24.152  25.943  1.00  0.00     0.046 C 
ATOM     19  C   UNL A   1      32.992  24.938  26.007  1.00  0.00     0.026 C 
ATOM     20  C   UNL A   1      30.727  24.386  25.205  1.00  0.00     0.314 C 
BRANCH  20  21
ATOM     21  C   UNL A   1      30.425  24.703  23.728  1.00  0.00     0.429 C 
ATOM     22  F   UNL A   1      31.527  25.197  23.111  1.00  0.00    -0.167 F 
ATOM     23  F   UNL A   1      30.050  23.609  23.022  1.00  0.00    -0.167 F 
ATOM     24  F   UNL A   1      29.436  25.614  23.581  1.00  0.00    -0.167 F 
ENDBRANCH  20  21
ENDBRANCH   5   8
ENDBRANCH   3   4
ENDBRANCH   2   3
ENDBRANCH   1   2
BRANCH   1  25
ATOM     25  N   UNL A   1      34.017  30.068  26.452  1.00  0.00    -0.352 N 
ATOM     26  C   UNL A   1      34.630  30.768  27.460  1.00  0.00     0.251 C 
ATOM     27  H   UNL A   1      33.343  30.574  25.945  1.00  0.00     0.163 HD
ATOM     28  O   UNL A   1      34.134  31.821  27.861  1.00  0.00    -0.269 OA
BRANCH  26  29
ATOM     29  C   UNL A   1      35.880  30.260  28.055  1.00  0.00     0.039 A 
ATOM     30  C   UNL A   1      35.844  29.622  29.298  1.00  0.00     0.014 A 
ATOM     31  C   UNL A   1      37.093  30.434  27.387  1.00  0.00     0.014 A 
ATOM     32  C   UNL A   1      37.025  29.108  29.838  1.00  0.00     0.010 A 
ATOM     33  C   UNL A   1      38.241  29.829  27.872  1.00  0.00     0.010 A 
ATOM     34  C   UNL A   1      38.225  29.181  29.114  1.00  0.00    -0.014 A 
BRANCH  34  35
ATOM     35  C   UNL A   1      39.487  28.612  29.640  1.00  0.00     0.031 A 
ATOM     36  C   UNL A   1      40.130  29.221  30.857  1.00  0.00     0.074 A 
ATOM     37  C   UNL A   1      40.093  27.609  28.977  1.00  0.00     0.049 A 
ATOM     38  N   UNL A   1      41.259  28.907  31.435  1.00  0.00    -0.248 NA
ATOM     39  C   UNL A   1      39.429  30.352  31.489  1.00  0.00     0.031 C 
ATOM     40  C   UNL A   1      39.599  26.993  27.744  1.00  0.00     0.029 A 
ATOM     41  N   UNL A   1      41.264  26.943  29.236  1.00  0.00    -0.354 N 
ATOM     42  C   UNL A   1      41.417  29.816  32.472  1.00  0.00     0.074 A 
ATOM     43  C   UNL A   1      40.300  30.730  32.414  1.00  0.00     0.031 C 
ATOM     44  C   UNL A   1      40.447  26.024  27.367  1.00  0.00     0.029 A 
ATOM     45  C   UNL A   1      41.561  25.973  28.308  1.00  0.00     0.049 A 
ATOM     46  H   UNL A   1      41.836  27.141  30.012  1.00  0.00     0.167 HD
ATOM     47  C   UNL A   1      42.385  29.862  33.418  1.00  0.00     0.034 A 
ATOM     48  C   UNL A   1      42.613  25.133  28.230  1.00  0.00     0.034 A 
ATOM     49  C   UNL A   1      43.466  28.918  33.496  1.00  0.00     0.049 A 
ATOM     50  C   UNL A   1      43.663  25.183  29.306  1.00  0.00     0.074 A 
ATOM     51  C   UNL A   1      44.454  28.823  34.457  1.00  0.00     0.029 A 
ATOM     52  N   UNL A   1      43.702  27.908  32.575  1.00  0.00    -0.354 N 
ATOM     53  N   UNL A   1      43.720  25.955  30.364  1.00  0.00    -0.248 NA
ATOM     54  C   UNL A   1      44.775  24.229  29.197  1.00  0.00     0.031 C 
ATOM     55  C   UNL A   1      45.304  27.772  34.103  1.00  0.00     0.029 A 
ATOM     56  C   UNL A   1      44.829  27.192  32.938  1.00  0.00     0.049 A 
ATOM     57  H   UNL A   1      43.150  27.727  31.781  1.00  0.00     0.167 HD
ATOM     58  C   UNL A   1      44.857  25.565  31.063  1.00  0.00     0.074 A 
ATOM     59  C   UNL A   1      45.445  24.469  30.317  1.00  0.00     0.031 C 
ATOM     60  C   UNL A   1      45.377  26.077  32.206  1.00  0.00     0.034 A 
BRANCH  47  61
ATOM     61  C   UNL A   1      42.279  30.924  34.481  1.00  0.00     0.023 A 
ATOM     62  C   UNL A   1      41.618  30.629  35.693  1.00  0.00     0.012 A 
ATOM     63  C   UNL A   1      42.881  32.186  34.315  1.00  0.00     0.148 A 
ATOM     64  C   UNL A   1      41.526  31.583  36.704  1.00  0.00     0.002 A 
ATOM     65  C   UNL A   1      42.828  33.115  35.347  1.00  0.00     0.091 A 
ATOM     66  F   UNL A   1      43.484  32.458  33.148  1.00  0.00    -0.205 F 
ATOM     67  C   UNL A   1      42.141  32.820  36.537  1.00  0.00     0.022 A 
BRANCH  65  68
ATOM     68  S   UNL A   1      43.663  34.703  35.269  1.00  0.00     0.127 S 
ATOM     69  O   UNL A   1      43.379  35.250  36.596  1.00  0.00    -0.237 OA
ATOM     70  O   UNL A   1      45.056  34.308  35.059  1.00  0.00    -0.237 OA
ATOM     71  O   UNL A   1      43.058  35.421  34.157  1.00  0.00    -0.744 OA
ENDBRANCH  65  68
ENDBRANCH  47  61
BRANCH  48  72
ATOM     72  C   UNL A   1      42.660  24.118  27.139  1.00  0.00     0.023 A 
ATOM     73  C   UNL A   1      43.412  24.389  25.981  1.00  0.00     0.012 A 
ATOM     74  C   UNL A   1      42.039  22.859  27.276  1.00  0.00     0.148 A 
ATOM     75  C   UNL A   1      43.535  23.434  24.971  1.00  0.00     0.002 A 
ATOM     76  C   UNL A   1      42.213  21.892  26.292  1.00  0.00     0.091 A 
ATOM     77  F   UNL A   1      41.323  22.623  28.383  1.00  0.00    -0.205 F 
ATOM     78  C   UNL A   1      42.949  22.182  25.132  1.00  0.00     0.022 A 
BRANCH  76  79
ATOM     79  S   UNL A   1      41.622  20.205  26.476  1.00  0.00     0.127 S 
ATOM     80  O   UNL A   1      40.175  20.383  26.373  1.00  0.00    -0.237 OA
ATOM     81  O   UNL A   1      42.245  19.544  25.329  1.00  0.00    -0.237 OA
ATOM     82  O   UNL A   1      42.109  19.753  27.772  1.00  0.00    -0.744 OA
ENDBRANCH  76  79
ENDBRANCH  48  72
BRANCH  60  83
ATOM     83  C   UNL A   1      46.645  25.466  32.743  1.00  0.00     0.023 A 
ATOM     84  C   UNL A   1      47.890  25.993  32.349  1.00  0.00     0.012 A 
ATOM     85  C   UNL A   1      46.599  24.458  33.728  1.00  0.00     0.148 A 
ATOM     86  C   UNL A   1      49.072  25.514  32.912  1.00  0.00     0.002 A 
ATOM     87  C   UNL A   1      47.778  24.025  34.324  1.00  0.00     0.091 A 
ATOM     88  F   UNL A   1      45.405  23.962  34.079  1.00  0.00    -0.205 F 
ATOM     89  C   UNL A   1      49.015  24.543  33.909  1.00  0.00     0.022 A 
BRANCH  87  90
ATOM     90  S   UNL A   1      47.798  22.862  35.693  1.00  0.00     0.127 S 
ATOM     91  O   UNL A   1      47.159  23.640  36.754  1.00  0.00    -0.237 OA
ATOM     92  O   UNL A   1      46.989  21.759  35.173  1.00  0.00    -0.237 OA
ATOM     93  O   UNL A   1      49.198  22.532  35.922  1.00  0.00    -0.744 OA
ENDBRANCH  87  90
ENDBRANCH  60  83
ENDBRANCH  34  35
ENDBRANCH  26  29
ENDBRANCH   1  25
TORSDOF 14
ENDMDL
MODEL 2
REMARK VINA RESULT:     -12.2      1.967      8.042
REMARK SMILES Cc1cc2c(c(C)c1Br)C=C(C(=O)NCCCNC(=O)c1ccc(-c3c4nc(c(-c5cccc(S(=O)(=O)[O-])c5F)c5ccc([nH]5)c(-c5cccc(S(=O)(=O)[O-])c5F)c5nc(c(-c6cccc(S(=O)(=O)[O-])c6F)c6ccc3[nH]6)C=C5)C=C4)cc1)[C@@H](C(F)(F)F)O2
REMARK SMILES IDX 17 1 16 2 15 3 14 4 12 5 13 6 11 8 1 9 2 10 3 11 8 12 4 13
REMARK SMILES IDX 6 14 9 15 5 16 89 17 7 18 10 19 84 20 85 21 86 22 87 23
REMARK SMILES IDX 88 24 18 25 19 26 20 28 21 29 22 30 83 31 23 32 82 33 24 34
REMARK SMILES IDX 25 35 26 36 76 37 27 38 81 39 75 40 77 41 28 42 80 43 74 44
REMARK SMILES IDX 73 45 29 47 61 48 41 49 60 50 42 51 45 52 59 53 78 54 43 55
REMARK SMILES IDX 44 56 58 58 79 59 46 60 30 61 31 62 39 63 32 64 34 65 40 66
REMARK SMILES IDX 33 67 35 68 36 69 37 70 38 71 62 72 63 73 71 74 64 75 66 76
REMARK SMILES IDX 72 77 65 78 67 79 68 80 69 81 70 82 47 83 48 84 56 85 49 86
REMARK SMILES IDX 51 87 57 88 50 89 52 90 53 91 54 92 55 93
REMARK H PARENT 14 7 18 27 77 46 45 57
REMARK Flexibility Score: inf
ROOT
ATOM      1  C   UNL A   1      33.630  29.353  24.838  1.00  0.00     0.118 C 
ENDROOT
BRANCH   1   2
ATOM      2  C   UNL A   1      32.851  28.864  23.625  1.00  0.00     0.042 C 
BRANCH   2   3
ATOM      3  C   UNL A   1      32.248  27.487  23.849  1.00  0.00     0.118 C 
BRANCH   3   4
ATOM      4  N   UNL A   1      31.862  27.278  25.236  1.00  0.00    -0.352 N 
ATOM      5  C   UNL A   1      31.773  26.238  26.097  1.00  0.00     0.251 C 
ATOM      6  O   UNL A   1      31.403  26.529  27.238  1.00  0.00    -0.270 OA
ATOM      7  H   UNL A   1      31.592  28.123  25.665  1.00  0.00     0.163 HD
BRANCH   5   8
ATOM      8  C   UNL A   1      32.098  24.820  25.763  1.00  0.00     0.067 C 
ATOM      9  C   UNL A   1      34.662  18.958  24.614  1.00  0.00     0.046 C 
ATOM     10  C   UNL A   1      34.413  20.401  24.964  1.00  0.00    -0.033 A 
ATOM     11  C   UNL A   1      33.087  20.832  25.034  1.00  0.00     0.051 A 
ATOM     12  C   UNL A   1      35.446  21.325  25.229  1.00  0.00     0.024 A 
ATOM     13  C   UNL A   1      32.790  22.155  25.337  1.00  0.00     0.128 A 
ATOM     14  C   UNL A   1      35.156  22.676  25.554  1.00  0.00    -0.026 A 
ATOM     15  Br  UNL A   1      37.255  20.703  25.144  1.00  0.00    -0.050 Br
ATOM     16  C   UNL A   1      33.798  23.085  25.602  1.00  0.00     0.021 A 
ATOM     17  O   UNL A   1      31.459  22.451  25.390  1.00  0.00    -0.475 OA
ATOM     18  C   UNL A   1      36.235  23.691  25.851  1.00  0.00     0.046 C 
ATOM     19  C   UNL A   1      33.378  24.448  25.948  1.00  0.00     0.026 C 
ATOM     20  C   UNL A   1      31.102  23.843  25.218  1.00  0.00     0.314 C 
BRANCH  20  21
ATOM     21  C   UNL A   1      30.765  24.102  23.737  1.00  0.00     0.429 C 
ATOM     22  F   UNL A   1      31.876  24.471  23.052  1.00  0.00    -0.167 F 
ATOM     23  F   UNL A   1      30.277  23.004  23.110  1.00  0.00    -0.167 F 
ATOM     24  F   UNL A   1      29.846  25.081  23.574  1.00  0.00    -0.167 F 
ENDBRANCH  20  21
ENDBRANCH   5   8
ENDBRANCH   3   4
ENDBRANCH   2   3
ENDBRANCH   1   2
BRANCH   1  25
ATOM     25  N   UNL A   1      32.950  30.460  25.509  1.00  0.00    -0.352 N 
ATOM     26  C   UNL A   1      33.172  31.012  26.745  1.00  0.00     0.251 C 
ATOM     27  H   UNL A   1      32.220  30.872  24.995  1.00  0.00     0.163 HD
ATOM     28  O   UNL A   1      32.317  31.740  27.250  1.00  0.00    -0.269 OA
BRANCH  26  29
ATOM     29  C   UNL A   1      34.431  30.736  27.460  1.00  0.00     0.039 A 
ATOM     30  C   UNL A   1      35.370  31.758  27.626  1.00  0.00     0.014 A 
ATOM     31  C   UNL A   1      34.691  29.454  27.949  1.00  0.00     0.014 A 
ATOM     32  C   UNL A   1      36.543  31.501  28.338  1.00  0.00     0.010 A 
ATOM     33  C   UNL A   1      35.802  29.232  28.746  1.00  0.00     0.010 A 
ATOM     34  C   UNL A   1      36.752  30.244  28.929  1.00  0.00    -0.014 A 
BRANCH  34  35
ATOM     35  C   UNL A   1      37.967  29.950  29.722  1.00  0.00     0.031 A 
ATOM     36  C   UNL A   1      39.007  29.009  29.176  1.00  0.00     0.074 A 
ATOM     37  C   UNL A   1      38.093  30.462  30.962  1.00  0.00     0.049 A 
ATOM     38  N   UNL A   1      40.105  28.580  29.738  1.00  0.00    -0.248 NA
ATOM     39  C   UNL A   1      38.764  28.450  27.835  1.00  0.00     0.031 C 
ATOM     40  C   UNL A   1      37.111  31.324  31.623  1.00  0.00     0.029 A 
ATOM     41  N   UNL A   1      39.088  30.316  31.894  1.00  0.00    -0.354 N 
ATOM     42  C   UNL A   1      40.665  27.684  28.838  1.00  0.00     0.074 A 
ATOM     43  C   UNL A   1      39.761  27.585  27.716  1.00  0.00     0.031 C 
ATOM     44  C   UNL A   1      37.564  31.650  32.843  1.00  0.00     0.029 A 
ATOM     45  C   UNL A   1      38.848  30.993  33.066  1.00  0.00     0.049 A 
ATOM     46  H   UNL A   1      39.898  29.777  31.739  1.00  0.00     0.167 HD
ATOM     47  C   UNL A   1      41.848  27.032  28.917  1.00  0.00     0.034 A 
ATOM     48  C   UNL A   1      39.584  31.078  34.193  1.00  0.00     0.034 A 
ATOM     49  C   UNL A   1      42.763  27.175  30.016  1.00  0.00     0.049 A 
ATOM     50  C   UNL A   1      40.909  30.367  34.249  1.00  0.00     0.074 A 
ATOM     51  C   UNL A   1      44.023  26.626  30.160  1.00  0.00     0.029 A 
ATOM     52  N   UNL A   1      42.516  27.920  31.159  1.00  0.00    -0.354 N 
ATOM     53  N   UNL A   1      41.491  29.639  33.327  1.00  0.00    -0.248 NA
ATOM     54  C   UNL A   1      41.691  30.513  35.483  1.00  0.00     0.031 C 
ATOM     55  C   UNL A   1      44.527  27.016  31.405  1.00  0.00     0.029 A 
ATOM     56  C   UNL A   1      43.594  27.834  32.022  1.00  0.00     0.049 A 
ATOM     57  H   UNL A   1      41.695  28.434  31.332  1.00  0.00     0.167 HD
ATOM     58  C   UNL A   1      42.720  29.261  33.856  1.00  0.00     0.074 A 
ATOM     59  C   UNL A   1      42.806  29.862  35.173  1.00  0.00     0.031 C 
ATOM     60  C   UNL A   1      43.681  28.474  33.311  1.00  0.00     0.034 A 
BRANCH  47  61
ATOM     61  C   UNL A   1      42.250  26.161  27.755  1.00  0.00     0.023 A 
ATOM     62  C   UNL A   1      43.080  26.692  26.745  1.00  0.00     0.012 A 
ATOM     63  C   UNL A   1      41.865  24.808  27.690  1.00  0.00     0.148 A 
ATOM     64  C   UNL A   1      43.488  25.902  25.671  1.00  0.00     0.002 A 
ATOM     65  C   UNL A   1      42.317  24.014  26.643  1.00  0.00     0.091 A 
ATOM     66  F   UNL A   1      41.057  24.326  28.645  1.00  0.00    -0.205 F 
ATOM     67  C   UNL A   1      43.117  24.562  25.627  1.00  0.00     0.022 A 
BRANCH  65  68
ATOM     68  S   UNL A   1      41.972  22.254  26.538  1.00  0.00     0.127 S 
ATOM     69  O   UNL A   1      42.649  21.895  25.292  1.00  0.00    -0.237 OA
ATOM     70  O   UNL A   1      42.613  21.743  27.749  1.00  0.00    -0.237 OA
ATOM     71  O   UNL A   1      40.521  22.130  26.516  1.00  0.00    -0.744 OA
ENDBRANCH  65  68
ENDBRANCH  47  61
BRANCH  48  72
ATOM     72  C   UNL A   1      39.115  31.947  35.310  1.00  0.00     0.023 A 
ATOM     73  C   UNL A   1      38.235  31.414  36.270  1.00  0.00     0.012 A 
ATOM     74  C   UNL A   1      39.599  33.261  35.475  1.00  0.00     0.148 A 
ATOM     75  C   UNL A   1      37.830  32.177  37.367  1.00  0.00     0.002 A 
ATOM     76  C   UNL A   1      39.238  33.994  36.601  1.00  0.00     0.091 A 
ATOM     77  F   UNL A   1      40.433  33.751  34.548  1.00  0.00    -0.205 F 
ATOM     78  C   UNL A   1      38.342  33.459  37.540  1.00  0.00     0.022 A 
BRANCH  76  79
ATOM     79  S   UNL A   1      39.959  35.594  36.986  1.00  0.00     0.127 S 
ATOM     80  O   UNL A   1      39.278  35.936  38.233  1.00  0.00    -0.237 OA
ATOM     81  O   UNL A   1      41.375  35.257  37.130  1.00  0.00    -0.237 OA
ATOM     82  O   UNL A   1      39.655  36.451  35.849  1.00  0.00    -0.744 OA
ENDBRANCH  76  79
ENDBRANCH  48  72
BRANCH  60  83
ATOM     83  C   UNL A   1      44.923  28.210  34.122  1.00  0.00     0.023 A 
ATOM     84  C   UNL A   1      45.995  29.121  34.065  1.00  0.00     0.012 A 
ATOM     85  C   UNL A   1      44.976  27.133  35.030  1.00  0.00     0.148 A 
ATOM     86  C   UNL A   1      47.111  28.954  34.884  1.00  0.00     0.002 A 
ATOM     87  C   UNL A   1      46.066  27.005  35.881  1.00  0.00     0.091 A 
ATOM     88  F   UNL A   1      43.951  26.271  35.059  1.00  0.00    -0.205 F 
ATOM     89  C   UNL A   1      47.139  27.907  35.802  1.00  0.00     0.022 A 
BRANCH  87  90
ATOM     90  S   UNL A   1      46.143  25.757  37.172  1.00  0.00     0.127 S 
ATOM     91  O   UNL A   1      44.940  26.056  37.948  1.00  0.00    -0.237 OA
ATOM     92  O   UNL A   1      46.080  24.514  36.404  1.00  0.00    -0.237 OA
ATOM     93  O   UNL A   1      47.403  25.975  37.870  1.00  0.00    -0.744 OA
ENDBRANCH  87  90
ENDBRANCH  60  83
ENDBRANCH  34  35
ENDBRANCH  26  29
ENDBRANCH   1  25
TORSDOF 14
ENDMDL
MODEL 3
REMARK VINA RESULT:     -12.2      5.136      9.687
REMARK SMILES Cc1cc2c(c(C)c1Br)C=C(C(=O)NCCCNC(=O)c1ccc(-c3c4nc(c(-c5cccc(S(=O)(=O)[O-])c5F)c5ccc([nH]5)c(-c5cccc(S(=O)(=O)[O-])c5F)c5nc(c(-c6cccc(S(=O)(=O)[O-])c6F)c6ccc3[nH]6)C=C5)C=C4)cc1)[C@@H](C(F)(F)F)O2
REMARK SMILES IDX 17 1 16 2 15 3 14 4 12 5 13 6 11 8 1 9 2 10 3 11 8 12 4 13
REMARK SMILES IDX 6 14 9 15 5 16 89 17 7 18 10 19 84 20 85 21 86 22 87 23
REMARK SMILES IDX 88 24 18 25 19 26 20 28 21 29 22 30 83 31 23 32 82 33 24 34
REMARK SMILES IDX 25 35 26 36 76 37 27 38 81 39 75 40 77 41 28 42 80 43 74 44
REMARK SMILES IDX 73 45 29 47 61 48 41 49 60 50 42 51 45 52 59 53 78 54 43 55
REMARK SMILES IDX 44 56 58 58 79 59 46 60 30 61 31 62 39 63 32 64 34 65 40 66
REMARK SMILES IDX 33 67 35 68 36 69 37 70 38 71 62 72 63 73 71 74 64 75 66 76
REMARK SMILES IDX 72 77 65 78 67 79 68 80 69 81 70 82 47 83 48 84 56 85 49 86
REMARK SMILES IDX 51 87 57 88 50 89 52 90 53 91 54 92 55 93
REMARK H PARENT 14 7 18 27 77 46 45 57
REMARK Flexibility Score: inf
ROOT
ATOM      1  C   UNL A   1      37.406  22.391  25.100  1.00  0.00     0.118 C 
ENDROOT
BRANCH   1   2
ATOM      2  C   UNL A   1      36.253  21.780  24.316  1.00  0.00     0.042 C 
BRANCH   2   3
ATOM      3  C   UNL A   1      35.630  20.598  25.042  1.00  0.00     0.118 C 
BRANCH   3   4
ATOM      4  N   UNL A   1      34.300  20.288  24.540  1.00  0.00    -0.352 N 
ATOM      5  C   UNL A   1      33.087  20.886  24.504  1.00  0.00     0.251 C 
ATOM      6  O   UNL A   1      32.200  20.244  23.934  1.00  0.00    -0.270 OA
ATOM      7  H   UNL A   1      34.277  19.402  24.109  1.00  0.00     0.163 HD
BRANCH   5   8
ATOM      8  C   UNL A   1      32.777  22.229  25.077  1.00  0.00     0.067 C 
ATOM      9  C   UNL A   1      31.793  28.500  26.479  1.00  0.00     0.046 C 
ATOM     10  C   UNL A   1      32.132  27.182  25.834  1.00  0.00    -0.033 A 
ATOM     11  C   UNL A   1      31.772  26.016  26.511  1.00  0.00     0.051 A 
ATOM     12  C   UNL A   1      32.783  27.073  24.586  1.00  0.00     0.024 A 
ATOM     13  C   UNL A   1      32.070  24.769  25.978  1.00  0.00     0.128 A 
ATOM     14  C   UNL A   1      33.081  25.804  24.023  1.00  0.00    -0.026 A 
ATOM     15  Br  UNL A   1      33.250  28.688  23.669  1.00  0.00    -0.050 Br
ATOM     16  C   UNL A   1      32.714  24.640  24.745  1.00  0.00     0.021 A 
ATOM     17  O   UNL A   1      31.654  23.706  26.726  1.00  0.00    -0.475 OA
ATOM     18  C   UNL A   1      33.769  25.650  22.687  1.00  0.00     0.046 C 
ATOM     19  C   UNL A   1      32.950  23.277  24.251  1.00  0.00     0.026 C 
ATOM     20  C   UNL A   1      32.333  22.449  26.490  1.00  0.00     0.314 C 
BRANCH  20  21
ATOM     21  C   UNL A   1      33.482  22.294  27.505  1.00  0.00     0.429 C 
ATOM     22  F   UNL A   1      33.815  20.988  27.653  1.00  0.00    -0.167 F 
ATOM     23  F   UNL A   1      34.612  22.936  27.121  1.00  0.00    -0.167 F 
ATOM     24  F   UNL A   1      33.165  22.772  28.730  1.00  0.00    -0.167 F 
ENDBRANCH  20  21
ENDBRANCH   5   8
ENDBRANCH   3   4
ENDBRANCH   2   3
ENDBRANCH   1   2
BRANCH   1  25
ATOM     25  N   UNL A   1      38.252  21.365  25.708  1.00  0.00    -0.352 N 
ATOM     26  C   UNL A   1      39.466  21.481  26.337  1.00  0.00     0.251 C 
ATOM     27  H   UNL A   1      37.896  20.449  25.658  1.00  0.00     0.163 HD
ATOM     28  O   UNL A   1      40.154  20.479  26.525  1.00  0.00    -0.269 OA
BRANCH  26  29
ATOM     29  C   UNL A   1      39.938  22.803  26.788  1.00  0.00     0.039 A 
ATOM     30  C   UNL A   1      40.851  22.889  27.842  1.00  0.00     0.014 A 
ATOM     31  C   UNL A   1      39.458  23.963  26.176  1.00  0.00     0.014 A 
ATOM     32  C   UNL A   1      41.326  24.141  28.237  1.00  0.00     0.010 A 
ATOM     33  C   UNL A   1      40.010  25.192  26.497  1.00  0.00     0.010 A 
ATOM     34  C   UNL A   1      40.931  25.298  27.547  1.00  0.00    -0.014 A 
BRANCH  34  35
ATOM     35  C   UNL A   1      41.444  26.637  27.916  1.00  0.00     0.031 A 
ATOM     36  C   UNL A   1      42.866  27.008  27.592  1.00  0.00     0.074 A 
ATOM     37  C   UNL A   1      40.660  27.481  28.614  1.00  0.00     0.049 A 
ATOM     38  N   UNL A   1      43.517  28.102  27.883  1.00  0.00    -0.248 NA
ATOM     39  C   UNL A   1      43.673  26.004  26.876  1.00  0.00     0.031 C 
ATOM     40  C   UNL A   1      39.291  27.197  29.049  1.00  0.00     0.029 A 
ATOM     41  N   UNL A   1      40.907  28.741  29.096  1.00  0.00    -0.354 N 
ATOM     42  C   UNL A   1      44.810  27.907  27.415  1.00  0.00     0.074 A 
ATOM     43  C   UNL A   1      44.871  26.571  26.871  1.00  0.00     0.031 C 
ATOM     44  C   UNL A   1      38.811  28.260  29.713  1.00  0.00     0.029 A 
ATOM     45  C   UNL A   1      39.847  29.286  29.781  1.00  0.00     0.049 A 
ATOM     46  H   UNL A   1      41.763  29.211  28.964  1.00  0.00     0.167 HD
ATOM     47  C   UNL A   1      45.846  28.779  27.401  1.00  0.00     0.034 A 
ATOM     48  C   UNL A   1      39.724  30.481  30.393  1.00  0.00     0.034 A 
ATOM     49  C   UNL A   1      45.761  30.123  27.900  1.00  0.00     0.049 A 
ATOM     50  C   UNL A   1      40.878  31.445  30.341  1.00  0.00     0.074 A 
ATOM     51  C   UNL A   1      46.722  31.115  27.862  1.00  0.00     0.029 A 
ATOM     52  N   UNL A   1      44.651  30.664  28.531  1.00  0.00    -0.354 N 
ATOM     53  N   UNL A   1      42.047  31.298  29.765  1.00  0.00    -0.248 NA
ATOM     54  C   UNL A   1      40.689  32.747  30.993  1.00  0.00     0.031 C 
ATOM     55  C   UNL A   1      46.203  32.248  28.495  1.00  0.00     0.029 A 
ATOM     56  C   UNL A   1      44.907  31.973  28.901  1.00  0.00     0.049 A 
ATOM     57  H   UNL A   1      43.805  30.187  28.694  1.00  0.00     0.167 HD
ATOM     58  C   UNL A   1      42.724  32.497  29.960  1.00  0.00     0.074 A 
ATOM     59  C   UNL A   1      41.822  33.367  30.688  1.00  0.00     0.031 C 
ATOM     60  C   UNL A   1      43.982  32.839  29.588  1.00  0.00     0.034 A 
BRANCH  47  61
ATOM     61  C   UNL A   1      47.134  28.328  26.764  1.00  0.00     0.023 A 
ATOM     62  C   UNL A   1      48.222  27.959  27.585  1.00  0.00     0.012 A 
ATOM     63  C   UNL A   1      47.255  28.207  25.366  1.00  0.00     0.148 A 
ATOM     64  C   UNL A   1      49.418  27.514  27.025  1.00  0.00     0.002 A 
ATOM     65  C   UNL A   1      48.433  27.714  24.817  1.00  0.00     0.091 A 
ATOM     66  F   UNL A   1      46.221  28.584  24.600  1.00  0.00    -0.205 F 
ATOM     67  C   UNL A   1      49.519  27.379  25.643  1.00  0.00     0.022 A 
BRANCH  65  68
ATOM     68  S   UNL A   1      48.636  27.418  23.057  1.00  0.00     0.127 S 
ATOM     69  O   UNL A   1      50.013  27.864  22.841  1.00  0.00    -0.237 OA
ATOM     70  O   UNL A   1      48.442  25.971  22.965  1.00  0.00    -0.237 OA
ATOM     71  O   UNL A   1      47.613  28.215  22.395  1.00  0.00    -0.744 OA
ENDBRANCH  65  68
ENDBRANCH  47  61
BRANCH  48  72
ATOM     72  C   UNL A   1      38.422  30.854  31.017  1.00  0.00     0.023 A 
ATOM     73  C   UNL A   1      38.235  30.638  32.395  1.00  0.00     0.012 A 
ATOM     74  C   UNL A   1      37.407  31.495  30.278  1.00  0.00     0.148 A 
ATOM     75  C   UNL A   1      37.056  31.038  33.026  1.00  0.00     0.002 A 
ATOM     76  C   UNL A   1      36.260  31.943  30.924  1.00  0.00     0.091 A 
ATOM     77  F   UNL A   1      37.602  31.687  28.967  1.00  0.00    -0.205 F 
ATOM     78  C   UNL A   1      36.076  31.702  32.295  1.00  0.00     0.022 A 
BRANCH  76  79
ATOM     79  S   UNL A   1      35.009  32.936  30.101  1.00  0.00     0.127 S 
ATOM     80  O   UNL A   1      34.485  31.998  29.112  1.00  0.00    -0.237 OA
ATOM     81  O   UNL A   1      34.097  33.242  31.204  1.00  0.00    -0.237 OA
ATOM     82  O   UNL A   1      35.712  34.092  29.561  1.00  0.00    -0.744 OA
ENDBRANCH  76  79
ENDBRANCH  48  72
BRANCH  60  83
ATOM     83  C   UNL A   1      44.476  34.217  29.947  1.00  0.00     0.023 A 
ATOM     84  C   UNL A   1      45.212  34.402  31.133  1.00  0.00     0.012 A 
ATOM     85  C   UNL A   1      44.320  35.295  29.052  1.00  0.00     0.148 A 
ATOM     86  C   UNL A   1      45.769  35.645  31.434  1.00  0.00     0.002 A 
ATOM     87  C   UNL A   1      44.924  36.514  29.333  1.00  0.00     0.091 A 
ATOM     88  F   UNL A   1      43.604  35.100  27.936  1.00  0.00    -0.205 F 
ATOM     89  C   UNL A   1      45.639  36.694  30.528  1.00  0.00     0.022 A 
BRANCH  87  90
ATOM     90  S   UNL A   1      44.907  37.890  28.177  1.00  0.00     0.127 S 
ATOM     91  O   UNL A   1      45.410  38.983  29.008  1.00  0.00    -0.237 OA
ATOM     92  O   UNL A   1      45.834  37.435  27.141  1.00  0.00    -0.237 OA
ATOM     93  O   UNL A   1      43.525  38.030  27.736  1.00  0.00    -0.744 OA
ENDBRANCH  87  90
ENDBRANCH  60  83
ENDBRANCH  34  35
ENDBRANCH  26  29
ENDBRANCH   1  25
TORSDOF 14
ENDMDL
