MODEL 1
REMARK VINA RESULT:     -12.7      0.000      0.000
REMARK SMILES CCOC(=O)[C@H]1CCCN(c2cc(C(=O)NCCCNC(=O)c3ccc(-c4c5nc(c(-c6cccc(S(=O)(=O)[O-])c6F)c6ccc([nH]6)c(-c6cccc(S(=O)(=O)[O-])c6F)c6nc(c(-c7cccc(S(=O)(=O)[O-])c7F)c7ccc4[nH]7)C=C6)C=C5)cc3)c3cc(NC(=O)c4ccc(Cl)cc4)ccc3n2)C1
REMARK SMILES IDX 17 1 16 2 14 3 15 4 13 6 11 7 12 8 102 9 101 10 86 11 100 12
REMARK SMILES IDX 87 13 99 14 88 15 10 16 6 17 7 18 103 19 8 20 9 21 4 22 5 23
REMARK SMILES IDX 3 24 2 25 1 26 89 27 90 28 91 30 92 31 93 32 98 33 94 34
REMARK SMILES IDX 97 35 95 36 96 37 18 38 19 39 20 40 21 41 22 43 23 44 24 45
REMARK SMILES IDX 85 46 25 47 84 48 26 49 27 50 28 51 78 52 29 53 83 54 77 55
REMARK SMILES IDX 79 56 30 57 82 58 76 59 75 60 31 62 63 63 43 64 62 65 44 66
REMARK SMILES IDX 47 67 61 68 80 69 45 70 46 71 60 73 81 74 48 75 32 76 33 77
REMARK SMILES IDX 41 78 34 79 36 80 42 81 35 82 37 83 38 84 39 85 40 86 64 87
REMARK SMILES IDX 65 88 73 89 66 90 68 91 74 92 67 93 69 94 70 95 71 96 72 97
REMARK SMILES IDX 49 98 50 99 58 100 51 101 53 102 59 103 52 104 54 105 55 106
REMARK SMILES IDX 56 107 57 108
REMARK H PARENT 16 5 89 29 20 42 79 61 47 72
REMARK Flexibility Score: inf
ROOT
ATOM      1  C   UNL A   1      33.056  29.698  27.280  1.00  0.00     0.118 C 
ENDROOT
BRANCH   1   2
ATOM      2  N   UNL A   1      32.268  28.509  27.541  1.00  0.00    -0.352 N 
ATOM      3  C   UNL A   1      31.870  27.476  26.709  1.00  0.00     0.252 C 
ATOM      4  O   UNL A   1      31.432  26.466  27.272  1.00  0.00    -0.269 OA
ATOM      5  H   UNL A   1      31.963  28.421  28.472  1.00  0.00     0.163 HD
BRANCH   3   6
ATOM      6  C   UNL A   1      31.856  27.477  25.198  1.00  0.00     0.052 A 
ATOM      7  C   UNL A   1      30.573  28.208  23.270  1.00  0.00     0.130 A 
ATOM      8  C   UNL A   1      30.804  28.218  24.640  1.00  0.00     0.061 A 
ATOM      9  N   UNL A   1      31.414  27.576  22.430  1.00  0.00    -0.231 NA
ATOM     10  C   UNL A   1      32.435  26.865  22.924  1.00  0.00     0.074 A 
ATOM     11  C   UNL A   1      32.645  26.720  24.304  1.00  0.00     0.015 A 
ATOM     12  C   UNL A   1      33.270  26.187  22.035  1.00  0.00     0.031 A 
ATOM     13  C   UNL A   1      33.554  25.734  24.690  1.00  0.00     0.037 A 
ATOM     14  C   UNL A   1      34.228  25.260  22.466  1.00  0.00     0.028 A 
ATOM     15  C   UNL A   1      34.299  24.958  23.813  1.00  0.00     0.042 A 
BRANCH   7  16
ATOM     16  N   UNL A   1      29.428  28.759  22.747  1.00  0.00    -0.356 N 
ATOM     17  C   UNL A   1      28.522  30.998  22.416  1.00  0.00     0.118 C 
ATOM     18  C   UNL A   1      27.126  30.414  22.716  1.00  0.00     0.019 C 
ATOM     19  C   UNL A   1      29.453  29.917  21.865  1.00  0.00     0.133 C 
ATOM     20  C   UNL A   1      27.201  29.159  23.587  1.00  0.00     0.022 C 
ATOM     21  C   UNL A   1      28.147  28.115  22.986  1.00  0.00     0.118 C 
BRANCH  17  22
ATOM     22  C   UNL A   1      28.415  32.147  21.434  1.00  0.00     0.310 C 
ATOM     23  O   UNL A   1      28.349  32.019  20.218  1.00  0.00    -0.252 OA
BRANCH  22  24
ATOM     24  O   UNL A   1      28.344  33.339  22.090  1.00  0.00    -0.466 OA
BRANCH  24  25
ATOM     25  C   UNL A   1      28.832  33.344  23.440  1.00  0.00     0.229 C 
ATOM     26  C   UNL A   1      30.103  34.167  23.549  1.00  0.00     0.049 C 
ENDBRANCH  24  25
ENDBRANCH  22  24
ENDBRANCH  17  22
ENDBRANCH   7  16
BRANCH  15  27
ATOM     27  N   UNL A   1      35.086  23.883  24.261  1.00  0.00    -0.322 N 
ATOM     28  C   UNL A   1      34.842  22.916  25.228  1.00  0.00     0.255 C 
ATOM     29  H   UNL A   1      35.959  23.801  23.814  1.00  0.00     0.170 HD
ATOM     30  O   UNL A   1      35.779  22.233  25.637  1.00  0.00    -0.269 OA
BRANCH  28  31
ATOM     31  C   UNL A   1      33.471  22.648  25.774  1.00  0.00     0.040 A 
ATOM     32  C   UNL A   1      33.214  23.000  27.102  1.00  0.00     0.015 A 
ATOM     33  C   UNL A   1      32.420  22.138  25.001  1.00  0.00     0.015 A 
ATOM     34  C   UNL A   1      31.908  22.979  27.608  1.00  0.00     0.021 A 
ATOM     35  C   UNL A   1      31.103  22.182  25.481  1.00  0.00     0.021 A 
ATOM     36  C   UNL A   1      30.851  22.625  26.777  1.00  0.00     0.041 A 
ATOM     37  Cl  UNL A   1      29.234  22.758  27.344  1.00  0.00    -0.084 Cl
ENDBRANCH  28  31
ENDBRANCH  15  27
ENDBRANCH   3   6
ENDBRANCH   1   2
BRANCH   1  38
ATOM     38  C   UNL A   1      32.375  31.049  27.204  1.00  0.00     0.042 C 
BRANCH  38  39
ATOM     39  C   UNL A   1      33.270  32.260  26.964  1.00  0.00     0.118 C 
BRANCH  39  40
ATOM     40  N   UNL A   1      32.802  33.534  27.523  1.00  0.00    -0.352 N 
ATOM     41  C   UNL A   1      33.208  34.296  28.599  1.00  0.00     0.251 C 
ATOM     42  H   UNL A   1      32.046  33.926  27.030  1.00  0.00     0.163 HD
ATOM     43  O   UNL A   1      32.652  35.364  28.863  1.00  0.00    -0.269 OA
BRANCH  41  44
ATOM     44  C   UNL A   1      34.332  33.862  29.434  1.00  0.00     0.039 A 
ATOM     45  C   UNL A   1      34.174  32.904  30.443  1.00  0.00     0.014 A 
ATOM     46  C   UNL A   1      35.566  34.446  29.196  1.00  0.00     0.014 A 
ATOM     47  C   UNL A   1      35.301  32.463  31.143  1.00  0.00     0.010 A 
ATOM     48  C   UNL A   1      36.689  33.889  29.759  1.00  0.00     0.010 A 
ATOM     49  C   UNL A   1      36.569  32.922  30.765  1.00  0.00    -0.014 A 
BRANCH  49  50
ATOM     50  C   UNL A   1      37.836  32.479  31.386  1.00  0.00     0.031 A 
ATOM     51  C   UNL A   1      38.608  31.381  30.698  1.00  0.00     0.074 A 
ATOM     52  C   UNL A   1      38.124  32.876  32.639  1.00  0.00     0.049 A 
ATOM     53  N   UNL A   1      39.537  30.601  31.174  1.00  0.00    -0.248 NA
ATOM     54  C   UNL A   1      38.204  31.050  29.314  1.00  0.00     0.031 C 
ATOM     55  C   UNL A   1      37.351  33.845  33.424  1.00  0.00     0.029 A 
ATOM     56  N   UNL A   1      39.105  32.462  33.500  1.00  0.00    -0.354 N 
ATOM     57  C   UNL A   1      39.758  29.639  30.195  1.00  0.00     0.074 A 
ATOM     58  C   UNL A   1      38.839  29.904  29.114  1.00  0.00     0.031 C 
ATOM     59  C   UNL A   1      37.881  33.942  34.653  1.00  0.00     0.029 A 
ATOM     60  C   UNL A   1      39.000  33.016  34.758  1.00  0.00     0.049 A 
ATOM     61  H   UNL A   1      39.815  31.831  33.247  1.00  0.00     0.167 HD
ATOM     62  C   UNL A   1      40.666  28.639  30.195  1.00  0.00     0.034 A 
ATOM     63  C   UNL A   1      39.718  32.776  35.871  1.00  0.00     0.034 A 
ATOM     64  C   UNL A   1      41.629  28.473  31.246  1.00  0.00     0.049 A 
ATOM     65  C   UNL A   1      40.830  31.767  35.780  1.00  0.00     0.074 A 
ATOM     66  C   UNL A   1      42.714  27.620  31.296  1.00  0.00     0.029 A 
ATOM     67  N   UNL A   1      41.622  29.192  32.432  1.00  0.00    -0.354 N 
ATOM     68  N   UNL A   1      41.149  30.981  34.779  1.00  0.00    -0.248 NA
ATOM     69  C   UNL A   1      41.707  31.639  36.950  1.00  0.00     0.031 C 
ATOM     70  C   UNL A   1      43.347  27.804  32.528  1.00  0.00     0.029 A 
ATOM     71  C   UNL A   1      42.680  28.799  33.226  1.00  0.00     0.049 A 
ATOM     72  H   UNL A   1      40.960  29.880  32.672  1.00  0.00     0.167 HD
ATOM     73  C   UNL A   1      42.286  30.294  35.179  1.00  0.00     0.074 A 
ATOM     74  C   UNL A   1      42.611  30.774  36.508  1.00  0.00     0.031 C 
ATOM     75  C   UNL A   1      42.994  29.343  34.522  1.00  0.00     0.034 A 
BRANCH  62  76
ATOM     76  C   UNL A   1      40.708  27.698  29.017  1.00  0.00     0.023 A 
ATOM     77  C   UNL A   1      39.757  26.662  28.905  1.00  0.00     0.012 A 
ATOM     78  C   UNL A   1      41.645  27.884  27.982  1.00  0.00     0.148 A 
ATOM     79  C   UNL A   1      39.761  25.806  27.804  1.00  0.00     0.002 A 
ATOM     80  C   UNL A   1      41.609  27.062  26.862  1.00  0.00     0.091 A 
ATOM     81  F   UNL A   1      42.557  28.857  28.114  1.00  0.00    -0.205 F 
ATOM     82  C   UNL A   1      40.678  26.015  26.778  1.00  0.00     0.022 A 
BRANCH  80  83
ATOM     83  S   UNL A   1      42.686  27.300  25.444  1.00  0.00     0.127 S 
ATOM     84  O   UNL A   1      42.455  26.069  24.688  1.00  0.00    -0.237 OA
ATOM     85  O   UNL A   1      42.124  28.505  24.835  1.00  0.00    -0.237 OA
ATOM     86  O   UNL A   1      44.032  27.452  25.978  1.00  0.00    -0.744 OA
ENDBRANCH  80  83
ENDBRANCH  62  76
BRANCH  63  87
ATOM     87  C   UNL A   1      39.457  33.548  37.118  1.00  0.00     0.023 A 
ATOM     88  C   UNL A   1      39.943  34.866  37.227  1.00  0.00     0.012 A 
ATOM     89  C   UNL A   1      38.703  33.009  38.179  1.00  0.00     0.148 A 
ATOM     90  C   UNL A   1      39.720  35.617  38.383  1.00  0.00     0.002 A 
ATOM     91  C   UNL A   1      38.436  33.782  39.304  1.00  0.00     0.091 A 
ATOM     92  F   UNL A   1      38.250  31.752  38.062  1.00  0.00    -0.205 F 
ATOM     93  C   UNL A   1      38.961  35.078  39.416  1.00  0.00     0.022 A 
BRANCH  91  94
ATOM     94  S   UNL A   1      37.350  33.218  40.619  1.00  0.00     0.127 S 
ATOM     95  O   UNL A   1      38.055  32.036  41.105  1.00  0.00    -0.237 OA
ATOM     96  O   UNL A   1      37.360  34.361  41.534  1.00  0.00    -0.237 OA
ATOM     97  O   UNL A   1      36.061  32.976  39.984  1.00  0.00    -0.744 OA
ENDBRANCH  91  94
ENDBRANCH  63  87
BRANCH  75  98
ATOM     98  C   UNL A   1      44.214  28.799  35.208  1.00  0.00     0.023 A 
ATOM     99  C   UNL A   1      45.475  29.371  34.958  1.00  0.00     0.012 A 
ATOM    100  C   UNL A   1      44.086  27.775  36.164  1.00  0.00     0.148 A 
ATOM    101  C   UNL A   1      46.603  28.904  35.628  1.00  0.00     0.002 A 
ATOM    102  C   UNL A   1      45.204  27.355  36.870  1.00  0.00     0.091 A 
ATOM    103  F   UNL A   1      42.875  27.237  36.371  1.00  0.00    -0.205 F 
ATOM    104  C   UNL A   1      46.466  27.908  36.593  1.00  0.00     0.022 A 
BRANCH 102 105
ATOM    105  S   UNL A   1      45.100  26.161  38.205  1.00  0.00     0.127 S 
ATOM    106  O   UNL A   1      44.209  26.842  39.143  1.00  0.00    -0.237 OA
ATOM    107  O   UNL A   1      44.511  25.000  37.535  1.00  0.00    -0.237 OA
ATOM    108  O   UNL A   1      46.464  25.960  38.673  1.00  0.00    -0.744 OA
ENDBRANCH 102 105
ENDBRANCH  75  98
ENDBRANCH  49  50
ENDBRANCH  41  44
ENDBRANCH  39  40
ENDBRANCH  38  39
ENDBRANCH   1  38
TORSDOF 19
ENDMDL
MODEL 2
REMARK VINA RESULT:     -12.0      1.913      7.488
REMARK SMILES CCOC(=O)[C@H]1CCCN(c2cc(C(=O)NCCCNC(=O)c3ccc(-c4c5nc(c(-c6cccc(S(=O)(=O)[O-])c6F)c6ccc([nH]6)c(-c6cccc(S(=O)(=O)[O-])c6F)c6nc(c(-c7cccc(S(=O)(=O)[O-])c7F)c7ccc4[nH]7)C=C6)C=C5)cc3)c3cc(NC(=O)c4ccc(Cl)cc4)ccc3n2)C1
REMARK SMILES IDX 17 1 16 2 14 3 15 4 13 6 11 7 12 8 102 9 101 10 86 11 100 12
REMARK SMILES IDX 87 13 99 14 88 15 10 16 6 17 7 18 103 19 8 20 9 21 4 22 5 23
REMARK SMILES IDX 3 24 2 25 1 26 89 27 90 28 91 30 92 31 93 32 98 33 94 34
REMARK SMILES IDX 97 35 95 36 96 37 18 38 19 39 20 40 21 41 22 43 23 44 24 45
REMARK SMILES IDX 85 46 25 47 84 48 26 49 27 50 28 51 78 52 29 53 83 54 77 55
REMARK SMILES IDX 79 56 30 57 82 58 76 59 75 60 31 62 63 63 43 64 62 65 44 66
REMARK SMILES IDX 47 67 61 68 80 69 45 70 46 71 60 73 81 74 48 75 32 76 33 77
REMARK SMILES IDX 41 78 34 79 36 80 42 81 35 82 37 83 38 84 39 85 40 86 64 87
REMARK SMILES IDX 65 88 73 89 66 90 68 91 74 92 67 93 69 94 70 95 71 96 72 97
REMARK SMILES IDX 49 98 50 99 58 100 51 101 53 102 59 103 52 104 54 105 55 106
REMARK SMILES IDX 56 107 57 108
REMARK H PARENT 16 5 89 29 20 42 79 61 47 72
REMARK Flexibility Score: inf
ROOT
ATOM      1  C   UNL A   1      34.293  29.350  27.288  1.00  0.00     0.118 C 
ENDROOT
BRANCH   1   2
ATOM      2  N   UNL A   1      33.118  28.580  27.644  1.00  0.00    -0.352 N 
ATOM      3  C   UNL A   1      32.297  27.762  26.886  1.00  0.00     0.252 C 
ATOM      4  O   UNL A   1      31.530  27.028  27.520  1.00  0.00    -0.269 OA
ATOM      5  H   UNL A   1      32.858  28.650  28.591  1.00  0.00     0.163 HD
BRANCH   3   6
ATOM      6  C   UNL A   1      32.195  27.719  25.378  1.00  0.00     0.052 A 
ATOM      7  C   UNL A   1      30.870  28.501  23.500  1.00  0.00     0.130 A 
ATOM      8  C   UNL A   1      31.180  28.532  24.854  1.00  0.00     0.061 A 
ATOM      9  N   UNL A   1      31.603  27.773  22.637  1.00  0.00    -0.231 NA
ATOM     10  C   UNL A   1      32.586  26.991  23.098  1.00  0.00     0.074 A 
ATOM     11  C   UNL A   1      32.863  26.870  24.469  1.00  0.00     0.015 A 
ATOM     12  C   UNL A   1      33.307  26.216  22.189  1.00  0.00     0.031 A 
ATOM     13  C   UNL A   1      33.706  25.820  24.838  1.00  0.00     0.037 A 
ATOM     14  C   UNL A   1      34.206  25.222  22.599  1.00  0.00     0.028 A 
ATOM     15  C   UNL A   1      34.329  24.956  23.949  1.00  0.00     0.042 A 
BRANCH   7  16
ATOM     16  N   UNL A   1      29.747  29.135  23.022  1.00  0.00    -0.356 N 
ATOM     17  C   UNL A   1      28.637  31.280  23.356  1.00  0.00     0.118 C 
ATOM     18  C   UNL A   1      27.293  30.543  23.194  1.00  0.00     0.019 C 
ATOM     19  C   UNL A   1      29.754  30.534  22.622  1.00  0.00     0.133 C 
ATOM     20  C   UNL A   1      27.398  29.063  23.567  1.00  0.00     0.022 C 
ATOM     21  C   UNL A   1      28.531  28.371  22.802  1.00  0.00     0.118 C 
BRANCH  17  22
ATOM     22  C   UNL A   1      28.528  32.700  22.837  1.00  0.00     0.310 C 
ATOM     23  O   UNL A   1      29.221  33.634  23.218  1.00  0.00    -0.252 OA
BRANCH  22  24
ATOM     24  O   UNL A   1      27.594  32.783  21.850  1.00  0.00    -0.466 OA
BRANCH  24  25
ATOM     25  C   UNL A   1      28.100  32.878  20.510  1.00  0.00     0.229 C 
ATOM     26  C   UNL A   1      27.704  31.660  19.697  1.00  0.00     0.049 C 
ENDBRANCH  24  25
ENDBRANCH  22  24
ENDBRANCH  17  22
ENDBRANCH   7  16
BRANCH  15  27
ATOM     27  N   UNL A   1      35.046  23.830  24.391  1.00  0.00    -0.322 N 
ATOM     28  C   UNL A   1      34.725  22.856  25.327  1.00  0.00     0.255 C 
ATOM     29  H   UNL A   1      35.924  23.711  23.963  1.00  0.00     0.170 HD
ATOM     30  O   UNL A   1      35.614  22.114  25.742  1.00  0.00    -0.269 OA
BRANCH  28  31
ATOM     31  C   UNL A   1      33.329  22.650  25.833  1.00  0.00     0.040 A 
ATOM     32  C   UNL A   1      33.065  22.952  27.172  1.00  0.00     0.015 A 
ATOM     33  C   UNL A   1      32.265  22.246  25.016  1.00  0.00     0.015 A 
ATOM     34  C   UNL A   1      31.749  22.990  27.651  1.00  0.00     0.021 A 
ATOM     35  C   UNL A   1      30.943  22.350  25.472  1.00  0.00     0.021 A 
ATOM     36  C   UNL A   1      30.690  22.746  26.784  1.00  0.00     0.041 A 
ATOM     37  Cl  UNL A   1      29.073  22.954  27.326  1.00  0.00    -0.084 Cl
ENDBRANCH  28  31
ENDBRANCH  15  27
ENDBRANCH   3   6
ENDBRANCH   1   2
BRANCH   1  38
ATOM     38  C   UNL A   1      34.148  30.809  26.905  1.00  0.00     0.042 C 
BRANCH  38  39
ATOM     39  C   UNL A   1      33.064  31.605  27.622  1.00  0.00     0.118 C 
BRANCH  39  40
ATOM     40  N   UNL A   1      33.418  32.974  28.019  1.00  0.00    -0.352 N 
ATOM     41  C   UNL A   1      34.528  33.521  28.628  1.00  0.00     0.251 C 
ATOM     42  H   UNL A   1      32.722  33.637  27.806  1.00  0.00     0.163 HD
ATOM     43  O   UNL A   1      34.596  34.732  28.847  1.00  0.00    -0.269 OA
BRANCH  41  44
ATOM     44  C   UNL A   1      35.663  32.672  29.000  1.00  0.00     0.039 A 
ATOM     45  C   UNL A   1      36.952  32.903  28.502  1.00  0.00     0.014 A 
ATOM     46  C   UNL A   1      35.415  31.616  29.863  1.00  0.00     0.014 A 
ATOM     47  C   UNL A   1      38.011  32.118  28.965  1.00  0.00     0.010 A 
ATOM     48  C   UNL A   1      36.475  30.965  30.446  1.00  0.00     0.010 A 
ATOM     49  C   UNL A   1      37.778  31.177  29.978  1.00  0.00    -0.014 A 
BRANCH  49  50
ATOM     50  C   UNL A   1      38.828  30.337  30.593  1.00  0.00     0.031 A 
ATOM     51  C   UNL A   1      39.363  30.757  31.939  1.00  0.00     0.074 A 
ATOM     52  C   UNL A   1      39.435  29.398  29.844  1.00  0.00     0.049 A 
ATOM     53  N   UNL A   1      40.471  30.411  32.531  1.00  0.00    -0.248 NA
ATOM     54  C   UNL A   1      38.594  31.787  32.670  1.00  0.00     0.031 C 
ATOM     55  C   UNL A   1      39.054  29.019  28.479  1.00  0.00     0.029 A 
ATOM     56  N   UNL A   1      40.546  28.639  30.099  1.00  0.00    -0.354 N 
ATOM     57  C   UNL A   1      40.577  31.240  33.643  1.00  0.00     0.074 A 
ATOM     58  C   UNL A   1      39.446  32.135  33.624  1.00  0.00     0.031 C 
ATOM     59  C   UNL A   1      39.923  28.108  28.014  1.00  0.00     0.029 A 
ATOM     60  C   UNL A   1      40.943  27.870  29.027  1.00  0.00     0.049 A 
ATOM     61  H   UNL A   1      41.016  28.642  30.963  1.00  0.00     0.167 HD
ATOM     62  C   UNL A   1      41.527  31.232  34.604  1.00  0.00     0.034 A 
ATOM     63  C   UNL A   1      42.025  27.084  28.880  1.00  0.00     0.034 A 
ATOM     64  C   UNL A   1      42.580  30.258  34.640  1.00  0.00     0.049 A 
ATOM     65  C   UNL A   1      42.975  26.979  30.041  1.00  0.00     0.074 A 
ATOM     66  C   UNL A   1      43.503  30.020  35.639  1.00  0.00     0.029 A 
ATOM     67  N   UNL A   1      42.837  29.350  33.623  1.00  0.00    -0.354 N 
ATOM     68  N   UNL A   1      42.966  27.642  31.174  1.00  0.00    -0.248 NA
ATOM     69  C   UNL A   1      44.056  25.993  29.928  1.00  0.00     0.031 C 
ATOM     70  C   UNL A   1      44.339  28.985  35.212  1.00  0.00     0.029 A 
ATOM     71  C   UNL A   1      43.909  28.552  33.966  1.00  0.00     0.049 A 
ATOM     72  H   UNL A   1      42.330  29.284  32.781  1.00  0.00     0.167 HD
ATOM     73  C   UNL A   1      44.012  27.128  31.926  1.00  0.00     0.074 A 
ATOM     74  C   UNL A   1      44.620  26.082  31.125  1.00  0.00     0.031 C 
ATOM     75  C   UNL A   1      44.447  27.488  33.158  1.00  0.00     0.034 A 
BRANCH  62  76
ATOM     76  C   UNL A   1      41.442  32.250  35.714  1.00  0.00     0.023 A 
ATOM     77  C   UNL A   1      42.283  33.382  35.703  1.00  0.00     0.012 A 
ATOM     78  C   UNL A   1      40.477  32.122  36.732  1.00  0.00     0.148 A 
ATOM     79  C   UNL A   1      42.191  34.349  36.703  1.00  0.00     0.002 A 
ATOM     80  C   UNL A   1      40.354  33.116  37.696  1.00  0.00     0.091 A 
ATOM     81  F   UNL A   1      39.701  31.029  36.744  1.00  0.00    -0.205 F 
ATOM     82  C   UNL A   1      41.219  34.222  37.691  1.00  0.00     0.022 A 
BRANCH  80  83
ATOM     83  S   UNL A   1      39.078  33.096  38.960  1.00  0.00     0.127 S 
ATOM     84  O   UNL A   1      39.835  32.670  40.137  1.00  0.00    -0.237 OA
ATOM     85  O   UNL A   1      38.651  34.494  38.983  1.00  0.00    -0.237 OA
ATOM     86  O   UNL A   1      38.068  32.152  38.502  1.00  0.00    -0.744 OA
ENDBRANCH  80  83
ENDBRANCH  62  76
BRANCH  63  87
ATOM     87  C   UNL A   1      42.219  26.292  27.633  1.00  0.00     0.023 A 
ATOM     88  C   UNL A   1      42.814  26.904  26.512  1.00  0.00     0.012 A 
ATOM     89  C   UNL A   1      41.857  24.933  27.555  1.00  0.00     0.148 A 
ATOM     90  C   UNL A   1      43.007  26.193  25.326  1.00  0.00     0.002 A 
ATOM     91  C   UNL A   1      42.103  24.214  26.390  1.00  0.00     0.091 A 
ATOM     92  F   UNL A   1      41.288  24.364  28.628  1.00  0.00    -0.205 F 
ATOM     93  C   UNL A   1      42.659  24.847  25.268  1.00  0.00     0.022 A 
BRANCH  91  94
ATOM     94  S   UNL A   1      41.817  22.444  26.276  1.00  0.00     0.127 S 
ATOM     95  O   UNL A   1      42.525  22.104  25.045  1.00  0.00    -0.237 OA
ATOM     96  O   UNL A   1      42.446  21.954  27.503  1.00  0.00    -0.237 OA
ATOM     97  O   UNL A   1      40.369  22.284  26.244  1.00  0.00    -0.744 OA
ENDBRANCH  91  94
ENDBRANCH  63  87
BRANCH  75  98
ATOM     98  C   UNL A   1      45.599  26.716  33.733  1.00  0.00     0.023 A 
ATOM     99  C   UNL A   1      46.915  27.178  33.554  1.00  0.00     0.012 A 
ATOM    100  C   UNL A   1      45.358  25.576  34.524  1.00  0.00     0.148 A 
ATOM    101  C   UNL A   1      47.984  26.493  34.127  1.00  0.00     0.002 A 
ATOM    102  C   UNL A   1      46.421  24.934  35.139  1.00  0.00     0.091 A 
ATOM    103  F   UNL A   1      44.094  25.149  34.665  1.00  0.00    -0.205 F 
ATOM    104  C   UNL A   1      47.737  25.381  34.930  1.00  0.00     0.022 A 
BRANCH 102 105
ATOM    105  S   UNL A   1      46.185  23.567  36.277  1.00  0.00     0.127 S 
ATOM    106  O   UNL A   1      47.561  23.257  36.659  1.00  0.00    -0.237 OA
ATOM    107  O   UNL A   1      45.381  24.182  37.335  1.00  0.00    -0.237 OA
ATOM    108  O   UNL A   1      45.496  22.528  35.523  1.00  0.00    -0.744 OA
ENDBRANCH 102 105
ENDBRANCH  75  98
ENDBRANCH  49  50
ENDBRANCH  41  44
ENDBRANCH  39  40
ENDBRANCH  38  39
ENDBRANCH   1  38
TORSDOF 19
ENDMDL
MODEL 3
REMARK VINA RESULT:     -11.7      5.540     12.169
REMARK SMILES CCOC(=O)[C@H]1CCCN(c2cc(C(=O)NCCCNC(=O)c3ccc(-c4c5nc(c(-c6cccc(S(=O)(=O)[O-])c6F)c6ccc([nH]6)c(-c6cccc(S(=O)(=O)[O-])c6F)c6nc(c(-c7cccc(S(=O)(=O)[O-])c7F)c7ccc4[nH]7)C=C6)C=C5)cc3)c3cc(NC(=O)c4ccc(Cl)cc4)ccc3n2)C1
REMARK SMILES IDX 17 1 16 2 14 3 15 4 13 6 11 7 12 8 102 9 101 10 86 11 100 12
REMARK SMILES IDX 87 13 99 14 88 15 10 16 6 17 7 18 103 19 8 20 9 21 4 22 5 23
REMARK SMILES IDX 3 24 2 25 1 26 89 27 90 28 91 30 92 31 93 32 98 33 94 34
REMARK SMILES IDX 97 35 95 36 96 37 18 38 19 39 20 40 21 41 22 43 23 44 24 45
REMARK SMILES IDX 85 46 25 47 84 48 26 49 27 50 28 51 78 52 29 53 83 54 77 55
REMARK SMILES IDX 79 56 30 57 82 58 76 59 75 60 31 62 63 63 43 64 62 65 44 66
REMARK SMILES IDX 47 67 61 68 80 69 45 70 46 71 60 73 81 74 48 75 32 76 33 77
REMARK SMILES IDX 41 78 34 79 36 80 42 81 35 82 37 83 38 84 39 85 40 86 64 87
REMARK SMILES IDX 65 88 73 89 66 90 68 91 74 92 67 93 69 94 70 95 71 96 72 97
REMARK SMILES IDX 49 98 50 99 58 100 51 101 53 102 59 103 52 104 54 105 55 106
REMARK SMILES IDX 56 107 57 108
REMARK H PARENT 16 5 89 29 20 42 79 61 47 72
REMARK Flexibility Score: inf
ROOT
ATOM      1  C   UNL A   1      34.577  34.186  31.219  1.00  0.00     0.118 C 
ENDROOT
BRANCH   1   2
ATOM      2  N   UNL A   1      35.039  32.893  31.688  1.00  0.00    -0.352 N 
ATOM      3  C   UNL A   1      36.179  32.528  32.383  1.00  0.00     0.252 C 
ATOM      4  O   UNL A   1      36.171  31.394  32.876  1.00  0.00    -0.269 OA
ATOM      5  H   UNL A   1      34.436  32.145  31.475  1.00  0.00     0.163 HD
BRANCH   3   6
ATOM      6  C   UNL A   1      37.445  33.337  32.547  1.00  0.00     0.052 A 
ATOM      7  C   UNL A   1      39.437  34.082  31.374  1.00  0.00     0.130 A 
ATOM      8  C   UNL A   1      38.184  33.482  31.363  1.00  0.00     0.061 A 
ATOM      9  N   UNL A   1      39.930  34.638  32.497  1.00  0.00    -0.231 NA
ATOM     10  C   UNL A   1      39.250  34.528  33.644  1.00  0.00     0.074 A 
ATOM     11  C   UNL A   1      38.044  33.815  33.733  1.00  0.00     0.015 A 
ATOM     12  C   UNL A   1      39.800  35.078  34.803  1.00  0.00     0.031 A 
ATOM     13  C   UNL A   1      37.587  33.531  35.021  1.00  0.00     0.037 A 
ATOM     14  C   UNL A   1      39.265  34.833  36.075  1.00  0.00     0.028 A 
ATOM     15  C   UNL A   1      38.198  33.962  36.190  1.00  0.00     0.042 A 
BRANCH   7  16
ATOM     16  N   UNL A   1      40.246  34.039  30.264  1.00  0.00    -0.356 N 
ATOM     17  C   UNL A   1      42.641  34.005  29.809  1.00  0.00     0.118 C 
ATOM     18  C   UNL A   1      42.357  34.862  28.559  1.00  0.00     0.019 C 
ATOM     19  C   UNL A   1      41.413  33.173  30.184  1.00  0.00     0.133 C 
ATOM     20  C   UNL A   1      41.073  35.682  28.702  1.00  0.00     0.022 C 
ATOM     21  C   UNL A   1      39.881  34.797  29.079  1.00  0.00     0.118 C 
BRANCH  17  22
ATOM     22  C   UNL A   1      43.833  33.100  29.570  1.00  0.00     0.310 C 
ATOM     23  O   UNL A   1      44.972  33.493  29.356  1.00  0.00    -0.252 OA
BRANCH  22  24
ATOM     24  O   UNL A   1      43.475  31.790  29.681  1.00  0.00    -0.466 OA
BRANCH  24  25
ATOM     25  C   UNL A   1      43.661  30.984  28.508  1.00  0.00     0.229 C 
ATOM     26  C   UNL A   1      42.576  29.928  28.403  1.00  0.00     0.049 C 
ENDBRANCH  24  25
ENDBRANCH  22  24
ENDBRANCH  17  22
ENDBRANCH   7  16
BRANCH  15  27
ATOM     27  N   UNL A   1      37.773  33.520  37.454  1.00  0.00    -0.322 N 
ATOM     28  C   UNL A   1      38.305  33.731  38.720  1.00  0.00     0.255 C 
ATOM     29  H   UNL A   1      36.959  32.966  37.441  1.00  0.00     0.170 HD
ATOM     30  O   UNL A   1      37.917  33.030  39.653  1.00  0.00    -0.269 OA
BRANCH  28  31
ATOM     31  C   UNL A   1      39.315  34.803  39.003  1.00  0.00     0.040 A 
ATOM     32  C   UNL A   1      40.634  34.412  39.248  1.00  0.00     0.015 A 
ATOM     33  C   UNL A   1      39.019  36.171  38.958  1.00  0.00     0.015 A 
ATOM     34  C   UNL A   1      41.663  35.362  39.305  1.00  0.00     0.021 A 
ATOM     35  C   UNL A   1      40.053  37.119  38.945  1.00  0.00     0.021 A 
ATOM     36  C   UNL A   1      41.375  36.706  39.095  1.00  0.00     0.041 A 
ATOM     37  Cl  UNL A   1      42.652  37.852  38.998  1.00  0.00    -0.084 Cl
ENDBRANCH  28  31
ENDBRANCH  15  27
ENDBRANCH   3   6
ENDBRANCH   1   2
BRANCH   1  38
ATOM     38  C   UNL A   1      34.435  34.439  29.732  1.00  0.00     0.042 C 
BRANCH  38  39
ATOM     39  C   UNL A   1      35.380  33.679  28.809  1.00  0.00     0.118 C 
BRANCH  39  40
ATOM     40  N   UNL A   1      34.778  32.618  27.992  1.00  0.00    -0.352 N 
ATOM     41  C   UNL A   1      35.059  31.277  27.834  1.00  0.00     0.251 C 
ATOM     42  H   UNL A   1      34.018  32.926  27.447  1.00  0.00     0.163 HD
ATOM     43  O   UNL A   1      34.382  30.574  27.081  1.00  0.00    -0.269 OA
BRANCH  41  44
ATOM     44  C   UNL A   1      36.153  30.655  28.584  1.00  0.00     0.039 A 
ATOM     45  C   UNL A   1      35.914  29.830  29.691  1.00  0.00     0.014 A 
ATOM     46  C   UNL A   1      37.447  30.920  28.164  1.00  0.00     0.014 A 
ATOM     47  C   UNL A   1      36.993  29.191  30.308  1.00  0.00     0.010 A 
ATOM     48  C   UNL A   1      38.480  30.161  28.656  1.00  0.00     0.010 A 
ATOM     49  C   UNL A   1      38.275  29.319  29.758  1.00  0.00    -0.014 A 
BRANCH  49  50
ATOM     50  C   UNL A   1      39.479  28.640  30.282  1.00  0.00     0.031 A 
ATOM     51  C   UNL A   1      40.191  29.275  31.450  1.00  0.00     0.074 A 
ATOM     52  C   UNL A   1      40.032  27.645  29.563  1.00  0.00     0.049 A 
ATOM     53  N   UNL A   1      41.407  29.084  31.878  1.00  0.00    -0.248 NA
ATOM     54  C   UNL A   1      39.468  30.346  32.168  1.00  0.00     0.031 C 
ATOM     55  C   UNL A   1      39.466  27.057  28.345  1.00  0.00     0.029 A 
ATOM     56  N   UNL A   1      41.231  26.999  29.714  1.00  0.00    -0.354 N 
ATOM     57  C   UNL A   1      41.624  30.064  32.841  1.00  0.00     0.074 A 
ATOM     58  C   UNL A   1      40.433  30.876  32.906  1.00  0.00     0.031 C 
ATOM     59  C   UNL A   1      40.320  26.146  27.855  1.00  0.00     0.029 A 
ATOM     60  C   UNL A   1      41.509  26.115  28.695  1.00  0.00     0.049 A 
ATOM     61  H   UNL A   1      41.834  27.151  30.476  1.00  0.00     0.167 HD
ATOM     62  C   UNL A   1      42.716  30.249  33.615  1.00  0.00     0.034 A 
ATOM     63  C   UNL A   1      42.616  25.384  28.462  1.00  0.00     0.034 A 
ATOM     64  C   UNL A   1      43.839  29.356  33.589  1.00  0.00     0.049 A 
ATOM     65  C   UNL A   1      43.749  25.501  29.444  1.00  0.00     0.074 A 
ATOM     66  C   UNL A   1      44.930  29.317  34.434  1.00  0.00     0.029 A 
ATOM     67  N   UNL A   1      44.002  28.334  32.667  1.00  0.00    -0.354 N 
ATOM     68  N   UNL A   1      43.870  26.313  30.468  1.00  0.00    -0.248 NA
ATOM     69  C   UNL A   1      44.876  24.577  29.270  1.00  0.00     0.031 C 
ATOM     70  C   UNL A   1      45.769  28.286  34.003  1.00  0.00     0.029 A 
ATOM     71  C   UNL A   1      45.179  27.659  32.915  1.00  0.00     0.049 A 
ATOM     72  H   UNL A   1      43.371  28.120  31.941  1.00  0.00     0.167 HD
ATOM     73  C   UNL A   1      45.065  25.974  31.085  1.00  0.00     0.074 A 
ATOM     74  C   UNL A   1      45.619  24.866  30.330  1.00  0.00     0.031 C 
ATOM     75  C   UNL A   1      45.665  26.529  32.167  1.00  0.00     0.034 A 
BRANCH  62  76
ATOM     76  C   UNL A   1      42.728  31.404  34.585  1.00  0.00     0.023 A 
ATOM     77  C   UNL A   1      42.418  31.190  35.944  1.00  0.00     0.012 A 
ATOM     78  C   UNL A   1      43.118  32.690  34.164  1.00  0.00     0.148 A 
ATOM     79  C   UNL A   1      42.460  32.241  36.860  1.00  0.00     0.002 A 
ATOM     80  C   UNL A   1      43.209  33.722  35.091  1.00  0.00     0.091 A 
ATOM     81  F   UNL A   1      43.386  32.884  32.865  1.00  0.00    -0.205 F 
ATOM     82  C   UNL A   1      42.868  33.503  36.436  1.00  0.00     0.022 A 
BRANCH  80  83
ATOM     83  S   UNL A   1      43.810  35.362  34.669  1.00  0.00     0.127 S 
ATOM     84  O   UNL A   1      43.200  35.570  33.355  1.00  0.00    -0.237 OA
ATOM     85  O   UNL A   1      43.243  36.178  35.741  1.00  0.00    -0.237 OA
ATOM     86  O   UNL A   1      45.263  35.273  34.667  1.00  0.00    -0.744 OA
ENDBRANCH  80  83
ENDBRANCH  62  76
BRANCH  63  87
ATOM     87  C   UNL A   1      42.668  24.440  27.311  1.00  0.00     0.023 A 
ATOM     88  C   UNL A   1      43.292  24.845  26.115  1.00  0.00     0.012 A 
ATOM     89  C   UNL A   1      42.142  23.136  27.398  1.00  0.00     0.148 A 
ATOM     90  C   UNL A   1      43.355  23.987  25.015  1.00  0.00     0.002 A 
ATOM     91  C   UNL A   1      42.259  22.266  26.319  1.00  0.00     0.091 A 
ATOM     92  F   UNL A   1      41.548  22.765  28.542  1.00  0.00    -0.205 F 
ATOM     93  C   UNL A   1      42.847  22.697  25.120  1.00  0.00     0.022 A 
BRANCH  91  94
ATOM     94  S   UNL A   1      41.758  20.544  26.416  1.00  0.00     0.127 S 
ATOM     95  O   UNL A   1      40.321  20.635  26.179  1.00  0.00    -0.237 OA
ATOM     96  O   UNL A   1      42.526  19.941  25.326  1.00  0.00    -0.237 OA
ATOM     97  O   UNL A   1      42.158  20.096  27.744  1.00  0.00    -0.744 OA
ENDBRANCH  91  94
ENDBRANCH  63  87
BRANCH  75  98
ATOM     98  C   UNL A   1      46.957  25.916  32.626  1.00  0.00     0.023 A 
ATOM     99  C   UNL A   1      48.182  26.433  32.166  1.00  0.00     0.012 A 
ATOM    100  C   UNL A   1      46.946  24.882  33.580  1.00  0.00     0.148 A 
ATOM    101  C   UNL A   1      49.385  25.902  32.626  1.00  0.00     0.002 A 
ATOM    102  C   UNL A   1      48.147  24.398  34.077  1.00  0.00     0.091 A 
ATOM    103  F   UNL A   1      45.763  24.398  33.988  1.00  0.00    -0.205 F 
ATOM    104  C   UNL A   1      49.367  24.895  33.590  1.00  0.00     0.022 A 
BRANCH 102 105
ATOM    105  S   UNL A   1      48.217  23.186  35.399  1.00  0.00     0.127 S 
ATOM    106  O   UNL A   1      49.658  23.002  35.556  1.00  0.00    -0.237 OA
ATOM    107  O   UNL A   1      47.567  23.895  36.502  1.00  0.00    -0.237 OA
ATOM    108  O   UNL A   1      47.487  22.021  34.916  1.00  0.00    -0.744 OA
ENDBRANCH 102 105
ENDBRANCH  75  98
ENDBRANCH  49  50
ENDBRANCH  41  44
ENDBRANCH  39  40
ENDBRANCH  38  39
ENDBRANCH   1  38
TORSDOF 19
ENDMDL
