MODEL 1
REMARK VINA RESULT:     -11.9      0.000      0.000
REMARK SMILES CO[C@H]1C[C@H](C(=O)NCCCNC(=O)c2ccc(-c3c4nc(c(-c5cccc(S(=O)(=O)[O-])c5F)c5ccc([nH]5)c(-c5cccc(S(=O)(=O)[O-])c5F)c5nc(c(-c6cccc(S(=O)(=O)[O-])c6F)c6ccc3[nH]6)C=C5)C=C4)cc2)N(S(=O)(=O)c2ccc(F)cc2Cl)C1
REMARK SMILES IDX 10 1 9 2 8 3 6 4 7 5 5 7 3 8 4 9 90 10 78 11 2 12 1 13 79 14
REMARK SMILES IDX 80 15 81 16 82 17 83 18 88 19 84 20 87 21 89 22 85 23 86 24
REMARK SMILES IDX 11 25 12 26 13 27 14 29 15 30 16 31 77 32 17 33 76 34 18 35
REMARK SMILES IDX 19 36 20 37 70 38 21 39 75 40 69 41 71 42 22 43 74 44 68 45
REMARK SMILES IDX 67 46 23 48 55 49 35 50 54 51 36 52 39 53 53 54 72 55 37 56
REMARK SMILES IDX 38 57 52 59 73 60 40 61 24 62 25 63 33 64 26 65 28 66 34 67
REMARK SMILES IDX 27 68 29 69 30 70 31 71 32 72 56 73 57 74 65 75 58 76 60 77
REMARK SMILES IDX 66 78 59 79 61 80 62 81 63 82 64 83 41 84 42 85 50 86 43 87
REMARK SMILES IDX 45 88 51 89 44 90 46 91 47 92 48 93 49 94
REMARK H PARENT 8 6 12 28 71 47 39 58
REMARK Flexibility Score: inf
ROOT
ATOM      1  C   UNL A   1      32.111  27.909  27.360  1.00  0.00     0.042 C 
ENDROOT
BRANCH   1   2
ATOM      2  C   UNL A   1      31.459  27.048  26.284  1.00  0.00     0.117 C 
BRANCH   2   3
ATOM      3  N   UNL A   1      31.153  25.699  26.709  1.00  0.00    -0.355 N 
ATOM      4  C   UNL A   1      31.860  24.539  26.644  1.00  0.00     0.238 C 
ATOM      5  O   UNL A   1      31.446  23.630  27.379  1.00  0.00    -0.273 OA
ATOM      6  H   UNL A   1      30.266  25.603  27.124  1.00  0.00     0.163 HD
BRANCH   4   7
ATOM      7  C   UNL A   1      33.068  24.270  25.740  1.00  0.00     0.165 C 
ATOM      8  C   UNL A   1      34.731  22.546  26.196  1.00  0.00     0.135 C 
ATOM      9  C   UNL A   1      34.393  24.014  26.431  1.00  0.00     0.064 C 
ATOM     10  C   UNL A   1      33.715  22.036  25.162  1.00  0.00     0.135 C 
ATOM     11  N   UNL A   1      32.932  23.232  24.674  1.00  0.00    -0.183 NA
BRANCH   8  12
ATOM     12  O   UNL A   1      36.036  22.305  25.667  1.00  0.00    -0.380 OA
ATOM     13  C   UNL A   1      36.246  21.033  25.072  1.00  0.00     0.195 C 
ENDBRANCH   8  12
BRANCH  11  14
ATOM     14  S   UNL A   1      33.515  23.684  23.109  1.00  0.00     0.245 S 
ATOM     15  O   UNL A   1      34.957  23.791  23.173  1.00  0.00    -0.207 OA
ATOM     16  O   UNL A   1      32.915  22.757  22.173  1.00  0.00    -0.207 OA
BRANCH  14  17
ATOM     17  C   UNL A   1      32.829  25.282  22.730  1.00  0.00     0.101 A 
ATOM     18  C   UNL A   1      33.755  26.323  22.510  1.00  0.00     0.026 A 
ATOM     19  C   UNL A   1      31.467  25.591  22.855  1.00  0.00     0.064 A 
ATOM     20  C   UNL A   1      33.325  27.647  22.408  1.00  0.00     0.041 A 
ATOM     21  C   UNL A   1      31.044  26.921  22.716  1.00  0.00     0.061 A 
ATOM     22  Cl  UNL A   1      30.205  24.465  23.206  1.00  0.00    -0.083 Cl
ATOM     23  C   UNL A   1      31.973  27.932  22.506  1.00  0.00     0.124 A 
ATOM     24  F   UNL A   1      31.557  29.202  22.426  1.00  0.00    -0.207 F 
ENDBRANCH  14  17
ENDBRANCH  11  14
ENDBRANCH   4   7
ENDBRANCH   2   3
ENDBRANCH   1   2
BRANCH   1  25
ATOM     25  C   UNL A   1      33.471  28.474  26.963  1.00  0.00     0.118 C 
BRANCH  25  26
ATOM     26  N   UNL A   1      33.524  29.927  27.091  1.00  0.00    -0.352 N 
ATOM     27  C   UNL A   1      34.437  30.739  27.719  1.00  0.00     0.251 C 
ATOM     28  H   UNL A   1      32.781  30.404  26.656  1.00  0.00     0.163 HD
ATOM     29  O   UNL A   1      34.155  31.924  27.890  1.00  0.00    -0.269 OA
BRANCH  27  30
ATOM     30  C   UNL A   1      35.741  30.219  28.189  1.00  0.00     0.039 A 
ATOM     31  C   UNL A   1      36.837  30.255  27.320  1.00  0.00     0.014 A 
ATOM     32  C   UNL A   1      35.877  29.635  29.450  1.00  0.00     0.014 A 
ATOM     33  C   UNL A   1      38.076  29.757  27.735  1.00  0.00     0.010 A 
ATOM     34  C   UNL A   1      37.130  29.213  29.892  1.00  0.00     0.010 A 
ATOM     35  C   UNL A   1      38.240  29.254  29.036  1.00  0.00    -0.014 A 
BRANCH  35  36
ATOM     36  C   UNL A   1      39.551  28.751  29.520  1.00  0.00     0.031 A 
ATOM     37  C   UNL A   1      40.278  29.478  30.623  1.00  0.00     0.074 A 
ATOM     38  C   UNL A   1      40.133  27.702  28.905  1.00  0.00     0.049 A 
ATOM     39  N   UNL A   1      41.472  29.259  31.109  1.00  0.00    -0.248 NA
ATOM     40  C   UNL A   1      39.583  30.623  31.238  1.00  0.00     0.031 C 
ATOM     41  C   UNL A   1      39.569  26.966  27.772  1.00  0.00     0.029 A 
ATOM     42  N   UNL A   1      41.346  27.096  29.123  1.00  0.00    -0.354 N 
ATOM     43  C   UNL A   1      41.689  30.259  32.051  1.00  0.00     0.074 A 
ATOM     44  C   UNL A   1      40.516  31.105  32.047  1.00  0.00     0.031 C 
ATOM     45  C   UNL A   1      40.433  26.011  27.393  1.00  0.00     0.029 A 
ATOM     46  C   UNL A   1      41.623  26.082  28.235  1.00  0.00     0.049 A 
ATOM     47  H   UNL A   1      41.958  27.362  29.846  1.00  0.00     0.167 HD
ATOM     48  C   UNL A   1      42.752  30.437  32.872  1.00  0.00     0.034 A 
ATOM     49  C   UNL A   1      42.715  25.303  28.110  1.00  0.00     0.034 A 
ATOM     50  C   UNL A   1      43.886  29.555  32.920  1.00  0.00     0.049 A 
ATOM     51  C   UNL A   1      43.851  25.478  29.082  1.00  0.00     0.074 A 
ATOM     52  C   UNL A   1      44.975  29.599  33.773  1.00  0.00     0.029 A 
ATOM     53  N   UNL A   1      44.074  28.464  32.086  1.00  0.00    -0.354 N 
ATOM     54  N   UNL A   1      43.969  26.337  30.065  1.00  0.00    -0.248 NA
ATOM     55  C   UNL A   1      44.987  24.552  28.954  1.00  0.00     0.031 C 
ATOM     56  C   UNL A   1      45.824  28.535  33.451  1.00  0.00     0.029 A 
ATOM     57  C   UNL A   1      45.258  27.823  32.406  1.00  0.00     0.049 A 
ATOM     58  H   UNL A   1      43.457  28.187  31.372  1.00  0.00     0.167 HD
ATOM     59  C   UNL A   1      45.171  26.033  30.694  1.00  0.00     0.074 A 
ATOM     60  C   UNL A   1      45.733  24.896  29.995  1.00  0.00     0.031 C 
ATOM     61  C   UNL A   1      45.768  26.652  31.742  1.00  0.00     0.034 A 
BRANCH  48  62
ATOM     62  C   UNL A   1      42.705  31.588  33.843  1.00  0.00     0.023 A 
ATOM     63  C   UNL A   1      43.114  32.867  33.416  1.00  0.00     0.012 A 
ATOM     64  C   UNL A   1      42.197  31.425  35.147  1.00  0.00     0.148 A 
ATOM     65  C   UNL A   1      43.047  33.961  34.277  1.00  0.00     0.002 A 
ATOM     66  C   UNL A   1      42.094  32.529  35.987  1.00  0.00     0.091 A 
ATOM     67  F   UNL A   1      41.830  30.198  35.542  1.00  0.00    -0.205 F 
ATOM     68  C   UNL A   1      42.529  33.794  35.557  1.00  0.00     0.022 A 
BRANCH  66  69
ATOM     69  S   UNL A   1      41.373  32.437  37.630  1.00  0.00     0.127 S 
ATOM     70  O   UNL A   1      40.013  31.993  37.330  1.00  0.00    -0.237 OA
ATOM     71  O   UNL A   1      42.213  31.430  38.279  1.00  0.00    -0.237 OA
ATOM     72  O   UNL A   1      41.483  33.776  38.193  1.00  0.00    -0.744 OA
ENDBRANCH  66  69
ENDBRANCH  48  62
BRANCH  49  73
ATOM     73  C   UNL A   1      42.756  24.236  27.070  1.00  0.00     0.023 A 
ATOM     74  C   UNL A   1      43.470  24.462  25.877  1.00  0.00     0.012 A 
ATOM     75  C   UNL A   1      42.118  22.995  27.262  1.00  0.00     0.148 A 
ATOM     76  C   UNL A   1      43.520  23.486  24.881  1.00  0.00     0.002 A 
ATOM     77  C   UNL A   1      42.217  22.008  26.288  1.00  0.00     0.091 A 
ATOM     78  F   UNL A   1      41.428  22.802  28.395  1.00  0.00    -0.205 F 
ATOM     79  C   UNL A   1      42.903  22.255  25.090  1.00  0.00     0.022 A 
BRANCH  77  80
ATOM     80  S   UNL A   1      41.566  20.353  26.545  1.00  0.00     0.127 S 
ATOM     81  O   UNL A   1      40.126  20.586  26.504  1.00  0.00    -0.237 OA
ATOM     82  O   UNL A   1      42.107  19.625  25.395  1.00  0.00    -0.237 OA
ATOM     83  O   UNL A   1      42.110  19.923  27.828  1.00  0.00    -0.744 OA
ENDBRANCH  77  80
ENDBRANCH  49  73
BRANCH  61  84
ATOM     84  C   UNL A   1      47.080  26.097  32.225  1.00  0.00     0.023 A 
ATOM     85  C   UNL A   1      47.101  25.208  33.317  1.00  0.00     0.012 A 
ATOM     86  C   UNL A   1      48.280  26.392  31.548  1.00  0.00     0.148 A 
ATOM     87  C   UNL A   1      48.301  24.643  33.745  1.00  0.00     0.002 A 
ATOM     88  C   UNL A   1      49.465  25.790  31.952  1.00  0.00     0.091 A 
ATOM     89  F   UNL A   1      48.241  27.257  30.523  1.00  0.00    -0.205 F 
ATOM     90  C   UNL A   1      49.480  24.923  33.057  1.00  0.00     0.022 A 
BRANCH  88  91
ATOM     91  S   UNL A   1      51.010  26.022  31.066  1.00  0.00     0.127 S 
ATOM     92  O   UNL A   1      51.302  27.428  31.340  1.00  0.00    -0.237 OA
ATOM     93  O   UNL A   1      51.900  25.073  31.734  1.00  0.00    -0.237 OA
ATOM     94  O   UNL A   1      50.723  25.700  29.674  1.00  0.00    -0.744 OA
ENDBRANCH  88  91
ENDBRANCH  61  84
ENDBRANCH  35  36
ENDBRANCH  27  30
ENDBRANCH  25  26
ENDBRANCH   1  25
TORSDOF 16
ENDMDL
MODEL 2
REMARK VINA RESULT:     -11.9      3.912      8.936
REMARK SMILES CO[C@H]1C[C@H](C(=O)NCCCNC(=O)c2ccc(-c3c4nc(c(-c5cccc(S(=O)(=O)[O-])c5F)c5ccc([nH]5)c(-c5cccc(S(=O)(=O)[O-])c5F)c5nc(c(-c6cccc(S(=O)(=O)[O-])c6F)c6ccc3[nH]6)C=C5)C=C4)cc2)N(S(=O)(=O)c2ccc(F)cc2Cl)C1
REMARK SMILES IDX 10 1 9 2 8 3 6 4 7 5 5 7 3 8 4 9 90 10 78 11 2 12 1 13 79 14
REMARK SMILES IDX 80 15 81 16 82 17 83 18 88 19 84 20 87 21 89 22 85 23 86 24
REMARK SMILES IDX 11 25 12 26 13 27 14 29 15 30 16 31 77 32 17 33 76 34 18 35
REMARK SMILES IDX 19 36 20 37 70 38 21 39 75 40 69 41 71 42 22 43 74 44 68 45
REMARK SMILES IDX 67 46 23 48 55 49 35 50 54 51 36 52 39 53 53 54 72 55 37 56
REMARK SMILES IDX 38 57 52 59 73 60 40 61 24 62 25 63 33 64 26 65 28 66 34 67
REMARK SMILES IDX 27 68 29 69 30 70 31 71 32 72 56 73 57 74 65 75 58 76 60 77
REMARK SMILES IDX 66 78 59 79 61 80 62 81 63 82 64 83 41 84 42 85 50 86 43 87
REMARK SMILES IDX 45 88 51 89 44 90 46 91 47 92 48 93 49 94
REMARK H PARENT 8 6 12 28 71 47 39 58
REMARK Flexibility Score: inf
ROOT
ATOM      1  C   UNL A   1      31.410  32.049  26.499  1.00  0.00     0.042 C 
ENDROOT
BRANCH   1   2
ATOM      2  C   UNL A   1      31.491  30.612  25.996  1.00  0.00     0.117 C 
BRANCH   2   3
ATOM      3  N   UNL A   1      31.423  29.614  27.041  1.00  0.00    -0.355 N 
ATOM      4  C   UNL A   1      31.828  28.316  27.094  1.00  0.00     0.238 C 
ATOM      5  O   UNL A   1      31.910  27.837  28.235  1.00  0.00    -0.273 OA
ATOM      6  H   UNL A   1      31.004  29.935  27.872  1.00  0.00     0.163 HD
BRANCH   4   7
ATOM      7  C   UNL A   1      32.149  27.424  25.889  1.00  0.00     0.165 C 
ATOM      8  C   UNL A   1      32.275  24.992  26.014  1.00  0.00     0.135 C 
ATOM      9  C   UNL A   1      33.100  26.269  26.132  1.00  0.00     0.064 C 
ATOM     10  C   UNL A   1      30.906  25.420  25.461  1.00  0.00     0.135 C 
ATOM     11  N   UNL A   1      31.008  26.881  25.092  1.00  0.00    -0.183 NA
BRANCH   8  12
ATOM     12  O   UNL A   1      32.806  24.010  25.124  1.00  0.00    -0.380 OA
ATOM     13  C   UNL A   1      33.585  22.981  25.717  1.00  0.00     0.195 C 
ENDBRANCH   8  12
BRANCH  11  14
ATOM     14  S   UNL A   1      31.164  27.017  23.374  1.00  0.00     0.245 S 
ATOM     15  O   UNL A   1      32.468  27.571  23.077  1.00  0.00    -0.207 OA
ATOM     16  O   UNL A   1      30.805  25.722  22.834  1.00  0.00    -0.207 OA
BRANCH  14  17
ATOM     17  C   UNL A   1      29.910  28.149  22.816  1.00  0.00     0.101 A 
ATOM     18  C   UNL A   1      30.366  29.344  22.222  1.00  0.00     0.026 A 
ATOM     19  C   UNL A   1      28.549  28.017  23.131  1.00  0.00     0.064 A 
ATOM     20  C   UNL A   1      29.477  30.382  21.937  1.00  0.00     0.041 A 
ATOM     21  C   UNL A   1      27.661  29.053  22.808  1.00  0.00     0.061 A 
ATOM     22  Cl  UNL A   1      27.827  26.668  23.932  1.00  0.00    -0.083 Cl
ATOM     23  C   UNL A   1      28.132  30.223  22.228  1.00  0.00     0.124 A 
ATOM     24  F   UNL A   1      27.278  31.222  21.973  1.00  0.00    -0.207 F 
ENDBRANCH  14  17
ENDBRANCH  11  14
ENDBRANCH   4   7
ENDBRANCH   2   3
ENDBRANCH   1   2
BRANCH   1  25
ATOM     25  C   UNL A   1      32.658  32.520  27.239  1.00  0.00     0.118 C 
BRANCH  25  26
ATOM     26  N   UNL A   1      32.556  33.913  27.660  1.00  0.00    -0.352 N 
ATOM     27  C   UNL A   1      33.196  34.595  28.668  1.00  0.00     0.251 C 
ATOM     28  H   UNL A   1      31.922  34.455  27.137  1.00  0.00     0.163 HD
ATOM     29  O   UNL A   1      32.783  35.709  28.982  1.00  0.00    -0.269 OA
BRANCH  27  30
ATOM     30  C   UNL A   1      34.362  34.016  29.372  1.00  0.00     0.039 A 
ATOM     31  C   UNL A   1      35.650  34.393  28.975  1.00  0.00     0.014 A 
ATOM     32  C   UNL A   1      34.202  33.056  30.374  1.00  0.00     0.014 A 
ATOM     33  C   UNL A   1      36.768  33.851  29.616  1.00  0.00     0.010 A 
ATOM     34  C   UNL A   1      35.313  32.577  31.066  1.00  0.00     0.010 A 
ATOM     35  C   UNL A   1      36.608  32.956  30.686  1.00  0.00    -0.014 A 
BRANCH  35  36
ATOM     36  C   UNL A   1      37.774  32.390  31.412  1.00  0.00     0.031 A 
ATOM     37  C   UNL A   1      38.557  31.250  30.811  1.00  0.00     0.074 A 
ATOM     38  C   UNL A   1      38.069  32.832  32.651  1.00  0.00     0.049 A 
ATOM     39  N   UNL A   1      39.535  30.555  31.332  1.00  0.00    -0.248 NA
ATOM     40  C   UNL A   1      38.167  30.813  29.459  1.00  0.00     0.031 C 
ATOM     41  C   UNL A   1      37.336  33.873  33.374  1.00  0.00     0.029 A 
ATOM     42  N   UNL A   1      39.042  32.437  33.535  1.00  0.00    -0.354 N 
ATOM     43  C   UNL A   1      39.847  29.576  30.394  1.00  0.00     0.074 A 
ATOM     44  C   UNL A   1      38.934  29.746  29.286  1.00  0.00     0.031 C 
ATOM     45  C   UNL A   1      37.882  34.031  34.591  1.00  0.00     0.029 A 
ATOM     46  C   UNL A   1      38.985  33.088  34.745  1.00  0.00     0.049 A 
ATOM     47  H   UNL A   1      39.717  31.752  33.323  1.00  0.00     0.167 HD
ATOM     48  C   UNL A   1      40.827  28.642  30.436  1.00  0.00     0.034 A 
ATOM     49  C   UNL A   1      39.732  32.938  35.857  1.00  0.00     0.034 A 
ATOM     50  C   UNL A   1      41.775  28.519  31.509  1.00  0.00     0.049 A 
ATOM     51  C   UNL A   1      40.860  31.940  35.847  1.00  0.00     0.074 A 
ATOM     52  C   UNL A   1      42.857  27.662  31.609  1.00  0.00     0.029 A 
ATOM     53  N   UNL A   1      41.760  29.281  32.668  1.00  0.00    -0.354 N 
ATOM     54  N   UNL A   1      41.232  31.126  34.889  1.00  0.00    -0.248 NA
ATOM     55  C   UNL A   1      41.696  31.868  37.055  1.00  0.00     0.031 C 
ATOM     56  C   UNL A   1      43.495  27.905  32.830  1.00  0.00     0.029 A 
ATOM     57  C   UNL A   1      42.816  28.920  33.485  1.00  0.00     0.049 A 
ATOM     58  H   UNL A   1      41.095  29.977  32.877  1.00  0.00     0.167 HD
ATOM     59  C   UNL A   1      42.363  30.472  35.363  1.00  0.00     0.074 A 
ATOM     60  C   UNL A   1      42.630  31.002  36.685  1.00  0.00     0.031 C 
ATOM     61  C   UNL A   1      43.103  29.505  34.768  1.00  0.00     0.034 A 
BRANCH  48  62
ATOM     62  C   UNL A   1      40.976  27.727  29.248  1.00  0.00     0.023 A 
ATOM     63  C   UNL A   1      40.281  26.501  29.231  1.00  0.00     0.012 A 
ATOM     64  C   UNL A   1      41.742  28.101  28.126  1.00  0.00     0.148 A 
ATOM     65  C   UNL A   1      40.366  25.648  28.132  1.00  0.00     0.002 A 
ATOM     66  C   UNL A   1      41.789  27.265  27.016  1.00  0.00     0.091 A 
ATOM     67  F   UNL A   1      42.411  29.262  28.168  1.00  0.00    -0.205 F 
ATOM     68  C   UNL A   1      41.111  26.034  27.023  1.00  0.00     0.022 A 
BRANCH  66  69
ATOM     69  S   UNL A   1      42.660  27.700  25.507  1.00  0.00     0.127 S 
ATOM     70  O   UNL A   1      44.032  27.850  25.990  1.00  0.00    -0.237 OA
ATOM     71  O   UNL A   1      42.434  26.522  24.670  1.00  0.00    -0.237 OA
ATOM     72  O   UNL A   1      42.034  28.921  25.020  1.00  0.00    -0.744 OA
ENDBRANCH  66  69
ENDBRANCH  48  62
BRANCH  49  73
ATOM     73  C   UNL A   1      39.486  33.803  37.045  1.00  0.00     0.023 A 
ATOM     74  C   UNL A   1      39.894  35.150  37.014  1.00  0.00     0.012 A 
ATOM     75  C   UNL A   1      38.832  33.312  38.191  1.00  0.00     0.148 A 
ATOM     76  C   UNL A   1      39.686  35.984  38.113  1.00  0.00     0.002 A 
ATOM     77  C   UNL A   1      38.579  34.161  39.262  1.00  0.00     0.091 A 
ATOM     78  F   UNL A   1      38.464  32.022  38.212  1.00  0.00    -0.205 F 
ATOM     79  C   UNL A   1      39.019  35.493  39.233  1.00  0.00     0.022 A 
BRANCH  77  80
ATOM     80  S   UNL A   1      37.605  33.640  40.679  1.00  0.00     0.127 S 
ATOM     81  O   UNL A   1      37.471  34.886  41.427  1.00  0.00    -0.237 OA
ATOM     82  O   UNL A   1      36.372  33.162  40.049  1.00  0.00    -0.237 OA
ATOM     83  O   UNL A   1      38.390  32.589  41.316  1.00  0.00    -0.744 OA
ENDBRANCH  77  80
ENDBRANCH  49  73
BRANCH  61  84
ATOM     84  C   UNL A   1      44.295  28.976  35.520  1.00  0.00     0.023 A 
ATOM     85  C   UNL A   1      45.554  29.582  35.346  1.00  0.00     0.012 A 
ATOM     86  C   UNL A   1      44.150  27.934  36.457  1.00  0.00     0.148 A 
ATOM     87  C   UNL A   1      46.658  29.141  36.073  1.00  0.00     0.002 A 
ATOM     88  C   UNL A   1      45.245  27.530  37.211  1.00  0.00     0.091 A 
ATOM     89  F   UNL A   1      42.947  27.357  36.593  1.00  0.00    -0.205 F 
ATOM     90  C   UNL A   1      46.502  28.124  37.013  1.00  0.00     0.022 A 
BRANCH  88  91
ATOM     91  S   UNL A   1      45.113  26.293  38.508  1.00  0.00     0.127 S 
ATOM     92  O   UNL A   1      44.711  25.110  37.751  1.00  0.00    -0.237 OA
ATOM     93  O   UNL A   1      46.477  26.246  39.035  1.00  0.00    -0.237 OA
ATOM     94  O   UNL A   1      44.123  26.805  39.446  1.00  0.00    -0.744 OA
ENDBRANCH  88  91
ENDBRANCH  61  84
ENDBRANCH  35  36
ENDBRANCH  27  30
ENDBRANCH  25  26
ENDBRANCH   1  25
TORSDOF 16
ENDMDL
MODEL 3
REMARK VINA RESULT:     -11.7      2.118      3.124
REMARK SMILES CO[C@H]1C[C@H](C(=O)NCCCNC(=O)c2ccc(-c3c4nc(c(-c5cccc(S(=O)(=O)[O-])c5F)c5ccc([nH]5)c(-c5cccc(S(=O)(=O)[O-])c5F)c5nc(c(-c6cccc(S(=O)(=O)[O-])c6F)c6ccc3[nH]6)C=C5)C=C4)cc2)N(S(=O)(=O)c2ccc(F)cc2Cl)C1
REMARK SMILES IDX 10 1 9 2 8 3 6 4 7 5 5 7 3 8 4 9 90 10 78 11 2 12 1 13 79 14
REMARK SMILES IDX 80 15 81 16 82 17 83 18 88 19 84 20 87 21 89 22 85 23 86 24
REMARK SMILES IDX 11 25 12 26 13 27 14 29 15 30 16 31 77 32 17 33 76 34 18 35
REMARK SMILES IDX 19 36 20 37 70 38 21 39 75 40 69 41 71 42 22 43 74 44 68 45
REMARK SMILES IDX 67 46 23 48 55 49 35 50 54 51 36 52 39 53 53 54 72 55 37 56
REMARK SMILES IDX 38 57 52 59 73 60 40 61 24 62 25 63 33 64 26 65 28 66 34 67
REMARK SMILES IDX 27 68 29 69 30 70 31 71 32 72 56 73 57 74 65 75 58 76 60 77
REMARK SMILES IDX 66 78 59 79 61 80 62 81 63 82 64 83 41 84 42 85 50 86 43 87
REMARK SMILES IDX 45 88 51 89 44 90 46 91 47 92 48 93 49 94
REMARK H PARENT 8 6 12 28 71 47 39 58
REMARK Flexibility Score: inf
ROOT
ATOM      1  C   UNL A   1      32.627  27.802  26.856  1.00  0.00     0.042 C 
ENDROOT
BRANCH   1   2
ATOM      2  C   UNL A   1      31.559  27.384  25.852  1.00  0.00     0.117 C 
BRANCH   2   3
ATOM      3  N   UNL A   1      30.667  26.351  26.333  1.00  0.00    -0.355 N 
ATOM      4  C   UNL A   1      30.628  25.007  26.125  1.00  0.00     0.238 C 
ATOM      5  O   UNL A   1      29.932  24.371  26.931  1.00  0.00    -0.273 OA
ATOM      6  H   UNL A   1      29.952  26.684  26.922  1.00  0.00     0.163 HD
BRANCH   4   7
ATOM      7  C   UNL A   1      31.329  24.251  24.992  1.00  0.00     0.165 C 
ATOM      8  C   UNL A   1      32.139  25.326  22.958  1.00  0.00     0.135 C 
ATOM      9  C   UNL A   1      30.934  24.626  23.577  1.00  0.00     0.064 C 
ATOM     10  C   UNL A   1      33.300  25.127  23.946  1.00  0.00     0.135 C 
ATOM     11  N   UNL A   1      32.821  24.173  25.015  1.00  0.00    -0.183 NA
BRANCH   8  12
ATOM     12  O   UNL A   1      32.558  24.805  21.697  1.00  0.00    -0.380 OA
ATOM     13  C   UNL A   1      32.456  25.686  20.588  1.00  0.00     0.195 C 
ENDBRANCH   8  12
BRANCH  11  14
ATOM     14  S   UNL A   1      33.494  22.608  24.714  1.00  0.00     0.245 S 
ATOM     15  O   UNL A   1      32.732  21.632  25.465  1.00  0.00    -0.207 OA
ATOM     16  O   UNL A   1      33.585  22.480  23.274  1.00  0.00    -0.207 OA
BRANCH  14  17
ATOM     17  C   UNL A   1      35.169  22.627  25.315  1.00  0.00     0.101 A 
ATOM     18  C   UNL A   1      35.694  23.889  25.662  1.00  0.00     0.026 A 
ATOM     19  C   UNL A   1      36.029  21.522  25.249  1.00  0.00     0.064 A 
ATOM     20  C   UNL A   1      37.051  24.040  25.949  1.00  0.00     0.041 A 
ATOM     21  C   UNL A   1      37.385  21.680  25.573  1.00  0.00     0.061 A 
ATOM     22  Cl  UNL A   1      35.584  19.925  24.764  1.00  0.00    -0.083 Cl
ATOM     23  C   UNL A   1      37.882  22.932  25.906  1.00  0.00     0.124 A 
ATOM     24  F   UNL A   1      39.189  23.075  26.163  1.00  0.00    -0.207 F 
ENDBRANCH  14  17
ENDBRANCH  11  14
ENDBRANCH   4   7
ENDBRANCH   2   3
ENDBRANCH   1   2
BRANCH   1  25
ATOM     25  C   UNL A   1      33.765  28.618  26.249  1.00  0.00     0.118 C 
BRANCH  25  26
ATOM     26  N   UNL A   1      33.712  30.021  26.647  1.00  0.00    -0.352 N 
ATOM     27  C   UNL A   1      34.498  30.735  27.519  1.00  0.00     0.251 C 
ATOM     28  H   UNL A   1      32.994  30.541  26.220  1.00  0.00     0.163 HD
ATOM     29  O   UNL A   1      34.125  31.854  27.869  1.00  0.00    -0.269 OA
BRANCH  27  30
ATOM     30  C   UNL A   1      35.772  30.188  28.038  1.00  0.00     0.039 A 
ATOM     31  C   UNL A   1      36.911  30.239  27.228  1.00  0.00     0.014 A 
ATOM     32  C   UNL A   1      35.839  29.567  29.287  1.00  0.00     0.014 A 
ATOM     33  C   UNL A   1      38.123  29.717  27.690  1.00  0.00     0.010 A 
ATOM     34  C   UNL A   1      37.064  29.120  29.779  1.00  0.00     0.010 A 
ATOM     35  C   UNL A   1      38.216  29.176  28.981  1.00  0.00    -0.014 A 
BRANCH  35  36
ATOM     36  C   UNL A   1      39.497  28.646  29.516  1.00  0.00     0.031 A 
ATOM     37  C   UNL A   1      40.202  29.365  30.639  1.00  0.00     0.074 A 
ATOM     38  C   UNL A   1      40.075  27.578  28.931  1.00  0.00     0.049 A 
ATOM     39  N   UNL A   1      41.372  29.122  31.169  1.00  0.00    -0.248 NA
ATOM     40  C   UNL A   1      39.513  30.531  31.219  1.00  0.00     0.031 C 
ATOM     41  C   UNL A   1      39.534  26.845  27.785  1.00  0.00     0.029 A 
ATOM     42  N   UNL A   1      41.265  26.945  29.197  1.00  0.00    -0.354 N 
ATOM     43  C   UNL A   1      41.579  30.125  32.110  1.00  0.00     0.074 A 
ATOM     44  C   UNL A   1      40.428  30.999  32.057  1.00  0.00     0.031 C 
ATOM     45  C   UNL A   1      40.388  25.867  27.444  1.00  0.00     0.029 A 
ATOM     46  C   UNL A   1      41.548  25.917  28.328  1.00  0.00     0.049 A 
ATOM     47  H   UNL A   1      41.857  27.203  29.939  1.00  0.00     0.167 HD
ATOM     48  C   UNL A   1      42.616  30.285  32.967  1.00  0.00     0.034 A 
ATOM     49  C   UNL A   1      42.625  25.111  28.248  1.00  0.00     0.034 A 
ATOM     50  C   UNL A   1      43.726  29.377  33.062  1.00  0.00     0.049 A 
ATOM     51  C   UNL A   1      43.730  25.268  29.259  1.00  0.00     0.074 A 
ATOM     52  C   UNL A   1      44.786  29.403  33.953  1.00  0.00     0.029 A 
ATOM     53  N   UNL A   1      43.918  28.274  32.244  1.00  0.00    -0.354 N 
ATOM     54  N   UNL A   1      43.834  26.132  30.238  1.00  0.00    -0.248 NA
ATOM     55  C   UNL A   1      44.847  24.313  29.179  1.00  0.00     0.031 C 
ATOM     56  C   UNL A   1      45.620  28.316  33.671  1.00  0.00     0.029 A 
ATOM     57  C   UNL A   1      45.074  27.608  32.612  1.00  0.00     0.049 A 
ATOM     58  H   UNL A   1      43.320  28.005  31.511  1.00  0.00     0.167 HD
ATOM     59  C   UNL A   1      45.005  25.806  30.912  1.00  0.00     0.074 A 
ATOM     60  C   UNL A   1      45.564  24.649  30.243  1.00  0.00     0.031 C 
ATOM     61  C   UNL A   1      45.578  26.420  31.976  1.00  0.00     0.034 A 
BRANCH  48  62
ATOM     62  C   UNL A   1      42.563  31.445  33.926  1.00  0.00     0.023 A 
ATOM     63  C   UNL A   1      43.255  32.632  33.612  1.00  0.00     0.012 A 
ATOM     64  C   UNL A   1      41.780  31.392  35.096  1.00  0.00     0.148 A 
ATOM     65  C   UNL A   1      43.196  33.738  34.459  1.00  0.00     0.002 A 
ATOM     66  C   UNL A   1      41.691  32.513  35.915  1.00  0.00     0.091 A 
ATOM     67  F   UNL A   1      41.143  30.249  35.388  1.00  0.00    -0.205 F 
ATOM     68  C   UNL A   1      42.406  33.681  35.603  1.00  0.00     0.022 A 
BRANCH  66  69
ATOM     69  S   UNL A   1      40.645  32.571  37.374  1.00  0.00     0.127 S 
ATOM     70  O   UNL A   1      41.544  32.049  38.403  1.00  0.00    -0.237 OA
ATOM     71  O   UNL A   1      40.354  34.000  37.489  1.00  0.00    -0.237 OA
ATOM     72  O   UNL A   1      39.490  31.737  37.074  1.00  0.00    -0.744 OA
ENDBRANCH  66  69
ENDBRANCH  48  62
BRANCH  49  73
ATOM     73  C   UNL A   1      42.677  24.034  27.219  1.00  0.00     0.023 A 
ATOM     74  C   UNL A   1      43.371  24.263  26.015  1.00  0.00     0.012 A 
ATOM     75  C   UNL A   1      42.070  22.781  27.432  1.00  0.00     0.148 A 
ATOM     76  C   UNL A   1      43.431  23.278  25.028  1.00  0.00     0.002 A 
ATOM     77  C   UNL A   1      42.180  21.786  26.468  1.00  0.00     0.091 A 
ATOM     78  F   UNL A   1      41.400  22.585  28.576  1.00  0.00    -0.205 F 
ATOM     79  C   UNL A   1      42.845  22.036  25.258  1.00  0.00     0.022 A 
BRANCH  77  80
ATOM     80  S   UNL A   1      41.571  20.119  26.750  1.00  0.00     0.127 S 
ATOM     81  O   UNL A   1      41.848  19.476  25.470  1.00  0.00    -0.237 OA
ATOM     82  O   UNL A   1      42.409  19.667  27.863  1.00  0.00    -0.237 OA
ATOM     83  O   UNL A   1      40.163  20.280  27.096  1.00  0.00    -0.744 OA
ENDBRANCH  77  80
ENDBRANCH  49  73
BRANCH  61  84
ATOM     84  C   UNL A   1      46.859  25.838  32.510  1.00  0.00     0.023 A 
ATOM     85  C   UNL A   1      48.095  26.312  32.026  1.00  0.00     0.012 A 
ATOM     86  C   UNL A   1      46.841  24.884  33.546  1.00  0.00     0.148 A 
ATOM     87  C   UNL A   1      49.292  25.824  32.546  1.00  0.00     0.002 A 
ATOM     88  C   UNL A   1      48.038  24.436  34.090  1.00  0.00     0.091 A 
ATOM     89  F   UNL A   1      45.655  24.432  33.978  1.00  0.00    -0.205 F 
ATOM     90  C   UNL A   1      49.265  24.896  33.585  1.00  0.00     0.022 A 
BRANCH  88  91
ATOM     91  S   UNL A   1      48.093  23.313  35.492  1.00  0.00     0.127 S 
ATOM     92  O   UNL A   1      49.518  22.997  35.565  1.00  0.00    -0.237 OA
ATOM     93  O   UNL A   1      47.596  24.151  36.583  1.00  0.00    -0.237 OA
ATOM     94  O   UNL A   1      47.220  22.199  35.144  1.00  0.00    -0.744 OA
ENDBRANCH  88  91
ENDBRANCH  61  84
ENDBRANCH  35  36
ENDBRANCH  27  30
ENDBRANCH  25  26
ENDBRANCH   1  25
TORSDOF 16
ENDMDL
