MODEL 1
REMARK VINA RESULT:     -11.9      0.000      0.000
REMARK SMILES O=C(NCCCNC(=O)[C@]1(CCc2cccnc2)CCC[NH2+]C1)c1ccc(-c2c3nc(c(-c4cccc(S(=O)(=O)[O-])c4F)c4ccc([nH]4)c(-c4cccc(S(=O)(=O)[O-])c4F)c4nc(c(-c5cccc(S(=O)(=O)[O-])c5F)c5ccc2[nH]5)C=C4)C=C3)cc1
REMARK SMILES IDX 5 1 4 2 3 3 1 4 2 5 24 7 25 8 86 9 26 10 85 11 27 12 28 13
REMARK SMILES IDX 29 14 79 15 30 16 84 17 78 18 80 19 31 20 83 21 77 22 76 23
REMARK SMILES IDX 32 25 64 26 44 27 63 28 45 29 48 30 62 31 81 32 46 33 47 34
REMARK SMILES IDX 61 36 82 37 49 38 33 39 34 40 42 41 35 42 37 43 43 44 36 45
REMARK SMILES IDX 38 46 39 47 40 48 41 49 65 50 66 51 74 52 67 53 69 54 75 55
REMARK SMILES IDX 68 56 70 57 71 58 72 59 73 60 50 61 51 62 59 63 52 64 54 65
REMARK SMILES IDX 60 66 53 67 55 68 56 69 57 70 58 71 6 72 7 73 8 74 9 76
REMARK SMILES IDX 10 77 19 78 23 79 20 80 22 81 21 82 11 85 12 86 13 87 14 88
REMARK SMILES IDX 18 89 15 90 17 91 16 92
REMARK H PARENT 3 6 80 24 48 35 7 75 22 83 22 84
REMARK Flexibility Score: inf
ROOT
ATOM      1  C   UNL A   1      37.531  19.335  25.050  1.00  0.00     0.042 C 
ENDROOT
BRANCH   1   2
ATOM      2  C   UNL A   1      38.775  20.134  25.411  1.00  0.00     0.118 C 
BRANCH   2   3
ATOM      3  N   UNL A   1      39.840  19.293  25.920  1.00  0.00    -0.352 N 
ATOM      4  O   UNL A   1      41.928  18.780  26.563  1.00  0.00    -0.269 OA
ATOM      5  C   UNL A   1      41.077  19.649  26.405  1.00  0.00     0.251 C 
ATOM      6  H   UNL A   1      39.651  18.326  25.920  1.00  0.00     0.163 HD
BRANCH   5   7
ATOM      7  C   UNL A   1      41.394  21.066  26.719  1.00  0.00     0.039 A 
ATOM      8  C   UNL A   1      41.613  21.493  28.033  1.00  0.00     0.014 A 
ATOM      9  C   UNL A   1      41.554  21.971  25.665  1.00  0.00     0.014 A 
ATOM     10  C   UNL A   1      41.893  22.836  28.297  1.00  0.00     0.010 A 
ATOM     11  C   UNL A   1      41.906  23.301  25.926  1.00  0.00     0.010 A 
ATOM     12  C   UNL A   1      42.066  23.750  27.246  1.00  0.00    -0.014 A 
BRANCH  12  13
ATOM     13  C   UNL A   1      42.520  25.140  27.531  1.00  0.00     0.031 A 
ATOM     14  C   UNL A   1      41.604  26.153  28.162  1.00  0.00     0.074 A 
ATOM     15  C   UNL A   1      43.770  25.499  27.172  1.00  0.00     0.049 A 
ATOM     16  N   UNL A   1      41.847  27.404  28.464  1.00  0.00    -0.248 NA
ATOM     17  C   UNL A   1      40.239  25.715  28.490  1.00  0.00     0.031 C 
ATOM     18  C   UNL A   1      44.736  24.627  26.498  1.00  0.00     0.029 A 
ATOM     19  N   UNL A   1      44.440  26.691  27.305  1.00  0.00    -0.354 N 
ATOM     20  C   UNL A   1      40.662  27.914  28.983  1.00  0.00     0.074 A 
ATOM     21  C   UNL A   1      39.695  26.835  28.950  1.00  0.00     0.031 C 
ATOM     22  C   UNL A   1      45.871  25.307  26.284  1.00  0.00     0.029 A 
ATOM     23  C   UNL A   1      45.703  26.675  26.760  1.00  0.00     0.049 A 
ATOM     24  H   UNL A   1      44.052  27.480  27.746  1.00  0.00     0.167 HD
ATOM     25  C   UNL A   1      40.407  29.158  29.457  1.00  0.00     0.034 A 
ATOM     26  C   UNL A   1      46.620  27.654  26.637  1.00  0.00     0.034 A 
ATOM     27  C   UNL A   1      41.378  30.220  29.512  1.00  0.00     0.049 A 
ATOM     28  C   UNL A   1      46.313  29.017  27.188  1.00  0.00     0.074 A 
ATOM     29  C   UNL A   1      41.231  31.491  30.043  1.00  0.00     0.029 A 
ATOM     30  N   UNL A   1      42.668  30.147  29.010  1.00  0.00    -0.354 N 
ATOM     31  N   UNL A   1      45.238  29.431  27.812  1.00  0.00    -0.248 NA
ATOM     32  C   UNL A   1      47.359  30.042  27.048  1.00  0.00     0.031 C 
ATOM     33  C   UNL A   1      42.424  32.193  29.839  1.00  0.00     0.029 A 
ATOM     34  C   UNL A   1      43.323  31.351  29.208  1.00  0.00     0.049 A 
ATOM     35  H   UNL A   1      43.061  29.354  28.577  1.00  0.00     0.167 HD
ATOM     36  C   UNL A   1      45.488  30.751  28.167  1.00  0.00     0.074 A 
ATOM     37  C   UNL A   1      46.828  31.060  27.711  1.00  0.00     0.031 C 
ATOM     38  C   UNL A   1      44.675  31.632  28.798  1.00  0.00     0.034 A 
BRANCH  25  39
ATOM     39  C   UNL A   1      39.029  29.442  29.998  1.00  0.00     0.023 A 
ATOM     40  C   UNL A   1      38.716  29.080  31.324  1.00  0.00     0.012 A 
ATOM     41  C   UNL A   1      38.082  30.154  29.234  1.00  0.00     0.148 A 
ATOM     42  C   UNL A   1      37.474  29.399  31.874  1.00  0.00     0.002 A 
ATOM     43  C   UNL A   1      36.861  30.504  29.803  1.00  0.00     0.091 A 
ATOM     44  F   UNL A   1      38.392  30.477  27.971  1.00  0.00    -0.205 F 
ATOM     45  C   UNL A   1      36.553  30.119  31.118  1.00  0.00     0.022 A 
BRANCH  43  46
ATOM     46  S   UNL A   1      35.637  31.498  28.942  1.00  0.00     0.127 S 
ATOM     47  O   UNL A   1      35.011  30.503  28.071  1.00  0.00    -0.237 OA
ATOM     48  O   UNL A   1      34.790  31.963  30.041  1.00  0.00    -0.237 OA
ATOM     49  O   UNL A   1      36.378  32.547  28.257  1.00  0.00    -0.744 OA
ENDBRANCH  43  46
ENDBRANCH  25  39
BRANCH  26  50
ATOM     50  C   UNL A   1      47.934  27.365  25.995  1.00  0.00     0.023 A 
ATOM     51  C   UNL A   1      48.996  26.877  26.779  1.00  0.00     0.012 A 
ATOM     52  C   UNL A   1      48.127  27.547  24.612  1.00  0.00     0.148 A 
ATOM     53  C   UNL A   1      50.238  26.604  26.204  1.00  0.00     0.002 A 
ATOM     54  C   UNL A   1      49.348  27.217  24.035  1.00  0.00     0.091 A 
ATOM     55  F   UNL A   1      47.110  28.029  23.885  1.00  0.00    -0.205 F 
ATOM     56  C   UNL A   1      50.410  26.763  24.831  1.00  0.00     0.022 A 
BRANCH  54  57
ATOM     57  S   UNL A   1      49.608  27.260  22.258  1.00  0.00     0.127 S 
ATOM     58  O   UNL A   1      51.039  26.986  22.159  1.00  0.00    -0.237 OA
ATOM     59  O   UNL A   1      48.740  26.175  21.797  1.00  0.00    -0.237 OA
ATOM     60  O   UNL A   1      49.183  28.587  21.835  1.00  0.00    -0.744 OA
ENDBRANCH  54  57
ENDBRANCH  26  50
BRANCH  38  61
ATOM     61  C   UNL A   1      45.220  33.010  29.072  1.00  0.00     0.023 A 
ATOM     62  C   UNL A   1      45.953  33.254  30.250  1.00  0.00     0.012 A 
ATOM     63  C   UNL A   1      45.058  34.046  28.131  1.00  0.00     0.148 A 
ATOM     64  C   UNL A   1      46.488  34.517  30.503  1.00  0.00     0.002 A 
ATOM     65  C   UNL A   1      45.636  35.288  28.367  1.00  0.00     0.091 A 
ATOM     66  F   UNL A   1      44.339  33.801  27.026  1.00  0.00    -0.205 F 
ATOM     67  C   UNL A   1      46.340  35.529  29.557  1.00  0.00     0.022 A 
BRANCH  65  68
ATOM     68  S   UNL A   1      45.578  36.621  27.163  1.00  0.00     0.127 S 
ATOM     69  O   UNL A   1      44.140  36.765  26.947  1.00  0.00    -0.237 OA
ATOM     70  O   UNL A   1      46.200  37.726  27.893  1.00  0.00    -0.237 OA
ATOM     71  O   UNL A   1      46.340  36.154  26.012  1.00  0.00    -0.744 OA
ENDBRANCH  65  68
ENDBRANCH  38  61
ENDBRANCH  12  13
ENDBRANCH   5   7
ENDBRANCH   2   3
ENDBRANCH   1   2
BRANCH   1  72
ATOM     72  C   UNL A   1      36.297  20.176  24.730  1.00  0.00     0.117 C 
BRANCH  72  73
ATOM     73  N   UNL A   1      35.625  20.721  25.901  1.00  0.00    -0.355 N 
ATOM     74  C   UNL A   1      34.552  21.531  26.111  1.00  0.00     0.231 C 
ATOM     75  H   UNL A   1      36.048  20.434  26.743  1.00  0.00     0.163 HD
ATOM     76  O   UNL A   1      34.241  21.690  27.297  1.00  0.00    -0.274 OA
BRANCH  74  77
ATOM     77  C   UNL A   1      33.752  22.226  24.984  1.00  0.00     0.098 C 
ATOM     78  C   UNL A   1      34.653  23.112  24.069  1.00  0.00     0.028 C 
ATOM     79  C   UNL A   1      32.719  23.185  25.639  1.00  0.00     0.277 C 
ATOM     80  C   UNL A   1      35.221  24.352  24.752  1.00  0.00     0.063 C 
ATOM     81  N   UNL A   1      33.334  24.316  26.349  1.00  0.00    -0.345 N 
ATOM     82  C   UNL A   1      34.141  25.150  25.465  1.00  0.00     0.260 C 
ATOM     83  H   UNL A   1      32.595  24.888  26.756  1.00  0.00     0.346 HD
ATOM     84  H   UNL A   1      33.949  23.936  27.069  1.00  0.00     0.346 HD
BRANCH  77  85
ATOM     85  C   UNL A   1      33.048  21.185  24.063  1.00  0.00     0.028 C 
BRANCH  85  86
ATOM     86  C   UNL A   1      32.249  20.022  24.714  1.00  0.00     0.038 C 
BRANCH  86  87
ATOM     87  C   UNL A   1      32.763  18.605  24.644  1.00  0.00    -0.030 A 
ATOM     88  C   UNL A   1      33.431  18.124  23.513  1.00  0.00     0.007 A 
ATOM     89  C   UNL A   1      32.698  17.732  25.728  1.00  0.00     0.114 A 
ATOM     90  C   UNL A   1      33.941  16.823  23.493  1.00  0.00     0.020 A 
ATOM     91  N   UNL A   1      33.164  16.460  25.732  1.00  0.00    -0.264 NA
ATOM     92  C   UNL A   1      33.768  16.030  24.612  1.00  0.00     0.111 A 
ENDBRANCH  86  87
ENDBRANCH  85  86
ENDBRANCH  77  85
ENDBRANCH  74  77
ENDBRANCH  72  73
ENDBRANCH   1  72
TORSDOF 16
ENDMDL
MODEL 2
REMARK VINA RESULT:     -11.7      6.543     11.065
REMARK SMILES O=C(NCCCNC(=O)[C@]1(CCc2cccnc2)CCC[NH2+]C1)c1ccc(-c2c3nc(c(-c4cccc(S(=O)(=O)[O-])c4F)c4ccc([nH]4)c(-c4cccc(S(=O)(=O)[O-])c4F)c4nc(c(-c5cccc(S(=O)(=O)[O-])c5F)c5ccc2[nH]5)C=C4)C=C3)cc1
REMARK SMILES IDX 5 1 4 2 3 3 1 4 2 5 24 7 25 8 86 9 26 10 85 11 27 12 28 13
REMARK SMILES IDX 29 14 79 15 30 16 84 17 78 18 80 19 31 20 83 21 77 22 76 23
REMARK SMILES IDX 32 25 64 26 44 27 63 28 45 29 48 30 62 31 81 32 46 33 47 34
REMARK SMILES IDX 61 36 82 37 49 38 33 39 34 40 42 41 35 42 37 43 43 44 36 45
REMARK SMILES IDX 38 46 39 47 40 48 41 49 65 50 66 51 74 52 67 53 69 54 75 55
REMARK SMILES IDX 68 56 70 57 71 58 72 59 73 60 50 61 51 62 59 63 52 64 54 65
REMARK SMILES IDX 60 66 53 67 55 68 56 69 57 70 58 71 6 72 7 73 8 74 9 76
REMARK SMILES IDX 10 77 19 78 23 79 20 80 22 81 21 82 11 85 12 86 13 87 14 88
REMARK SMILES IDX 18 89 15 90 17 91 16 92
REMARK H PARENT 3 6 80 24 48 35 7 75 22 83 22 84
REMARK Flexibility Score: inf
ROOT
ATOM      1  C   UNL A   1      35.140  33.576  29.515  1.00  0.00     0.042 C 
ENDROOT
BRANCH   1   2
ATOM      2  C   UNL A   1      35.219  33.105  28.070  1.00  0.00     0.118 C 
BRANCH   2   3
ATOM      3  N   UNL A   1      34.314  32.005  27.801  1.00  0.00    -0.352 N 
ATOM      4  O   UNL A   1      33.727  29.921  27.211  1.00  0.00    -0.269 OA
ATOM      5  C   UNL A   1      34.586  30.663  27.677  1.00  0.00     0.251 C 
ATOM      6  H   UNL A   1      33.368  32.254  27.690  1.00  0.00     0.163 HD
BRANCH   5   7
ATOM      7  C   UNL A   1      35.904  30.110  28.084  1.00  0.00     0.039 A 
ATOM      8  C   UNL A   1      37.042  30.269  27.287  1.00  0.00     0.014 A 
ATOM      9  C   UNL A   1      36.018  29.486  29.330  1.00  0.00     0.014 A 
ATOM     10  C   UNL A   1      38.263  29.722  27.689  1.00  0.00     0.010 A 
ATOM     11  C   UNL A   1      37.257  29.002  29.765  1.00  0.00     0.010 A 
ATOM     12  C   UNL A   1      38.390  29.104  28.943  1.00  0.00    -0.014 A 
BRANCH  12  13
ATOM     13  C   UNL A   1      39.729  28.667  29.428  1.00  0.00     0.031 A 
ATOM     14  C   UNL A   1      40.444  29.399  30.531  1.00  0.00     0.074 A 
ATOM     15  C   UNL A   1      40.323  27.615  28.827  1.00  0.00     0.049 A 
ATOM     16  N   UNL A   1      41.617  29.148  31.057  1.00  0.00    -0.248 NA
ATOM     17  C   UNL A   1      39.765  30.564  31.117  1.00  0.00     0.031 C 
ATOM     18  C   UNL A   1      39.761  26.859  27.705  1.00  0.00     0.029 A 
ATOM     19  N   UNL A   1      41.534  27.010  29.058  1.00  0.00    -0.354 N 
ATOM     20  C   UNL A   1      41.834  30.140  32.007  1.00  0.00     0.074 A 
ATOM     21  C   UNL A   1      40.671  31.002  31.983  1.00  0.00     0.031 C 
ATOM     22  C   UNL A   1      40.618  25.890  27.352  1.00  0.00     0.029 A 
ATOM     23  C   UNL A   1      41.810  25.981  28.187  1.00  0.00     0.049 A 
ATOM     24  H   UNL A   1      42.146  27.287  29.778  1.00  0.00     0.167 HD
ATOM     25  C   UNL A   1      42.896  30.307  32.834  1.00  0.00     0.034 A 
ATOM     26  C   UNL A   1      42.906  25.209  28.056  1.00  0.00     0.034 A 
ATOM     27  C   UNL A   1      44.039  29.432  32.874  1.00  0.00     0.049 A 
ATOM     28  C   UNL A   1      44.058  25.408  29.000  1.00  0.00     0.074 A 
ATOM     29  C   UNL A   1      45.128  29.481  33.729  1.00  0.00     0.029 A 
ATOM     30  N   UNL A   1      44.253  28.362  32.019  1.00  0.00    -0.354 N 
ATOM     31  N   UNL A   1      44.174  26.258  29.991  1.00  0.00    -0.248 NA
ATOM     32  C   UNL A   1      45.218  24.522  28.828  1.00  0.00     0.031 C 
ATOM     33  C   UNL A   1      46.011  28.456  33.374  1.00  0.00     0.029 A 
ATOM     34  C   UNL A   1      45.460  27.751  32.318  1.00  0.00     0.049 A 
ATOM     35  H   UNL A   1      43.638  28.078  31.305  1.00  0.00     0.167 HD
ATOM     36  C   UNL A   1      45.403  25.988  30.580  1.00  0.00     0.074 A 
ATOM     37  C   UNL A   1      45.983  24.878  29.851  1.00  0.00     0.031 C 
ATOM     38  C   UNL A   1      46.004  26.614  31.622  1.00  0.00     0.034 A 
BRANCH  25  39
ATOM     39  C   UNL A   1      42.865  31.462  33.803  1.00  0.00     0.023 A 
ATOM     40  C   UNL A   1      43.352  32.721  33.397  1.00  0.00     0.012 A 
ATOM     41  C   UNL A   1      42.267  31.328  35.072  1.00  0.00     0.148 A 
ATOM     42  C   UNL A   1      43.266  33.824  34.247  1.00  0.00     0.002 A 
ATOM     43  C   UNL A   1      42.149  32.442  35.898  1.00  0.00     0.091 A 
ATOM     44  F   UNL A   1      41.823  30.120  35.446  1.00  0.00    -0.205 F 
ATOM     45  C   UNL A   1      42.657  33.686  35.491  1.00  0.00     0.022 A 
BRANCH  43  46
ATOM     46  S   UNL A   1      41.311  32.388  37.487  1.00  0.00     0.127 S 
ATOM     47  O   UNL A   1      42.177  31.486  38.245  1.00  0.00    -0.237 OA
ATOM     48  O   UNL A   1      41.369  33.788  37.911  1.00  0.00    -0.237 OA
ATOM     49  O   UNL A   1      39.971  31.888  37.220  1.00  0.00    -0.744 OA
ENDBRANCH  43  46
ENDBRANCH  25  39
BRANCH  26  50
ATOM     50  C   UNL A   1      42.946  24.147  27.012  1.00  0.00     0.023 A 
ATOM     51  C   UNL A   1      43.676  24.366  25.828  1.00  0.00     0.012 A 
ATOM     52  C   UNL A   1      42.289  22.915  27.196  1.00  0.00     0.148 A 
ATOM     53  C   UNL A   1      43.725  23.389  24.832  1.00  0.00     0.002 A 
ATOM     54  C   UNL A   1      42.390  21.925  26.227  1.00  0.00     0.091 A 
ATOM     55  F   UNL A   1      41.584  22.732  28.322  1.00  0.00    -0.205 F 
ATOM     56  C   UNL A   1      43.091  22.166  25.036  1.00  0.00     0.022 A 
BRANCH  54  57
ATOM     57  S   UNL A   1      41.724  20.275  26.472  1.00  0.00     0.127 S 
ATOM     58  O   UNL A   1      42.295  19.912  27.766  1.00  0.00    -0.237 OA
ATOM     59  O   UNL A   1      40.282  20.527  26.485  1.00  0.00    -0.237 OA
ATOM     60  O   UNL A   1      42.184  19.495  25.331  1.00  0.00    -0.744 OA
ENDBRANCH  54  57
ENDBRANCH  26  50
BRANCH  38  61
ATOM     61  C   UNL A   1      47.346  26.094  32.067  1.00  0.00     0.023 A 
ATOM     62  C   UNL A   1      48.521  26.561  31.446  1.00  0.00     0.012 A 
ATOM     63  C   UNL A   1      47.445  25.189  33.142  1.00  0.00     0.148 A 
ATOM     64  C   UNL A   1      49.772  26.111  31.867  1.00  0.00     0.002 A 
ATOM     65  C   UNL A   1      48.697  24.783  33.588  1.00  0.00     0.091 A 
ATOM     66  F   UNL A   1      46.315  24.739  33.706  1.00  0.00    -0.205 F 
ATOM     67  C   UNL A   1      49.861  25.232  32.944  1.00  0.00     0.022 A 
BRANCH  65  68
ATOM     68  S   UNL A   1      48.910  23.729  35.028  1.00  0.00     0.127 S 
ATOM     69  O   UNL A   1      48.268  22.492  34.590  1.00  0.00    -0.237 OA
ATOM     70  O   UNL A   1      50.367  23.652  35.144  1.00  0.00    -0.237 OA
ATOM     71  O   UNL A   1      48.254  24.419  36.130  1.00  0.00    -0.744 OA
ENDBRANCH  65  68
ENDBRANCH  38  61
ENDBRANCH  12  13
ENDBRANCH   5   7
ENDBRANCH   2   3
ENDBRANCH   1   2
BRANCH   1  72
ATOM     72  C   UNL A   1      36.447  33.467  30.300  1.00  0.00     0.117 C 
BRANCH  72  73
ATOM     73  N   UNL A   1      36.535  32.291  31.154  1.00  0.00    -0.355 N 
ATOM     74  C   UNL A   1      36.507  32.066  32.496  1.00  0.00     0.231 C 
ATOM     75  H   UNL A   1      36.638  31.459  30.637  1.00  0.00     0.163 HD
ATOM     76  O   UNL A   1      36.523  30.874  32.825  1.00  0.00    -0.274 OA
BRANCH  74  77
ATOM     77  C   UNL A   1      36.464  33.183  33.564  1.00  0.00     0.098 C 
ATOM     78  C   UNL A   1      37.119  34.510  33.071  1.00  0.00     0.028 C 
ATOM     79  C   UNL A   1      37.297  32.716  34.791  1.00  0.00     0.277 C 
ATOM     80  C   UNL A   1      38.630  34.433  32.873  1.00  0.00     0.063 C 
ATOM     81  N   UNL A   1      38.733  32.585  34.513  1.00  0.00    -0.345 N 
ATOM     82  C   UNL A   1      39.330  33.847  34.088  1.00  0.00     0.260 C 
ATOM     83  H   UNL A   1      39.205  32.267  35.359  1.00  0.00     0.346 HD
ATOM     84  H   UNL A   1      38.845  31.915  33.751  1.00  0.00     0.346 HD
BRANCH  77  85
ATOM     85  C   UNL A   1      34.999  33.520  33.974  1.00  0.00     0.028 C 
BRANCH  85  86
ATOM     86  C   UNL A   1      33.964  33.852  32.864  1.00  0.00     0.038 C 
BRANCH  86  87
ATOM     87  C   UNL A   1      33.691  35.284  32.473  1.00  0.00    -0.030 A 
ATOM     88  C   UNL A   1      34.223  36.355  33.199  1.00  0.00     0.007 A 
ATOM     89  C   UNL A   1      32.991  35.622  31.317  1.00  0.00     0.114 A 
ATOM     90  C   UNL A   1      33.997  37.670  32.786  1.00  0.00     0.020 A 
ATOM     91  N   UNL A   1      32.738  36.886  30.901  1.00  0.00    -0.264 NA
ATOM     92  C   UNL A   1      33.239  37.883  31.649  1.00  0.00     0.111 A 
ENDBRANCH  86  87
ENDBRANCH  85  86
ENDBRANCH  77  85
ENDBRANCH  74  77
ENDBRANCH  72  73
ENDBRANCH   1  72
TORSDOF 16
ENDMDL
MODEL 3
REMARK VINA RESULT:     -11.7      6.974     12.266
REMARK SMILES O=C(NCCCNC(=O)[C@]1(CCc2cccnc2)CCC[NH2+]C1)c1ccc(-c2c3nc(c(-c4cccc(S(=O)(=O)[O-])c4F)c4ccc([nH]4)c(-c4cccc(S(=O)(=O)[O-])c4F)c4nc(c(-c5cccc(S(=O)(=O)[O-])c5F)c5ccc2[nH]5)C=C4)C=C3)cc1
REMARK SMILES IDX 5 1 4 2 3 3 1 4 2 5 24 7 25 8 86 9 26 10 85 11 27 12 28 13
REMARK SMILES IDX 29 14 79 15 30 16 84 17 78 18 80 19 31 20 83 21 77 22 76 23
REMARK SMILES IDX 32 25 64 26 44 27 63 28 45 29 48 30 62 31 81 32 46 33 47 34
REMARK SMILES IDX 61 36 82 37 49 38 33 39 34 40 42 41 35 42 37 43 43 44 36 45
REMARK SMILES IDX 38 46 39 47 40 48 41 49 65 50 66 51 74 52 67 53 69 54 75 55
REMARK SMILES IDX 68 56 70 57 71 58 72 59 73 60 50 61 51 62 59 63 52 64 54 65
REMARK SMILES IDX 60 66 53 67 55 68 56 69 57 70 58 71 6 72 7 73 8 74 9 76
REMARK SMILES IDX 10 77 19 78 23 79 20 80 22 81 21 82 11 85 12 86 13 87 14 88
REMARK SMILES IDX 18 89 15 90 17 91 16 92
REMARK H PARENT 3 6 80 24 48 35 7 75 22 83 22 84
REMARK Flexibility Score: inf
ROOT
ATOM      1  C   UNL A   1      31.606  31.857  26.744  1.00  0.00     0.042 C 
ENDROOT
BRANCH   1   2
ATOM      2  C   UNL A   1      32.887  32.566  27.159  1.00  0.00     0.118 C 
BRANCH   2   3
ATOM      3  N   UNL A   1      32.650  33.937  27.565  1.00  0.00    -0.352 N 
ATOM      4  O   UNL A   1      32.661  35.704  28.948  1.00  0.00    -0.269 OA
ATOM      5  C   UNL A   1      33.167  34.631  28.634  1.00  0.00     0.251 C 
ATOM      6  H   UNL A   1      32.029  34.444  26.994  1.00  0.00     0.163 HD
BRANCH   5   7
ATOM      7  C   UNL A   1      34.311  34.092  29.414  1.00  0.00     0.039 A 
ATOM      8  C   UNL A   1      34.116  33.244  30.508  1.00  0.00     0.014 A 
ATOM      9  C   UNL A   1      35.612  34.381  28.990  1.00  0.00     0.014 A 
ATOM     10  C   UNL A   1      35.212  32.767  31.231  1.00  0.00     0.010 A 
ATOM     11  C   UNL A   1      36.710  33.844  29.672  1.00  0.00     0.010 A 
ATOM     12  C   UNL A   1      36.522  33.042  30.808  1.00  0.00    -0.014 A 
BRANCH  12  13
ATOM     13  C   UNL A   1      37.678  32.399  31.491  1.00  0.00     0.031 A 
ATOM     14  C   UNL A   1      38.434  31.262  30.860  1.00  0.00     0.074 A 
ATOM     15  C   UNL A   1      38.021  32.828  32.724  1.00  0.00     0.049 A 
ATOM     16  N   UNL A   1      39.455  30.592  31.332  1.00  0.00    -0.248 NA
ATOM     17  C   UNL A   1      37.986  30.810  29.534  1.00  0.00     0.031 C 
ATOM     18  C   UNL A   1      37.329  33.882  33.471  1.00  0.00     0.029 A 
ATOM     19  N   UNL A   1      39.019  32.423  33.575  1.00  0.00    -0.354 N 
ATOM     20  C   UNL A   1      39.751  29.619  30.384  1.00  0.00     0.074 A 
ATOM     21  C   UNL A   1      38.795  29.782  29.307  1.00  0.00     0.031 C 
ATOM     22  C   UNL A   1      37.926  34.046  34.660  1.00  0.00     0.029 A 
ATOM     23  C   UNL A   1      39.012  33.080  34.784  1.00  0.00     0.049 A 
ATOM     24  H   UNL A   1      39.676  31.728  33.343  1.00  0.00     0.167 HD
ATOM     25  C   UNL A   1      40.735  28.687  30.400  1.00  0.00     0.034 A 
ATOM     26  C   UNL A   1      39.777  32.914  35.881  1.00  0.00     0.034 A 
ATOM     27  C   UNL A   1      41.700  28.545  31.460  1.00  0.00     0.049 A 
ATOM     28  C   UNL A   1      40.871  31.885  35.860  1.00  0.00     0.074 A 
ATOM     29  C   UNL A   1      42.778  27.678  31.528  1.00  0.00     0.029 A 
ATOM     30  N   UNL A   1      41.700  29.272  32.640  1.00  0.00    -0.354 N 
ATOM     31  N   UNL A   1      41.227  31.079  34.889  1.00  0.00    -0.248 NA
ATOM     32  C   UNL A   1      41.691  31.762  37.074  1.00  0.00     0.031 C 
ATOM     33  C   UNL A   1      43.414  27.864  32.761  1.00  0.00     0.029 A 
ATOM     34  C   UNL A   1      42.751  28.867  33.447  1.00  0.00     0.049 A 
ATOM     35  H   UNL A   1      41.049  29.974  32.870  1.00  0.00     0.167 HD
ATOM     36  C   UNL A   1      42.329  30.378  35.362  1.00  0.00     0.074 A 
ATOM     37  C   UNL A   1      42.599  30.873  36.697  1.00  0.00     0.031 C 
ATOM     38  C   UNL A   1      43.044  29.401  34.752  1.00  0.00     0.034 A 
BRANCH  25  39
ATOM     39  C   UNL A   1      40.856  27.762  29.216  1.00  0.00     0.023 A 
ATOM     40  C   UNL A   1      40.027  26.624  29.137  1.00  0.00     0.012 A 
ATOM     41  C   UNL A   1      41.713  28.068  28.140  1.00  0.00     0.148 A 
ATOM     42  C   UNL A   1      40.065  25.793  28.018  1.00  0.00     0.002 A 
ATOM     43  C   UNL A   1      41.716  27.257  27.010  1.00  0.00     0.091 A 
ATOM     44  F   UNL A   1      42.505  29.145  28.240  1.00  0.00    -0.205 F 
ATOM     45  C   UNL A   1      40.901  26.115  26.952  1.00  0.00     0.022 A 
BRANCH  43  46
ATOM     46  S   UNL A   1      42.698  27.626  25.551  1.00  0.00     0.127 S 
ATOM     47  O   UNL A   1      42.447  26.448  24.722  1.00  0.00    -0.237 OA
ATOM     48  O   UNL A   1      42.073  28.857  25.064  1.00  0.00    -0.237 OA
ATOM     49  O   UNL A   1      44.068  27.782  26.016  1.00  0.00    -0.744 OA
ENDBRANCH  43  46
ENDBRANCH  25  39
BRANCH  26  50
ATOM     50  C   UNL A   1      39.557  33.774  37.078  1.00  0.00     0.023 A 
ATOM     51  C   UNL A   1      40.011  35.107  37.067  1.00  0.00     0.012 A 
ATOM     52  C   UNL A   1      38.878  33.288  38.212  1.00  0.00     0.148 A 
ATOM     53  C   UNL A   1      39.822  35.931  38.177  1.00  0.00     0.002 A 
ATOM     54  C   UNL A   1      38.642  34.132  39.290  1.00  0.00     0.091 A 
ATOM     55  F   UNL A   1      38.469  32.012  38.210  1.00  0.00    -0.205 F 
ATOM     56  C   UNL A   1      39.128  35.447  39.284  1.00  0.00     0.022 A 
BRANCH  54  57
ATOM     57  S   UNL A   1      37.636  33.631  40.693  1.00  0.00     0.127 S 
ATOM     58  O   UNL A   1      36.450  33.092  40.032  1.00  0.00    -0.237 OA
ATOM     59  O   UNL A   1      38.490  32.632  41.338  1.00  0.00    -0.237 OA
ATOM     60  O   UNL A   1      37.434  34.841  41.478  1.00  0.00    -0.744 OA
ENDBRANCH  54  57
ENDBRANCH  26  50
BRANCH  38  61
ATOM     61  C   UNL A   1      44.214  28.822  35.502  1.00  0.00     0.023 A 
ATOM     62  C   UNL A   1      45.503  29.358  35.315  1.00  0.00     0.012 A 
ATOM     63  C   UNL A   1      44.025  27.787  36.439  1.00  0.00     0.148 A 
ATOM     64  C   UNL A   1      46.592  28.852  36.025  1.00  0.00     0.002 A 
ATOM     65  C   UNL A   1      45.106  27.320  37.178  1.00  0.00     0.091 A 
ATOM     66  F   UNL A   1      42.795  27.275  36.587  1.00  0.00    -0.205 F 
ATOM     67  C   UNL A   1      46.391  27.842  36.964  1.00  0.00     0.022 A 
BRANCH  65  68
ATOM     68  S   UNL A   1      44.925  26.090  38.475  1.00  0.00     0.127 S 
ATOM     69  O   UNL A   1      44.398  24.948  37.732  1.00  0.00    -0.237 OA
ATOM     70  O   UNL A   1      46.301  25.930  38.946  1.00  0.00    -0.237 OA
ATOM     71  O   UNL A   1      44.017  26.672  39.455  1.00  0.00    -0.744 OA
ENDBRANCH  65  68
ENDBRANCH  38  61
ENDBRANCH  12  13
ENDBRANCH   5   7
ENDBRANCH   2   3
ENDBRANCH   1   2
BRANCH   1  72
ATOM     72  C   UNL A   1      31.755  30.360  26.478  1.00  0.00     0.117 C 
BRANCH  72  73
ATOM     73  N   UNL A   1      32.578  30.038  25.321  1.00  0.00    -0.355 N 
ATOM     74  C   UNL A   1      32.478  29.174  24.274  1.00  0.00     0.231 C 
ATOM     75  H   UNL A   1      33.403  30.575  25.286  1.00  0.00     0.163 HD
ATOM     76  O   UNL A   1      33.375  29.274  23.428  1.00  0.00    -0.274 OA
BRANCH  74  77
ATOM     77  C   UNL A   1      31.351  28.128  24.113  1.00  0.00     0.098 C 
ATOM     78  C   UNL A   1      30.883  27.537  25.479  1.00  0.00     0.028 C 
ATOM     79  C   UNL A   1      31.908  26.934  23.289  1.00  0.00     0.277 C 
ATOM     80  C   UNL A   1      31.919  26.660  26.176  1.00  0.00     0.063 C 
ATOM     81  N   UNL A   1      32.959  26.178  23.985  1.00  0.00    -0.345 N 
ATOM     82  C   UNL A   1      32.487  25.605  25.241  1.00  0.00     0.260 C 
ATOM     83  H   UNL A   1      33.277  25.423  23.378  1.00  0.00     0.346 HD
ATOM     84  H   UNL A   1      33.717  26.824  24.201  1.00  0.00     0.346 HD
BRANCH  77  85
ATOM     85  C   UNL A   1      30.095  28.747  23.428  1.00  0.00     0.028 C 
BRANCH  85  86
ATOM     86  C   UNL A   1      29.721  30.223  23.735  1.00  0.00     0.038 C 
BRANCH  86  87
ATOM     87  C   UNL A   1      29.067  31.084  22.682  1.00  0.00    -0.030 A 
ATOM     88  C   UNL A   1      28.666  30.555  21.450  1.00  0.00     0.007 A 
ATOM     89  C   UNL A   1      28.730  32.417  22.909  1.00  0.00     0.114 A 
ATOM     90  C   UNL A   1      28.018  31.363  20.512  1.00  0.00     0.020 A 
ATOM     91  N   UNL A   1      28.121  33.230  22.013  1.00  0.00    -0.264 NA
ATOM     92  C   UNL A   1      27.786  32.688  20.831  1.00  0.00     0.111 A 
ENDBRANCH  86  87
ENDBRANCH  85  86
ENDBRANCH  77  85
ENDBRANCH  74  77
ENDBRANCH  72  73
ENDBRANCH   1  72
TORSDOF 16
ENDMDL
