MODEL 1
REMARK VINA RESULT:     -12.5      0.000      0.000
REMARK SMILES O=C(NCCCNC(=O)[C@@H]1CCC[N@@H+]1CC(=O)N1CCSc2ccccc21)c1ccc(-c2c3nc(c(-c4cccc(S(=O)(=O)[O-])c4F)c4ccc([nH]4)c(-c4cccc(S(=O)(=O)[O-])c4F)c4nc(c(-c5cccc(S(=O)(=O)[O-])c5F)c5ccc2[nH]5)C=C4)C=C3)cc1
REMARK SMILES IDX 5 1 4 2 3 3 1 4 2 5 28 7 29 8 90 9 30 10 89 11 31 12 32 13
REMARK SMILES IDX 33 14 83 15 34 16 88 17 82 18 84 19 35 20 87 21 81 22 80 23
REMARK SMILES IDX 36 25 68 26 48 27 67 28 49 29 52 30 66 31 85 32 50 33 51 34
REMARK SMILES IDX 65 36 86 37 53 38 37 39 38 40 46 41 39 42 41 43 47 44 40 45
REMARK SMILES IDX 42 46 43 47 44 48 45 49 69 50 70 51 78 52 71 53 73 54 79 55
REMARK SMILES IDX 72 56 74 57 75 58 76 59 77 60 54 61 55 62 63 63 56 64 58 65
REMARK SMILES IDX 64 66 57 67 59 68 60 69 61 70 62 71 6 72 7 73 8 74 9 76
REMARK SMILES IDX 10 77 11 78 14 79 12 80 13 81 15 83 16 84 17 85 18 86 19 87
REMARK SMILES IDX 27 88 20 89 22 90 26 91 21 92 23 93 25 94 24 95
REMARK H PARENT 3 6 84 24 52 35 7 75 14 82
REMARK Flexibility Score: inf
ROOT
ATOM      1  C   UNL A   1      31.664  31.933  26.554  1.00  0.00     0.042 C 
ENDROOT
BRANCH   1   2
ATOM      2  C   UNL A   1      32.826  32.627  27.251  1.00  0.00     0.118 C 
BRANCH   2   3
ATOM      3  N   UNL A   1      32.535  33.995  27.659  1.00  0.00    -0.352 N 
ATOM      4  O   UNL A   1      32.682  35.832  28.959  1.00  0.00    -0.269 OA
ATOM      5  C   UNL A   1      33.130  34.735  28.662  1.00  0.00     0.251 C 
ATOM      6  H   UNL A   1      31.823  34.451  27.155  1.00  0.00     0.163 HD
BRANCH   5   7
ATOM      7  C   UNL A   1      34.302  34.183  29.385  1.00  0.00     0.039 A 
ATOM      8  C   UNL A   1      35.590  34.480  28.931  1.00  0.00     0.014 A 
ATOM      9  C   UNL A   1      34.129  33.365  30.505  1.00  0.00     0.014 A 
ATOM     10  C   UNL A   1      36.700  33.981  29.619  1.00  0.00     0.010 A 
ATOM     11  C   UNL A   1      35.229  32.965  31.250  1.00  0.00     0.010 A 
ATOM     12  C   UNL A   1      36.525  33.229  30.791  1.00  0.00    -0.014 A 
BRANCH  12  13
ATOM     13  C   UNL A   1      37.668  32.611  31.506  1.00  0.00     0.031 A 
ATOM     14  C   UNL A   1      38.396  31.458  30.862  1.00  0.00     0.074 A 
ATOM     15  C   UNL A   1      38.006  33.026  32.742  1.00  0.00     0.049 A 
ATOM     16  N   UNL A   1      39.335  30.697  31.356  1.00  0.00    -0.248 NA
ATOM     17  C   UNL A   1      37.991  31.089  29.492  1.00  0.00     0.031 C 
ATOM     18  C   UNL A   1      37.344  34.097  33.489  1.00  0.00     0.029 A 
ATOM     19  N   UNL A   1      38.983  32.581  33.596  1.00  0.00    -0.354 N 
ATOM     20  C   UNL A   1      39.594  29.739  30.384  1.00  0.00     0.074 A 
ATOM     21  C   UNL A   1      38.692  29.986  29.284  1.00  0.00     0.031 C 
ATOM     22  C   UNL A   1      37.946  34.240  34.680  1.00  0.00     0.029 A 
ATOM     23  C   UNL A   1      39.011  33.247  34.798  1.00  0.00     0.049 A 
ATOM     24  H   UNL A   1      39.606  31.854  33.369  1.00  0.00     0.167 HD
ATOM     25  C   UNL A   1      40.528  28.761  30.389  1.00  0.00     0.034 A 
ATOM     26  C   UNL A   1      39.802  33.074  35.873  1.00  0.00     0.034 A 
ATOM     27  C   UNL A   1      41.478  28.571  31.445  1.00  0.00     0.049 A 
ATOM     28  C   UNL A   1      40.863  32.010  35.837  1.00  0.00     0.074 A 
ATOM     29  C   UNL A   1      42.518  27.662  31.508  1.00  0.00     0.029 A 
ATOM     30  N   UNL A   1      41.512  29.310  32.616  1.00  0.00    -0.354 N 
ATOM     31  N   UNL A   1      41.148  31.169  34.873  1.00  0.00    -0.248 NA
ATOM     32  C   UNL A   1      41.727  31.886  37.020  1.00  0.00     0.031 C 
ATOM     33  C   UNL A   1      43.177  27.844  32.726  1.00  0.00     0.029 A 
ATOM     34  C   UNL A   1      42.557  28.880  33.410  1.00  0.00     0.049 A 
ATOM     35  H   UNL A   1      40.886  30.033  32.848  1.00  0.00     0.167 HD
ATOM     36  C   UNL A   1      42.238  30.432  35.319  1.00  0.00     0.074 A 
ATOM     37  C   UNL A   1      42.569  30.932  36.639  1.00  0.00     0.031 C 
ATOM     38  C   UNL A   1      42.897  29.425  34.697  1.00  0.00     0.034 A 
BRANCH  25  39
ATOM     39  C   UNL A   1      40.623  27.866  29.184  1.00  0.00     0.023 A 
ATOM     40  C   UNL A   1      39.734  26.782  29.058  1.00  0.00     0.012 A 
ATOM     41  C   UNL A   1      41.524  28.154  28.141  1.00  0.00     0.148 A 
ATOM     42  C   UNL A   1      39.744  25.987  27.912  1.00  0.00     0.002 A 
ATOM     43  C   UNL A   1      41.505  27.379  26.988  1.00  0.00     0.091 A 
ATOM     44  F   UNL A   1      42.371  29.180  28.295  1.00  0.00    -0.205 F 
ATOM     45  C   UNL A   1      40.619  26.294  26.874  1.00  0.00     0.022 A 
BRANCH  43  46
ATOM     46  S   UNL A   1      42.553  27.719  25.571  1.00  0.00     0.127 S 
ATOM     47  O   UNL A   1      43.876  27.792  26.193  1.00  0.00    -0.237 OA
ATOM     48  O   UNL A   1      42.335  26.535  24.740  1.00  0.00    -0.237 OA
ATOM     49  O   UNL A   1      42.072  28.969  25.001  1.00  0.00    -0.744 OA
ENDBRANCH  43  46
ENDBRANCH  25  39
BRANCH  26  50
ATOM     50  C   UNL A   1      39.657  33.987  37.039  1.00  0.00     0.023 A 
ATOM     51  C   UNL A   1      40.039  35.336  36.906  1.00  0.00     0.012 A 
ATOM     52  C   UNL A   1      39.072  33.551  38.242  1.00  0.00     0.148 A 
ATOM     53  C   UNL A   1      39.843  36.236  37.953  1.00  0.00     0.002 A 
ATOM     54  C   UNL A   1      38.846  34.461  39.269  1.00  0.00     0.091 A 
ATOM     55  F   UNL A   1      38.718  32.262  38.342  1.00  0.00    -0.205 F 
ATOM     56  C   UNL A   1      39.237  35.802  39.129  1.00  0.00     0.022 A 
BRANCH  54  57
ATOM     57  S   UNL A   1      37.986  34.021  40.784  1.00  0.00     0.127 S 
ATOM     58  O   UNL A   1      37.776  35.330  41.399  1.00  0.00    -0.237 OA
ATOM     59  O   UNL A   1      36.777  33.382  40.266  1.00  0.00    -0.237 OA
ATOM     60  O   UNL A   1      38.883  33.129  41.506  1.00  0.00    -0.744 OA
ENDBRANCH  54  57
ENDBRANCH  26  50
BRANCH  38  61
ATOM     61  C   UNL A   1      44.064  28.800  35.406  1.00  0.00     0.023 A 
ATOM     62  C   UNL A   1      45.350  29.348  35.241  1.00  0.00     0.012 A 
ATOM     63  C   UNL A   1      43.859  27.766  36.341  1.00  0.00     0.148 A 
ATOM     64  C   UNL A   1      46.421  28.867  35.991  1.00  0.00     0.002 A 
ATOM     65  C   UNL A   1      44.924  27.318  37.111  1.00  0.00     0.091 A 
ATOM     66  F   UNL A   1      42.623  27.264  36.474  1.00  0.00    -0.205 F 
ATOM     67  C   UNL A   1      46.206  27.864  36.933  1.00  0.00     0.022 A 
BRANCH  65  68
ATOM     68  S   UNL A   1      44.731  26.084  38.401  1.00  0.00     0.127 S 
ATOM     69  O   UNL A   1      44.174  24.958  37.653  1.00  0.00    -0.237 OA
ATOM     70  O   UNL A   1      46.108  25.894  38.855  1.00  0.00    -0.237 OA
ATOM     71  O   UNL A   1      43.838  26.669  39.392  1.00  0.00    -0.744 OA
ENDBRANCH  65  68
ENDBRANCH  38  61
ENDBRANCH  12  13
ENDBRANCH   5   7
ENDBRANCH   2   3
ENDBRANCH   1   2
BRANCH   1  72
ATOM     72  C   UNL A   1      31.876  30.431  26.497  1.00  0.00     0.118 C 
BRANCH  72  73
ATOM     73  N   UNL A   1      32.660  29.976  25.363  1.00  0.00    -0.351 N 
ATOM     74  C   UNL A   1      32.528  29.078  24.365  1.00  0.00     0.278 C 
ATOM     75  H   UNL A   1      33.519  30.453  25.308  1.00  0.00     0.163 HD
ATOM     76  O   UNL A   1      33.312  29.285  23.419  1.00  0.00    -0.268 OA
BRANCH  74  77
ATOM     77  C   UNL A   1      31.621  27.845  24.270  1.00  0.00     0.274 C 
ATOM     78  C   UNL A   1      31.060  27.245  25.573  1.00  0.00     0.081 C 
ATOM     79  N   UNL A   1      31.891  26.673  23.429  1.00  0.00    -0.317 N 
ATOM     80  C   UNL A   1      30.280  26.024  25.111  1.00  0.00     0.068 C 
ATOM     81  C   UNL A   1      30.665  25.861  23.645  1.00  0.00     0.263 C 
ATOM     82  H   UNL A   1      32.099  27.024  22.494  1.00  0.00     0.349 HD
BRANCH  79  83
ATOM     83  C   UNL A   1      33.127  25.866  23.524  1.00  0.00     0.364 C 
BRANCH  83  84
ATOM     84  C   UNL A   1      33.218  24.402  23.028  1.00  0.00     0.282 C 
ATOM     85  O   UNL A   1      33.370  24.176  21.823  1.00  0.00    -0.268 OA
BRANCH  84  86
ATOM     86  N   UNL A   1      33.272  23.355  23.978  1.00  0.00    -0.306 N 
ATOM     87  C   UNL A   1      32.078  22.521  24.077  1.00  0.00     0.137 C 
ATOM     88  C   UNL A   1      34.518  22.655  24.243  1.00  0.00     0.057 A 
ATOM     89  C   UNL A   1      31.961  21.665  25.318  1.00  0.00     0.097 C 
ATOM     90  C   UNL A   1      34.553  21.315  24.725  1.00  0.00     0.031 A 
ATOM     91  C   UNL A   1      35.747  23.305  24.051  1.00  0.00     0.027 A 
ATOM     92  S   UNL A   1      33.124  20.318  25.141  1.00  0.00    -0.122 SA
ATOM     93  C   UNL A   1      35.774  20.653  24.919  1.00  0.00     0.017 A 
ATOM     94  C   UNL A   1      36.960  22.638  24.284  1.00  0.00     0.002 A 
ATOM     95  C   UNL A   1      36.974  21.311  24.699  1.00  0.00     0.001 A 
ENDBRANCH  84  86
ENDBRANCH  83  84
ENDBRANCH  79  83
ENDBRANCH  74  77
ENDBRANCH  72  73
ENDBRANCH   1  72
TORSDOF 16
ENDMDL
MODEL 2
REMARK VINA RESULT:     -12.4      3.659      8.520
REMARK SMILES O=C(NCCCNC(=O)[C@@H]1CCC[N@@H+]1CC(=O)N1CCSc2ccccc21)c1ccc(-c2c3nc(c(-c4cccc(S(=O)(=O)[O-])c4F)c4ccc([nH]4)c(-c4cccc(S(=O)(=O)[O-])c4F)c4nc(c(-c5cccc(S(=O)(=O)[O-])c5F)c5ccc2[nH]5)C=C4)C=C3)cc1
REMARK SMILES IDX 5 1 4 2 3 3 1 4 2 5 28 7 29 8 90 9 30 10 89 11 31 12 32 13
REMARK SMILES IDX 33 14 83 15 34 16 88 17 82 18 84 19 35 20 87 21 81 22 80 23
REMARK SMILES IDX 36 25 68 26 48 27 67 28 49 29 52 30 66 31 85 32 50 33 51 34
REMARK SMILES IDX 65 36 86 37 53 38 37 39 38 40 46 41 39 42 41 43 47 44 40 45
REMARK SMILES IDX 42 46 43 47 44 48 45 49 69 50 70 51 78 52 71 53 73 54 79 55
REMARK SMILES IDX 72 56 74 57 75 58 76 59 77 60 54 61 55 62 63 63 56 64 58 65
REMARK SMILES IDX 64 66 57 67 59 68 60 69 61 70 62 71 6 72 7 73 8 74 9 76
REMARK SMILES IDX 10 77 11 78 14 79 12 80 13 81 15 83 16 84 17 85 18 86 19 87
REMARK SMILES IDX 27 88 20 89 22 90 26 91 21 92 23 93 25 94 24 95
REMARK H PARENT 3 6 84 24 52 35 7 75 14 82
REMARK Flexibility Score: inf
ROOT
ATOM      1  C   UNL A   1      33.340  28.111  27.259  1.00  0.00     0.042 C 
ENDROOT
BRANCH   1   2
ATOM      2  C   UNL A   1      33.855  29.138  26.261  1.00  0.00     0.118 C 
BRANCH   2   3
ATOM      3  N   UNL A   1      33.739  30.516  26.721  1.00  0.00    -0.352 N 
ATOM      4  O   UNL A   1      34.226  32.309  27.999  1.00  0.00    -0.269 OA
ATOM      5  C   UNL A   1      34.536  31.187  27.627  1.00  0.00     0.251 C 
ATOM      6  H   UNL A   1      32.996  31.036  26.336  1.00  0.00     0.163 HD
BRANCH   5   7
ATOM      7  C   UNL A   1      35.756  30.531  28.158  1.00  0.00     0.039 A 
ATOM      8  C   UNL A   1      35.711  29.913  29.411  1.00  0.00     0.014 A 
ATOM      9  C   UNL A   1      36.945  30.534  27.424  1.00  0.00     0.014 A 
ATOM     10  C   UNL A   1      36.851  29.274  29.909  1.00  0.00     0.010 A 
ATOM     11  C   UNL A   1      38.038  29.805  27.869  1.00  0.00     0.010 A 
ATOM     12  C   UNL A   1      38.019  29.207  29.135  1.00  0.00    -0.014 A 
BRANCH  12  13
ATOM     13  C   UNL A   1      39.274  28.613  29.656  1.00  0.00     0.031 A 
ATOM     14  C   UNL A   1      39.904  29.204  30.892  1.00  0.00     0.074 A 
ATOM     15  C   UNL A   1      39.879  27.607  28.996  1.00  0.00     0.049 A 
ATOM     16  N   UNL A   1      41.054  28.924  31.445  1.00  0.00    -0.248 NA
ATOM     17  C   UNL A   1      39.159  30.278  31.578  1.00  0.00     0.031 C 
ATOM     18  C   UNL A   1      39.393  26.986  27.763  1.00  0.00     0.029 A 
ATOM     19  N   UNL A   1      41.048  26.941  29.264  1.00  0.00    -0.354 N 
ATOM     20  C   UNL A   1      41.188  29.813  32.505  1.00  0.00     0.074 A 
ATOM     21  C   UNL A   1      40.025  30.668  32.500  1.00  0.00     0.031 C 
ATOM     22  C   UNL A   1      40.245  26.018  27.392  1.00  0.00     0.029 A 
ATOM     23  C   UNL A   1      41.357  25.973  28.338  1.00  0.00     0.049 A 
ATOM     24  H   UNL A   1      41.613  27.138  30.046  1.00  0.00     0.167 HD
ATOM     25  C   UNL A   1      42.175  29.887  33.425  1.00  0.00     0.034 A 
ATOM     26  C   UNL A   1      42.417  25.147  28.259  1.00  0.00     0.034 A 
ATOM     27  C   UNL A   1      43.286  28.982  33.477  1.00  0.00     0.049 A 
ATOM     28  C   UNL A   1      43.480  25.218  29.320  1.00  0.00     0.074 A 
ATOM     29  C   UNL A   1      44.296  28.921  34.420  1.00  0.00     0.029 A 
ATOM     30  N   UNL A   1      43.526  27.975  32.557  1.00  0.00    -0.354 N 
ATOM     31  N   UNL A   1      43.546  26.010  30.363  1.00  0.00    -0.248 NA
ATOM     32  C   UNL A   1      44.598  24.270  29.212  1.00  0.00     0.031 C 
ATOM     33  C   UNL A   1      45.156  27.880  34.062  1.00  0.00     0.029 A 
ATOM     34  C   UNL A   1      44.668  27.284  32.909  1.00  0.00     0.049 A 
ATOM     35  H   UNL A   1      42.967  27.782  31.772  1.00  0.00     0.167 HD
ATOM     36  C   UNL A   1      44.696  25.641  31.050  1.00  0.00     0.074 A 
ATOM     37  C   UNL A   1      45.293  24.547  30.309  1.00  0.00     0.031 C 
ATOM     38  C   UNL A   1      45.216  26.168  32.184  1.00  0.00     0.034 A 
BRANCH  25  39
ATOM     39  C   UNL A   1      42.065  30.932  34.500  1.00  0.00     0.023 A 
ATOM     40  C   UNL A   1      41.516  30.584  35.749  1.00  0.00     0.012 A 
ATOM     41  C   UNL A   1      42.589  32.225  34.306  1.00  0.00     0.148 A 
ATOM     42  C   UNL A   1      41.480  31.510  36.790  1.00  0.00     0.002 A 
ATOM     43  C   UNL A   1      42.581  33.132  35.357  1.00  0.00     0.091 A 
ATOM     44  F   UNL A   1      43.089  32.536  33.102  1.00  0.00    -0.205 F 
ATOM     45  C   UNL A   1      42.024  32.778  36.598  1.00  0.00     0.022 A 
BRANCH  43  46
ATOM     46  S   UNL A   1      43.302  34.771  35.234  1.00  0.00     0.127 S 
ATOM     47  O   UNL A   1      42.460  35.387  34.208  1.00  0.00    -0.237 OA
ATOM     48  O   UNL A   1      43.100  35.295  36.585  1.00  0.00    -0.237 OA
ATOM     49  O   UNL A   1      44.693  34.576  34.852  1.00  0.00    -0.744 OA
ENDBRANCH  43  46
ENDBRANCH  25  39
BRANCH  26  50
ATOM     50  C   UNL A   1      42.475  24.137  27.169  1.00  0.00     0.023 A 
ATOM     51  C   UNL A   1      43.247  24.408  26.023  1.00  0.00     0.012 A 
ATOM     52  C   UNL A   1      41.843  22.885  27.296  1.00  0.00     0.148 A 
ATOM     53  C   UNL A   1      43.386  23.450  25.018  1.00  0.00     0.002 A 
ATOM     54  C   UNL A   1      42.016  21.922  26.308  1.00  0.00     0.091 A 
ATOM     55  F   UNL A   1      41.115  22.654  28.398  1.00  0.00    -0.205 F 
ATOM     56  C   UNL A   1      42.780  22.205  25.165  1.00  0.00     0.022 A 
BRANCH  54  57
ATOM     57  S   UNL A   1      41.357  20.257  26.450  1.00  0.00     0.127 S 
ATOM     58  O   UNL A   1      39.933  20.478  26.204  1.00  0.00    -0.237 OA
ATOM     59  O   UNL A   1      42.068  19.563  25.377  1.00  0.00    -0.237 OA
ATOM     60  O   UNL A   1      41.695  19.808  27.794  1.00  0.00    -0.744 OA
ENDBRANCH  54  57
ENDBRANCH  26  50
BRANCH  38  61
ATOM     61  C   UNL A   1      46.480  25.566  32.728  1.00  0.00     0.023 A 
ATOM     62  C   UNL A   1      47.719  26.152  32.413  1.00  0.00     0.012 A 
ATOM     63  C   UNL A   1      46.421  24.512  33.662  1.00  0.00     0.148 A 
ATOM     64  C   UNL A   1      48.889  25.690  33.013  1.00  0.00     0.002 A 
ATOM     65  C   UNL A   1      47.586  24.082  34.283  1.00  0.00     0.091 A 
ATOM     66  F   UNL A   1      45.225  23.973  33.940  1.00  0.00    -0.205 F 
ATOM     67  C   UNL A   1      48.820  24.667  33.956  1.00  0.00     0.022 A 
BRANCH  65  68
ATOM     68  S   UNL A   1      47.590  22.824  35.564  1.00  0.00     0.127 S 
ATOM     69  O   UNL A   1      46.543  23.311  36.461  1.00  0.00    -0.237 OA
ATOM     70  O   UNL A   1      47.238  21.618  34.813  1.00  0.00    -0.237 OA
ATOM     71  O   UNL A   1      48.933  22.822  36.127  1.00  0.00    -0.744 OA
ENDBRANCH  65  68
ENDBRANCH  38  61
ENDBRANCH  12  13
ENDBRANCH   5   7
ENDBRANCH   2   3
ENDBRANCH   1   2
BRANCH   1  72
ATOM     72  C   UNL A   1      31.857  28.298  27.524  1.00  0.00     0.118 C 
BRANCH  72  73
ATOM     73  N   UNL A   1      31.031  27.165  27.152  1.00  0.00    -0.351 N 
ATOM     74  C   UNL A   1      30.825  26.407  26.054  1.00  0.00     0.278 C 
ATOM     75  H   UNL A   1      30.470  26.868  27.904  1.00  0.00     0.163 HD
ATOM     76  O   UNL A   1      30.275  25.320  26.312  1.00  0.00    -0.268 OA
BRANCH  74  77
ATOM     77  C   UNL A   1      31.111  26.719  24.581  1.00  0.00     0.274 C 
ATOM     78  C   UNL A   1      30.033  27.459  23.765  1.00  0.00     0.081 C 
ATOM     79  N   UNL A   1      31.688  25.768  23.623  1.00  0.00    -0.317 N 
ATOM     80  C   UNL A   1      30.617  27.533  22.363  1.00  0.00     0.068 C 
ATOM     81  C   UNL A   1      31.835  26.616  22.412  1.00  0.00     0.263 C 
ATOM     82  H   UNL A   1      32.521  25.378  24.063  1.00  0.00     0.349 HD
BRANCH  79  83
ATOM     83  C   UNL A   1      31.091  24.449  23.319  1.00  0.00     0.364 C 
BRANCH  83  84
ATOM     84  C   UNL A   1      31.817  23.111  23.599  1.00  0.00     0.282 C 
ATOM     85  O   UNL A   1      31.780  22.210  22.754  1.00  0.00    -0.268 OA
BRANCH  84  86
ATOM     86  N   UNL A   1      32.628  22.995  24.751  1.00  0.00    -0.306 N 
ATOM     87  C   UNL A   1      32.005  22.364  25.910  1.00  0.00     0.137 C 
ATOM     88  C   UNL A   1      34.058  22.756  24.633  1.00  0.00     0.057 A 
ATOM     89  C   UNL A   1      32.698  22.573  27.239  1.00  0.00     0.097 C 
ATOM     90  C   UNL A   1      34.810  22.107  25.653  1.00  0.00     0.031 A 
ATOM     91  C   UNL A   1      34.754  23.192  23.495  1.00  0.00     0.027 A 
ATOM     92  S   UNL A   1      34.168  21.555  27.232  1.00  0.00    -0.122 SA
ATOM     93  C   UNL A   1      36.177  21.846  25.482  1.00  0.00     0.017 A 
ATOM     94  C   UNL A   1      36.129  22.953  23.355  1.00  0.00     0.002 A 
ATOM     95  C   UNL A   1      36.836  22.267  24.337  1.00  0.00     0.001 A 
ENDBRANCH  84  86
ENDBRANCH  83  84
ENDBRANCH  79  83
ENDBRANCH  74  77
ENDBRANCH  72  73
ENDBRANCH   1  72
TORSDOF 16
ENDMDL
MODEL 3
REMARK VINA RESULT:     -12.3      5.905     12.033
REMARK SMILES O=C(NCCCNC(=O)[C@@H]1CCC[N@@H+]1CC(=O)N1CCSc2ccccc21)c1ccc(-c2c3nc(c(-c4cccc(S(=O)(=O)[O-])c4F)c4ccc([nH]4)c(-c4cccc(S(=O)(=O)[O-])c4F)c4nc(c(-c5cccc(S(=O)(=O)[O-])c5F)c5ccc2[nH]5)C=C4)C=C3)cc1
REMARK SMILES IDX 5 1 4 2 3 3 1 4 2 5 28 7 29 8 90 9 30 10 89 11 31 12 32 13
REMARK SMILES IDX 33 14 83 15 34 16 88 17 82 18 84 19 35 20 87 21 81 22 80 23
REMARK SMILES IDX 36 25 68 26 48 27 67 28 49 29 52 30 66 31 85 32 50 33 51 34
REMARK SMILES IDX 65 36 86 37 53 38 37 39 38 40 46 41 39 42 41 43 47 44 40 45
REMARK SMILES IDX 42 46 43 47 44 48 45 49 69 50 70 51 78 52 71 53 73 54 79 55
REMARK SMILES IDX 72 56 74 57 75 58 76 59 77 60 54 61 55 62 63 63 56 64 58 65
REMARK SMILES IDX 64 66 57 67 59 68 60 69 61 70 62 71 6 72 7 73 8 74 9 76
REMARK SMILES IDX 10 77 11 78 14 79 12 80 13 81 15 83 16 84 17 85 18 86 19 87
REMARK SMILES IDX 27 88 20 89 22 90 26 91 21 92 23 93 25 94 24 95
REMARK H PARENT 3 6 84 24 52 35 7 75 14 82
REMARK Flexibility Score: inf
ROOT
ATOM      1  C   UNL A   1      38.041  19.920  25.033  1.00  0.00     0.042 C 
ENDROOT
BRANCH   1   2
ATOM      2  C   UNL A   1      39.304  20.349  25.766  1.00  0.00     0.118 C 
BRANCH   2   3
ATOM      3  N   UNL A   1      40.304  19.295  25.881  1.00  0.00    -0.352 N 
ATOM      4  O   UNL A   1      42.383  18.438  26.055  1.00  0.00    -0.269 OA
ATOM      5  C   UNL A   1      41.660  19.421  26.110  1.00  0.00     0.251 C 
ATOM      6  H   UNL A   1      39.971  18.373  25.783  1.00  0.00     0.163 HD
BRANCH   5   7
ATOM      7  C   UNL A   1      42.234  20.758  26.405  1.00  0.00     0.039 A 
ATOM      8  C   UNL A   1      42.465  21.126  27.733  1.00  0.00     0.014 A 
ATOM      9  C   UNL A   1      42.534  21.649  25.372  1.00  0.00     0.014 A 
ATOM     10  C   UNL A   1      43.024  22.375  28.018  1.00  0.00     0.010 A 
ATOM     11  C   UNL A   1      43.191  22.838  25.649  1.00  0.00     0.010 A 
ATOM     12  C   UNL A   1      43.402  23.235  26.976  1.00  0.00    -0.014 A 
BRANCH  12  13
ATOM     13  C   UNL A   1      43.922  24.600  27.231  1.00  0.00     0.031 A 
ATOM     14  C   UNL A   1      42.978  25.655  27.752  1.00  0.00     0.074 A 
ATOM     15  C   UNL A   1      45.199  24.911  26.937  1.00  0.00     0.049 A 
ATOM     16  N   UNL A   1      43.187  26.932  27.929  1.00  0.00    -0.248 NA
ATOM     17  C   UNL A   1      41.607  25.224  28.086  1.00  0.00     0.031 C 
ATOM     18  C   UNL A   1      46.191  23.990  26.382  1.00  0.00     0.029 A 
ATOM     19  N   UNL A   1      45.874  26.099  27.049  1.00  0.00    -0.354 N 
ATOM     20  C   UNL A   1      41.970  27.459  28.344  1.00  0.00     0.074 A 
ATOM     21  C   UNL A   1      41.015  26.377  28.359  1.00  0.00     0.031 C 
ATOM     22  C   UNL A   1      47.354  24.642  26.220  1.00  0.00     0.029 A 
ATOM     23  C   UNL A   1      47.180  26.034  26.624  1.00  0.00     0.049 A 
ATOM     24  H   UNL A   1      45.464  26.922  27.401  1.00  0.00     0.167 HD
ATOM     25  C   UNL A   1      41.681  28.725  28.716  1.00  0.00     0.034 A 
ATOM     26  C   UNL A   1      48.128  26.989  26.564  1.00  0.00     0.034 A 
ATOM     27  C   UNL A   1      42.651  29.779  28.781  1.00  0.00     0.049 A 
ATOM     28  C   UNL A   1      47.795  28.380  27.027  1.00  0.00     0.074 A 
ATOM     29  C   UNL A   1      42.477  31.077  29.225  1.00  0.00     0.029 A 
ATOM     30  N   UNL A   1      43.977  29.653  28.402  1.00  0.00    -0.354 N 
ATOM     31  N   UNL A   1      46.659  28.838  27.495  1.00  0.00    -0.248 NA
ATOM     32  C   UNL A   1      48.873  29.378  26.977  1.00  0.00     0.031 C 
ATOM     33  C   UNL A   1      43.700  31.741  29.105  1.00  0.00     0.029 A 
ATOM     34  C   UNL A   1      44.637  30.849  28.605  1.00  0.00     0.049 A 
ATOM     35  H   UNL A   1      44.388  28.834  28.044  1.00  0.00     0.167 HD
ATOM     36  C   UNL A   1      46.890  30.169  27.821  1.00  0.00     0.074 A 
ATOM     37  C   UNL A   1      48.278  30.442  27.504  1.00  0.00     0.031 C 
ATOM     38  C   UNL A   1      46.029  31.084  28.327  1.00  0.00     0.034 A 
BRANCH  25  39
ATOM     39  C   UNL A   1      40.276  29.031  29.158  1.00  0.00     0.023 A 
ATOM     40  C   UNL A   1      39.298  29.332  28.191  1.00  0.00     0.012 A 
ATOM     41  C   UNL A   1      39.908  28.928  30.513  1.00  0.00     0.148 A 
ATOM     42  C   UNL A   1      37.971  29.536  28.565  1.00  0.00     0.002 A 
ATOM     43  C   UNL A   1      38.578  29.099  30.875  1.00  0.00     0.091 A 
ATOM     44  F   UNL A   1      40.862  28.658  31.415  1.00  0.00    -0.205 F 
ATOM     45  C   UNL A   1      37.610  29.406  29.904  1.00  0.00     0.022 A 
BRANCH  43  46
ATOM     46  S   UNL A   1      37.995  28.902  32.562  1.00  0.00     0.127 S 
ATOM     47  O   UNL A   1      38.162  27.463  32.765  1.00  0.00    -0.237 OA
ATOM     48  O   UNL A   1      38.935  29.737  33.308  1.00  0.00    -0.237 OA
ATOM     49  O   UNL A   1      36.616  29.368  32.571  1.00  0.00    -0.744 OA
ENDBRANCH  43  46
ENDBRANCH  25  39
BRANCH  26  50
ATOM     50  C   UNL A   1      49.498  26.628  26.112  1.00  0.00     0.023 A 
ATOM     51  C   UNL A   1      50.282  25.774  26.912  1.00  0.00     0.012 A 
ATOM     52  C   UNL A   1      49.994  27.055  24.866  1.00  0.00     0.148 A 
ATOM     53  C   UNL A   1      51.539  25.354  26.480  1.00  0.00     0.002 A 
ATOM     54  C   UNL A   1      51.233  26.602  24.425  1.00  0.00     0.091 A 
ATOM     55  F   UNL A   1      49.228  27.867  24.124  1.00  0.00    -0.205 F 
ATOM     56  C   UNL A   1      52.010  25.758  25.234  1.00  0.00     0.022 A 
BRANCH  54  57
ATOM     57  S   UNL A   1      51.885  26.989  22.796  1.00  0.00     0.127 S 
ATOM     58  O   UNL A   1      50.710  26.790  21.950  1.00  0.00    -0.237 OA
ATOM     59  O   UNL A   1      52.296  28.383  22.963  1.00  0.00    -0.237 OA
ATOM     60  O   UNL A   1      52.980  26.055  22.574  1.00  0.00    -0.744 OA
ENDBRANCH  54  57
ENDBRANCH  26  50
BRANCH  38  61
ATOM     61  C   UNL A   1      46.547  32.466  28.603  1.00  0.00     0.023 A 
ATOM     62  C   UNL A   1      47.086  32.765  29.868  1.00  0.00     0.012 A 
ATOM     63  C   UNL A   1      46.627  33.416  27.565  1.00  0.00     0.148 A 
ATOM     64  C   UNL A   1      47.691  33.997  30.101  1.00  0.00     0.002 A 
ATOM     65  C   UNL A   1      47.265  34.628  27.795  1.00  0.00     0.091 A 
ATOM     66  F   UNL A   1      46.103  33.102  26.372  1.00  0.00    -0.205 F 
ATOM     67  C   UNL A   1      47.792  34.922  29.063  1.00  0.00     0.022 A 
BRANCH  65  68
ATOM     68  S   UNL A   1      47.510  35.850  26.502  1.00  0.00     0.127 S 
ATOM     69  O   UNL A   1      46.135  36.255  26.213  1.00  0.00    -0.237 OA
ATOM     70  O   UNL A   1      48.315  36.863  27.185  1.00  0.00    -0.237 OA
ATOM     71  O   UNL A   1      48.192  35.160  25.416  1.00  0.00    -0.744 OA
ENDBRANCH  65  68
ENDBRANCH  38  61
ENDBRANCH  12  13
ENDBRANCH   5   7
ENDBRANCH   2   3
ENDBRANCH   1   2
BRANCH   1  72
ATOM     72  C   UNL A   1      37.150  21.112  24.732  1.00  0.00     0.118 C 
BRANCH  72  73
ATOM     73  N   UNL A   1      36.189  21.423  25.773  1.00  0.00    -0.351 N 
ATOM     74  C   UNL A   1      34.869  21.692  25.855  1.00  0.00     0.278 C 
ATOM     75  H   UNL A   1      36.615  21.442  26.660  1.00  0.00     0.163 HD
ATOM     76  O   UNL A   1      34.415  21.550  27.005  1.00  0.00    -0.268 OA
BRANCH  74  77
ATOM     77  C   UNL A   1      33.902  22.189  24.773  1.00  0.00     0.274 C 
ATOM     78  C   UNL A   1      34.486  22.646  23.422  1.00  0.00     0.081 C 
ATOM     79  N   UNL A   1      32.792  23.118  25.010  1.00  0.00    -0.317 N 
ATOM     80  C   UNL A   1      33.274  23.128  22.641  1.00  0.00     0.068 C 
ATOM     81  C   UNL A   1      32.150  23.165  23.670  1.00  0.00     0.263 C 
ATOM     82  H   UNL A   1      32.265  22.750  25.802  1.00  0.00     0.349 HD
BRANCH  79  83
ATOM     83  C   UNL A   1      32.962  24.463  25.601  1.00  0.00     0.364 C 
BRANCH  83  84
ATOM     84  C   UNL A   1      31.848  25.179  26.405  1.00  0.00     0.282 C 
ATOM     85  O   UNL A   1      31.184  24.539  27.227  1.00  0.00    -0.268 OA
BRANCH  84  86
ATOM     86  N   UNL A   1      31.708  26.581  26.289  1.00  0.00    -0.306 N 
ATOM     87  C   UNL A   1      32.861  27.375  26.703  1.00  0.00     0.137 C 
ATOM     88  C   UNL A   1      30.936  27.164  25.203  1.00  0.00     0.057 A 
ATOM     89  C   UNL A   1      32.606  28.845  26.952  1.00  0.00     0.097 C 
ATOM     90  C   UNL A   1      31.186  28.476  24.707  1.00  0.00     0.031 A 
ATOM     91  C   UNL A   1      29.884  26.443  24.620  1.00  0.00     0.027 A 
ATOM     92  S   UNL A   1      32.401  29.622  25.355  1.00  0.00    -0.122 SA
ATOM     93  C   UNL A   1      30.456  28.985  23.624  1.00  0.00     0.017 A 
ATOM     94  C   UNL A   1      29.140  26.981  23.558  1.00  0.00     0.002 A 
ATOM     95  C   UNL A   1      29.437  28.242  23.050  1.00  0.00     0.001 A 
ENDBRANCH  84  86
ENDBRANCH  83  84
ENDBRANCH  79  83
ENDBRANCH  74  77
ENDBRANCH  72  73
ENDBRANCH   1  72
TORSDOF 16
ENDMDL
