MODEL 1
REMARK VINA RESULT:     -11.1      0.000      0.000
REMARK SMILES CCC[C@H](C)NC(=O)C[NH+]1CC(n2cc(C(=O)NCCCNC(=O)c3ccc(-c4c5nc(c(-c6cccc(S(=O)(=O)[O-])c6F)c6ccc([nH]6)c(-c6cccc(S(=O)(=O)[O-])c6F)c6nc(c(-c7cccc(S(=O)(=O)[O-])c7F)c7ccc4[nH]7)C=C6)C=C5)cc3)nn2)C1
REMARK SMILES IDX 16 1 17 2 18 3 15 5 13 6 14 7 89 8 88 9 12 10 10 11 11 12
REMARK SMILES IDX 90 13 9 15 7 16 6 17 8 19 4 20 5 21 3 22 2 23 1 24 19 25
REMARK SMILES IDX 20 26 21 27 22 28 23 29 24 31 25 32 26 33 87 34 27 35 86 36
REMARK SMILES IDX 28 37 29 38 30 39 80 40 31 41 85 42 79 43 81 44 32 45 84 46
REMARK SMILES IDX 78 47 77 48 33 50 65 51 45 52 64 53 46 54 49 55 63 56 82 57
REMARK SMILES IDX 47 58 48 59 62 61 83 62 50 63 34 64 35 65 43 66 36 67 38 68
REMARK SMILES IDX 44 69 37 70 39 71 40 72 41 73 42 74 66 75 67 76 75 77 68 78
REMARK SMILES IDX 70 79 76 80 69 81 71 82 72 83 73 84 74 85 51 86 52 87 60 88
REMARK SMILES IDX 53 89 55 90 61 91 54 92 56 93 57 94 58 95 59 96
REMARK H PARENT 18 4 10 14 6 18 22 30 81 49 49 60
REMARK Flexibility Score: inf
ROOT
ATOM      1  C   UNL A   1      31.642  30.654  25.757  1.00  0.00     0.273 C 
ATOM      2  O   UNL A   1      30.672  31.252  25.319  1.00  0.00    -0.267 OA
ATOM      3  N   UNL A   1      32.340  31.225  26.806  1.00  0.00    -0.351 N 
ATOM      4  H   UNL A   1      32.146  32.177  26.965  1.00  0.00     0.163 HD
ENDROOT
BRANCH   1   5
ATOM      5  C   UNL A   1      32.051  29.351  25.243  1.00  0.00     0.170 A 
ATOM      6  N   UNL A   1      32.329  27.250  24.812  1.00  0.00    -0.237 N 
ATOM      7  C   UNL A   1      31.794  28.091  25.738  1.00  0.00     0.145 A 
ATOM      8  N   UNL A   1      32.946  27.922  23.834  1.00  0.00    -0.066 NA
ATOM      9  N   UNL A   1      32.821  29.216  24.106  1.00  0.00    -0.125 NA
BRANCH   6  10
ATOM     10  C   UNL A   1      32.145  25.842  24.860  1.00  0.00     0.218 C 
ATOM     11  N   UNL A   1      32.912  24.069  25.597  1.00  0.00    -0.323 N 
ATOM     12  C   UNL A   1      32.165  25.178  26.258  1.00  0.00     0.296 C 
ATOM     13  C   UNL A   1      33.499  25.093  24.689  1.00  0.00     0.296 C 
ATOM     14  H   UNL A   1      32.440  23.237  25.246  1.00  0.00     0.348 HD
BRANCH  11  15
ATOM     15  C   UNL A   1      33.923  23.477  26.477  1.00  0.00     0.363 C 
BRANCH  15  16
ATOM     16  C   UNL A   1      33.350  22.213  27.132  1.00  0.00     0.275 C 
ATOM     17  N   UNL A   1      33.205  21.066  26.394  1.00  0.00    -0.349 N 
ATOM     18  H   UNL A   1      32.747  20.320  26.846  1.00  0.00     0.163 HD
ATOM     19  O   UNL A   1      32.969  22.212  28.305  1.00  0.00    -0.268 OA
BRANCH  17  20
ATOM     20  C   UNL A   1      33.642  20.809  25.022  1.00  0.00     0.079 C 
ATOM     21  C   UNL A   1      35.095  20.336  25.002  1.00  0.00     0.031 C 
BRANCH  20  22
ATOM     22  C   UNL A   1      32.664  19.884  24.277  1.00  0.00     0.024 C 
BRANCH  22  23
ATOM     23  C   UNL A   1      33.040  18.409  24.120  1.00  0.00    -0.001 C 
ATOM     24  C   UNL A   1      32.642  17.784  22.796  1.00  0.00     0.004 C 
ENDBRANCH  22  23
ENDBRANCH  20  22
ENDBRANCH  17  20
ENDBRANCH  15  16
ENDBRANCH  11  15
ENDBRANCH   6  10
ENDBRANCH   1   5
BRANCH   3  25
ATOM     25  C   UNL A   1      33.314  30.637  27.711  1.00  0.00     0.118 C 
BRANCH  25  26
ATOM     26  C   UNL A   1      34.685  31.315  27.641  1.00  0.00     0.042 C 
BRANCH  26  27
ATOM     27  C   UNL A   1      34.666  32.736  28.188  1.00  0.00     0.118 C 
BRANCH  27  28
ATOM     28  N   UNL A   1      34.595  32.769  29.649  1.00  0.00    -0.352 N 
ATOM     29  C   UNL A   1      35.298  32.005  30.560  1.00  0.00     0.251 C 
ATOM     30  H   UNL A   1      33.964  33.420  30.033  1.00  0.00     0.163 HD
ATOM     31  O   UNL A   1      34.907  31.910  31.719  1.00  0.00    -0.269 OA
BRANCH  29  32
ATOM     32  C   UNL A   1      36.502  31.285  30.110  1.00  0.00     0.039 A 
ATOM     33  C   UNL A   1      37.698  31.968  29.895  1.00  0.00     0.014 A 
ATOM     34  C   UNL A   1      36.442  29.899  29.982  1.00  0.00     0.014 A 
ATOM     35  C   UNL A   1      38.856  31.232  29.664  1.00  0.00     0.010 A 
ATOM     36  C   UNL A   1      37.609  29.174  29.914  1.00  0.00     0.010 A 
ATOM     37  C   UNL A   1      38.821  29.827  29.720  1.00  0.00    -0.014 A 
BRANCH  37  38
ATOM     38  C   UNL A   1      40.072  29.067  29.690  1.00  0.00     0.031 A 
ATOM     39  C   UNL A   1      40.647  28.769  31.030  1.00  0.00     0.074 A 
ATOM     40  C   UNL A   1      40.632  28.529  28.585  1.00  0.00     0.049 A 
ATOM     41  N   UNL A   1      41.644  29.368  31.594  1.00  0.00    -0.248 NA
ATOM     42  C   UNL A   1      39.955  27.813  31.907  1.00  0.00     0.031 C 
ATOM     43  C   UNL A   1      40.057  28.434  27.237  1.00  0.00     0.029 A 
ATOM     44  N   UNL A   1      41.804  27.838  28.460  1.00  0.00    -0.354 N 
ATOM     45  C   UNL A   1      41.872  28.677  32.781  1.00  0.00     0.074 A 
ATOM     46  C   UNL A   1      40.690  27.892  33.021  1.00  0.00     0.031 C 
ATOM     47  C   UNL A   1      40.732  27.507  26.523  1.00  0.00     0.029 A 
ATOM     48  C   UNL A   1      41.905  27.116  27.278  1.00  0.00     0.049 A 
ATOM     49  H   UNL A   1      42.511  27.850  29.145  1.00  0.00     0.167 HD
ATOM     50  C   UNL A   1      43.130  28.584  33.296  1.00  0.00     0.034 A 
ATOM     51  C   UNL A   1      42.884  26.253  26.930  1.00  0.00     0.034 A 
ATOM     52  C   UNL A   1      44.042  29.440  32.581  1.00  0.00     0.049 A 
ATOM     53  C   UNL A   1      44.098  26.638  27.675  1.00  0.00     0.074 A 
ATOM     54  C   UNL A   1      44.332  30.781  32.501  1.00  0.00     0.029 A 
ATOM     55  N   UNL A   1      44.599  28.828  31.489  1.00  0.00    -0.354 N 
ATOM     56  N   UNL A   1      44.721  27.770  27.491  1.00  0.00    -0.248 NA
ATOM     57  C   UNL A   1      44.489  25.892  28.865  1.00  0.00     0.031 C 
ATOM     58  C   UNL A   1      44.938  30.977  31.223  1.00  0.00     0.029 A 
ATOM     59  C   UNL A   1      45.026  29.747  30.573  1.00  0.00     0.049 A 
ATOM     60  H   UNL A   1      44.682  27.854  31.380  1.00  0.00     0.167 HD
ATOM     61  C   UNL A   1      45.212  28.083  28.744  1.00  0.00     0.074 A 
ATOM     62  C   UNL A   1      45.222  26.826  29.478  1.00  0.00     0.031 C 
ATOM     63  C   UNL A   1      45.231  29.372  29.187  1.00  0.00     0.034 A 
BRANCH  50  64
ATOM     64  C   UNL A   1      43.691  27.421  34.092  1.00  0.00     0.023 A 
ATOM     65  C   UNL A   1      43.638  26.143  33.482  1.00  0.00     0.012 A 
ATOM     66  C   UNL A   1      43.970  27.453  35.476  1.00  0.00     0.148 A 
ATOM     67  C   UNL A   1      43.803  24.965  34.219  1.00  0.00     0.002 A 
ATOM     68  C   UNL A   1      44.209  26.281  36.189  1.00  0.00     0.091 A 
ATOM     69  F   UNL A   1      43.868  28.601  36.150  1.00  0.00    -0.205 F 
ATOM     70  C   UNL A   1      44.097  25.033  35.573  1.00  0.00     0.022 A 
BRANCH  68  71
ATOM     71  S   UNL A   1      44.632  26.311  37.935  1.00  0.00     0.127 S 
ATOM     72  O   UNL A   1      43.362  26.704  38.537  1.00  0.00    -0.237 OA
ATOM     73  O   UNL A   1      45.027  24.921  38.169  1.00  0.00    -0.237 OA
ATOM     74  O   UNL A   1      45.723  27.269  38.055  1.00  0.00    -0.744 OA
ENDBRANCH  68  71
ENDBRANCH  50  64
BRANCH  51  75
ATOM     75  C   UNL A   1      42.819  25.028  26.106  1.00  0.00     0.023 A 
ATOM     76  C   UNL A   1      43.803  24.795  25.126  1.00  0.00     0.012 A 
ATOM     77  C   UNL A   1      41.979  23.957  26.486  1.00  0.00     0.148 A 
ATOM     78  C   UNL A   1      43.986  23.519  24.582  1.00  0.00     0.002 A 
ATOM     79  C   UNL A   1      42.167  22.691  25.944  1.00  0.00     0.091 A 
ATOM     80  F   UNL A   1      41.065  24.164  27.444  1.00  0.00    -0.205 F 
ATOM     81  C   UNL A   1      43.180  22.465  25.002  1.00  0.00     0.022 A 
BRANCH  79  82
ATOM     82  S   UNL A   1      41.195  21.269  26.461  1.00  0.00     0.127 S 
ATOM     83  O   UNL A   1      41.470  21.223  27.897  1.00  0.00    -0.237 OA
ATOM     84  O   UNL A   1      39.841  21.687  26.108  1.00  0.00    -0.237 OA
ATOM     85  O   UNL A   1      41.722  20.135  25.711  1.00  0.00    -0.744 OA
ENDBRANCH  79  82
ENDBRANCH  51  75
BRANCH  63  86
ATOM     86  C   UNL A   1      45.268  30.468  28.164  1.00  0.00     0.023 A 
ATOM     87  C   UNL A   1      44.114  30.978  27.537  1.00  0.00     0.012 A 
ATOM     88  C   UNL A   1      46.512  31.066  27.896  1.00  0.00     0.148 A 
ATOM     89  C   UNL A   1      44.206  32.048  26.643  1.00  0.00     0.002 A 
ATOM     90  C   UNL A   1      46.593  32.159  27.045  1.00  0.00     0.091 A 
ATOM     91  F   UNL A   1      47.600  30.557  28.493  1.00  0.00    -0.205 F 
ATOM     92  C   UNL A   1      45.443  32.647  26.407  1.00  0.00     0.022 A 
BRANCH  90  93
ATOM     93  S   UNL A   1      48.138  33.035  26.799  1.00  0.00     0.127 S 
ATOM     94  O   UNL A   1      47.811  33.926  25.687  1.00  0.00    -0.237 OA
ATOM     95  O   UNL A   1      48.328  33.706  28.086  1.00  0.00    -0.237 OA
ATOM     96  O   UNL A   1      49.135  32.011  26.512  1.00  0.00    -0.744 OA
ENDBRANCH  90  93
ENDBRANCH  63  86
ENDBRANCH  37  38
ENDBRANCH  29  32
ENDBRANCH  27  28
ENDBRANCH  26  27
ENDBRANCH  25  26
ENDBRANCH   3  25
TORSDOF 19
ENDMDL
MODEL 2
REMARK VINA RESULT:     -11.0      1.796      2.313
REMARK SMILES CCC[C@H](C)NC(=O)C[NH+]1CC(n2cc(C(=O)NCCCNC(=O)c3ccc(-c4c5nc(c(-c6cccc(S(=O)(=O)[O-])c6F)c6ccc([nH]6)c(-c6cccc(S(=O)(=O)[O-])c6F)c6nc(c(-c7cccc(S(=O)(=O)[O-])c7F)c7ccc4[nH]7)C=C6)C=C5)cc3)nn2)C1
REMARK SMILES IDX 16 1 17 2 18 3 15 5 13 6 14 7 89 8 88 9 12 10 10 11 11 12
REMARK SMILES IDX 90 13 9 15 7 16 6 17 8 19 4 20 5 21 3 22 2 23 1 24 19 25
REMARK SMILES IDX 20 26 21 27 22 28 23 29 24 31 25 32 26 33 87 34 27 35 86 36
REMARK SMILES IDX 28 37 29 38 30 39 80 40 31 41 85 42 79 43 81 44 32 45 84 46
REMARK SMILES IDX 78 47 77 48 33 50 65 51 45 52 64 53 46 54 49 55 63 56 82 57
REMARK SMILES IDX 47 58 48 59 62 61 83 62 50 63 34 64 35 65 43 66 36 67 38 68
REMARK SMILES IDX 44 69 37 70 39 71 40 72 41 73 42 74 66 75 67 76 75 77 68 78
REMARK SMILES IDX 70 79 76 80 69 81 71 82 72 83 73 84 74 85 51 86 52 87 60 88
REMARK SMILES IDX 53 89 55 90 61 91 54 92 56 93 57 94 58 95 59 96
REMARK H PARENT 18 4 10 14 6 18 22 30 81 49 49 60
REMARK Flexibility Score: inf
ROOT
ATOM      1  C   UNL A   1      31.757  29.630  25.524  1.00  0.00     0.273 C 
ATOM      2  O   UNL A   1      30.980  30.194  24.770  1.00  0.00    -0.267 OA
ATOM      3  N   UNL A   1      32.485  30.405  26.408  1.00  0.00    -0.351 N 
ATOM      4  H   UNL A   1      32.498  31.368  26.203  1.00  0.00     0.163 HD
ENDROOT
BRANCH   1   5
ATOM      5  C   UNL A   1      31.902  28.178  25.550  1.00  0.00     0.170 A 
ATOM      6  N   UNL A   1      32.405  26.105  25.193  1.00  0.00    -0.237 N 
ATOM      7  C   UNL A   1      32.436  27.332  24.603  1.00  0.00     0.145 A 
ATOM      8  N   UNL A   1      31.827  26.152  26.398  1.00  0.00    -0.066 NA
ATOM      9  N   UNL A   1      31.474  27.414  26.616  1.00  0.00    -0.125 NA
BRANCH   6  10
ATOM     10  C   UNL A   1      33.013  24.960  24.610  1.00  0.00     0.218 C 
ATOM     11  N   UNL A   1      33.545  22.989  24.933  1.00  0.00    -0.323 N 
ATOM     12  C   UNL A   1      32.223  23.632  24.682  1.00  0.00     0.296 C 
ATOM     13  C   UNL A   1      33.949  24.244  25.626  1.00  0.00     0.296 C 
ATOM     14  H   UNL A   1      34.097  22.581  24.180  1.00  0.00     0.348 HD
BRANCH  11  15
ATOM     15  C   UNL A   1      33.448  21.861  25.863  1.00  0.00     0.363 C 
BRANCH  15  16
ATOM     16  C   UNL A   1      34.537  20.833  25.530  1.00  0.00     0.275 C 
ATOM     17  N   UNL A   1      34.187  19.548  25.199  1.00  0.00    -0.349 N 
ATOM     18  H   UNL A   1      34.933  18.915  25.086  1.00  0.00     0.163 HD
ATOM     19  O   UNL A   1      35.735  21.118  25.597  1.00  0.00    -0.268 OA
BRANCH  17  20
ATOM     20  C   UNL A   1      32.848  18.998  24.992  1.00  0.00     0.079 C 
ATOM     21  C   UNL A   1      32.505  18.967  23.502  1.00  0.00     0.031 C 
BRANCH  20  22
ATOM     22  C   UNL A   1      32.669  17.650  25.711  1.00  0.00     0.024 C 
BRANCH  22  23
ATOM     23  C   UNL A   1      33.044  16.372  24.959  1.00  0.00    -0.001 C 
ATOM     24  C   UNL A   1      32.514  15.089  25.572  1.00  0.00     0.004 C 
ENDBRANCH  22  23
ENDBRANCH  20  22
ENDBRANCH  17  20
ENDBRANCH  15  16
ENDBRANCH  11  15
ENDBRANCH   6  10
ENDBRANCH   1   5
BRANCH   3  25
ATOM     25  C   UNL A   1      33.235  30.020  27.592  1.00  0.00     0.118 C 
BRANCH  25  26
ATOM     26  C   UNL A   1      34.704  29.703  27.298  1.00  0.00     0.042 C 
BRANCH  26  27
ATOM     27  C   UNL A   1      35.623  30.889  27.558  1.00  0.00     0.118 C 
BRANCH  27  28
ATOM     28  N   UNL A   1      35.136  31.744  28.641  1.00  0.00    -0.352 N 
ATOM     29  C   UNL A   1      35.472  31.707  29.980  1.00  0.00     0.251 C 
ATOM     30  H   UNL A   1      34.485  32.435  28.382  1.00  0.00     0.163 HD
ATOM     31  O   UNL A   1      34.755  32.255  30.811  1.00  0.00    -0.269 OA
BRANCH  29  32
ATOM     32  C   UNL A   1      36.681  30.975  30.393  1.00  0.00     0.039 A 
ATOM     33  C   UNL A   1      36.629  29.605  30.646  1.00  0.00     0.014 A 
ATOM     34  C   UNL A   1      37.892  31.662  30.447  1.00  0.00     0.014 A 
ATOM     35  C   UNL A   1      37.822  28.915  30.839  1.00  0.00     0.010 A 
ATOM     36  C   UNL A   1      39.072  30.955  30.477  1.00  0.00     0.010 A 
ATOM     37  C   UNL A   1      39.052  29.584  30.707  1.00  0.00    -0.014 A 
BRANCH  37  38
ATOM     38  C   UNL A   1      40.299  28.817  30.698  1.00  0.00     0.031 A 
ATOM     39  C   UNL A   1      40.958  28.690  32.026  1.00  0.00     0.074 A 
ATOM     40  C   UNL A   1      40.789  28.137  29.638  1.00  0.00     0.049 A 
ATOM     41  N   UNL A   1      41.988  29.350  32.444  1.00  0.00    -0.248 NA
ATOM     42  C   UNL A   1      40.323  27.861  33.061  1.00  0.00     0.031 C 
ATOM     43  C   UNL A   1      40.130  27.872  28.353  1.00  0.00     0.029 A 
ATOM     44  N   UNL A   1      41.951  27.426  29.531  1.00  0.00    -0.354 N 
ATOM     45  C   UNL A   1      42.291  28.816  33.694  1.00  0.00     0.074 A 
ATOM     46  C   UNL A   1      41.127  28.078  34.107  1.00  0.00     0.031 C 
ATOM     47  C   UNL A   1      40.759  26.856  27.724  1.00  0.00     0.029 A 
ATOM     48  C   UNL A   1      41.978  26.557  28.448  1.00  0.00     0.049 A 
ATOM     49  H   UNL A   1      42.700  27.521  30.163  1.00  0.00     0.167 HD
ATOM     50  C   UNL A   1      43.579  28.781  34.137  1.00  0.00     0.034 A 
ATOM     51  C   UNL A   1      42.934  25.649  28.154  1.00  0.00     0.034 A 
ATOM     52  C   UNL A   1      44.444  29.530  33.262  1.00  0.00     0.049 A 
ATOM     53  C   UNL A   1      44.192  26.117  28.766  1.00  0.00     0.074 A 
ATOM     54  C   UNL A   1      44.727  30.848  32.991  1.00  0.00     0.029 A 
ATOM     55  N   UNL A   1      44.931  28.779  32.225  1.00  0.00    -0.354 N 
ATOM     56  N   UNL A   1      44.801  27.212  28.398  1.00  0.00    -0.248 NA
ATOM     57  C   UNL A   1      44.658  25.529  30.015  1.00  0.00     0.031 C 
ATOM     58  C   UNL A   1      45.251  30.872  31.663  1.00  0.00     0.029 A 
ATOM     59  C   UNL A   1      45.299  29.568  31.173  1.00  0.00     0.049 A 
ATOM     60  H   UNL A   1      45.007  27.798  32.239  1.00  0.00     0.167 HD
ATOM     61  C   UNL A   1      45.370  27.681  29.567  1.00  0.00     0.074 A 
ATOM     62  C   UNL A   1      45.427  26.528  30.455  1.00  0.00     0.031 C 
ATOM     63  C   UNL A   1      45.416  29.016  29.838  1.00  0.00     0.034 A 
BRANCH  50  64
ATOM     64  C   UNL A   1      44.190  27.726  35.040  1.00  0.00     0.023 A 
ATOM     65  C   UNL A   1      45.036  28.185  36.079  1.00  0.00     0.012 A 
ATOM     66  C   UNL A   1      44.236  26.345  34.747  1.00  0.00     0.148 A 
ATOM     67  C   UNL A   1      45.912  27.328  36.754  1.00  0.00     0.002 A 
ATOM     68  C   UNL A   1      45.054  25.483  35.474  1.00  0.00     0.091 A 
ATOM     69  F   UNL A   1      43.600  25.869  33.675  1.00  0.00    -0.205 F 
ATOM     70  C   UNL A   1      45.915  25.972  36.457  1.00  0.00     0.022 A 
BRANCH  68  71
ATOM     71  S   UNL A   1      45.072  23.714  35.159  1.00  0.00     0.127 S 
ATOM     72  O   UNL A   1      43.687  23.351  35.446  1.00  0.00    -0.237 OA
ATOM     73  O   UNL A   1      45.445  23.668  33.744  1.00  0.00    -0.237 OA
ATOM     74  O   UNL A   1      46.079  23.168  36.059  1.00  0.00    -0.744 OA
ENDBRANCH  68  71
ENDBRANCH  50  64
BRANCH  51  75
ATOM     75  C   UNL A   1      42.818  24.329  27.502  1.00  0.00     0.023 A 
ATOM     76  C   UNL A   1      41.558  23.707  27.406  1.00  0.00     0.012 A 
ATOM     77  C   UNL A   1      43.878  23.827  26.713  1.00  0.00     0.148 A 
ATOM     78  C   UNL A   1      41.342  22.656  26.508  1.00  0.00     0.002 A 
ATOM     79  C   UNL A   1      43.657  22.784  25.821  1.00  0.00     0.091 A 
ATOM     80  F   UNL A   1      45.069  24.437  26.773  1.00  0.00    -0.205 F 
ATOM     81  C   UNL A   1      42.385  22.205  25.705  1.00  0.00     0.022 A 
BRANCH  79  82
ATOM     82  S   UNL A   1      44.941  22.170  24.721  1.00  0.00     0.127 S 
ATOM     83  O   UNL A   1      45.156  23.317  23.839  1.00  0.00    -0.237 OA
ATOM     84  O   UNL A   1      46.032  21.901  25.655  1.00  0.00    -0.237 OA
ATOM     85  O   UNL A   1      44.371  21.002  24.061  1.00  0.00    -0.744 OA
ENDBRANCH  79  82
ENDBRANCH  51  75
BRANCH  63  86
ATOM     86  C   UNL A   1      45.387  29.970  28.680  1.00  0.00     0.023 A 
ATOM     87  C   UNL A   1      44.206  30.323  28.000  1.00  0.00     0.012 A 
ATOM     88  C   UNL A   1      46.593  30.603  28.330  1.00  0.00     0.148 A 
ATOM     89  C   UNL A   1      44.234  31.272  26.974  1.00  0.00     0.002 A 
ATOM     90  C   UNL A   1      46.609  31.579  27.344  1.00  0.00     0.091 A 
ATOM     91  F   UNL A   1      47.710  30.243  28.981  1.00  0.00    -0.205 F 
ATOM     92  C   UNL A   1      45.433  31.910  26.655  1.00  0.00     0.022 A 
BRANCH  90  93
ATOM     93  S   UNL A   1      48.098  32.508  26.977  1.00  0.00     0.127 S 
ATOM     94  O   UNL A   1      48.994  31.467  26.480  1.00  0.00    -0.237 OA
ATOM     95  O   UNL A   1      47.635  33.455  25.960  1.00  0.00    -0.237 OA
ATOM     96  O   UNL A   1      48.496  33.135  28.231  1.00  0.00    -0.744 OA
ENDBRANCH  90  93
ENDBRANCH  63  86
ENDBRANCH  37  38
ENDBRANCH  29  32
ENDBRANCH  27  28
ENDBRANCH  26  27
ENDBRANCH  25  26
ENDBRANCH   3  25
TORSDOF 19
ENDMDL
MODEL 3
REMARK VINA RESULT:     -10.9      3.000      4.780
REMARK SMILES CCC[C@H](C)NC(=O)C[NH+]1CC(n2cc(C(=O)NCCCNC(=O)c3ccc(-c4c5nc(c(-c6cccc(S(=O)(=O)[O-])c6F)c6ccc([nH]6)c(-c6cccc(S(=O)(=O)[O-])c6F)c6nc(c(-c7cccc(S(=O)(=O)[O-])c7F)c7ccc4[nH]7)C=C6)C=C5)cc3)nn2)C1
REMARK SMILES IDX 16 1 17 2 18 3 15 5 13 6 14 7 89 8 88 9 12 10 10 11 11 12
REMARK SMILES IDX 90 13 9 15 7 16 6 17 8 19 4 20 5 21 3 22 2 23 1 24 19 25
REMARK SMILES IDX 20 26 21 27 22 28 23 29 24 31 25 32 26 33 87 34 27 35 86 36
REMARK SMILES IDX 28 37 29 38 30 39 80 40 31 41 85 42 79 43 81 44 32 45 84 46
REMARK SMILES IDX 78 47 77 48 33 50 65 51 45 52 64 53 46 54 49 55 63 56 82 57
REMARK SMILES IDX 47 58 48 59 62 61 83 62 50 63 34 64 35 65 43 66 36 67 38 68
REMARK SMILES IDX 44 69 37 70 39 71 40 72 41 73 42 74 66 75 67 76 75 77 68 78
REMARK SMILES IDX 70 79 76 80 69 81 71 82 72 83 73 84 74 85 51 86 52 87 60 88
REMARK SMILES IDX 53 89 55 90 61 91 54 92 56 93 57 94 58 95 59 96
REMARK H PARENT 18 4 10 14 6 18 22 30 81 49 49 60
REMARK Flexibility Score: inf
ROOT
ATOM      1  C   UNL A   1      33.272  35.634  32.636  1.00  0.00     0.273 C 
ATOM      2  O   UNL A   1      32.783  36.565  33.258  1.00  0.00    -0.267 OA
ATOM      3  N   UNL A   1      33.887  34.624  33.353  1.00  0.00    -0.351 N 
ATOM      4  H   UNL A   1      34.092  34.845  34.290  1.00  0.00     0.163 HD
ENDROOT
BRANCH   1   5
ATOM      5  C   UNL A   1      33.185  35.538  31.183  1.00  0.00     0.170 A 
ATOM      6  N   UNL A   1      33.240  34.940  29.105  1.00  0.00    -0.237 N 
ATOM      7  C   UNL A   1      33.714  34.591  30.332  1.00  0.00     0.145 A 
ATOM      8  N   UNL A   1      32.522  36.067  29.156  1.00  0.00    -0.066 NA
ATOM      9  N   UNL A   1      32.513  36.471  30.421  1.00  0.00    -0.125 NA
BRANCH   6  10
ATOM     10  C   UNL A   1      33.423  34.126  27.955  1.00  0.00     0.218 C 
ATOM     11  N   UNL A   1      33.379  32.186  27.242  1.00  0.00    -0.323 N 
ATOM     12  C   UNL A   1      32.287  33.135  27.607  1.00  0.00     0.296 C 
ATOM     13  C   UNL A   1      34.201  32.824  28.307  1.00  0.00     0.296 C 
ATOM     14  H   UNL A   1      33.710  32.091  26.283  1.00  0.00     0.348 HD
BRANCH  11  15
ATOM     15  C   UNL A   1      33.043  30.798  27.570  1.00  0.00     0.363 C 
BRANCH  15  16
ATOM     16  C   UNL A   1      34.117  29.866  26.993  1.00  0.00     0.275 C 
ATOM     17  N   UNL A   1      33.896  29.223  25.801  1.00  0.00    -0.349 N 
ATOM     18  H   UNL A   1      34.583  28.570  25.532  1.00  0.00     0.163 HD
ATOM     19  O   UNL A   1      35.167  29.639  27.599  1.00  0.00    -0.268 OA
BRANCH  17  20
ATOM     20  C   UNL A   1      32.772  29.382  24.880  1.00  0.00     0.079 C 
ATOM     21  C   UNL A   1      33.101  28.766  23.520  1.00  0.00     0.031 C 
BRANCH  20  22
ATOM     22  C   UNL A   1      31.454  28.885  25.498  1.00  0.00     0.024 C 
BRANCH  22  23
ATOM     23  C   UNL A   1      31.441  27.506  26.161  1.00  0.00    -0.001 C 
ATOM     24  C   UNL A   1      30.866  26.390  25.307  1.00  0.00     0.004 C 
ENDBRANCH  22  23
ENDBRANCH  20  22
ENDBRANCH  17  20
ENDBRANCH  15  16
ENDBRANCH  11  15
ENDBRANCH   6  10
ENDBRANCH   1   5
BRANCH   3  25
ATOM     25  C   UNL A   1      34.277  33.287  32.938  1.00  0.00     0.118 C 
BRANCH  25  26
ATOM     26  C   UNL A   1      35.643  32.862  33.484  1.00  0.00     0.042 C 
BRANCH  26  27
ATOM     27  C   UNL A   1      36.673  32.646  32.385  1.00  0.00     0.118 C 
BRANCH  27  28
ATOM     28  N   UNL A   1      36.400  33.457  31.198  1.00  0.00    -0.352 N 
ATOM     29  C   UNL A   1      37.187  33.630  30.077  1.00  0.00     0.251 C 
ATOM     30  H   UNL A   1      35.543  33.943  31.199  1.00  0.00     0.163 HD
ATOM     31  O   UNL A   1      36.988  34.577  29.323  1.00  0.00    -0.269 OA
BRANCH  29  32
ATOM     32  C   UNL A   1      38.285  32.682  29.822  1.00  0.00     0.039 A 
ATOM     33  C   UNL A   1      39.599  33.015  30.148  1.00  0.00     0.014 A 
ATOM     34  C   UNL A   1      37.974  31.418  29.326  1.00  0.00     0.014 A 
ATOM     35  C   UNL A   1      40.576  32.026  30.078  1.00  0.00     0.010 A 
ATOM     36  C   UNL A   1      38.905  30.408  29.413  1.00  0.00     0.010 A 
ATOM     37  C   UNL A   1      40.219  30.705  29.754  1.00  0.00    -0.014 A 
BRANCH  37  38
ATOM     38  C   UNL A   1      41.206  29.632  29.890  1.00  0.00     0.031 A 
ATOM     39  C   UNL A   1      41.530  29.263  31.295  1.00  0.00     0.074 A 
ATOM     40  C   UNL A   1      41.709  28.900  28.872  1.00  0.00     0.049 A 
ATOM     41  N   UNL A   1      42.588  29.598  31.957  1.00  0.00    -0.248 NA
ATOM     42  C   UNL A   1      40.510  28.584  32.108  1.00  0.00     0.031 C 
ATOM     43  C   UNL A   1      41.276  28.890  27.469  1.00  0.00     0.029 A 
ATOM     44  N   UNL A   1      42.649  27.909  28.903  1.00  0.00    -0.354 N 
ATOM     45  C   UNL A   1      42.488  28.939  33.180  1.00  0.00     0.074 A 
ATOM     46  C   UNL A   1      41.115  28.522  33.298  1.00  0.00     0.031 C 
ATOM     47  C   UNL A   1      41.739  27.776  26.862  1.00  0.00     0.029 A 
ATOM     48  C   UNL A   1      42.671  27.122  27.758  1.00  0.00     0.049 A 
ATOM     49  H   UNL A   1      43.254  27.766  29.666  1.00  0.00     0.167 HD
ATOM     50  C   UNL A   1      43.608  28.535  33.841  1.00  0.00     0.034 A 
ATOM     51  C   UNL A   1      43.403  26.007  27.550  1.00  0.00     0.034 A 
ATOM     52  C   UNL A   1      44.793  29.068  33.218  1.00  0.00     0.049 A 
ATOM     53  C   UNL A   1      44.590  26.086  28.423  1.00  0.00     0.074 A 
ATOM     54  C   UNL A   1      45.450  30.272  33.140  1.00  0.00     0.029 A 
ATOM     55  N   UNL A   1      45.271  28.267  32.215  1.00  0.00    -0.354 N 
ATOM     56  N   UNL A   1      45.518  26.993  28.285  1.00  0.00    -0.248 NA
ATOM     57  C   UNL A   1      44.629  25.331  29.669  1.00  0.00     0.031 C 
ATOM     58  C   UNL A   1      46.219  30.223  31.938  1.00  0.00     0.029 A 
ATOM     59  C   UNL A   1      46.031  28.981  31.332  1.00  0.00     0.049 A 
ATOM     60  H   UNL A   1      45.091  27.303  32.140  1.00  0.00     0.167 HD
ATOM     61  C   UNL A   1      45.941  27.231  29.580  1.00  0.00     0.074 A 
ATOM     62  C   UNL A   1      45.523  26.061  30.340  1.00  0.00     0.031 C 
ATOM     63  C   UNL A   1      46.269  28.488  29.990  1.00  0.00     0.034 A 
BRANCH  50  64
ATOM     64  C   UNL A   1      43.737  27.309  34.726  1.00  0.00     0.023 A 
ATOM     65  C   UNL A   1      44.194  27.521  36.049  1.00  0.00     0.012 A 
ATOM     66  C   UNL A   1      43.738  25.976  34.258  1.00  0.00     0.148 A 
ATOM     67  C   UNL A   1      44.671  26.472  36.844  1.00  0.00     0.002 A 
ATOM     68  C   UNL A   1      44.142  24.927  35.080  1.00  0.00     0.091 A 
ATOM     69  F   UNL A   1      43.486  25.720  32.973  1.00  0.00    -0.205 F 
ATOM     70  C   UNL A   1      44.637  25.171  36.362  1.00  0.00     0.022 A 
BRANCH  68  71
ATOM     71  S   UNL A   1      44.085  23.219  34.523  1.00  0.00     0.127 S 
ATOM     72  O   UNL A   1      44.650  22.517  35.671  1.00  0.00    -0.237 OA
ATOM     73  O   UNL A   1      42.648  23.021  34.319  1.00  0.00    -0.237 OA
ATOM     74  O   UNL A   1      44.871  23.183  33.297  1.00  0.00    -0.744 OA
ENDBRANCH  68  71
ENDBRANCH  50  64
BRANCH  51  75
ATOM     75  C   UNL A   1      43.088  24.802  26.754  1.00  0.00     0.023 A 
ATOM     76  C   UNL A   1      44.070  24.249  25.909  1.00  0.00     0.012 A 
ATOM     77  C   UNL A   1      41.944  24.029  27.053  1.00  0.00     0.148 A 
ATOM     78  C   UNL A   1      43.946  22.943  25.424  1.00  0.00     0.002 A 
ATOM     79  C   UNL A   1      41.827  22.731  26.569  1.00  0.00     0.091 A 
ATOM     80  F   UNL A   1      41.024  24.536  27.885  1.00  0.00    -0.205 F 
ATOM     81  C   UNL A   1      42.835  22.179  25.766  1.00  0.00     0.022 A 
BRANCH  79  82
ATOM     82  S   UNL A   1      40.443  21.666  26.997  1.00  0.00     0.127 S 
ATOM     83  O   UNL A   1      40.778  21.270  28.365  1.00  0.00    -0.237 OA
ATOM     84  O   UNL A   1      39.312  22.584  26.884  1.00  0.00    -0.237 OA
ATOM     85  O   UNL A   1      40.470  20.574  26.030  1.00  0.00    -0.744 OA
ENDBRANCH  79  82
ENDBRANCH  51  75
BRANCH  63  86
ATOM     86  C   UNL A   1      46.718  29.473  28.952  1.00  0.00     0.023 A 
ATOM     87  C   UNL A   1      48.015  29.480  28.405  1.00  0.00     0.012 A 
ATOM     88  C   UNL A   1      45.758  30.367  28.446  1.00  0.00     0.148 A 
ATOM     89  C   UNL A   1      48.352  30.379  27.388  1.00  0.00     0.002 A 
ATOM     90  C   UNL A   1      46.082  31.224  27.405  1.00  0.00     0.091 A 
ATOM     91  F   UNL A   1      44.531  30.353  28.990  1.00  0.00    -0.205 F 
ATOM     92  C   UNL A   1      47.382  31.242  26.879  1.00  0.00     0.022 A 
BRANCH  90  93
ATOM     93  S   UNL A   1      44.842  32.270  26.638  1.00  0.00     0.127 S 
ATOM     94  O   UNL A   1      45.614  32.951  25.601  1.00  0.00    -0.237 OA
ATOM     95  O   UNL A   1      43.872  31.294  26.139  1.00  0.00    -0.237 OA
ATOM     96  O   UNL A   1      44.328  33.124  27.702  1.00  0.00    -0.744 OA
ENDBRANCH  90  93
ENDBRANCH  63  86
ENDBRANCH  37  38
ENDBRANCH  29  32
ENDBRANCH  27  28
ENDBRANCH  26  27
ENDBRANCH  25  26
ENDBRANCH   3  25
TORSDOF 19
ENDMDL
