MODEL 1
REMARK VINA RESULT:     -13.6      0.000      0.000
REMARK SMILES CC1(C)S[C@H](c2ccc(-c3cccc([N+](=O)[O-])c3)o2)[NH2+][C@@H]1C(=O)NCCCNC(=O)c1ccc(-c2c3nc(c(-c4cccc(S(=O)(=O)[O-])c4F)c4ccc([nH]4)c(-c4cccc(S(=O)(=O)[O-])c4F)c4nc(c(-c5cccc(S(=O)(=O)[O-])c5F)c5ccc2[nH]5)C=C4)C=C3)cc1
REMARK SMILES IDX 26 1 25 2 24 3 22 4 23 5 21 7 1 8 2 9 3 10 4 11 5 12 20 13
REMARK SMILES IDX 6 16 7 17 19 18 8 19 9 20 10 21 11 22 18 23 12 24 14 25
REMARK SMILES IDX 13 26 15 27 16 28 17 29 27 30 28 31 29 32 30 34 31 35 32 36
REMARK SMILES IDX 93 37 33 38 92 39 34 40 35 41 36 42 86 43 37 44 91 45 85 46
REMARK SMILES IDX 87 47 38 48 90 49 84 50 83 51 39 53 71 54 51 55 70 56 52 57
REMARK SMILES IDX 55 58 69 59 88 60 53 61 54 62 68 64 89 65 56 66 40 67 41 68
REMARK SMILES IDX 49 69 42 70 44 71 50 72 43 73 45 74 46 75 47 76 48 77 72 78
REMARK SMILES IDX 73 79 81 80 74 81 76 82 82 83 75 84 77 85 78 86 79 87 80 88
REMARK SMILES IDX 57 89 58 90 66 91 59 92 61 93 67 94 60 95 62 96 63 97 64 98
REMARK SMILES IDX 65 99
REMARK H PARENT 24 6 20 14 20 15 28 33 87 52 55 63
REMARK Flexibility Score: inf
ROOT
ATOM      1  C   UNL A   1      31.553  28.969  27.236  1.00  0.00     0.042 C 
ENDROOT
BRANCH   1   2
ATOM      2  C   UNL A   1      32.126  27.581  27.441  1.00  0.00     0.118 C 
BRANCH   2   3
ATOM      3  N   UNL A   1      31.389  26.531  26.761  1.00  0.00    -0.351 N 
ATOM      4  C   UNL A   1      31.772  25.869  25.619  1.00  0.00     0.279 C 
ATOM      5  O   UNL A   1      31.112  24.884  25.287  1.00  0.00    -0.268 OA
ATOM      6  H   UNL A   1      30.528  26.267  27.158  1.00  0.00     0.163 HD
BRANCH   4   7
ATOM      7  C   UNL A   1      32.922  26.475  24.773  1.00  0.00     0.289 C 
ATOM      8  C   UNL A   1      33.653  27.643  22.652  1.00  0.00     0.030 C 
ATOM      9  C   UNL A   1      32.781  26.507  23.232  1.00  0.00     0.078 C 
ATOM     10  C   UNL A   1      31.370  26.656  22.662  1.00  0.00     0.030 C 
ATOM     11  S   UNL A   1      33.495  24.914  22.696  1.00  0.00    -0.078 SA
ATOM     12  C   UNL A   1      34.384  24.640  24.243  1.00  0.00     0.311 C 
ATOM     13  N   UNL A   1      34.226  25.818  25.099  1.00  0.00    -0.317 N 
ATOM     14  H   UNL A   1      34.992  26.471  24.930  1.00  0.00     0.348 HD
ATOM     15  H   UNL A   1      34.240  25.539  26.080  1.00  0.00     0.348 HD
BRANCH  12  16
ATOM     16  C   UNL A   1      34.051  23.323  24.875  1.00  0.00     0.172 A 
ATOM     17  C   UNL A   1      33.768  23.001  26.191  1.00  0.00     0.054 A 
ATOM     18  O   UNL A   1      33.945  22.193  24.102  1.00  0.00    -0.454 OA
ATOM     19  C   UNL A   1      33.452  21.626  26.219  1.00  0.00     0.051 A 
ATOM     20  C   UNL A   1      33.568  21.167  24.924  1.00  0.00     0.134 A 
BRANCH  20  21
ATOM     21  C   UNL A   1      33.318  19.872  24.306  1.00  0.00     0.024 A 
ATOM     22  C   UNL A   1      32.505  19.739  23.172  1.00  0.00     0.012 A 
ATOM     23  C   UNL A   1      33.915  18.723  24.849  1.00  0.00     0.097 A 
ATOM     24  C   UNL A   1      32.285  18.483  22.590  1.00  0.00     0.008 A 
ATOM     25  C   UNL A   1      33.682  17.466  24.271  1.00  0.00     0.270 A 
ATOM     26  C   UNL A   1      32.868  17.340  23.140  1.00  0.00     0.085 A 
BRANCH  25  27
ATOM     27  N   UNL A   1      34.283  16.272  24.878  1.00  0.00     0.062 N 
ATOM     28  O   UNL A   1      33.557  15.278  25.035  1.00  0.00    -0.258 OA
ATOM     29  O   UNL A   1      35.495  16.306  25.140  1.00  0.00    -0.258 OA
ENDBRANCH  25  27
ENDBRANCH  20  21
ENDBRANCH  12  16
ENDBRANCH   4   7
ENDBRANCH   2   3
ENDBRANCH   1   2
BRANCH   1  30
ATOM     30  C   UNL A   1      32.438  29.918  26.443  1.00  0.00     0.118 C 
BRANCH  30  31
ATOM     31  N   UNL A   1      32.374  31.304  26.879  1.00  0.00    -0.352 N 
ATOM     32  C   UNL A   1      33.334  32.074  27.502  1.00  0.00     0.251 C 
ATOM     33  H   UNL A   1      31.519  31.760  26.705  1.00  0.00     0.163 HD
ATOM     34  O   UNL A   1      33.064  33.205  27.873  1.00  0.00    -0.269 OA
BRANCH  32  35
ATOM     35  C   UNL A   1      34.681  31.510  27.761  1.00  0.00     0.039 A 
ATOM     36  C   UNL A   1      35.732  32.401  27.992  1.00  0.00     0.014 A 
ATOM     37  C   UNL A   1      34.895  30.136  27.866  1.00  0.00     0.014 A 
ATOM     38  C   UNL A   1      36.945  31.920  28.482  1.00  0.00     0.010 A 
ATOM     39  C   UNL A   1      36.062  29.668  28.457  1.00  0.00     0.010 A 
ATOM     40  C   UNL A   1      37.085  30.560  28.804  1.00  0.00    -0.014 A 
BRANCH  40  41
ATOM     41  C   UNL A   1      38.243  30.083  29.600  1.00  0.00     0.031 A 
ATOM     42  C   UNL A   1      38.459  30.557  31.008  1.00  0.00     0.074 A 
ATOM     43  C   UNL A   1      39.162  29.298  28.997  1.00  0.00     0.049 A 
ATOM     44  N   UNL A   1      39.429  30.260  31.832  1.00  0.00    -0.248 NA
ATOM     45  C   UNL A   1      37.481  31.513  31.551  1.00  0.00     0.031 C 
ATOM     46  C   UNL A   1      39.121  28.870  27.594  1.00  0.00     0.029 A 
ATOM     47  N   UNL A   1      40.317  28.734  29.475  1.00  0.00    -0.354 N 
ATOM     48  C   UNL A   1      39.196  31.012  32.977  1.00  0.00     0.074 A 
ATOM     49  C   UNL A   1      38.019  31.814  32.724  1.00  0.00     0.031 C 
ATOM     50  C   UNL A   1      40.181  28.091  27.336  1.00  0.00     0.029 A 
ATOM     51  C   UNL A   1      40.995  27.984  28.541  1.00  0.00     0.049 A 
ATOM     52  H   UNL A   1      40.633  28.853  30.400  1.00  0.00     0.167 HD
ATOM     53  C   UNL A   1      39.880  31.007  34.146  1.00  0.00     0.034 A 
ATOM     54  C   UNL A   1      42.140  27.282  28.644  1.00  0.00     0.034 A 
ATOM     55  C   UNL A   1      41.022  30.173  34.401  1.00  0.00     0.049 A 
ATOM     56  C   UNL A   1      42.838  27.236  29.975  1.00  0.00     0.074 A 
ATOM     57  C   UNL A   1      41.733  30.023  35.578  1.00  0.00     0.029 A 
ATOM     58  N   UNL A   1      41.622  29.346  33.463  1.00  0.00    -0.354 N 
ATOM     59  N   UNL A   1      42.501  27.818  31.101  1.00  0.00    -0.248 NA
ATOM     60  C   UNL A   1      44.047  26.407  30.065  1.00  0.00     0.031 C 
ATOM     61  C   UNL A   1      42.773  29.116  35.347  1.00  0.00     0.029 A 
ATOM     62  C   UNL A   1      42.696  28.686  34.031  1.00  0.00     0.049 A 
ATOM     63  H   UNL A   1      41.326  29.245  32.529  1.00  0.00     0.167 HD
ATOM     64  C   UNL A   1      43.437  27.402  32.040  1.00  0.00     0.074 A 
ATOM     65  C   UNL A   1      44.340  26.498  31.355  1.00  0.00     0.031 C 
ATOM     66  C   UNL A   1      43.551  27.750  33.346  1.00  0.00     0.034 A 
BRANCH  53  67
ATOM     67  C   UNL A   1      39.364  31.884  35.258  1.00  0.00     0.023 A 
ATOM     68  C   UNL A   1      38.406  31.368  36.157  1.00  0.00     0.012 A 
ATOM     69  C   UNL A   1      39.849  33.192  35.444  1.00  0.00     0.148 A 
ATOM     70  C   UNL A   1      37.912  32.151  37.199  1.00  0.00     0.002 A 
ATOM     71  C   UNL A   1      39.383  33.953  36.512  1.00  0.00     0.091 A 
ATOM     72  F   UNL A   1      40.742  33.675  34.568  1.00  0.00    -0.205 F 
ATOM     73  C   UNL A   1      38.407  33.439  37.381  1.00  0.00     0.022 A 
BRANCH  71  74
ATOM     74  S   UNL A   1      40.010  35.596  36.877  1.00  0.00     0.127 S 
ATOM     75  O   UNL A   1      39.329  35.899  38.134  1.00  0.00    -0.237 OA
ATOM     76  O   UNL A   1      41.447  35.356  37.006  1.00  0.00    -0.237 OA
ATOM     77  O   UNL A   1      39.634  36.430  35.745  1.00  0.00    -0.744 OA
ENDBRANCH  71  74
ENDBRANCH  53  67
BRANCH  54  78
ATOM     78  C   UNL A   1      42.640  26.492  27.483  1.00  0.00     0.023 A 
ATOM     79  C   UNL A   1      43.527  27.096  26.570  1.00  0.00     0.012 A 
ATOM     80  C   UNL A   1      42.279  25.143  27.296  1.00  0.00     0.148 A 
ATOM     81  C   UNL A   1      44.020  26.384  25.476  1.00  0.00     0.002 A 
ATOM     82  C   UNL A   1      42.816  24.423  26.234  1.00  0.00     0.091 A 
ATOM     83  F   UNL A   1      41.427  24.587  28.168  1.00  0.00    -0.205 F 
ATOM     84  C   UNL A   1      43.673  25.046  25.313  1.00  0.00     0.022 A 
BRANCH  82  85
ATOM     85  S   UNL A   1      42.529  22.661  26.024  1.00  0.00     0.127 S 
ATOM     86  O   UNL A   1      43.149  22.409  24.728  1.00  0.00    -0.237 OA
ATOM     87  O   UNL A   1      43.244  22.098  27.170  1.00  0.00    -0.237 OA
ATOM     88  O   UNL A   1      41.083  22.492  26.082  1.00  0.00    -0.744 OA
ENDBRANCH  82  85
ENDBRANCH  54  78
BRANCH  66  89
ATOM     89  C   UNL A   1      44.677  27.132  34.131  1.00  0.00     0.023 A 
ATOM     90  C   UNL A   1      45.942  27.750  34.139  1.00  0.00     0.012 A 
ATOM     91  C   UNL A   1      44.459  25.984  34.918  1.00  0.00     0.148 A 
ATOM     92  C   UNL A   1      46.984  27.217  34.897  1.00  0.00     0.002 A 
ATOM     93  C   UNL A   1      45.488  25.488  35.707  1.00  0.00     0.091 A 
ATOM     94  F   UNL A   1      43.252  25.400  34.878  1.00  0.00    -0.205 F 
ATOM     95  C   UNL A   1      46.754  26.095  35.689  1.00  0.00     0.022 A 
BRANCH  93  96
ATOM     96  S   UNL A   1      45.253  24.107  36.831  1.00  0.00     0.127 S 
ATOM     97  O   UNL A   1      46.603  23.919  37.359  1.00  0.00    -0.237 OA
ATOM     98  O   UNL A   1      44.292  24.647  37.793  1.00  0.00    -0.237 OA
ATOM     99  O   UNL A   1      44.740  23.012  36.018  1.00  0.00    -0.744 OA
ENDBRANCH  93  96
ENDBRANCH  66  89
ENDBRANCH  40  41
ENDBRANCH  32  35
ENDBRANCH  30  31
ENDBRANCH   1  30
TORSDOF 16
ENDMDL
MODEL 2
REMARK VINA RESULT:     -13.2      2.157      2.874
REMARK SMILES CC1(C)S[C@H](c2ccc(-c3cccc([N+](=O)[O-])c3)o2)[NH2+][C@@H]1C(=O)NCCCNC(=O)c1ccc(-c2c3nc(c(-c4cccc(S(=O)(=O)[O-])c4F)c4ccc([nH]4)c(-c4cccc(S(=O)(=O)[O-])c4F)c4nc(c(-c5cccc(S(=O)(=O)[O-])c5F)c5ccc2[nH]5)C=C4)C=C3)cc1
REMARK SMILES IDX 26 1 25 2 24 3 22 4 23 5 21 7 1 8 2 9 3 10 4 11 5 12 20 13
REMARK SMILES IDX 6 16 7 17 19 18 8 19 9 20 10 21 11 22 18 23 12 24 14 25
REMARK SMILES IDX 13 26 15 27 16 28 17 29 27 30 28 31 29 32 30 34 31 35 32 36
REMARK SMILES IDX 93 37 33 38 92 39 34 40 35 41 36 42 86 43 37 44 91 45 85 46
REMARK SMILES IDX 87 47 38 48 90 49 84 50 83 51 39 53 71 54 51 55 70 56 52 57
REMARK SMILES IDX 55 58 69 59 88 60 53 61 54 62 68 64 89 65 56 66 40 67 41 68
REMARK SMILES IDX 49 69 42 70 44 71 50 72 43 73 45 74 46 75 47 76 48 77 72 78
REMARK SMILES IDX 73 79 81 80 74 81 76 82 82 83 75 84 77 85 78 86 79 87 80 88
REMARK SMILES IDX 57 89 58 90 66 91 59 92 61 93 67 94 60 95 62 96 63 97 64 98
REMARK SMILES IDX 65 99
REMARK H PARENT 24 6 20 14 20 15 28 33 87 52 55 63
REMARK Flexibility Score: inf
ROOT
ATOM      1  C   UNL A   1      33.099  28.865  27.459  1.00  0.00     0.042 C 
ENDROOT
BRANCH   1   2
ATOM      2  C   UNL A   1      31.634  28.533  27.258  1.00  0.00     0.118 C 
BRANCH   2   3
ATOM      3  N   UNL A   1      31.354  27.110  27.199  1.00  0.00    -0.351 N 
ATOM      4  C   UNL A   1      31.523  26.286  26.112  1.00  0.00     0.279 C 
ATOM      5  O   UNL A   1      31.409  25.075  26.297  1.00  0.00    -0.268 OA
ATOM      6  H   UNL A   1      31.008  26.693  28.021  1.00  0.00     0.163 HD
BRANCH   4   7
ATOM      7  C   UNL A   1      31.725  26.942  24.722  1.00  0.00     0.289 C 
ATOM      8  C   UNL A   1      30.783  27.487  22.438  1.00  0.00     0.030 C 
ATOM      9  C   UNL A   1      30.940  26.385  23.510  1.00  0.00     0.078 C 
ATOM     10  C   UNL A   1      29.557  25.793  23.786  1.00  0.00     0.030 C 
ATOM     11  S   UNL A   1      32.038  25.091  22.836  1.00  0.00    -0.078 SA
ATOM     12  C   UNL A   1      33.510  25.720  23.672  1.00  0.00     0.311 C 
ATOM     13  N   UNL A   1      33.174  26.972  24.352  1.00  0.00    -0.317 N 
ATOM     14  H   UNL A   1      33.354  27.761  23.729  1.00  0.00     0.348 HD
ATOM     15  H   UNL A   1      33.746  27.076  25.191  1.00  0.00     0.348 HD
BRANCH  12  16
ATOM     16  C   UNL A   1      34.185  24.679  24.512  1.00  0.00     0.172 A 
ATOM     17  C   UNL A   1      34.804  24.780  25.745  1.00  0.00     0.054 A 
ATOM     18  O   UNL A   1      34.216  23.370  24.099  1.00  0.00    -0.454 OA
ATOM     19  C   UNL A   1      35.206  23.478  26.113  1.00  0.00     0.051 A 
ATOM     20  C   UNL A   1      34.826  22.643  25.083  1.00  0.00     0.134 A 
BRANCH  20  21
ATOM     21  C   UNL A   1      34.906  21.200  24.898  1.00  0.00     0.024 A 
ATOM     22  C   UNL A   1      36.124  20.510  24.983  1.00  0.00     0.012 A 
ATOM     23  C   UNL A   1      33.734  20.472  24.640  1.00  0.00     0.097 A 
ATOM     24  C   UNL A   1      36.176  19.121  24.808  1.00  0.00     0.008 A 
ATOM     25  C   UNL A   1      33.792  19.084  24.453  1.00  0.00     0.270 A 
ATOM     26  C   UNL A   1      35.011  18.402  24.538  1.00  0.00     0.085 A 
BRANCH  25  27
ATOM     27  N   UNL A   1      32.561  18.346  24.143  1.00  0.00     0.062 N 
ATOM     28  O   UNL A   1      32.265  18.193  22.949  1.00  0.00    -0.258 OA
ATOM     29  O   UNL A   1      31.923  17.866  25.094  1.00  0.00    -0.258 OA
ENDBRANCH  25  27
ENDBRANCH  20  21
ENDBRANCH  12  16
ENDBRANCH   4   7
ENDBRANCH   2   3
ENDBRANCH   1   2
BRANCH   1  30
ATOM     30  C   UNL A   1      33.583  30.105  26.725  1.00  0.00     0.118 C 
BRANCH  30  31
ATOM     31  N   UNL A   1      33.765  31.273  27.573  1.00  0.00    -0.352 N 
ATOM     32  C   UNL A   1      34.773  31.557  28.471  1.00  0.00     0.251 C 
ATOM     33  H   UNL A   1      33.066  31.961  27.495  1.00  0.00     0.163 HD
ATOM     34  O   UNL A   1      34.709  32.561  29.163  1.00  0.00    -0.269 OA
BRANCH  32  35
ATOM     35  C   UNL A   1      35.911  30.619  28.629  1.00  0.00     0.039 A 
ATOM     36  C   UNL A   1      36.995  30.752  27.759  1.00  0.00     0.014 A 
ATOM     37  C   UNL A   1      35.955  29.686  29.665  1.00  0.00     0.014 A 
ATOM     38  C   UNL A   1      38.179  30.065  28.028  1.00  0.00     0.010 A 
ATOM     39  C   UNL A   1      37.165  29.089  29.996  1.00  0.00     0.010 A 
ATOM     40  C   UNL A   1      38.299  29.302  29.201  1.00  0.00    -0.014 A 
BRANCH  40  41
ATOM     41  C   UNL A   1      39.625  28.817  29.659  1.00  0.00     0.031 A 
ATOM     42  C   UNL A   1      40.368  29.523  30.755  1.00  0.00     0.074 A 
ATOM     43  C   UNL A   1      40.202  27.791  28.997  1.00  0.00     0.049 A 
ATOM     44  N   UNL A   1      41.543  29.248  31.258  1.00  0.00    -0.248 NA
ATOM     45  C   UNL A   1      39.728  30.712  31.341  1.00  0.00     0.031 C 
ATOM     46  C   UNL A   1      39.626  27.102  27.835  1.00  0.00     0.029 A 
ATOM     47  N   UNL A   1      41.403  27.158  29.187  1.00  0.00    -0.354 N 
ATOM     48  C   UNL A   1      41.796  30.241  32.195  1.00  0.00     0.074 A 
ATOM     49  C   UNL A   1      40.672  31.152  32.159  1.00  0.00     0.031 C 
ATOM     50  C   UNL A   1      40.459  26.128  27.439  1.00  0.00     0.029 A 
ATOM     51  C   UNL A   1      41.640  26.138  28.294  1.00  0.00     0.049 A 
ATOM     52  H   UNL A   1      42.038  27.408  29.897  1.00  0.00     0.167 HD
ATOM     53  C   UNL A   1      42.850  30.363  33.036  1.00  0.00     0.034 A 
ATOM     54  C   UNL A   1      42.687  25.298  28.180  1.00  0.00     0.034 A 
ATOM     55  C   UNL A   1      43.939  29.426  33.094  1.00  0.00     0.049 A 
ATOM     56  C   UNL A   1      43.810  25.410  29.174  1.00  0.00     0.074 A 
ATOM     57  C   UNL A   1      45.011  29.405  33.968  1.00  0.00     0.029 A 
ATOM     58  N   UNL A   1      44.096  28.343  32.241  1.00  0.00    -0.354 N 
ATOM     59  N   UNL A   1      43.946  26.252  30.170  1.00  0.00    -0.248 NA
ATOM     60  C   UNL A   1      44.902  24.435  29.057  1.00  0.00     0.031 C 
ATOM     61  C   UNL A   1      45.824  28.316  33.633  1.00  0.00     0.029 A 
ATOM     62  C   UNL A   1      45.247  27.648  32.564  1.00  0.00     0.049 A 
ATOM     63  H   UNL A   1      43.477  28.105  31.513  1.00  0.00     0.167 HD
ATOM     64  C   UNL A   1      45.121  25.890  30.816  1.00  0.00     0.074 A 
ATOM     65  C   UNL A   1      45.644  24.735  30.114  1.00  0.00     0.031 C 
ATOM     66  C   UNL A   1      45.723  26.470  31.885  1.00  0.00     0.034 A 
BRANCH  53  67
ATOM     67  C   UNL A   1      42.838  31.515  34.007  1.00  0.00     0.023 A 
ATOM     68  C   UNL A   1      43.462  32.729  33.647  1.00  0.00     0.012 A 
ATOM     69  C   UNL A   1      42.179  31.420  35.247  1.00  0.00     0.148 A 
ATOM     70  C   UNL A   1      43.464  33.815  34.520  1.00  0.00     0.002 A 
ATOM     71  C   UNL A   1      42.149  32.522  36.096  1.00  0.00     0.091 A 
ATOM     72  F   UNL A   1      41.611  30.253  35.583  1.00  0.00    -0.205 F 
ATOM     73  C   UNL A   1      42.800  33.715  35.739  1.00  0.00     0.022 A 
BRANCH  71  74
ATOM     74  S   UNL A   1      41.259  32.520  37.657  1.00  0.00     0.127 S 
ATOM     75  O   UNL A   1      42.097  31.643  38.472  1.00  0.00    -0.237 OA
ATOM     76  O   UNL A   1      41.303  33.932  38.038  1.00  0.00    -0.237 OA
ATOM     77  O   UNL A   1      39.928  32.014  37.359  1.00  0.00    -0.744 OA
ENDBRANCH  71  74
ENDBRANCH  53  67
BRANCH  54  78
ATOM     78  C   UNL A   1      42.673  24.221  27.148  1.00  0.00     0.023 A 
ATOM     79  C   UNL A   1      43.344  24.430  25.927  1.00  0.00     0.012 A 
ATOM     80  C   UNL A   1      42.040  22.984  27.379  1.00  0.00     0.148 A 
ATOM     81  C   UNL A   1      43.357  23.442  24.942  1.00  0.00     0.002 A 
ATOM     82  C   UNL A   1      42.102  21.984  26.415  1.00  0.00     0.091 A 
ATOM     83  F   UNL A   1      41.399  22.806  28.543  1.00  0.00    -0.205 F 
ATOM     84  C   UNL A   1      42.746  22.216  25.189  1.00  0.00     0.022 A 
BRANCH  82  85
ATOM     85  S   UNL A   1      41.459  20.330  26.703  1.00  0.00     0.127 S 
ATOM     86  O   UNL A   1      40.028  20.587  26.844  1.00  0.00    -0.237 OA
ATOM     87  O   UNL A   1      41.842  19.636  25.473  1.00  0.00    -0.237 OA
ATOM     88  O   UNL A   1      42.140  19.849  27.897  1.00  0.00    -0.744 OA
ENDBRANCH  82  85
ENDBRANCH  54  78
BRANCH  66  89
ATOM     89  C   UNL A   1      47.004  25.852  32.378  1.00  0.00     0.023 A 
ATOM     90  C   UNL A   1      48.232  26.253  31.819  1.00  0.00     0.012 A 
ATOM     91  C   UNL A   1      46.993  24.932  33.445  1.00  0.00     0.148 A 
ATOM     92  C   UNL A   1      49.431  25.724  32.295  1.00  0.00     0.002 A 
ATOM     93  C   UNL A   1      48.194  24.446  33.945  1.00  0.00     0.091 A 
ATOM     94  F   UNL A   1      45.810  24.548  33.948  1.00  0.00    -0.205 F 
ATOM     95  C   UNL A   1      49.413  24.832  33.364  1.00  0.00     0.022 A 
BRANCH  93  96
ATOM     96  S   UNL A   1      48.270  23.370  35.381  1.00  0.00     0.127 S 
ATOM     97  O   UNL A   1      49.648  23.568  35.828  1.00  0.00    -0.237 OA
ATOM     98  O   UNL A   1      47.255  23.951  36.260  1.00  0.00    -0.237 OA
ATOM     99  O   UNL A   1      47.953  22.034  34.896  1.00  0.00    -0.744 OA
ENDBRANCH  93  96
ENDBRANCH  66  89
ENDBRANCH  40  41
ENDBRANCH  32  35
ENDBRANCH  30  31
ENDBRANCH   1  30
TORSDOF 16
ENDMDL
MODEL 3
REMARK VINA RESULT:     -13.0      0.668      7.632
REMARK SMILES CC1(C)S[C@H](c2ccc(-c3cccc([N+](=O)[O-])c3)o2)[NH2+][C@@H]1C(=O)NCCCNC(=O)c1ccc(-c2c3nc(c(-c4cccc(S(=O)(=O)[O-])c4F)c4ccc([nH]4)c(-c4cccc(S(=O)(=O)[O-])c4F)c4nc(c(-c5cccc(S(=O)(=O)[O-])c5F)c5ccc2[nH]5)C=C4)C=C3)cc1
REMARK SMILES IDX 26 1 25 2 24 3 22 4 23 5 21 7 1 8 2 9 3 10 4 11 5 12 20 13
REMARK SMILES IDX 6 16 7 17 19 18 8 19 9 20 10 21 11 22 18 23 12 24 14 25
REMARK SMILES IDX 13 26 15 27 16 28 17 29 27 30 28 31 29 32 30 34 31 35 32 36
REMARK SMILES IDX 93 37 33 38 92 39 34 40 35 41 36 42 86 43 37 44 91 45 85 46
REMARK SMILES IDX 87 47 38 48 90 49 84 50 83 51 39 53 71 54 51 55 70 56 52 57
REMARK SMILES IDX 55 58 69 59 88 60 53 61 54 62 68 64 89 65 56 66 40 67 41 68
REMARK SMILES IDX 49 69 42 70 44 71 50 72 43 73 45 74 46 75 47 76 48 77 72 78
REMARK SMILES IDX 73 79 81 80 74 81 76 82 82 83 75 84 77 85 78 86 79 87 80 88
REMARK SMILES IDX 57 89 58 90 66 91 59 92 61 93 67 94 60 95 62 96 63 97 64 98
REMARK SMILES IDX 65 99
REMARK H PARENT 24 6 20 14 20 15 28 33 87 52 55 63
REMARK Flexibility Score: inf
ROOT
ATOM      1  C   UNL A   1      31.399  29.363  27.197  1.00  0.00     0.042 C 
ENDROOT
BRANCH   1   2
ATOM      2  C   UNL A   1      31.963  28.003  27.556  1.00  0.00     0.118 C 
BRANCH   2   3
ATOM      3  N   UNL A   1      31.311  26.896  26.881  1.00  0.00    -0.351 N 
ATOM      4  C   UNL A   1      31.764  26.237  25.762  1.00  0.00     0.279 C 
ATOM      5  O   UNL A   1      31.176  25.207  25.436  1.00  0.00    -0.268 OA
ATOM      6  H   UNL A   1      30.458  26.586  27.263  1.00  0.00     0.163 HD
BRANCH   4   7
ATOM      7  C   UNL A   1      32.894  26.899  24.932  1.00  0.00     0.289 C 
ATOM      8  C   UNL A   1      33.582  28.174  22.858  1.00  0.00     0.030 C 
ATOM      9  C   UNL A   1      32.734  26.999  23.396  1.00  0.00     0.078 C 
ATOM     10  C   UNL A   1      31.314  27.153  22.850  1.00  0.00     0.030 C 
ATOM     11  S   UNL A   1      33.464  25.443  22.778  1.00  0.00    -0.078 SA
ATOM     12  C   UNL A   1      34.375  25.112  24.301  1.00  0.00     0.311 C 
ATOM     13  N   UNL A   1      34.211  26.247  25.212  1.00  0.00    -0.317 N 
ATOM     14  H   UNL A   1      34.965  26.919  25.064  1.00  0.00     0.348 HD
ATOM     15  H   UNL A   1      34.242  25.924  26.179  1.00  0.00     0.348 HD
BRANCH  12  16
ATOM     16  C   UNL A   1      34.069  23.762  24.875  1.00  0.00     0.172 A 
ATOM     17  C   UNL A   1      33.941  23.352  26.190  1.00  0.00     0.054 A 
ATOM     18  O   UNL A   1      33.820  22.698  24.044  1.00  0.00    -0.454 OA
ATOM     19  C   UNL A   1      33.573  21.989  26.162  1.00  0.00     0.051 A 
ATOM     20  C   UNL A   1      33.506  21.626  24.833  1.00  0.00     0.134 A 
BRANCH  20  21
ATOM     21  C   UNL A   1      33.126  20.390  24.162  1.00  0.00     0.024 A 
ATOM     22  C   UNL A   1      32.456  20.393  22.931  1.00  0.00     0.012 A 
ATOM     23  C   UNL A   1      33.449  19.158  24.753  1.00  0.00     0.097 A 
ATOM     24  C   UNL A   1      32.106  19.192  22.301  1.00  0.00     0.008 A 
ATOM     25  C   UNL A   1      33.086  17.958  24.125  1.00  0.00     0.270 A 
ATOM     26  C   UNL A   1      32.416  17.968  22.897  1.00  0.00     0.085 A 
BRANCH  25  27
ATOM     27  N   UNL A   1      33.396  16.680  24.779  1.00  0.00     0.062 N 
ATOM     28  O   UNL A   1      33.951  15.804  24.099  1.00  0.00    -0.258 OA
ATOM     29  O   UNL A   1      33.141  16.576  25.989  1.00  0.00    -0.258 OA
ENDBRANCH  25  27
ENDBRANCH  20  21
ENDBRANCH  12  16
ENDBRANCH   4   7
ENDBRANCH   2   3
ENDBRANCH   1   2
BRANCH   1  30
ATOM     30  C   UNL A   1      32.358  30.281  26.456  1.00  0.00     0.118 C 
BRANCH  30  31
ATOM     31  N   UNL A   1      32.311  31.671  26.884  1.00  0.00    -0.352 N 
ATOM     32  C   UNL A   1      33.278  32.431  27.509  1.00  0.00     0.251 C 
ATOM     33  H   UNL A   1      31.464  32.137  26.702  1.00  0.00     0.163 HD
ATOM     34  O   UNL A   1      33.021  33.567  27.872  1.00  0.00    -0.269 OA
BRANCH  32  35
ATOM     35  C   UNL A   1      34.615  31.850  27.780  1.00  0.00     0.039 A 
ATOM     36  C   UNL A   1      35.690  32.726  27.942  1.00  0.00     0.014 A 
ATOM     37  C   UNL A   1      34.798  30.479  27.962  1.00  0.00     0.014 A 
ATOM     38  C   UNL A   1      36.900  32.244  28.441  1.00  0.00     0.010 A 
ATOM     39  C   UNL A   1      35.963  30.017  28.562  1.00  0.00     0.010 A 
ATOM     40  C   UNL A   1      37.013  30.902  28.841  1.00  0.00    -0.014 A 
BRANCH  40  41
ATOM     41  C   UNL A   1      38.173  30.444  29.645  1.00  0.00     0.031 A 
ATOM     42  C   UNL A   1      39.144  29.441  29.095  1.00  0.00     0.074 A 
ATOM     43  C   UNL A   1      38.280  30.865  30.924  1.00  0.00     0.049 A 
ATOM     44  N   UNL A   1      40.194  28.916  29.671  1.00  0.00    -0.248 NA
ATOM     45  C   UNL A   1      38.887  28.932  27.738  1.00  0.00     0.031 C 
ATOM     46  C   UNL A   1      37.327  31.749  31.606  1.00  0.00     0.029 A 
ATOM     47  N   UNL A   1      39.221  30.597  31.885  1.00  0.00    -0.354 N 
ATOM     48  C   UNL A   1      40.704  27.998  28.762  1.00  0.00     0.074 A 
ATOM     49  C   UNL A   1      39.823  28.004  27.615  1.00  0.00     0.031 C 
ATOM     50  C   UNL A   1      37.747  31.971  32.860  1.00  0.00     0.029 A 
ATOM     51  C   UNL A   1      38.981  31.226  33.085  1.00  0.00     0.049 A 
ATOM     52  H   UNL A   1      39.996  30.010  31.731  1.00  0.00     0.167 HD
ATOM     53  C   UNL A   1      41.827  27.246  28.859  1.00  0.00     0.034 A 
ATOM     54  C   UNL A   1      39.680  31.212  34.236  1.00  0.00     0.034 A 
ATOM     55  C   UNL A   1      42.720  27.283  29.984  1.00  0.00     0.049 A 
ATOM     56  C   UNL A   1      40.961  30.427  34.290  1.00  0.00     0.074 A 
ATOM     57  C   UNL A   1      43.929  26.632  30.146  1.00  0.00     0.029 A 
ATOM     58  N   UNL A   1      42.499  28.012  31.144  1.00  0.00    -0.354 N 
ATOM     59  N   UNL A   1      41.521  29.700  33.353  1.00  0.00    -0.248 NA
ATOM     60  C   UNL A   1      41.728  30.489  35.541  1.00  0.00     0.031 C 
ATOM     61  C   UNL A   1      44.433  26.956  31.411  1.00  0.00     0.029 A 
ATOM     62  C   UNL A   1      43.547  27.825  32.028  1.00  0.00     0.049 A 
ATOM     63  H   UNL A   1      41.712  28.579  31.312  1.00  0.00     0.167 HD
ATOM     64  C   UNL A   1      42.719  29.245  33.888  1.00  0.00     0.074 A 
ATOM     65  C   UNL A   1      42.815  29.800  35.224  1.00  0.00     0.031 C 
ATOM     66  C   UNL A   1      43.648  28.428  33.333  1.00  0.00     0.034 A 
BRANCH  53  67
ATOM     67  C   UNL A   1      42.185  26.374  27.683  1.00  0.00     0.023 A 
ATOM     68  C   UNL A   1      42.962  26.911  26.635  1.00  0.00     0.012 A 
ATOM     69  C   UNL A   1      41.795  25.022  27.630  1.00  0.00     0.148 A 
ATOM     70  C   UNL A   1      43.314  26.129  25.536  1.00  0.00     0.002 A 
ATOM     71  C   UNL A   1      42.186  24.236  26.551  1.00  0.00     0.091 A 
ATOM     72  F   UNL A   1      41.038  24.534  28.623  1.00  0.00    -0.205 F 
ATOM     73  C   UNL A   1      42.934  24.791  25.499  1.00  0.00     0.022 A 
BRANCH  71  74
ATOM     74  S   UNL A   1      41.809  22.483  26.441  1.00  0.00     0.127 S 
ATOM     75  O   UNL A   1      40.354  22.501  26.313  1.00  0.00    -0.237 OA
ATOM     76  O   UNL A   1      42.523  22.090  25.226  1.00  0.00    -0.237 OA
ATOM     77  O   UNL A   1      42.322  21.885  27.665  1.00  0.00    -0.744 OA
ENDBRANCH  71  74
ENDBRANCH  53  67
BRANCH  54  78
ATOM     78  C   UNL A   1      39.234  32.042  35.392  1.00  0.00     0.023 A 
ATOM     79  C   UNL A   1      38.341  31.489  36.332  1.00  0.00     0.012 A 
ATOM     80  C   UNL A   1      39.713  33.352  35.591  1.00  0.00     0.148 A 
ATOM     81  C   UNL A   1      37.908  32.235  37.429  1.00  0.00     0.002 A 
ATOM     82  C   UNL A   1      39.319  34.070  36.715  1.00  0.00     0.091 A 
ATOM     83  F   UNL A   1      40.554  33.865  34.682  1.00  0.00    -0.205 F 
ATOM     84  C   UNL A   1      38.404  33.520  37.627  1.00  0.00     0.022 A 
BRANCH  82  85
ATOM     85  S   UNL A   1      40.011  35.679  37.118  1.00  0.00     0.127 S 
ATOM     86  O   UNL A   1      41.431  35.369  37.251  1.00  0.00    -0.237 OA
ATOM     87  O   UNL A   1      39.661  36.466  35.935  1.00  0.00    -0.237 OA
ATOM     88  O   UNL A   1      39.335  36.101  38.337  1.00  0.00    -0.744 OA
ENDBRANCH  82  85
ENDBRANCH  54  78
BRANCH  66  89
ATOM     89  C   UNL A   1      44.865  28.102  34.157  1.00  0.00     0.023 A 
ATOM     90  C   UNL A   1      45.988  28.949  34.107  1.00  0.00     0.012 A 
ATOM     91  C   UNL A   1      44.863  26.999  35.034  1.00  0.00     0.148 A 
ATOM     92  C   UNL A   1      47.107  28.686  34.898  1.00  0.00     0.002 A 
ATOM     93  C   UNL A   1      45.962  26.773  35.853  1.00  0.00     0.091 A 
ATOM     94  F   UNL A   1      43.791  26.194  35.049  1.00  0.00    -0.205 F 
ATOM     95  C   UNL A   1      47.088  27.607  35.778  1.00  0.00     0.022 A 
BRANCH  93  96
ATOM     96  S   UNL A   1      45.985  25.466  37.085  1.00  0.00     0.127 S 
ATOM     97  O   UNL A   1      45.947  24.267  36.249  1.00  0.00    -0.237 OA
ATOM     98  O   UNL A   1      47.262  25.697  37.761  1.00  0.00    -0.237 OA
ATOM     99  O   UNL A   1      44.813  25.685  37.922  1.00  0.00    -0.744 OA
ENDBRANCH  93  96
ENDBRANCH  66  89
ENDBRANCH  40  41
ENDBRANCH  32  35
ENDBRANCH  30  31
ENDBRANCH   1  30
TORSDOF 16
ENDMDL
