MODEL 1
REMARK VINA RESULT:     -10.2      0.000      0.000
REMARK SMILES COCc1cccc(O[C@@H](C)c2ccc(C(=O)NCCCNC(=O)c3ccc(-c4c5nc(c(-c6cccc(S(=O)(=O)[O-])c6F)c6ccc([nH]6)c(-c6cccc(S(=O)(=O)[O-])c6F)c6nc(c(-c7cccc(S(=O)(=O)[O-])c7F)c7ccc4[nH]7)C=C6)C=C5)cc3)o2)c1
REMARK SMILES IDX 19 1 18 2 16 3 17 4 15 6 12 7 13 8 88 9 14 10 10 11 11 12
REMARK SMILES IDX 9 13 8 14 4 15 5 16 89 17 6 18 7 19 3 20 2 21 1 22 20 23
REMARK SMILES IDX 21 24 22 25 23 26 24 28 25 29 26 30 87 31 27 32 86 33 28 34
REMARK SMILES IDX 29 35 30 36 80 37 31 38 85 39 79 40 81 41 32 42 84 43 78 44
REMARK SMILES IDX 77 45 33 47 65 48 45 49 64 50 46 51 49 52 63 53 82 54 47 55
REMARK SMILES IDX 48 56 62 58 83 59 50 60 34 61 35 62 43 63 36 64 38 65 44 66
REMARK SMILES IDX 37 67 39 68 40 69 41 70 42 71 66 72 67 73 75 74 68 75 70 76
REMARK SMILES IDX 76 77 69 78 71 79 72 80 73 81 74 82 51 83 52 84 60 85 53 86
REMARK SMILES IDX 55 87 61 88 54 89 56 90 57 91 58 92 59 93
REMARK H PARENT 18 5 22 27 81 46 49 57
REMARK Flexibility Score: inf
ROOT
ATOM      1  C   UNL A   1      41.736  19.750  25.986  1.00  0.00     0.118 C 
ENDROOT
BRANCH   1   2
ATOM      2  N   UNL A   1      43.025  19.438  25.409  1.00  0.00    -0.349 N 
ATOM      3  C   UNL A   1      44.137  20.226  25.211  1.00  0.00     0.286 C 
ATOM      4  O   UNL A   1      45.152  19.623  24.853  1.00  0.00    -0.266 OA
ATOM      5  H   UNL A   1      43.125  18.506  25.108  1.00  0.00     0.163 HD
BRANCH   3   6
ATOM      6  C   UNL A   1      44.099  21.661  25.431  1.00  0.00     0.191 A 
ATOM      7  C   UNL A   1      44.885  23.518  26.360  1.00  0.00     0.145 A 
ATOM      8  C   UNL A   1      43.860  23.906  25.524  1.00  0.00     0.050 A 
ATOM      9  O   UNL A   1      44.986  22.160  26.355  1.00  0.00    -0.452 OA
ATOM     10  C   UNL A   1      43.396  22.725  24.893  1.00  0.00     0.057 A 
BRANCH   7  11
ATOM     11  C   UNL A   1      45.887  24.263  27.179  1.00  0.00     0.236 C 
ATOM     12  C   UNL A   1      45.615  24.260  28.681  1.00  0.00     0.062 C 
BRANCH  11  13
ATOM     13  O   UNL A   1      46.109  25.596  26.683  1.00  0.00    -0.483 OA
BRANCH  13  14
ATOM     14  C   UNL A   1      47.183  25.937  25.910  1.00  0.00     0.120 A 
ATOM     15  C   UNL A   1      48.349  26.852  23.972  1.00  0.00    -0.019 A 
ATOM     16  C   UNL A   1      49.570  26.445  24.521  1.00  0.00     0.006 A 
ATOM     17  C   UNL A   1      47.163  26.596  24.682  1.00  0.00     0.052 A 
ATOM     18  C   UNL A   1      49.602  25.777  25.742  1.00  0.00     0.004 A 
ATOM     19  C   UNL A   1      48.412  25.520  26.427  1.00  0.00     0.046 A 
BRANCH  15  20
ATOM     20  C   UNL A   1      48.292  27.518  22.618  1.00  0.00     0.195 C 
BRANCH  20  21
ATOM     21  O   UNL A   1      48.572  26.605  21.559  1.00  0.00    -0.380 OA
ATOM     22  C   UNL A   1      49.782  26.895  20.872  1.00  0.00     0.195 C 
ENDBRANCH  20  21
ENDBRANCH  15  20
ENDBRANCH  13  14
ENDBRANCH  11  13
ENDBRANCH   7  11
ENDBRANCH   3   6
ENDBRANCH   1   2
BRANCH   1  23
ATOM     23  C   UNL A   1      41.850  20.228  27.431  1.00  0.00     0.042 C 
BRANCH  23  24
ATOM     24  C   UNL A   1      40.985  21.450  27.735  1.00  0.00     0.118 C 
BRANCH  24  25
ATOM     25  N   UNL A   1      39.915  21.616  26.757  1.00  0.00    -0.352 N 
ATOM     26  C   UNL A   1      39.174  22.721  26.423  1.00  0.00     0.251 C 
ATOM     27  H   UNL A   1      39.685  20.800  26.254  1.00  0.00     0.163 HD
ATOM     28  O   UNL A   1      38.161  22.576  25.742  1.00  0.00    -0.269 OA
BRANCH  26  29
ATOM     29  C   UNL A   1      39.580  24.072  26.865  1.00  0.00     0.039 A 
ATOM     30  C   UNL A   1      39.304  24.462  28.180  1.00  0.00     0.014 A 
ATOM     31  C   UNL A   1      40.168  24.979  25.979  1.00  0.00     0.014 A 
ATOM     32  C   UNL A   1      39.659  25.740  28.618  1.00  0.00     0.010 A 
ATOM     33  C   UNL A   1      40.585  26.227  26.436  1.00  0.00     0.010 A 
ATOM     34  C   UNL A   1      40.323  26.625  27.754  1.00  0.00    -0.014 A 
BRANCH  34  35
ATOM     35  C   UNL A   1      40.757  27.969  28.212  1.00  0.00     0.031 A 
ATOM     36  C   UNL A   1      42.216  28.335  28.222  1.00  0.00     0.074 A 
ATOM     37  C   UNL A   1      39.841  28.829  28.698  1.00  0.00     0.049 A 
ATOM     38  N   UNL A   1      42.788  29.437  28.631  1.00  0.00    -0.248 NA
ATOM     39  C   UNL A   1      43.160  27.317  27.732  1.00  0.00     0.031 C 
ATOM     40  C   UNL A   1      38.406  28.562  28.806  1.00  0.00     0.029 A 
ATOM     41  N   UNL A   1      39.984  30.093  29.212  1.00  0.00    -0.354 N 
ATOM     42  C   UNL A   1      44.155  29.235  28.483  1.00  0.00     0.074 A 
ATOM     43  C   UNL A   1      44.329  27.890  27.981  1.00  0.00     0.031 C 
ATOM     44  C   UNL A   1      37.799  29.634  29.339  1.00  0.00     0.029 A 
ATOM     45  C   UNL A   1      38.801  30.651  29.636  1.00  0.00     0.049 A 
ATOM     46  H   UNL A   1      40.852  30.556  29.273  1.00  0.00     0.167 HD
ATOM     47  C   UNL A   1      45.172  30.100  28.712  1.00  0.00     0.034 A 
ATOM     48  C   UNL A   1      38.554  31.851  30.197  1.00  0.00     0.034 A 
ATOM     49  C   UNL A   1      44.990  31.451  29.170  1.00  0.00     0.049 A 
ATOM     50  C   UNL A   1      39.695  32.807  30.409  1.00  0.00     0.074 A 
ATOM     51  C   UNL A   1      45.945  32.436  29.356  1.00  0.00     0.029 A 
ATOM     52  N   UNL A   1      43.769  32.009  29.519  1.00  0.00    -0.354 N 
ATOM     53  N   UNL A   1      40.965  32.654  30.121  1.00  0.00    -0.248 NA
ATOM     54  C   UNL A   1      39.364  34.115  30.992  1.00  0.00     0.031 C 
ATOM     55  C   UNL A   1      45.301  33.584  29.830  1.00  0.00     0.029 A 
ATOM     56  C   UNL A   1      43.944  33.321  29.926  1.00  0.00     0.049 A 
ATOM     57  H   UNL A   1      42.905  31.540  29.484  1.00  0.00     0.167 HD
ATOM     58  C   UNL A   1      41.579  33.855  30.452  1.00  0.00     0.074 A 
ATOM     59  C   UNL A   1      40.537  34.733  30.946  1.00  0.00     0.031 C 
ATOM     60  C   UNL A   1      42.889  34.198  30.367  1.00  0.00     0.034 A 
BRANCH  47  61
ATOM     61  C   UNL A   1      46.570  29.622  28.407  1.00  0.00     0.023 A 
ATOM     62  C   UNL A   1      47.118  29.859  27.128  1.00  0.00     0.012 A 
ATOM     63  C   UNL A   1      47.347  28.963  29.377  1.00  0.00     0.148 A 
ATOM     64  C   UNL A   1      48.398  29.410  26.807  1.00  0.00     0.002 A 
ATOM     65  C   UNL A   1      48.640  28.557  29.063  1.00  0.00     0.091 A 
ATOM     66  F   UNL A   1      46.806  28.722  30.580  1.00  0.00    -0.205 F 
ATOM     67  C   UNL A   1      49.162  28.767  27.776  1.00  0.00     0.022 A 
BRANCH  65  68
ATOM     68  S   UNL A   1      49.726  27.789  30.272  1.00  0.00     0.127 S 
ATOM     69  O   UNL A   1      50.882  27.436  29.449  1.00  0.00    -0.237 OA
ATOM     70  O   UNL A   1      49.964  28.881  31.218  1.00  0.00    -0.237 OA
ATOM     71  O   UNL A   1      48.975  26.669  30.822  1.00  0.00    -0.744 OA
ENDBRANCH  65  68
ENDBRANCH  47  61
BRANCH  48  72
ATOM     72  C   UNL A   1      37.150  32.248  30.497  1.00  0.00     0.023 A 
ATOM     73  C   UNL A   1      36.678  32.136  31.819  1.00  0.00     0.012 A 
ATOM     74  C   UNL A   1      36.301  32.783  29.507  1.00  0.00     0.148 A 
ATOM     75  C   UNL A   1      35.380  32.527  32.149  1.00  0.00     0.002 A 
ATOM     76  C   UNL A   1      35.027  33.218  29.852  1.00  0.00     0.091 A 
ATOM     77  F   UNL A   1      36.767  32.874  28.255  1.00  0.00    -0.205 F 
ATOM     78  C   UNL A   1      34.559  33.078  31.169  1.00  0.00     0.022 A 
BRANCH  76  79
ATOM     79  S   UNL A   1      33.943  34.057  28.690  1.00  0.00     0.127 S 
ATOM     80  O   UNL A   1      33.544  32.961  27.809  1.00  0.00    -0.237 OA
ATOM     81  O   UNL A   1      32.887  34.556  29.570  1.00  0.00    -0.237 OA
ATOM     82  O   UNL A   1      34.755  35.097  28.074  1.00  0.00    -0.744 OA
ENDBRANCH  76  79
ENDBRANCH  48  72
BRANCH  60  83
ATOM     83  C   UNL A   1      43.272  35.590  30.796  1.00  0.00     0.023 A 
ATOM     84  C   UNL A   1      43.667  35.827  32.128  1.00  0.00     0.012 A 
ATOM     85  C   UNL A   1      43.306  36.647  29.866  1.00  0.00     0.148 A 
ATOM     86  C   UNL A   1      44.061  37.101  32.534  1.00  0.00     0.002 A 
ATOM     87  C   UNL A   1      43.743  37.904  30.267  1.00  0.00     0.091 A 
ATOM     88  F   UNL A   1      42.904  36.408  28.609  1.00  0.00    -0.205 F 
ATOM     89  C   UNL A   1      44.111  38.136  31.603  1.00  0.00     0.022 A 
BRANCH  87  90
ATOM     90  S   UNL A   1      43.927  39.270  29.114  1.00  0.00     0.127 S 
ATOM     91  O   UNL A   1      42.745  40.075  29.414  1.00  0.00    -0.237 OA
ATOM     92  O   UNL A   1      45.195  39.867  29.535  1.00  0.00    -0.237 OA
ATOM     93  O   UNL A   1      43.958  38.668  27.787  1.00  0.00    -0.744 OA
ENDBRANCH  87  90
ENDBRANCH  60  83
ENDBRANCH  34  35
ENDBRANCH  26  29
ENDBRANCH  24  25
ENDBRANCH  23  24
ENDBRANCH   1  23
TORSDOF 18
ENDMDL
MODEL 2
REMARK VINA RESULT:     -10.2      6.266     11.222
REMARK SMILES COCc1cccc(O[C@@H](C)c2ccc(C(=O)NCCCNC(=O)c3ccc(-c4c5nc(c(-c6cccc(S(=O)(=O)[O-])c6F)c6ccc([nH]6)c(-c6cccc(S(=O)(=O)[O-])c6F)c6nc(c(-c7cccc(S(=O)(=O)[O-])c7F)c7ccc4[nH]7)C=C6)C=C5)cc3)o2)c1
REMARK SMILES IDX 19 1 18 2 16 3 17 4 15 6 12 7 13 8 88 9 14 10 10 11 11 12
REMARK SMILES IDX 9 13 8 14 4 15 5 16 89 17 6 18 7 19 3 20 2 21 1 22 20 23
REMARK SMILES IDX 21 24 22 25 23 26 24 28 25 29 26 30 87 31 27 32 86 33 28 34
REMARK SMILES IDX 29 35 30 36 80 37 31 38 85 39 79 40 81 41 32 42 84 43 78 44
REMARK SMILES IDX 77 45 33 47 65 48 45 49 64 50 46 51 49 52 63 53 82 54 47 55
REMARK SMILES IDX 48 56 62 58 83 59 50 60 34 61 35 62 43 63 36 64 38 65 44 66
REMARK SMILES IDX 37 67 39 68 40 69 41 70 42 71 66 72 67 73 75 74 68 75 70 76
REMARK SMILES IDX 76 77 69 78 71 79 72 80 73 81 74 82 51 83 52 84 60 85 53 86
REMARK SMILES IDX 55 87 61 88 54 89 56 90 57 91 58 92 59 93
REMARK H PARENT 18 5 22 27 81 46 49 57
REMARK Flexibility Score: inf
ROOT
ATOM      1  C   UNL A   1      31.568  30.591  26.015  1.00  0.00     0.118 C 
ENDROOT
BRANCH   1   2
ATOM      2  N   UNL A   1      30.980  30.421  24.704  1.00  0.00    -0.349 N 
ATOM      3  C   UNL A   1      31.020  29.356  23.831  1.00  0.00     0.286 C 
ATOM      4  O   UNL A   1      30.269  29.446  22.857  1.00  0.00    -0.266 OA
ATOM      5  H   UNL A   1      30.465  31.196  24.382  1.00  0.00     0.163 HD
BRANCH   3   6
ATOM      6  C   UNL A   1      31.880  28.211  24.071  1.00  0.00     0.191 A 
ATOM      7  C   UNL A   1      32.222  26.142  24.801  1.00  0.00     0.145 A 
ATOM      8  C   UNL A   1      33.413  26.560  24.245  1.00  0.00     0.050 A 
ATOM      9  O   UNL A   1      31.318  27.160  24.755  1.00  0.00    -0.452 OA
ATOM     10  C   UNL A   1      33.175  27.859  23.733  1.00  0.00     0.057 A 
BRANCH   7  11
ATOM     11  C   UNL A   1      31.744  24.842  25.358  1.00  0.00     0.236 C 
ATOM     12  C   UNL A   1      30.403  24.913  26.085  1.00  0.00     0.062 C 
BRANCH  11  13
ATOM     13  O   UNL A   1      32.748  24.193  26.160  1.00  0.00    -0.483 OA
BRANCH  13  14
ATOM     14  C   UNL A   1      33.344  23.017  25.801  1.00  0.00     0.120 A 
ATOM     15  C   UNL A   1      33.478  20.761  24.881  1.00  0.00    -0.019 A 
ATOM     16  C   UNL A   1      34.826  20.696  25.249  1.00  0.00     0.006 A 
ATOM     17  C   UNL A   1      32.750  21.931  25.159  1.00  0.00     0.052 A 
ATOM     18  C   UNL A   1      35.427  21.770  25.899  1.00  0.00     0.004 A 
ATOM     19  C   UNL A   1      34.686  22.920  26.179  1.00  0.00     0.046 A 
BRANCH  15  20
ATOM     20  C   UNL A   1      32.793  19.580  24.235  1.00  0.00     0.195 C 
BRANCH  20  21
ATOM     21  O   UNL A   1      32.136  18.751  25.192  1.00  0.00    -0.380 OA
ATOM     22  C   UNL A   1      32.746  17.476  25.344  1.00  0.00     0.195 C 
ENDBRANCH  20  21
ENDBRANCH  15  20
ENDBRANCH  13  14
ENDBRANCH  11  13
ENDBRANCH   7  11
ENDBRANCH   3   6
ENDBRANCH   1   2
BRANCH   1  23
ATOM     23  C   UNL A   1      31.449  32.026  26.519  1.00  0.00     0.042 C 
BRANCH  23  24
ATOM     24  C   UNL A   1      32.679  32.501  27.291  1.00  0.00     0.118 C 
BRANCH  24  25
ATOM     25  N   UNL A   1      32.578  33.907  27.664  1.00  0.00    -0.352 N 
ATOM     26  C   UNL A   1      33.198  34.611  28.665  1.00  0.00     0.251 C 
ATOM     27  H   UNL A   1      31.963  34.438  27.108  1.00  0.00     0.163 HD
ATOM     28  O   UNL A   1      32.784  35.733  28.949  1.00  0.00    -0.269 OA
BRANCH  26  29
ATOM     29  C   UNL A   1      34.352  34.043  29.395  1.00  0.00     0.039 A 
ATOM     30  C   UNL A   1      34.112  33.161  30.453  1.00  0.00     0.014 A 
ATOM     31  C   UNL A   1      35.662  34.424  29.089  1.00  0.00     0.014 A 
ATOM     32  C   UNL A   1      35.183  32.625  31.172  1.00  0.00     0.010 A 
ATOM     33  C   UNL A   1      36.731  33.836  29.759  1.00  0.00     0.010 A 
ATOM     34  C   UNL A   1      36.504  32.942  30.815  1.00  0.00    -0.014 A 
BRANCH  34  35
ATOM     35  C   UNL A   1      37.659  32.345  31.530  1.00  0.00     0.031 A 
ATOM     36  C   UNL A   1      38.416  31.194  30.925  1.00  0.00     0.074 A 
ATOM     37  C   UNL A   1      37.974  32.786  32.764  1.00  0.00     0.049 A 
ATOM     38  N   UNL A   1      39.417  30.513  31.419  1.00  0.00    -0.248 NA
ATOM     39  C   UNL A   1      37.973  30.730  29.600  1.00  0.00     0.031 C 
ATOM     40  C   UNL A   1      37.269  33.848  33.485  1.00  0.00     0.029 A 
ATOM     41  N   UNL A   1      38.951  32.382  33.637  1.00  0.00    -0.354 N 
ATOM     42  C   UNL A   1      39.700  29.521  30.488  1.00  0.00     0.074 A 
ATOM     43  C   UNL A   1      38.741  29.666  29.415  1.00  0.00     0.031 C 
ATOM     44  C   UNL A   1      37.846  34.021  34.685  1.00  0.00     0.029 A 
ATOM     45  C   UNL A   1      38.941  33.067  34.829  1.00  0.00     0.049 A 
ATOM     46  H   UNL A   1      39.599  31.670  33.429  1.00  0.00     0.167 HD
ATOM     47  C   UNL A   1      40.688  28.595  30.506  1.00  0.00     0.034 A 
ATOM     48  C   UNL A   1      39.728  32.942  35.915  1.00  0.00     0.034 A 
ATOM     49  C   UNL A   1      41.667  28.484  31.555  1.00  0.00     0.049 A 
ATOM     50  C   UNL A   1      40.840  31.929  35.897  1.00  0.00     0.074 A 
ATOM     51  C   UNL A   1      42.757  27.635  31.631  1.00  0.00     0.029 A 
ATOM     52  N   UNL A   1      41.670  29.244  32.715  1.00  0.00    -0.354 N 
ATOM     53  N   UNL A   1      41.187  31.101  34.942  1.00  0.00    -0.248 NA
ATOM     54  C   UNL A   1      41.691  31.858  37.094  1.00  0.00     0.031 C 
ATOM     55  C   UNL A   1      43.412  27.875  32.845  1.00  0.00     0.029 A 
ATOM     56  C   UNL A   1      42.739  28.882  33.518  1.00  0.00     0.049 A 
ATOM     57  H   UNL A   1      41.009  29.939  32.936  1.00  0.00     0.167 HD
ATOM     58  C   UNL A   1      42.316  30.437  35.404  1.00  0.00     0.074 A 
ATOM     59  C   UNL A   1      42.605  30.973  36.720  1.00  0.00     0.031 C 
ATOM     60  C   UNL A   1      43.042  29.461  34.802  1.00  0.00     0.034 A 
BRANCH  47  61
ATOM     61  C   UNL A   1      40.792  27.670  29.319  1.00  0.00     0.023 A 
ATOM     62  C   UNL A   1      39.952  26.538  29.250  1.00  0.00     0.012 A 
ATOM     63  C   UNL A   1      41.694  27.923  28.269  1.00  0.00     0.148 A 
ATOM     64  C   UNL A   1      40.039  25.651  28.178  1.00  0.00     0.002 A 
ATOM     65  C   UNL A   1      41.744  27.056  27.181  1.00  0.00     0.091 A 
ATOM     66  F   UNL A   1      42.504  28.987  28.359  1.00  0.00    -0.205 F 
ATOM     67  C   UNL A   1      40.929  25.914  27.140  1.00  0.00     0.022 A 
BRANCH  65  68
ATOM     68  S   UNL A   1      42.805  27.357  25.762  1.00  0.00     0.127 S 
ATOM     69  O   UNL A   1      44.093  26.861  26.245  1.00  0.00    -0.237 OA
ATOM     70  O   UNL A   1      42.185  26.529  24.726  1.00  0.00    -0.237 OA
ATOM     71  O   UNL A   1      42.731  28.790  25.512  1.00  0.00    -0.744 OA
ENDBRANCH  65  68
ENDBRANCH  47  61
BRANCH  48  72
ATOM     72  C   UNL A   1      39.552  33.873  37.064  1.00  0.00     0.023 A 
ATOM     73  C   UNL A   1      39.936  35.220  36.914  1.00  0.00     0.012 A 
ATOM     74  C   UNL A   1      38.963  33.457  38.274  1.00  0.00     0.148 A 
ATOM     75  C   UNL A   1      39.758  36.132  37.955  1.00  0.00     0.002 A 
ATOM     76  C   UNL A   1      38.743  34.381  39.289  1.00  0.00     0.091 A 
ATOM     77  F   UNL A   1      38.612  32.170  38.399  1.00  0.00    -0.205 F 
ATOM     78  C   UNL A   1      39.152  35.716  39.137  1.00  0.00     0.022 A 
BRANCH  76  79
ATOM     79  S   UNL A   1      37.854  33.970  40.796  1.00  0.00     0.127 S 
ATOM     80  O   UNL A   1      38.806  33.093  41.474  1.00  0.00    -0.237 OA
ATOM     81  O   UNL A   1      37.683  35.286  41.412  1.00  0.00    -0.237 OA
ATOM     82  O   UNL A   1      36.614  33.342  40.364  1.00  0.00    -0.744 OA
ENDBRANCH  76  79
ENDBRANCH  48  72
BRANCH  60  83
ATOM     83  C   UNL A   1      44.236  28.922  35.546  1.00  0.00     0.023 A 
ATOM     84  C   UNL A   1      45.501  29.511  35.355  1.00  0.00     0.012 A 
ATOM     85  C   UNL A   1      44.091  27.881  36.484  1.00  0.00     0.148 A 
ATOM     86  C   UNL A   1      46.611  29.050  36.062  1.00  0.00     0.002 A 
ATOM     87  C   UNL A   1      45.192  27.458  37.219  1.00  0.00     0.091 A 
ATOM     88  F   UNL A   1      42.883  27.318  36.635  1.00  0.00    -0.205 F 
ATOM     89  C   UNL A   1      46.455  28.034  37.002  1.00  0.00     0.022 A 
BRANCH  87  90
ATOM     90  S   UNL A   1      45.064  26.220  38.515  1.00  0.00     0.127 S 
ATOM     91  O   UNL A   1      46.416  26.224  39.066  1.00  0.00    -0.237 OA
ATOM     92  O   UNL A   1      44.044  26.793  39.395  1.00  0.00    -0.237 OA
ATOM     93  O   UNL A   1      44.659  24.988  37.849  1.00  0.00    -0.744 OA
ENDBRANCH  87  90
ENDBRANCH  60  83
ENDBRANCH  34  35
ENDBRANCH  26  29
ENDBRANCH  24  25
ENDBRANCH  23  24
ENDBRANCH   1  23
TORSDOF 18
ENDMDL
MODEL 3
REMARK VINA RESULT:     -10.0      5.580     10.148
REMARK SMILES COCc1cccc(O[C@@H](C)c2ccc(C(=O)NCCCNC(=O)c3ccc(-c4c5nc(c(-c6cccc(S(=O)(=O)[O-])c6F)c6ccc([nH]6)c(-c6cccc(S(=O)(=O)[O-])c6F)c6nc(c(-c7cccc(S(=O)(=O)[O-])c7F)c7ccc4[nH]7)C=C6)C=C5)cc3)o2)c1
REMARK SMILES IDX 19 1 18 2 16 3 17 4 15 6 12 7 13 8 88 9 14 10 10 11 11 12
REMARK SMILES IDX 9 13 8 14 4 15 5 16 89 17 6 18 7 19 3 20 2 21 1 22 20 23
REMARK SMILES IDX 21 24 22 25 23 26 24 28 25 29 26 30 87 31 27 32 86 33 28 34
REMARK SMILES IDX 29 35 30 36 80 37 31 38 85 39 79 40 81 41 32 42 84 43 78 44
REMARK SMILES IDX 77 45 33 47 65 48 45 49 64 50 46 51 49 52 63 53 82 54 47 55
REMARK SMILES IDX 48 56 62 58 83 59 50 60 34 61 35 62 43 63 36 64 38 65 44 66
REMARK SMILES IDX 37 67 39 68 40 69 41 70 42 71 66 72 67 73 75 74 68 75 70 76
REMARK SMILES IDX 76 77 69 78 71 79 72 80 73 81 74 82 51 83 52 84 60 85 53 86
REMARK SMILES IDX 55 87 61 88 54 89 56 90 57 91 58 92 59 93
REMARK H PARENT 18 5 22 27 81 46 49 57
REMARK Flexibility Score: inf
ROOT
ATOM      1  C   UNL A   1      33.887  27.607  23.034  1.00  0.00     0.118 C 
ENDROOT
BRANCH   1   2
ATOM      2  N   UNL A   1      32.978  27.177  21.994  1.00  0.00    -0.349 N 
ATOM      3  C   UNL A   1      31.710  26.645  22.070  1.00  0.00     0.286 C 
ATOM      4  O   UNL A   1      31.118  26.541  20.993  1.00  0.00    -0.266 OA
ATOM      5  H   UNL A   1      33.323  27.283  21.078  1.00  0.00     0.163 HD
BRANCH   3   6
ATOM      6  C   UNL A   1      31.125  26.258  23.342  1.00  0.00     0.191 A 
ATOM      7  C   UNL A   1      30.749  24.774  24.950  1.00  0.00     0.145 A 
ATOM      8  C   UNL A   1      30.185  25.958  25.375  1.00  0.00     0.050 A 
ATOM      9  O   UNL A   1      31.258  24.937  23.698  1.00  0.00    -0.452 OA
ATOM     10  C   UNL A   1      30.473  26.915  24.371  1.00  0.00     0.057 A 
BRANCH   7  11
ATOM     11  C   UNL A   1      30.949  23.439  25.589  1.00  0.00     0.236 C 
ATOM     12  C   UNL A   1      31.768  23.464  26.877  1.00  0.00     0.062 C 
BRANCH  11  13
ATOM     13  O   UNL A   1      31.453  22.463  24.659  1.00  0.00    -0.483 OA
BRANCH  13  14
ATOM     14  C   UNL A   1      32.706  21.923  24.748  1.00  0.00     0.120 A 
ATOM     15  C   UNL A   1      35.133  21.843  24.517  1.00  0.00    -0.019 A 
ATOM     16  C   UNL A   1      35.130  20.525  24.986  1.00  0.00     0.006 A 
ATOM     17  C   UNL A   1      33.913  22.533  24.408  1.00  0.00     0.052 A 
ATOM     18  C   UNL A   1      33.929  19.904  25.319  1.00  0.00     0.004 A 
ATOM     19  C   UNL A   1      32.725  20.599  25.194  1.00  0.00     0.046 A 
BRANCH  15  20
ATOM     20  C   UNL A   1      36.419  22.510  24.088  1.00  0.00     0.195 C 
BRANCH  20  21
ATOM     21  O   UNL A   1      37.378  22.553  25.144  1.00  0.00    -0.380 OA
ATOM     22  C   UNL A   1      37.240  23.693  25.982  1.00  0.00     0.195 C 
ENDBRANCH  20  21
ENDBRANCH  15  20
ENDBRANCH  13  14
ENDBRANCH  11  13
ENDBRANCH   7  11
ENDBRANCH   3   6
ENDBRANCH   1   2
BRANCH   1  23
ATOM     23  C   UNL A   1      33.538  28.993  23.570  1.00  0.00     0.042 C 
BRANCH  23  24
ATOM     24  C   UNL A   1      33.337  29.024  25.084  1.00  0.00     0.118 C 
BRANCH  24  25
ATOM     25  N   UNL A   1      32.794  30.300  25.535  1.00  0.00    -0.352 N 
ATOM     26  C   UNL A   1      33.109  31.069  26.627  1.00  0.00     0.251 C 
ATOM     27  H   UNL A   1      32.084  30.671  24.962  1.00  0.00     0.163 HD
ATOM     28  O   UNL A   1      32.359  31.989  26.944  1.00  0.00    -0.269 OA
BRANCH  26  29
ATOM     29  C   UNL A   1      34.333  30.808  27.415  1.00  0.00     0.039 A 
ATOM     30  C   UNL A   1      34.498  29.550  28.005  1.00  0.00     0.014 A 
ATOM     31  C   UNL A   1      35.283  31.809  27.632  1.00  0.00     0.014 A 
ATOM     32  C   UNL A   1      35.635  29.283  28.772  1.00  0.00     0.010 A 
ATOM     33  C   UNL A   1      36.449  31.521  28.336  1.00  0.00     0.010 A 
ATOM     34  C   UNL A   1      36.631  30.261  28.925  1.00  0.00    -0.014 A 
BRANCH  34  35
ATOM     35  C   UNL A   1      37.872  29.984  29.690  1.00  0.00     0.031 A 
ATOM     36  C   UNL A   1      38.913  29.049  29.139  1.00  0.00     0.074 A 
ATOM     37  C   UNL A   1      38.021  30.511  30.921  1.00  0.00     0.049 A 
ATOM     38  N   UNL A   1      40.033  28.648  29.682  1.00  0.00    -0.248 NA
ATOM     39  C   UNL A   1      38.648  28.466  27.813  1.00  0.00     0.031 C 
ATOM     40  C   UNL A   1      37.048  31.376  31.592  1.00  0.00     0.029 A 
ATOM     41  N   UNL A   1      39.036  30.380  31.835  1.00  0.00    -0.354 N 
ATOM     42  C   UNL A   1      40.588  27.742  28.786  1.00  0.00     0.074 A 
ATOM     43  C   UNL A   1      39.663  27.624  27.680  1.00  0.00     0.031 C 
ATOM     44  C   UNL A   1      37.519  31.708  32.805  1.00  0.00     0.029 A 
ATOM     45  C   UNL A   1      38.811  31.061  33.008  1.00  0.00     0.049 A 
ATOM     46  H   UNL A   1      39.848  29.848  31.666  1.00  0.00     0.167 HD
ATOM     47  C   UNL A   1      41.775  27.092  28.858  1.00  0.00     0.034 A 
ATOM     48  C   UNL A   1      39.565  31.155  34.120  1.00  0.00     0.034 A 
ATOM     49  C   UNL A   1      42.711  27.248  29.940  1.00  0.00     0.049 A 
ATOM     50  C   UNL A   1      40.894  30.452  34.164  1.00  0.00     0.074 A 
ATOM     51  C   UNL A   1      43.975  26.700  30.072  1.00  0.00     0.029 A 
ATOM     52  N   UNL A   1      42.482  28.004  31.079  1.00  0.00    -0.354 N 
ATOM     53  N   UNL A   1      41.471  29.721  33.242  1.00  0.00    -0.248 NA
ATOM     54  C   UNL A   1      41.691  30.617  35.388  1.00  0.00     0.031 C 
ATOM     55  C   UNL A   1      44.504  27.116  31.299  1.00  0.00     0.029 A 
ATOM     56  C   UNL A   1      43.577  27.935  31.924  1.00  0.00     0.049 A 
ATOM     57  H   UNL A   1      41.661  28.516  31.261  1.00  0.00     0.167 HD
ATOM     58  C   UNL A   1      42.712  29.367  33.756  1.00  0.00     0.074 A 
ATOM     59  C   UNL A   1      42.810  29.981  35.066  1.00  0.00     0.031 C 
ATOM     60  C   UNL A   1      43.679  28.593  33.202  1.00  0.00     0.034 A 
BRANCH  47  61
ATOM     61  C   UNL A   1      42.149  26.202  27.700  1.00  0.00     0.023 A 
ATOM     62  C   UNL A   1      42.851  26.750  26.605  1.00  0.00     0.012 A 
ATOM     63  C   UNL A   1      41.833  24.831  27.697  1.00  0.00     0.148 A 
ATOM     64  C   UNL A   1      43.192  25.959  25.509  1.00  0.00     0.002 A 
ATOM     65  C   UNL A   1      42.214  24.039  26.619  1.00  0.00     0.091 A 
ATOM     66  F   UNL A   1      41.144  24.328  28.731  1.00  0.00    -0.205 F 
ATOM     67  C   UNL A   1      42.881  24.603  25.519  1.00  0.00     0.022 A 
BRANCH  65  68
ATOM     68  S   UNL A   1      41.925  22.265  26.580  1.00  0.00     0.127 S 
ATOM     69  O   UNL A   1      40.469  22.206  26.459  1.00  0.00    -0.237 OA
ATOM     70  O   UNL A   1      42.652  21.855  25.378  1.00  0.00    -0.237 OA
ATOM     71  O   UNL A   1      42.478  21.748  27.824  1.00  0.00    -0.744 OA
ENDBRANCH  65  68
ENDBRANCH  47  61
BRANCH  48  72
ATOM     72  C   UNL A   1      39.121  32.033  35.239  1.00  0.00     0.023 A 
ATOM     73  C   UNL A   1      38.209  31.523  36.184  1.00  0.00     0.012 A 
ATOM     74  C   UNL A   1      39.629  33.336  35.407  1.00  0.00     0.148 A 
ATOM     75  C   UNL A   1      37.793  32.302  37.264  1.00  0.00     0.002 A 
ATOM     76  C   UNL A   1      39.249  34.088  36.512  1.00  0.00     0.091 A 
ATOM     77  F   UNL A   1      40.489  33.804  34.493  1.00  0.00    -0.205 F 
ATOM     78  C   UNL A   1      38.321  33.579  37.435  1.00  0.00     0.022 A 
BRANCH  76  79
ATOM     79  S   UNL A   1      39.971  35.691  36.887  1.00  0.00     0.127 S 
ATOM     80  O   UNL A   1      41.383  35.352  37.046  1.00  0.00    -0.237 OA
ATOM     81  O   UNL A   1      39.652  36.454  35.680  1.00  0.00    -0.237 OA
ATOM     82  O   UNL A   1      39.294  36.157  38.089  1.00  0.00    -0.744 OA
ENDBRANCH  76  79
ENDBRANCH  48  72
BRANCH  60  83
ATOM     83  C   UNL A   1      44.942  28.383  33.997  1.00  0.00     0.023 A 
ATOM     84  C   UNL A   1      46.000  29.305  33.882  1.00  0.00     0.012 A 
ATOM     85  C   UNL A   1      45.051  27.313  34.905  1.00  0.00     0.148 A 
ATOM     86  C   UNL A   1      47.161  29.148  34.638  1.00  0.00     0.002 A 
ATOM     87  C   UNL A   1      46.193  27.188  35.688  1.00  0.00     0.091 A 
ATOM     88  F   UNL A   1      44.043  26.432  34.983  1.00  0.00    -0.205 F 
ATOM     89  C   UNL A   1      47.253  28.098  35.549  1.00  0.00     0.022 A 
BRANCH  87  90
ATOM     90  S   UNL A   1      46.357  25.921  36.952  1.00  0.00     0.127 S 
ATOM     91  O   UNL A   1      46.573  24.722  36.146  1.00  0.00    -0.237 OA
ATOM     92  O   UNL A   1      47.531  26.374  37.699  1.00  0.00    -0.237 OA
ATOM     93  O   UNL A   1      45.113  25.954  37.711  1.00  0.00    -0.744 OA
ENDBRANCH  87  90
ENDBRANCH  60  83
ENDBRANCH  34  35
ENDBRANCH  26  29
ENDBRANCH  24  25
ENDBRANCH  23  24
ENDBRANCH   1  23
TORSDOF 18
ENDMDL
