MODEL 1
REMARK VINA RESULT:     -13.5      0.000      0.000
REMARK SMILES O=C(NCCCNC(=O)[C@H]1[C@H]2CC[C@H](CC2)[C@H]1C(=O)Nc1ccc(C(=O)N2CCCC2)cc1)c1ccc(-c2c3nc(c(-c4cccc(S(=O)(=O)[O-])c4F)c4ccc([nH]4)c(-c4cccc(S(=O)(=O)[O-])c4F)c4nc(c(-c5cccc(S(=O)(=O)[O-])c5F)c5ccc2[nH]5)C=C4)C=C3)cc1
REMARK SMILES IDX 5 1 4 2 3 3 1 4 2 5 34 7 35 8 96 9 36 10 95 11 37 12 38 13
REMARK SMILES IDX 39 14 89 15 40 16 94 17 88 18 90 19 41 20 93 21 87 22 86 23
REMARK SMILES IDX 42 25 74 26 54 27 73 28 55 29 58 30 72 31 91 32 56 33 57 34
REMARK SMILES IDX 71 36 92 37 59 38 43 39 44 40 52 41 45 42 47 43 53 44 46 45
REMARK SMILES IDX 48 46 49 47 50 48 51 49 75 50 76 51 84 52 77 53 79 54 85 55
REMARK SMILES IDX 78 56 80 57 81 58 82 59 83 60 60 61 61 62 69 63 62 64 64 65
REMARK SMILES IDX 70 66 63 67 65 68 66 69 67 70 68 71 6 72 7 73 8 74 9 76
REMARK SMILES IDX 10 77 11 78 17 79 16 80 12 81 14 82 15 83 13 84 18 85 19 86
REMARK SMILES IDX 20 87 21 89 22 90 33 91 23 92 32 93 24 94 25 95 26 96 27 97
REMARK SMILES IDX 28 98 31 99 29 100 30 101
REMARK H PARENT 3 6 90 24 58 35 7 75 20 88
REMARK Flexibility Score: inf
ROOT
ATOM      1  C   UNL A   1      31.653  29.690  26.685  1.00  0.00     0.042 C 
ENDROOT
BRANCH   1   2
ATOM      2  C   UNL A   1      32.898  30.538  26.413  1.00  0.00     0.118 C 
BRANCH   2   3
ATOM      3  N   UNL A   1      32.754  31.944  26.799  1.00  0.00    -0.352 N 
ATOM      4  O   UNL A   1      33.129  33.872  27.910  1.00  0.00    -0.269 OA
ATOM      5  C   UNL A   1      33.529  32.750  27.607  1.00  0.00     0.251 C 
ATOM      6  H   UNL A   1      31.966  32.392  26.414  1.00  0.00     0.163 HD
BRANCH   5   7
ATOM      7  C   UNL A   1      34.810  32.257  28.143  1.00  0.00     0.039 A 
ATOM      8  C   UNL A   1      34.859  31.002  28.738  1.00  0.00     0.014 A 
ATOM      9  C   UNL A   1      35.972  33.033  28.047  1.00  0.00     0.014 A 
ATOM     10  C   UNL A   1      35.988  30.621  29.439  1.00  0.00     0.010 A 
ATOM     11  C   UNL A   1      37.158  32.578  28.637  1.00  0.00     0.010 A 
ATOM     12  C   UNL A   1      37.161  31.389  29.380  1.00  0.00    -0.014 A 
BRANCH  12  13
ATOM     13  C   UNL A   1      38.375  30.854  30.049  1.00  0.00     0.031 A 
ATOM     14  C   UNL A   1      38.706  31.199  31.473  1.00  0.00     0.074 A 
ATOM     15  C   UNL A   1      39.136  29.977  29.363  1.00  0.00     0.049 A 
ATOM     16  N   UNL A   1      39.668  30.729  32.224  1.00  0.00    -0.248 NA
ATOM     17  C   UNL A   1      37.862  32.201  32.143  1.00  0.00     0.031 C 
ATOM     18  C   UNL A   1      38.923  29.605  27.960  1.00  0.00     0.029 A 
ATOM     19  N   UNL A   1      40.207  29.214  29.747  1.00  0.00    -0.354 N 
ATOM     20  C   UNL A   1      39.581  31.410  33.431  1.00  0.00     0.074 A 
ATOM     21  C   UNL A   1      38.468  32.326  33.318  1.00  0.00     0.031 C 
ATOM     22  C   UNL A   1      39.783  28.636  27.625  1.00  0.00     0.029 A 
ATOM     23  C   UNL A   1      40.661  28.374  28.757  1.00  0.00     0.049 A 
ATOM     24  H   UNL A   1      40.612  29.263  30.643  1.00  0.00     0.167 HD
ATOM     25  C   UNL A   1      40.353  31.272  34.536  1.00  0.00     0.034 A 
ATOM     26  C   UNL A   1      41.682  27.497  28.751  1.00  0.00     0.034 A 
ATOM     27  C   UNL A   1      41.431  30.324  34.648  1.00  0.00     0.049 A 
ATOM     28  C   UNL A   1      42.490  27.335  30.003  1.00  0.00     0.074 A 
ATOM     29  C   UNL A   1      42.243  30.071  35.740  1.00  0.00     0.029 A 
ATOM     30  N   UNL A   1      41.850  29.476  33.634  1.00  0.00    -0.354 N 
ATOM     31  N   UNL A   1      42.325  27.916  31.166  1.00  0.00    -0.248 NA
ATOM     32  C   UNL A   1      43.611  26.390  29.950  1.00  0.00     0.031 C 
ATOM     33  C   UNL A   1      43.164  29.081  35.379  1.00  0.00     0.029 A 
ATOM     34  C   UNL A   1      42.913  28.702  34.069  1.00  0.00     0.049 A 
ATOM     35  H   UNL A   1      41.450  29.431  32.735  1.00  0.00     0.167 HD
ATOM     36  C   UNL A   1      43.315  27.401  31.991  1.00  0.00     0.074 A 
ATOM     37  C   UNL A   1      44.052  26.434  31.201  1.00  0.00     0.031 C 
ATOM     38  C   UNL A   1      43.604  27.717  33.276  1.00  0.00     0.034 A 
BRANCH  25  39
ATOM     39  C   UNL A   1      40.048  32.149  35.723  1.00  0.00     0.023 A 
ATOM     40  C   UNL A   1      40.777  33.340  35.920  1.00  0.00     0.012 A 
ATOM     41  C   UNL A   1      39.003  31.827  36.610  1.00  0.00     0.148 A 
ATOM     42  C   UNL A   1      40.489  34.181  36.996  1.00  0.00     0.002 A 
ATOM     43  C   UNL A   1      38.696  32.689  37.659  1.00  0.00     0.091 A 
ATOM     44  F   UNL A   1      38.336  30.679  36.424  1.00  0.00    -0.205 F 
ATOM     45  C   UNL A   1      39.445  33.860  37.858  1.00  0.00     0.022 A 
BRANCH  43  46
ATOM     46  S   UNL A   1      37.323  32.396  38.779  1.00  0.00     0.127 S 
ATOM     47  O   UNL A   1      37.435  30.955  39.011  1.00  0.00    -0.237 OA
ATOM     48  O   UNL A   1      37.677  33.227  39.929  1.00  0.00    -0.237 OA
ATOM     49  O   UNL A   1      36.129  32.828  38.065  1.00  0.00    -0.744 OA
ENDBRANCH  43  46
ENDBRANCH  25  39
BRANCH  26  50
ATOM     50  C   UNL A   1      41.955  26.699  27.524  1.00  0.00     0.023 A 
ATOM     51  C   UNL A   1      42.577  27.307  26.418  1.00  0.00     0.012 A 
ATOM     52  C   UNL A   1      41.679  25.317  27.484  1.00  0.00     0.148 A 
ATOM     53  C   UNL A   1      42.910  26.555  25.290  1.00  0.00     0.002 A 
ATOM     54  C   UNL A   1      42.074  24.563  26.387  1.00  0.00     0.091 A 
ATOM     55  F   UNL A   1      41.066  24.761  28.538  1.00  0.00    -0.205 F 
ATOM     56  C   UNL A   1      42.675  25.181  25.281  1.00  0.00     0.022 A 
BRANCH  54  57
ATOM     57  S   UNL A   1      41.959  22.770  26.375  1.00  0.00     0.127 S 
ATOM     58  O   UNL A   1      40.517  22.561  26.456  1.00  0.00    -0.237 OA
ATOM     59  O   UNL A   1      42.561  22.434  25.085  1.00  0.00    -0.237 OA
ATOM     60  O   UNL A   1      42.735  22.326  27.526  1.00  0.00    -0.744 OA
ENDBRANCH  54  57
ENDBRANCH  26  50
BRANCH  38  61
ATOM     61  C   UNL A   1      44.759  26.996  33.915  1.00  0.00     0.023 A 
ATOM     62  C   UNL A   1      46.065  27.498  33.758  1.00  0.00     0.012 A 
ATOM     63  C   UNL A   1      44.543  25.860  34.718  1.00  0.00     0.148 A 
ATOM     64  C   UNL A   1      47.145  26.863  34.367  1.00  0.00     0.002 A 
ATOM     65  C   UNL A   1      45.618  25.260  35.361  1.00  0.00     0.091 A 
ATOM     66  F   UNL A   1      43.293  25.387  34.835  1.00  0.00    -0.205 F 
ATOM     67  C   UNL A   1      46.921  25.752  35.177  1.00  0.00     0.022 A 
BRANCH  65  68
ATOM     68  S   UNL A   1      45.406  23.882  36.492  1.00  0.00     0.127 S 
ATOM     69  O   UNL A   1      46.786  23.608  36.891  1.00  0.00    -0.237 OA
ATOM     70  O   UNL A   1      44.572  24.467  37.543  1.00  0.00    -0.237 OA
ATOM     71  O   UNL A   1      44.754  22.831  35.723  1.00  0.00    -0.744 OA
ENDBRANCH  65  68
ENDBRANCH  38  61
ENDBRANCH  12  13
ENDBRANCH   5   7
ENDBRANCH   2   3
ENDBRANCH   1   2
BRANCH   1  72
ATOM     72  C   UNL A   1      31.886  28.602  27.722  1.00  0.00     0.117 C 
BRANCH  72  73
ATOM     73  N   UNL A   1      31.309  27.320  27.384  1.00  0.00    -0.356 N 
ATOM     74  C   UNL A   1      31.717  26.398  26.477  1.00  0.00     0.224 C 
ATOM     75  H   UNL A   1      30.498  27.081  27.888  1.00  0.00     0.163 HD
ATOM     76  O   UNL A   1      31.436  25.226  26.757  1.00  0.00    -0.275 OA
BRANCH  74  77
ATOM     77  C   UNL A   1      32.321  26.709  25.104  1.00  0.00     0.094 C 
ATOM     78  C   UNL A   1      33.775  26.459  24.600  1.00  0.00     0.002 C 
ATOM     79  C   UNL A   1      31.326  26.635  23.914  1.00  0.00     0.094 C 
ATOM     80  C   UNL A   1      33.921  25.279  23.622  1.00  0.00     0.005 C 
ATOM     81  C   UNL A   1      34.164  27.695  23.743  1.00  0.00     0.005 C 
ATOM     82  C   UNL A   1      32.132  26.691  22.580  1.00  0.00     0.002 C 
ATOM     83  C   UNL A   1      32.993  25.438  22.413  1.00  0.00     0.005 C 
ATOM     84  C   UNL A   1      33.114  27.897  22.632  1.00  0.00     0.005 C 
BRANCH  79  85
ATOM     85  C   UNL A   1      30.036  25.756  23.826  1.00  0.00     0.228 C 
ATOM     86  O   UNL A   1      28.955  26.348  23.650  1.00  0.00    -0.274 OA
ATOM     87  N   UNL A   1      29.957  24.399  23.670  1.00  0.00    -0.326 N 
ATOM     88  H   UNL A   1      29.110  24.106  23.265  1.00  0.00     0.169 HD
BRANCH  87  89
ATOM     89  C   UNL A   1      30.819  23.341  23.963  1.00  0.00     0.041 A 
ATOM     90  C   UNL A   1      31.541  22.710  22.949  1.00  0.00     0.027 A 
ATOM     91  C   UNL A   1      30.979  22.886  25.247  1.00  0.00     0.027 A 
ATOM     92  C   UNL A   1      32.613  21.852  23.277  1.00  0.00     0.016 A 
ATOM     93  C   UNL A   1      32.049  22.048  25.570  1.00  0.00     0.016 A 
ATOM     94  C   UNL A   1      32.942  21.592  24.614  1.00  0.00     0.040 A 
BRANCH  94  95
ATOM     95  C   UNL A   1      34.335  21.133  24.964  1.00  0.00     0.253 C 
ATOM     96  O   UNL A   1      34.640  19.982  24.644  1.00  0.00    -0.269 OA
ATOM     97  N   UNL A   1      35.309  22.036  25.376  1.00  0.00    -0.339 N 
ATOM     98  C   UNL A   1      35.272  23.092  26.377  1.00  0.00     0.120 C 
ATOM     99  C   UNL A   1      36.674  21.898  24.891  1.00  0.00     0.120 C 
ATOM    100  C   UNL A   1      36.283  24.089  25.837  1.00  0.00     0.023 C 
ATOM    101  C   UNL A   1      37.398  23.171  25.342  1.00  0.00     0.023 C 
ENDBRANCH  94  95
ENDBRANCH  87  89
ENDBRANCH  79  85
ENDBRANCH  74  77
ENDBRANCH  72  73
ENDBRANCH   1  72
TORSDOF 16
ENDMDL
MODEL 2
REMARK VINA RESULT:     -13.5      1.853      3.769
REMARK SMILES O=C(NCCCNC(=O)[C@H]1[C@H]2CC[C@H](CC2)[C@H]1C(=O)Nc1ccc(C(=O)N2CCCC2)cc1)c1ccc(-c2c3nc(c(-c4cccc(S(=O)(=O)[O-])c4F)c4ccc([nH]4)c(-c4cccc(S(=O)(=O)[O-])c4F)c4nc(c(-c5cccc(S(=O)(=O)[O-])c5F)c5ccc2[nH]5)C=C4)C=C3)cc1
REMARK SMILES IDX 5 1 4 2 3 3 1 4 2 5 34 7 35 8 96 9 36 10 95 11 37 12 38 13
REMARK SMILES IDX 39 14 89 15 40 16 94 17 88 18 90 19 41 20 93 21 87 22 86 23
REMARK SMILES IDX 42 25 74 26 54 27 73 28 55 29 58 30 72 31 91 32 56 33 57 34
REMARK SMILES IDX 71 36 92 37 59 38 43 39 44 40 52 41 45 42 47 43 53 44 46 45
REMARK SMILES IDX 48 46 49 47 50 48 51 49 75 50 76 51 84 52 77 53 79 54 85 55
REMARK SMILES IDX 78 56 80 57 81 58 82 59 83 60 60 61 61 62 69 63 62 64 64 65
REMARK SMILES IDX 70 66 63 67 65 68 66 69 67 70 68 71 6 72 7 73 8 74 9 76
REMARK SMILES IDX 10 77 11 78 17 79 16 80 12 81 14 82 15 83 13 84 18 85 19 86
REMARK SMILES IDX 20 87 21 89 22 90 33 91 23 92 32 93 24 94 25 95 26 96 27 97
REMARK SMILES IDX 28 98 31 99 29 100 30 101
REMARK H PARENT 3 6 90 24 58 35 7 75 20 88
REMARK Flexibility Score: inf
ROOT
ATOM      1  C   UNL A   1      32.708  28.110  25.984  1.00  0.00     0.042 C 
ENDROOT
BRANCH   1   2
ATOM      2  C   UNL A   1      33.276  29.386  25.357  1.00  0.00     0.118 C 
BRANCH   2   3
ATOM      3  N   UNL A   1      32.749  30.621  25.942  1.00  0.00    -0.352 N 
ATOM      4  O   UNL A   1      32.511  32.327  27.400  1.00  0.00    -0.269 OA
ATOM      5  C   UNL A   1      33.207  31.404  26.981  1.00  0.00     0.251 C 
ATOM      6  H   UNL A   1      31.922  30.950  25.519  1.00  0.00     0.163 HD
BRANCH   5   7
ATOM      7  C   UNL A   1      34.502  31.112  27.621  1.00  0.00     0.039 A 
ATOM      8  C   UNL A   1      34.746  29.834  28.106  1.00  0.00     0.014 A 
ATOM      9  C   UNL A   1      35.486  32.103  27.729  1.00  0.00     0.014 A 
ATOM     10  C   UNL A   1      35.854  29.604  28.901  1.00  0.00     0.010 A 
ATOM     11  C   UNL A   1      36.676  31.824  28.413  1.00  0.00     0.010 A 
ATOM     12  C   UNL A   1      36.847  30.586  29.046  1.00  0.00    -0.014 A 
BRANCH  12  13
ATOM     13  C   UNL A   1      38.072  30.225  29.805  1.00  0.00     0.031 A 
ATOM     14  C   UNL A   1      38.276  30.664  31.227  1.00  0.00     0.074 A 
ATOM     15  C   UNL A   1      38.970  29.418  29.204  1.00  0.00     0.049 A 
ATOM     16  N   UNL A   1      39.239  30.341  32.051  1.00  0.00    -0.248 NA
ATOM     17  C   UNL A   1      37.283  31.585  31.802  1.00  0.00     0.031 C 
ATOM     18  C   UNL A   1      38.886  28.967  27.811  1.00  0.00     0.029 A 
ATOM     19  N   UNL A   1      40.097  28.803  29.681  1.00  0.00    -0.354 N 
ATOM     20  C   UNL A   1      39.002  31.055  33.219  1.00  0.00     0.074 A 
ATOM     21  C   UNL A   1      37.798  31.828  33.001  1.00  0.00     0.031 C 
ATOM     22  C   UNL A   1      39.871  28.093  27.569  1.00  0.00     0.029 A 
ATOM     23  C   UNL A   1      40.704  27.983  28.758  1.00  0.00     0.049 A 
ATOM     24  H   UNL A   1      40.439  28.935  30.595  1.00  0.00     0.167 HD
ATOM     25  C   UNL A   1      39.717  31.054  34.369  1.00  0.00     0.034 A 
ATOM     26  C   UNL A   1      41.818  27.234  28.849  1.00  0.00     0.034 A 
ATOM     27  C   UNL A   1      40.889  30.246  34.585  1.00  0.00     0.049 A 
ATOM     28  C   UNL A   1      42.562  27.219  30.149  1.00  0.00     0.074 A 
ATOM     29  C   UNL A   1      41.658  30.135  35.730  1.00  0.00     0.029 A 
ATOM     30  N   UNL A   1      41.463  29.413  33.635  1.00  0.00    -0.354 N 
ATOM     31  N   UNL A   1      42.262  27.823  31.273  1.00  0.00    -0.248 NA
ATOM     32  C   UNL A   1      43.787  26.411  30.203  1.00  0.00     0.031 C 
ATOM     33  C   UNL A   1      42.707  29.247  35.466  1.00  0.00     0.029 A 
ATOM     34  C   UNL A   1      42.580  28.789  34.164  1.00  0.00     0.049 A 
ATOM     35  H   UNL A   1      41.126  29.285  32.719  1.00  0.00     0.167 HD
ATOM     36  C   UNL A   1      43.255  27.462  32.175  1.00  0.00     0.074 A 
ATOM     37  C   UNL A   1      44.144  26.558  31.472  1.00  0.00     0.031 C 
ATOM     38  C   UNL A   1      43.427  27.861  33.457  1.00  0.00     0.034 A 
BRANCH  25  39
ATOM     39  C   UNL A   1      39.242  31.936  35.495  1.00  0.00     0.023 A 
ATOM     40  C   UNL A   1      38.332  31.430  36.444  1.00  0.00     0.012 A 
ATOM     41  C   UNL A   1      39.740  33.245  35.647  1.00  0.00     0.148 A 
ATOM     42  C   UNL A   1      37.903  32.220  37.512  1.00  0.00     0.002 A 
ATOM     43  C   UNL A   1      39.337  34.015  36.734  1.00  0.00     0.091 A 
ATOM     44  F   UNL A   1      40.585  33.721  34.722  1.00  0.00    -0.205 F 
ATOM     45  C   UNL A   1      38.412  33.507  37.662  1.00  0.00     0.022 A 
BRANCH  43  46
ATOM     46  S   UNL A   1      39.993  35.657  37.050  1.00  0.00     0.127 S 
ATOM     47  O   UNL A   1      39.298  36.019  38.285  1.00  0.00    -0.237 OA
ATOM     48  O   UNL A   1      41.424  35.395  37.211  1.00  0.00    -0.237 OA
ATOM     49  O   UNL A   1      39.652  36.453  35.879  1.00  0.00    -0.744 OA
ENDBRANCH  43  46
ENDBRANCH  25  39
BRANCH  26  50
ATOM     50  C   UNL A   1      42.254  26.424  27.678  1.00  0.00     0.023 A 
ATOM     51  C   UNL A   1      43.199  26.951  26.777  1.00  0.00     0.012 A 
ATOM     52  C   UNL A   1      41.801  25.102  27.503  1.00  0.00     0.148 A 
ATOM     53  C   UNL A   1      43.677  26.176  25.718  1.00  0.00     0.002 A 
ATOM     54  C   UNL A   1      42.330  24.315  26.488  1.00  0.00     0.091 A 
ATOM     55  F   UNL A   1      40.885  24.626  28.358  1.00  0.00    -0.205 F 
ATOM     56  C   UNL A   1      43.256  24.854  25.584  1.00  0.00     0.022 A 
BRANCH  54  57
ATOM     57  S   UNL A   1      41.967  22.561  26.357  1.00  0.00     0.127 S 
ATOM     58  O   UNL A   1      42.665  22.201  25.127  1.00  0.00    -0.237 OA
ATOM     59  O   UNL A   1      42.564  22.033  27.584  1.00  0.00    -0.237 OA
ATOM     60  O   UNL A   1      40.513  22.469  26.317  1.00  0.00    -0.744 OA
ENDBRANCH  54  57
ENDBRANCH  26  50
BRANCH  38  61
ATOM     61  C   UNL A   1      44.618  27.308  34.191  1.00  0.00     0.023 A 
ATOM     62  C   UNL A   1      45.842  28.003  34.154  1.00  0.00     0.012 A 
ATOM     63  C   UNL A   1      44.506  26.137  34.965  1.00  0.00     0.148 A 
ATOM     64  C   UNL A   1      46.948  27.524  34.853  1.00  0.00     0.002 A 
ATOM     65  C   UNL A   1      45.599  25.691  35.696  1.00  0.00     0.091 A 
ATOM     66  F   UNL A   1      43.337  25.480  34.966  1.00  0.00    -0.205 F 
ATOM     67  C   UNL A   1      46.824  26.376  35.633  1.00  0.00     0.022 A 
BRANCH  65  68
ATOM     68  S   UNL A   1      45.500  24.276  36.795  1.00  0.00     0.127 S 
ATOM     69  O   UNL A   1      46.875  24.179  37.283  1.00  0.00    -0.237 OA
ATOM     70  O   UNL A   1      44.528  24.724  37.794  1.00  0.00    -0.237 OA
ATOM     71  O   UNL A   1      45.046  23.163  35.972  1.00  0.00    -0.744 OA
ENDBRANCH  65  68
ENDBRANCH  38  61
ENDBRANCH  12  13
ENDBRANCH   5   7
ENDBRANCH   2   3
ENDBRANCH   1   2
BRANCH   1  72
ATOM     72  C   UNL A   1      33.501  26.863  25.625  1.00  0.00     0.117 C 
BRANCH  72  73
ATOM     73  N   UNL A   1      32.826  25.619  25.920  1.00  0.00    -0.356 N 
ATOM     74  C   UNL A   1      33.343  24.390  26.168  1.00  0.00     0.224 C 
ATOM     75  H   UNL A   1      31.844  25.672  25.944  1.00  0.00     0.163 HD
ATOM     76  O   UNL A   1      32.662  23.674  26.913  1.00  0.00    -0.275 OA
BRANCH  74  77
ATOM     77  C   UNL A   1      34.572  23.787  25.481  1.00  0.00     0.094 C 
ATOM     78  C   UNL A   1      35.889  23.258  26.125  1.00  0.00     0.002 C 
ATOM     79  C   UNL A   1      34.279  23.017  24.163  1.00  0.00     0.094 C 
ATOM     80  C   UNL A   1      36.019  21.724  26.154  1.00  0.00     0.005 C 
ATOM     81  C   UNL A   1      37.048  23.707  25.194  1.00  0.00     0.005 C 
ATOM     82  C   UNL A   1      35.560  22.233  23.743  1.00  0.00     0.002 C 
ATOM     83  C   UNL A   1      35.874  21.126  24.751  1.00  0.00     0.005 C 
ATOM     84  C   UNL A   1      36.776  23.204  23.762  1.00  0.00     0.005 C 
BRANCH  79  85
ATOM     85  C   UNL A   1      32.949  22.287  23.782  1.00  0.00     0.228 C 
ATOM     86  O   UNL A   1      32.905  21.056  23.959  1.00  0.00    -0.274 OA
ATOM     87  N   UNL A   1      31.734  22.853  23.508  1.00  0.00    -0.326 N 
ATOM     88  H   UNL A   1      30.980  22.242  23.670  1.00  0.00     0.169 HD
BRANCH  87  89
ATOM     89  C   UNL A   1      31.334  24.107  23.047  1.00  0.00     0.041 A 
ATOM     90  C   UNL A   1      30.259  24.774  23.638  1.00  0.00     0.027 A 
ATOM     91  C   UNL A   1      31.975  24.720  22.000  1.00  0.00     0.027 A 
ATOM     92  C   UNL A   1      30.046  26.143  23.370  1.00  0.00     0.016 A 
ATOM     93  C   UNL A   1      31.771  26.079  21.746  1.00  0.00     0.016 A 
ATOM     94  C   UNL A   1      30.879  26.840  22.484  1.00  0.00     0.040 A 
BRANCH  94  95
ATOM     95  C   UNL A   1      30.991  28.340  22.589  1.00  0.00     0.253 C 
ATOM     96  O   UNL A   1      32.126  28.820  22.531  1.00  0.00    -0.269 OA
ATOM     97  N   UNL A   1      29.870  29.156  22.481  1.00  0.00    -0.339 N 
ATOM     98  C   UNL A   1      28.570  29.083  23.129  1.00  0.00     0.120 C 
ATOM     99  C   UNL A   1      29.951  30.398  21.728  1.00  0.00     0.120 C 
ATOM    100  C   UNL A   1      27.656  29.731  22.102  1.00  0.00     0.023 C 
ATOM    101  C   UNL A   1      28.507  30.902  21.617  1.00  0.00     0.023 C 
ENDBRANCH  94  95
ENDBRANCH  87  89
ENDBRANCH  79  85
ENDBRANCH  74  77
ENDBRANCH  72  73
ENDBRANCH   1  72
TORSDOF 16
ENDMDL
MODEL 3
REMARK VINA RESULT:     -13.4      1.667      3.804
REMARK SMILES O=C(NCCCNC(=O)[C@H]1[C@H]2CC[C@H](CC2)[C@H]1C(=O)Nc1ccc(C(=O)N2CCCC2)cc1)c1ccc(-c2c3nc(c(-c4cccc(S(=O)(=O)[O-])c4F)c4ccc([nH]4)c(-c4cccc(S(=O)(=O)[O-])c4F)c4nc(c(-c5cccc(S(=O)(=O)[O-])c5F)c5ccc2[nH]5)C=C4)C=C3)cc1
REMARK SMILES IDX 5 1 4 2 3 3 1 4 2 5 34 7 35 8 96 9 36 10 95 11 37 12 38 13
REMARK SMILES IDX 39 14 89 15 40 16 94 17 88 18 90 19 41 20 93 21 87 22 86 23
REMARK SMILES IDX 42 25 74 26 54 27 73 28 55 29 58 30 72 31 91 32 56 33 57 34
REMARK SMILES IDX 71 36 92 37 59 38 43 39 44 40 52 41 45 42 47 43 53 44 46 45
REMARK SMILES IDX 48 46 49 47 50 48 51 49 75 50 76 51 84 52 77 53 79 54 85 55
REMARK SMILES IDX 78 56 80 57 81 58 82 59 83 60 60 61 61 62 69 63 62 64 64 65
REMARK SMILES IDX 70 66 63 67 65 68 66 69 67 70 68 71 6 72 7 73 8 74 9 76
REMARK SMILES IDX 10 77 11 78 17 79 16 80 12 81 14 82 15 83 13 84 18 85 19 86
REMARK SMILES IDX 20 87 21 89 22 90 33 91 23 92 32 93 24 94 25 95 26 96 27 97
REMARK SMILES IDX 28 98 31 99 29 100 30 101
REMARK H PARENT 3 6 90 24 58 35 7 75 20 88
REMARK Flexibility Score: inf
ROOT
ATOM      1  C   UNL A   1      31.722  28.828  26.826  1.00  0.00     0.042 C 
ENDROOT
BRANCH   1   2
ATOM      2  C   UNL A   1      32.817  29.750  26.286  1.00  0.00     0.118 C 
BRANCH   2   3
ATOM      3  N   UNL A   1      32.595  31.169  26.576  1.00  0.00    -0.352 N 
ATOM      4  O   UNL A   1      32.859  33.185  27.556  1.00  0.00    -0.269 OA
ATOM      5  C   UNL A   1      33.322  32.069  27.328  1.00  0.00     0.251 C 
ATOM      6  H   UNL A   1      31.785  31.546  26.162  1.00  0.00     0.163 HD
BRANCH   5   7
ATOM      7  C   UNL A   1      34.626  31.685  27.897  1.00  0.00     0.039 A 
ATOM      8  C   UNL A   1      34.807  30.389  28.365  1.00  0.00     0.014 A 
ATOM      9  C   UNL A   1      35.680  32.604  27.956  1.00  0.00     0.014 A 
ATOM     10  C   UNL A   1      35.937  30.078  29.099  1.00  0.00     0.010 A 
ATOM     11  C   UNL A   1      36.882  32.240  28.575  1.00  0.00     0.010 A 
ATOM     12  C   UNL A   1      37.001  30.989  29.195  1.00  0.00    -0.014 A 
BRANCH  12  13
ATOM     13  C   UNL A   1      38.236  30.540  29.887  1.00  0.00     0.031 A 
ATOM     14  C   UNL A   1      38.526  30.923  31.310  1.00  0.00     0.074 A 
ATOM     15  C   UNL A   1      39.061  29.705  29.222  1.00  0.00     0.049 A 
ATOM     16  N   UNL A   1      39.505  30.524  32.079  1.00  0.00    -0.248 NA
ATOM     17  C   UNL A   1      37.611  31.877  31.956  1.00  0.00     0.031 C 
ATOM     18  C   UNL A   1      38.892  29.302  27.822  1.00  0.00     0.029 A 
ATOM     19  N   UNL A   1      40.173  29.016  29.630  1.00  0.00    -0.354 N 
ATOM     20  C   UNL A   1      39.359  31.212  33.276  1.00  0.00     0.074 A 
ATOM     21  C   UNL A   1      38.191  32.055  33.136  1.00  0.00     0.031 C 
ATOM     22  C   UNL A   1      39.816  28.385  27.510  1.00  0.00     0.029 A 
ATOM     23  C   UNL A   1      40.693  28.193  28.657  1.00  0.00     0.049 A 
ATOM     24  H   UNL A   1      40.562  29.102  30.530  1.00  0.00     0.167 HD
ATOM     25  C   UNL A   1      40.123  31.138  34.392  1.00  0.00     0.034 A 
ATOM     26  C   UNL A   1      41.767  27.383  28.676  1.00  0.00     0.034 A 
ATOM     27  C   UNL A   1      41.257  30.262  34.531  1.00  0.00     0.049 A 
ATOM     28  C   UNL A   1      42.566  27.289  29.939  1.00  0.00     0.074 A 
ATOM     29  C   UNL A   1      42.068  30.074  35.637  1.00  0.00     0.029 A 
ATOM     30  N   UNL A   1      41.743  29.429  33.533  1.00  0.00    -0.354 N 
ATOM     31  N   UNL A   1      42.349  27.873  31.093  1.00  0.00    -0.248 NA
ATOM     32  C   UNL A   1      43.746  26.416  29.914  1.00  0.00     0.031 C 
ATOM     33  C   UNL A   1      43.055  29.140  35.300  1.00  0.00     0.029 A 
ATOM     34  C   UNL A   1      42.846  28.730  33.992  1.00  0.00     0.049 A 
ATOM     35  H   UNL A   1      41.359  29.348  32.630  1.00  0.00     0.167 HD
ATOM     36  C   UNL A   1      43.359  27.431  31.937  1.00  0.00     0.074 A 
ATOM     37  C   UNL A   1      44.166  26.503  31.169  1.00  0.00     0.031 C 
ATOM     38  C   UNL A   1      43.609  27.781  33.222  1.00  0.00     0.034 A 
BRANCH  25  39
ATOM     39  C   UNL A   1      39.747  32.009  35.564  1.00  0.00     0.023 A 
ATOM     40  C   UNL A   1      40.300  33.300  35.683  1.00  0.00     0.012 A 
ATOM     41  C   UNL A   1      38.803  31.573  36.514  1.00  0.00     0.148 A 
ATOM     42  C   UNL A   1      39.941  34.133  36.743  1.00  0.00     0.002 A 
ATOM     43  C   UNL A   1      38.421  32.423  37.548  1.00  0.00     0.091 A 
ATOM     44  F   UNL A   1      38.305  30.334  36.401  1.00  0.00    -0.205 F 
ATOM     45  C   UNL A   1      38.997  33.699  37.669  1.00  0.00     0.022 A 
BRANCH  43  46
ATOM     46  S   UNL A   1      37.159  31.978  38.746  1.00  0.00     0.127 S 
ATOM     47  O   UNL A   1      37.787  32.391  40.001  1.00  0.00    -0.237 OA
ATOM     48  O   UNL A   1      36.028  32.808  38.330  1.00  0.00    -0.237 OA
ATOM     49  O   UNL A   1      36.948  30.546  38.589  1.00  0.00    -0.744 OA
ENDBRANCH  43  46
ENDBRANCH  25  39
BRANCH  26  50
ATOM     50  C   UNL A   1      42.107  26.589  27.463  1.00  0.00     0.023 A 
ATOM     51  C   UNL A   1      42.837  27.185  26.418  1.00  0.00     0.012 A 
ATOM     52  C   UNL A   1      41.783  25.220  27.381  1.00  0.00     0.148 A 
ATOM     53  C   UNL A   1      43.230  26.433  25.309  1.00  0.00     0.002 A 
ATOM     54  C   UNL A   1      42.236  24.463  26.308  1.00  0.00     0.091 A 
ATOM     55  F   UNL A   1      41.069  24.676  28.376  1.00  0.00    -0.205 F 
ATOM     56  C   UNL A   1      42.945  25.070  25.262  1.00  0.00     0.022 A 
BRANCH  54  57
ATOM     57  S   UNL A   1      42.056  22.676  26.262  1.00  0.00     0.127 S 
ATOM     58  O   UNL A   1      42.762  22.273  27.475  1.00  0.00    -0.237 OA
ATOM     59  O   UNL A   1      40.603  22.514  26.310  1.00  0.00    -0.237 OA
ATOM     60  O   UNL A   1      42.660  22.259  25.003  1.00  0.00    -0.744 OA
ENDBRANCH  54  57
ENDBRANCH  26  50
BRANCH  38  61
ATOM     61  C   UNL A   1      44.799  27.142  33.884  1.00  0.00     0.023 A 
ATOM     62  C   UNL A   1      46.063  27.757  33.787  1.00  0.00     0.012 A 
ATOM     63  C   UNL A   1      44.653  25.972  34.653  1.00  0.00     0.148 A 
ATOM     64  C   UNL A   1      47.171  27.198  34.420  1.00  0.00     0.002 A 
ATOM     65  C   UNL A   1      45.752  25.447  35.319  1.00  0.00     0.091 A 
ATOM     66  F   UNL A   1      43.445  25.392  34.712  1.00  0.00    -0.205 F 
ATOM     67  C   UNL A   1      47.014  26.051  35.195  1.00  0.00     0.022 A 
BRANCH  65  68
ATOM     68  S   UNL A   1      45.620  24.027  36.409  1.00  0.00     0.127 S 
ATOM     69  O   UNL A   1      47.003  23.859  36.850  1.00  0.00    -0.237 OA
ATOM     70  O   UNL A   1      44.704  24.512  37.443  1.00  0.00    -0.237 OA
ATOM     71  O   UNL A   1      45.085  22.945  35.593  1.00  0.00    -0.744 OA
ENDBRANCH  65  68
ENDBRANCH  38  61
ENDBRANCH  12  13
ENDBRANCH   5   7
ENDBRANCH   2   3
ENDBRANCH   1   2
BRANCH   1  72
ATOM     72  C   UNL A   1      31.944  27.365  26.471  1.00  0.00     0.117 C 
BRANCH  72  73
ATOM     73  N   UNL A   1      33.173  27.103  25.757  1.00  0.00    -0.356 N 
ATOM     74  C   UNL A   1      33.561  25.995  25.077  1.00  0.00     0.224 C 
ATOM     75  H   UNL A   1      33.827  27.838  25.766  1.00  0.00     0.163 HD
ATOM     76  O   UNL A   1      34.334  26.202  24.133  1.00  0.00    -0.275 OA
BRANCH  74  77
ATOM     77  C   UNL A   1      33.260  24.550  25.486  1.00  0.00     0.094 C 
ATOM     78  C   UNL A   1      32.352  24.032  26.643  1.00  0.00     0.002 C 
ATOM     79  C   UNL A   1      33.281  23.518  24.324  1.00  0.00     0.094 C 
ATOM     80  C   UNL A   1      31.003  23.448  26.186  1.00  0.00     0.005 C 
ATOM     81  C   UNL A   1      33.086  22.815  27.270  1.00  0.00     0.005 C 
ATOM     82  C   UNL A   1      32.687  22.171  24.837  1.00  0.00     0.002 C 
ATOM     83  C   UNL A   1      31.200  22.323  25.163  1.00  0.00     0.005 C 
ATOM     84  C   UNL A   1      33.392  21.781  26.168  1.00  0.00     0.005 C 
BRANCH  79  85
ATOM     85  C   UNL A   1      32.976  23.801  22.817  1.00  0.00     0.228 C 
ATOM     86  O   UNL A   1      33.578  23.109  21.975  1.00  0.00    -0.274 OA
ATOM     87  N   UNL A   1      31.950  24.540  22.296  1.00  0.00    -0.326 N 
ATOM     88  H   UNL A   1      31.719  24.282  21.374  1.00  0.00     0.169 HD
BRANCH  87  89
ATOM     89  C   UNL A   1      31.162  25.581  22.788  1.00  0.00     0.041 A 
ATOM     90  C   UNL A   1      31.406  26.901  22.406  1.00  0.00     0.027 A 
ATOM     91  C   UNL A   1      30.130  25.343  23.660  1.00  0.00     0.027 A 
ATOM     92  C   UNL A   1      30.443  27.900  22.666  1.00  0.00     0.016 A 
ATOM     93  C   UNL A   1      29.172  26.330  23.905  1.00  0.00     0.016 A 
ATOM     94  C   UNL A   1      29.253  27.592  23.340  1.00  0.00     0.040 A 
BRANCH  94  95
ATOM     95  C   UNL A   1      28.046  28.478  23.166  1.00  0.00     0.253 C 
ATOM     96  O   UNL A   1      26.971  28.047  23.590  1.00  0.00    -0.269 OA
ATOM     97  N   UNL A   1      28.179  29.813  22.798  1.00  0.00    -0.339 N 
ATOM     98  C   UNL A   1      28.947  30.438  21.732  1.00  0.00     0.120 C 
ATOM     99  C   UNL A   1      27.342  30.822  23.429  1.00  0.00     0.120 C 
ATOM    100  C   UNL A   1      29.242  31.813  22.307  1.00  0.00     0.023 C 
ATOM    101  C   UNL A   1      27.915  32.169  22.972  1.00  0.00     0.023 C 
ENDBRANCH  94  95
ENDBRANCH  87  89
ENDBRANCH  79  85
ENDBRANCH  74  77
ENDBRANCH  72  73
ENDBRANCH   1  72
TORSDOF 16
ENDMDL
