MODEL 1
REMARK VINA RESULT:     -13.6      0.000      0.000
REMARK SMILES CC[C@H]1CCCCN1S(=O)(=O)c1ccc2oc(C(=O)NCCCNC(=O)c3ccc(-c4c5nc(c(-c6cccc(S(=O)(=O)[O-])c6F)c6ccc([nH]6)c(-c6cccc(S(=O)(=O)[O-])c6F)c6nc(c(-c7cccc(S(=O)(=O)[O-])c7F)c7ccc4[nH]7)C=C6)C=C5)cc3)c(C)c2c1
REMARK SMILES IDX 22 1 21 2 20 3 18 4 19 5 17 7 12 8 13 9 93 10 14 11 92 12
REMARK SMILES IDX 15 13 90 14 16 15 91 16 9 17 10 18 11 19 8 20 3 21 4 22 5 23
REMARK SMILES IDX 7 24 6 25 2 26 1 27 23 28 24 29 25 30 26 32 27 33 28 34
REMARK SMILES IDX 89 35 29 36 88 37 30 38 31 39 32 40 82 41 33 42 87 43 81 44
REMARK SMILES IDX 83 45 34 46 86 47 80 48 79 49 35 51 67 52 47 53 66 54 48 55
REMARK SMILES IDX 51 56 65 57 84 58 49 59 50 60 64 62 85 63 52 64 36 65 37 66
REMARK SMILES IDX 45 67 38 68 40 69 46 70 39 71 41 72 42 73 43 74 44 75 68 76
REMARK SMILES IDX 69 77 77 78 70 79 72 80 78 81 71 82 73 83 74 84 75 85 76 86
REMARK SMILES IDX 53 87 54 88 62 89 55 90 57 91 63 92 56 93 58 94 59 95 60 96
REMARK SMILES IDX 61 97
REMARK H PARENT 20 6 24 31 83 50 51 61
REMARK Flexibility Score: inf
ROOT
ATOM      1  C   UNL A   1      35.220  21.149  25.269  1.00  0.00     0.042 C 
ENDROOT
BRANCH   1   2
ATOM      2  C   UNL A   1      35.328  19.761  24.665  1.00  0.00     0.118 C 
BRANCH   2   3
ATOM      3  N   UNL A   1      34.216  18.864  24.903  1.00  0.00    -0.349 N 
ATOM      4  C   UNL A   1      32.857  19.117  24.938  1.00  0.00     0.287 C 
ATOM      5  O   UNL A   1      32.146  18.125  25.129  1.00  0.00    -0.266 OA
ATOM      6  H   UNL A   1      34.468  17.926  25.063  1.00  0.00     0.163 HD
BRANCH   4   7
ATOM      7  C   UNL A   1      32.307  20.462  24.809  1.00  0.00     0.195 A 
ATOM      8  C   UNL A   1      30.801  24.782  24.712  1.00  0.00     0.083 A 
ATOM      9  C   UNL A   1      30.414  24.445  26.015  1.00  0.00     0.025 A 
ATOM     10  C   UNL A   1      31.559  23.897  23.944  1.00  0.00     0.034 A 
ATOM     11  C   UNL A   1      30.759  23.190  26.562  1.00  0.00     0.049 A 
ATOM     12  C   UNL A   1      31.729  22.593  24.404  1.00  0.00     0.025 A 
ATOM     13  C   UNL A   1      31.400  22.291  25.707  1.00  0.00     0.135 A 
ATOM     14  C   UNL A   1      32.089  21.372  23.775  1.00  0.00     0.008 A 
ATOM     15  O   UNL A   1      31.796  21.018  25.977  1.00  0.00    -0.451 OA
ATOM     16  C   UNL A   1      32.110  21.231  22.294  1.00  0.00     0.049 C 
BRANCH   8  17
ATOM     17  S   UNL A   1      30.447  26.365  23.984  1.00  0.00     0.243 S 
ATOM     18  O   UNL A   1      29.006  26.478  23.970  1.00  0.00    -0.207 OA
ATOM     19  O   UNL A   1      31.218  26.472  22.760  1.00  0.00    -0.207 OA
BRANCH  17  20
ATOM     20  N   UNL A   1      31.077  27.568  25.079  1.00  0.00    -0.195 NA
ATOM     21  C   UNL A   1      32.285  27.073  25.866  1.00  0.00     0.073 C 
ATOM     22  C   UNL A   1      32.584  28.091  26.979  1.00  0.00     0.020 C 
ATOM     23  C   UNL A   1      32.887  29.473  26.418  1.00  0.00     0.003 C 
ATOM     24  C   UNL A   1      31.291  28.941  24.529  1.00  0.00     0.103 C 
ATOM     25  C   UNL A   1      31.704  29.947  25.597  1.00  0.00     0.017 C 
BRANCH  21  26
ATOM     26  C   UNL A   1      33.498  26.766  24.957  1.00  0.00     0.017 C 
ATOM     27  C   UNL A   1      34.359  25.595  25.409  1.00  0.00     0.005 C 
ENDBRANCH  21  26
ENDBRANCH  17  20
ENDBRANCH   8  17
ENDBRANCH   4   7
ENDBRANCH   2   3
ENDBRANCH   1   2
BRANCH   1  28
ATOM     28  C   UNL A   1      36.536  21.772  25.704  1.00  0.00     0.118 C 
BRANCH  28  29
ATOM     29  N   UNL A   1      37.675  20.861  25.643  1.00  0.00    -0.352 N 
ATOM     30  C   UNL A   1      39.004  21.012  25.972  1.00  0.00     0.251 C 
ATOM     31  H   UNL A   1      37.450  19.966  25.301  1.00  0.00     0.163 HD
ATOM     32  O   UNL A   1      39.783  20.096  25.709  1.00  0.00    -0.269 OA
BRANCH  30  33
ATOM     33  C   UNL A   1      39.525  22.258  26.584  1.00  0.00     0.039 A 
ATOM     34  C   UNL A   1      40.534  22.168  27.552  1.00  0.00     0.014 A 
ATOM     35  C   UNL A   1      39.032  23.513  26.235  1.00  0.00     0.014 A 
ATOM     36  C   UNL A   1      41.122  23.330  28.068  1.00  0.00     0.010 A 
ATOM     37  C   UNL A   1      39.691  24.664  26.659  1.00  0.00     0.010 A 
ATOM     38  C   UNL A   1      40.752  24.589  27.571  1.00  0.00    -0.014 A 
BRANCH  38  39
ATOM     39  C   UNL A   1      41.477  25.837  27.941  1.00  0.00     0.031 A 
ATOM     40  C   UNL A   1      40.763  26.944  28.674  1.00  0.00     0.074 A 
ATOM     41  C   UNL A   1      42.731  26.035  27.487  1.00  0.00     0.049 A 
ATOM     42  N   UNL A   1      41.172  28.160  28.930  1.00  0.00    -0.248 NA
ATOM     43  C   UNL A   1      39.398  26.660  29.146  1.00  0.00     0.031 C 
ATOM     44  C   UNL A   1      43.506  25.079  26.692  1.00  0.00     0.029 A 
ATOM     45  N   UNL A   1      43.562  27.124  27.590  1.00  0.00    -0.354 N 
ATOM     46  C   UNL A   1      40.100  28.800  29.541  1.00  0.00     0.074 A 
ATOM     47  C   UNL A   1      39.013  27.848  29.593  1.00  0.00     0.031 C 
ATOM     48  C   UNL A   1      44.693  25.622  26.380  1.00  0.00     0.029 A 
ATOM     49  C   UNL A   1      44.752  26.978  26.914  1.00  0.00     0.049 A 
ATOM     50  H   UNL A   1      43.330  27.933  28.101  1.00  0.00     0.167 HD
ATOM     51  C   UNL A   1      40.034  30.057  30.044  1.00  0.00     0.034 A 
ATOM     52  C   UNL A   1      45.769  27.841  26.721  1.00  0.00     0.034 A 
ATOM     53  C   UNL A   1      41.138  30.977  30.057  1.00  0.00     0.049 A 
ATOM     54  C   UNL A   1      45.686  29.217  27.324  1.00  0.00     0.074 A 
ATOM     55  C   UNL A   1      41.211  32.223  30.656  1.00  0.00     0.029 A 
ATOM     56  N   UNL A   1      42.359  30.758  29.442  1.00  0.00    -0.354 N 
ATOM     57  N   UNL A   1      44.728  29.742  28.048  1.00  0.00    -0.248 NA
ATOM     58  C   UNL A   1      46.832  30.111  27.103  1.00  0.00     0.031 C 
ATOM     59  C   UNL A   1      42.473  32.763  30.387  1.00  0.00     0.029 A 
ATOM     60  C   UNL A   1      43.188  31.850  29.631  1.00  0.00     0.049 A 
ATOM     61  H   UNL A   1      42.603  29.944  28.943  1.00  0.00     0.167 HD
ATOM     62  C   UNL A   1      45.163  31.016  28.389  1.00  0.00     0.074 A 
ATOM     63  C   UNL A   1      46.484  31.175  27.815  1.00  0.00     0.031 C 
ATOM     64  C   UNL A   1      44.519  31.977  29.095  1.00  0.00     0.034 A 
BRANCH  51  65
ATOM     65  C   UNL A   1      38.742  30.489  30.687  1.00  0.00     0.023 A 
ATOM     66  C   UNL A   1      38.567  30.307  32.074  1.00  0.00     0.012 A 
ATOM     67  C   UNL A   1      37.732  31.125  29.940  1.00  0.00     0.148 A 
ATOM     68  C   UNL A   1      37.393  30.720  32.702  1.00  0.00     0.002 A 
ATOM     69  C   UNL A   1      36.582  31.571  30.580  1.00  0.00     0.091 A 
ATOM     70  F   UNL A   1      37.908  31.270  28.618  1.00  0.00    -0.205 F 
ATOM     71  C   UNL A   1      36.406  31.360  31.958  1.00  0.00     0.022 A 
BRANCH  69  72
ATOM     72  S   UNL A   1      35.284  32.472  29.725  1.00  0.00     0.127 S 
ATOM     73  O   UNL A   1      34.344  32.738  30.813  1.00  0.00    -0.237 OA
ATOM     74  O   UNL A   1      35.998  33.652  29.235  1.00  0.00    -0.237 OA
ATOM     75  O   UNL A   1      34.799  31.580  28.681  1.00  0.00    -0.744 OA
ENDBRANCH  69  72
ENDBRANCH  51  65
BRANCH  52  76
ATOM     76  C   UNL A   1      46.979  27.408  25.966  1.00  0.00     0.023 A 
ATOM     77  C   UNL A   1      47.925  26.582  26.602  1.00  0.00     0.012 A 
ATOM     78  C   UNL A   1      47.178  27.771  24.620  1.00  0.00     0.148 A 
ATOM     79  C   UNL A   1      49.060  26.142  25.920  1.00  0.00     0.002 A 
ATOM     80  C   UNL A   1      48.283  27.284  23.929  1.00  0.00     0.091 A 
ATOM     81  F   UNL A   1      46.276  28.572  24.036  1.00  0.00    -0.205 F 
ATOM     82  C   UNL A   1      49.233  26.483  24.581  1.00  0.00     0.022 A 
BRANCH  80  83
ATOM     83  S   UNL A   1      48.506  27.554  22.167  1.00  0.00     0.127 S 
ATOM     84  O   UNL A   1      48.650  26.187  21.671  1.00  0.00    -0.237 OA
ATOM     85  O   UNL A   1      47.254  28.216  21.800  1.00  0.00    -0.237 OA
ATOM     86  O   UNL A   1      49.685  28.402  22.052  1.00  0.00    -0.744 OA
ENDBRANCH  80  83
ENDBRANCH  52  76
BRANCH  64  87
ATOM     87  C   UNL A   1      45.227  33.290  29.299  1.00  0.00     0.023 A 
ATOM     88  C   UNL A   1      46.053  33.462  30.428  1.00  0.00     0.012 A 
ATOM     89  C   UNL A   1      45.149  34.312  28.334  1.00  0.00     0.148 A 
ATOM     90  C   UNL A   1      46.775  34.641  30.603  1.00  0.00     0.002 A 
ATOM     91  C   UNL A   1      45.907  35.467  28.493  1.00  0.00     0.091 A 
ATOM     92  F   UNL A   1      44.345  34.133  27.276  1.00  0.00    -0.205 F 
ATOM     93  C   UNL A   1      46.712  35.637  29.632  1.00  0.00     0.022 A 
BRANCH  91  94
ATOM     94  S   UNL A   1      45.959  36.767  27.254  1.00  0.00     0.127 S 
ATOM     95  O   UNL A   1      44.576  37.239  27.258  1.00  0.00    -0.237 OA
ATOM     96  O   UNL A   1      46.926  37.703  27.829  1.00  0.00    -0.237 OA
ATOM     97  O   UNL A   1      46.397  36.128  26.020  1.00  0.00    -0.744 OA
ENDBRANCH  91  94
ENDBRANCH  64  87
ENDBRANCH  38  39
ENDBRANCH  30  33
ENDBRANCH  28  29
ENDBRANCH   1  28
TORSDOF 16
ENDMDL
MODEL 2
REMARK VINA RESULT:     -13.5      5.055      8.354
REMARK SMILES CC[C@H]1CCCCN1S(=O)(=O)c1ccc2oc(C(=O)NCCCNC(=O)c3ccc(-c4c5nc(c(-c6cccc(S(=O)(=O)[O-])c6F)c6ccc([nH]6)c(-c6cccc(S(=O)(=O)[O-])c6F)c6nc(c(-c7cccc(S(=O)(=O)[O-])c7F)c7ccc4[nH]7)C=C6)C=C5)cc3)c(C)c2c1
REMARK SMILES IDX 22 1 21 2 20 3 18 4 19 5 17 7 12 8 13 9 93 10 14 11 92 12
REMARK SMILES IDX 15 13 90 14 16 15 91 16 9 17 10 18 11 19 8 20 3 21 4 22 5 23
REMARK SMILES IDX 7 24 6 25 2 26 1 27 23 28 24 29 25 30 26 32 27 33 28 34
REMARK SMILES IDX 89 35 29 36 88 37 30 38 31 39 32 40 82 41 33 42 87 43 81 44
REMARK SMILES IDX 83 45 34 46 86 47 80 48 79 49 35 51 67 52 47 53 66 54 48 55
REMARK SMILES IDX 51 56 65 57 84 58 49 59 50 60 64 62 85 63 52 64 36 65 37 66
REMARK SMILES IDX 45 67 38 68 40 69 46 70 39 71 41 72 42 73 43 74 44 75 68 76
REMARK SMILES IDX 69 77 77 78 70 79 72 80 78 81 71 82 73 83 74 84 75 85 76 86
REMARK SMILES IDX 53 87 54 88 62 89 55 90 57 91 63 92 56 93 58 94 59 95 60 96
REMARK SMILES IDX 61 97
REMARK H PARENT 20 6 24 31 83 50 51 61
REMARK Flexibility Score: inf
ROOT
ATOM      1  C   UNL A   1      30.773  31.373  25.596  1.00  0.00     0.042 C 
ENDROOT
BRANCH   1   2
ATOM      2  C   UNL A   1      30.844  30.167  24.677  1.00  0.00     0.118 C 
BRANCH   2   3
ATOM      3  N   UNL A   1      30.069  30.238  23.456  1.00  0.00    -0.349 N 
ATOM      4  C   UNL A   1      29.743  29.248  22.547  1.00  0.00     0.287 C 
ATOM      5  O   UNL A   1      29.026  29.614  21.610  1.00  0.00    -0.266 OA
ATOM      6  H   UNL A   1      29.717  31.132  23.241  1.00  0.00     0.163 HD
BRANCH   4   7
ATOM      7  C   UNL A   1      30.250  27.885  22.658  1.00  0.00     0.195 A 
ATOM      8  C   UNL A   1      32.197  23.762  23.047  1.00  0.00     0.083 A 
ATOM      9  C   UNL A   1      32.909  24.236  21.938  1.00  0.00     0.025 A 
ATOM     10  C   UNL A   1      31.314  24.595  23.734  1.00  0.00     0.034 A 
ATOM     11  C   UNL A   1      32.720  25.557  21.477  1.00  0.00     0.049 A 
ATOM     12  C   UNL A   1      30.980  25.823  23.168  1.00  0.00     0.025 A 
ATOM     13  C   UNL A   1      31.728  26.304  22.115  1.00  0.00     0.135 A 
ATOM     14  C   UNL A   1      29.903  26.729  23.356  1.00  0.00     0.008 A 
ATOM     15  O   UNL A   1      31.327  27.574  21.834  1.00  0.00    -0.451 OA
ATOM     16  C   UNL A   1      28.680  26.343  24.111  1.00  0.00     0.049 C 
BRANCH   8  17
ATOM     17  S   UNL A   1      32.430  22.129  23.711  1.00  0.00     0.243 S 
ATOM     18  O   UNL A   1      32.060  21.218  22.652  1.00  0.00    -0.207 OA
ATOM     19  O   UNL A   1      31.775  22.080  25.004  1.00  0.00    -0.207 OA
BRANCH  17  20
ATOM     20  N   UNL A   1      34.140  21.952  24.009  1.00  0.00    -0.195 NA
ATOM     21  C   UNL A   1      34.827  23.280  24.301  1.00  0.00     0.073 C 
ATOM     22  C   UNL A   1      36.348  23.051  24.275  1.00  0.00     0.020 C 
ATOM     23  C   UNL A   1      36.785  22.025  25.310  1.00  0.00     0.003 C 
ATOM     24  C   UNL A   1      34.554  20.883  24.968  1.00  0.00     0.103 C 
ATOM     25  C   UNL A   1      36.068  20.716  25.047  1.00  0.00     0.017 C 
BRANCH  21  26
ATOM     26  C   UNL A   1      34.317  23.937  25.606  1.00  0.00     0.017 C 
ATOM     27  C   UNL A   1      34.261  25.458  25.581  1.00  0.00     0.005 C 
ENDBRANCH  21  26
ENDBRANCH  17  20
ENDBRANCH   8  17
ENDBRANCH   4   7
ENDBRANCH   2   3
ENDBRANCH   1   2
BRANCH   1  28
ATOM     28  C   UNL A   1      31.939  31.527  26.557  1.00  0.00     0.118 C 
BRANCH  28  29
ATOM     29  N   UNL A   1      32.190  32.903  26.973  1.00  0.00    -0.352 N 
ATOM     30  C   UNL A   1      33.212  33.486  27.690  1.00  0.00     0.251 C 
ATOM     31  H   UNL A   1      31.494  33.537  26.687  1.00  0.00     0.163 HD
ATOM     32  O   UNL A   1      33.111  34.673  27.999  1.00  0.00    -0.269 OA
BRANCH  30  33
ATOM     33  C   UNL A   1      34.397  32.714  28.139  1.00  0.00     0.039 A 
ATOM     34  C   UNL A   1      35.634  33.365  28.230  1.00  0.00     0.014 A 
ATOM     35  C   UNL A   1      34.317  31.362  28.457  1.00  0.00     0.014 A 
ATOM     36  C   UNL A   1      36.746  32.693  28.753  1.00  0.00     0.010 A 
ATOM     37  C   UNL A   1      35.388  30.728  29.083  1.00  0.00     0.010 A 
ATOM     38  C   UNL A   1      36.613  31.388  29.251  1.00  0.00    -0.014 A 
BRANCH  38  39
ATOM     39  C   UNL A   1      37.709  30.700  29.990  1.00  0.00     0.031 A 
ATOM     40  C   UNL A   1      38.030  31.087  31.411  1.00  0.00     0.074 A 
ATOM     41  C   UNL A   1      38.511  29.836  29.334  1.00  0.00     0.049 A 
ATOM     42  N   UNL A   1      39.044  30.727  32.154  1.00  0.00    -0.248 NA
ATOM     43  C   UNL A   1      37.111  32.032  32.069  1.00  0.00     0.031 C 
ATOM     44  C   UNL A   1      38.364  29.440  27.931  1.00  0.00     0.029 A 
ATOM     45  N   UNL A   1      39.637  29.166  29.747  1.00  0.00    -0.354 N 
ATOM     46  C   UNL A   1      38.917  31.440  33.341  1.00  0.00     0.074 A 
ATOM     47  C   UNL A   1      37.744  32.273  33.209  1.00  0.00     0.031 C 
ATOM     48  C   UNL A   1      39.357  28.602  27.602  1.00  0.00     0.029 A 
ATOM     49  C   UNL A   1      40.238  28.430  28.751  1.00  0.00     0.049 A 
ATOM     50  H   UNL A   1      39.981  29.208  30.668  1.00  0.00     0.167 HD
ATOM     51  C   UNL A   1      39.688  31.382  34.454  1.00  0.00     0.034 A 
ATOM     52  C   UNL A   1      41.381  27.715  28.751  1.00  0.00     0.034 A 
ATOM     53  C   UNL A   1      40.812  30.499  34.610  1.00  0.00     0.049 A 
ATOM     54  C   UNL A   1      42.197  27.638  30.012  1.00  0.00     0.074 A 
ATOM     55  C   UNL A   1      41.577  30.274  35.741  1.00  0.00     0.029 A 
ATOM     56  N   UNL A   1      41.336  29.700  33.608  1.00  0.00    -0.354 N 
ATOM     57  N   UNL A   1      41.962  28.185  31.180  1.00  0.00    -0.248 NA
ATOM     58  C   UNL A   1      43.422  26.826  29.964  1.00  0.00     0.031 C 
ATOM     59  C   UNL A   1      42.574  29.349  35.417  1.00  0.00     0.029 A 
ATOM     60  C   UNL A   1      42.423  28.991  34.087  1.00  0.00     0.049 A 
ATOM     61  H   UNL A   1      40.985  29.643  32.689  1.00  0.00     0.167 HD
ATOM     62  C   UNL A   1      42.995  27.767  32.010  1.00  0.00     0.074 A 
ATOM     63  C   UNL A   1      43.842  26.898  31.220  1.00  0.00     0.031 C 
ATOM     64  C   UNL A   1      43.231  28.092  33.304  1.00  0.00     0.034 A 
BRANCH  51  65
ATOM     65  C   UNL A   1      39.301  32.252  35.621  1.00  0.00     0.023 A 
ATOM     66  C   UNL A   1      38.494  31.714  36.645  1.00  0.00     0.012 A 
ATOM     67  C   UNL A   1      39.779  33.571  35.739  1.00  0.00     0.148 A 
ATOM     68  C   UNL A   1      38.140  32.485  37.751  1.00  0.00     0.002 A 
ATOM     69  C   UNL A   1      39.456  34.321  36.865  1.00  0.00     0.091 A 
ATOM     70  F   UNL A   1      40.527  34.073  34.745  1.00  0.00    -0.205 F 
ATOM     71  C   UNL A   1      38.630  33.784  37.865  1.00  0.00     0.022 A 
BRANCH  69  72
ATOM     72  S   UNL A   1      40.095  35.977  37.141  1.00  0.00     0.127 S 
ATOM     73  O   UNL A   1      39.394  36.363  38.365  1.00  0.00    -0.237 OA
ATOM     74  O   UNL A   1      41.527  35.732  37.311  1.00  0.00    -0.237 OA
ATOM     75  O   UNL A   1      39.748  36.743  35.953  1.00  0.00    -0.744 OA
ENDBRANCH  69  72
ENDBRANCH  51  65
BRANCH  52  76
ATOM     76  C   UNL A   1      41.791  26.970  27.527  1.00  0.00     0.023 A 
ATOM     77  C   UNL A   1      42.355  27.679  26.449  1.00  0.00     0.012 A 
ATOM     78  C   UNL A   1      41.668  25.570  27.438  1.00  0.00     0.148 A 
ATOM     79  C   UNL A   1      42.767  27.013  25.295  1.00  0.00     0.002 A 
ATOM     80  C   UNL A   1      42.132  24.906  26.308  1.00  0.00     0.091 A 
ATOM     81  F   UNL A   1      41.114  24.913  28.467  1.00  0.00    -0.205 F 
ATOM     82  C   UNL A   1      42.666  25.626  25.228  1.00  0.00     0.022 A 
BRANCH  80  83
ATOM     83  S   UNL A   1      42.174  23.112  26.200  1.00  0.00     0.127 S 
ATOM     84  O   UNL A   1      42.998  22.763  27.355  1.00  0.00    -0.237 OA
ATOM     85  O   UNL A   1      40.757  22.768  26.325  1.00  0.00    -0.237 OA
ATOM     86  O   UNL A   1      42.747  22.816  24.894  1.00  0.00    -0.744 OA
ENDBRANCH  80  83
ENDBRANCH  52  76
BRANCH  64  87
ATOM     87  C   UNL A   1      44.452  27.504  33.961  1.00  0.00     0.023 A 
ATOM     88  C   UNL A   1      45.677  28.195  33.888  1.00  0.00     0.012 A 
ATOM     89  C   UNL A   1      44.366  26.322  34.722  1.00  0.00     0.148 A 
ATOM     90  C   UNL A   1      46.805  27.709  34.546  1.00  0.00     0.002 A 
ATOM     91  C   UNL A   1      45.484  25.867  35.413  1.00  0.00     0.091 A 
ATOM     92  F   UNL A   1      43.194  25.673  34.766  1.00  0.00    -0.205 F 
ATOM     93  C   UNL A   1      46.706  26.553  35.317  1.00  0.00     0.022 A 
BRANCH  91  94
ATOM     94  S   UNL A   1      45.431  24.439  36.501  1.00  0.00     0.127 S 
ATOM     95  O   UNL A   1      45.182  23.352  35.557  1.00  0.00    -0.237 OA
ATOM     96  O   UNL A   1      46.774  24.445  37.084  1.00  0.00    -0.237 OA
ATOM     97  O   UNL A   1      44.358  24.698  37.453  1.00  0.00    -0.744 OA
ENDBRANCH  91  94
ENDBRANCH  64  87
ENDBRANCH  38  39
ENDBRANCH  30  33
ENDBRANCH  28  29
ENDBRANCH   1  28
TORSDOF 16
ENDMDL
MODEL 3
REMARK VINA RESULT:     -13.4      5.072     10.169
REMARK SMILES CC[C@H]1CCCCN1S(=O)(=O)c1ccc2oc(C(=O)NCCCNC(=O)c3ccc(-c4c5nc(c(-c6cccc(S(=O)(=O)[O-])c6F)c6ccc([nH]6)c(-c6cccc(S(=O)(=O)[O-])c6F)c6nc(c(-c7cccc(S(=O)(=O)[O-])c7F)c7ccc4[nH]7)C=C6)C=C5)cc3)c(C)c2c1
REMARK SMILES IDX 22 1 21 2 20 3 18 4 19 5 17 7 12 8 13 9 93 10 14 11 92 12
REMARK SMILES IDX 15 13 90 14 16 15 91 16 9 17 10 18 11 19 8 20 3 21 4 22 5 23
REMARK SMILES IDX 7 24 6 25 2 26 1 27 23 28 24 29 25 30 26 32 27 33 28 34
REMARK SMILES IDX 89 35 29 36 88 37 30 38 31 39 32 40 82 41 33 42 87 43 81 44
REMARK SMILES IDX 83 45 34 46 86 47 80 48 79 49 35 51 67 52 47 53 66 54 48 55
REMARK SMILES IDX 51 56 65 57 84 58 49 59 50 60 64 62 85 63 52 64 36 65 37 66
REMARK SMILES IDX 45 67 38 68 40 69 46 70 39 71 41 72 42 73 43 74 44 75 68 76
REMARK SMILES IDX 69 77 77 78 70 79 72 80 78 81 71 82 73 83 74 84 75 85 76 86
REMARK SMILES IDX 53 87 54 88 62 89 55 90 57 91 63 92 56 93 58 94 59 95 60 96
REMARK SMILES IDX 61 97
REMARK H PARENT 20 6 24 31 83 50 51 61
REMARK Flexibility Score: inf
ROOT
ATOM      1  C   UNL A   1      31.756  29.482  24.738  1.00  0.00     0.042 C 
ENDROOT
BRANCH   1   2
ATOM      2  C   UNL A   1      30.444  30.234  24.614  1.00  0.00     0.118 C 
BRANCH   2   3
ATOM      3  N   UNL A   1      29.866  30.312  23.289  1.00  0.00    -0.349 N 
ATOM      4  C   UNL A   1      29.704  29.332  22.327  1.00  0.00     0.287 C 
ATOM      5  O   UNL A   1      29.133  29.700  21.296  1.00  0.00    -0.266 OA
ATOM      6  H   UNL A   1      29.534  31.203  23.034  1.00  0.00     0.163 HD
BRANCH   4   7
ATOM      7  C   UNL A   1      30.214  27.976  22.497  1.00  0.00     0.195 A 
ATOM      8  C   UNL A   1      32.172  23.878  23.061  1.00  0.00     0.083 A 
ATOM      9  C   UNL A   1      32.875  24.302  21.926  1.00  0.00     0.025 A 
ATOM     10  C   UNL A   1      31.292  24.741  23.715  1.00  0.00     0.034 A 
ATOM     11  C   UNL A   1      32.680  25.599  21.406  1.00  0.00     0.049 A 
ATOM     12  C   UNL A   1      30.952  25.941  23.095  1.00  0.00     0.025 A 
ATOM     13  C   UNL A   1      31.691  26.374  22.017  1.00  0.00     0.135 A 
ATOM     14  C   UNL A   1      29.874  26.852  23.250  1.00  0.00     0.008 A 
ATOM     15  O   UNL A   1      31.286  27.629  21.681  1.00  0.00    -0.451 OA
ATOM     16  C   UNL A   1      28.658  26.500  24.031  1.00  0.00     0.049 C 
BRANCH   8  17
ATOM     17  S   UNL A   1      32.413  22.278  23.797  1.00  0.00     0.243 S 
ATOM     18  O   UNL A   1      32.000  21.319  22.798  1.00  0.00    -0.207 OA
ATOM     19  O   UNL A   1      31.800  22.300  25.112  1.00  0.00    -0.207 OA
BRANCH  17  20
ATOM     20  N   UNL A   1      34.130  22.099  24.048  1.00  0.00    -0.195 NA
ATOM     21  C   UNL A   1      34.807  23.405  24.441  1.00  0.00     0.073 C 
ATOM     22  C   UNL A   1      36.330  23.200  24.366  1.00  0.00     0.020 C 
ATOM     23  C   UNL A   1      36.799  22.094  25.301  1.00  0.00     0.003 C 
ATOM     24  C   UNL A   1      34.575  20.957  24.904  1.00  0.00     0.103 C 
ATOM     25  C   UNL A   1      36.091  20.804  24.941  1.00  0.00     0.017 C 
BRANCH  21  26
ATOM     26  C   UNL A   1      34.315  23.941  25.806  1.00  0.00     0.017 C 
ATOM     27  C   UNL A   1      33.938  25.416  25.819  1.00  0.00     0.005 C 
ENDBRANCH  21  26
ENDBRANCH  17  20
ENDBRANCH   8  17
ENDBRANCH   4   7
ENDBRANCH   2   3
ENDBRANCH   1   2
BRANCH   1  28
ATOM     28  C   UNL A   1      32.579  29.810  25.972  1.00  0.00     0.118 C 
BRANCH  28  29
ATOM     29  N   UNL A   1      32.382  31.165  26.477  1.00  0.00    -0.352 N 
ATOM     30  C   UNL A   1      33.152  31.982  27.275  1.00  0.00     0.251 C 
ATOM     31  H   UNL A   1      31.533  31.575  26.192  1.00  0.00     0.163 HD
ATOM     32  O   UNL A   1      32.682  33.057  27.645  1.00  0.00    -0.269 OA
BRANCH  30  33
ATOM     33  C   UNL A   1      34.503  31.580  27.738  1.00  0.00     0.039 A 
ATOM     34  C   UNL A   1      35.492  32.562  27.875  1.00  0.00     0.014 A 
ATOM     35  C   UNL A   1      34.819  30.255  28.025  1.00  0.00     0.014 A 
ATOM     36  C   UNL A   1      36.742  32.232  28.413  1.00  0.00     0.010 A 
ATOM     37  C   UNL A   1      36.017  29.947  28.665  1.00  0.00     0.010 A 
ATOM     38  C   UNL A   1      36.990  30.932  28.879  1.00  0.00    -0.014 A 
BRANCH  38  39
ATOM     39  C   UNL A   1      38.226  30.576  29.632  1.00  0.00     0.031 A 
ATOM     40  C   UNL A   1      39.201  29.575  29.068  1.00  0.00     0.074 A 
ATOM     41  C   UNL A   1      38.394  31.040  30.887  1.00  0.00     0.049 A 
ATOM     42  N   UNL A   1      40.233  29.015  29.644  1.00  0.00    -0.248 NA
ATOM     43  C   UNL A   1      38.961  29.112  27.691  1.00  0.00     0.031 C 
ATOM     44  C   UNL A   1      37.480  31.948  31.585  1.00  0.00     0.029 A 
ATOM     45  N   UNL A   1      39.370  30.778  31.818  1.00  0.00    -0.354 N 
ATOM     46  C   UNL A   1      40.731  28.099  28.724  1.00  0.00     0.074 A 
ATOM     47  C   UNL A   1      39.872  28.157  27.564  1.00  0.00     0.031 C 
ATOM     48  C   UNL A   1      37.936  32.166  32.828  1.00  0.00     0.029 A 
ATOM     49  C   UNL A   1      39.149  31.383  33.035  1.00  0.00     0.049 A 
ATOM     50  H   UNL A   1      40.153  30.212  31.633  1.00  0.00     0.167 HD
ATOM     51  C   UNL A   1      41.824  27.304  28.823  1.00  0.00     0.034 A 
ATOM     52  C   UNL A   1      39.830  31.303  34.196  1.00  0.00     0.034 A 
ATOM     53  C   UNL A   1      42.719  27.301  29.948  1.00  0.00     0.049 A 
ATOM     54  C   UNL A   1      41.062  30.442  34.265  1.00  0.00     0.074 A 
ATOM     55  C   UNL A   1      43.920  26.628  30.088  1.00  0.00     0.029 A 
ATOM     56  N   UNL A   1      42.511  27.998  31.127  1.00  0.00    -0.354 N 
ATOM     57  N   UNL A   1      41.612  29.716  33.322  1.00  0.00    -0.248 NA
ATOM     58  C   UNL A   1      41.779  30.408  35.547  1.00  0.00     0.031 C 
ATOM     59  C   UNL A   1      44.430  26.906  31.360  1.00  0.00     0.029 A 
ATOM     60  C   UNL A   1      43.551  27.760  32.007  1.00  0.00     0.049 A 
ATOM     61  H   UNL A   1      41.736  28.578  31.311  1.00  0.00     0.167 HD
ATOM     62  C   UNL A   1      42.751  29.157  33.890  1.00  0.00     0.074 A 
ATOM     63  C   UNL A   1      42.827  29.651  35.249  1.00  0.00     0.031 C 
ATOM     64  C   UNL A   1      43.641  28.295  33.341  1.00  0.00     0.034 A 
BRANCH  51  65
ATOM     65  C   UNL A   1      42.155  26.418  27.650  1.00  0.00     0.023 A 
ATOM     66  C   UNL A   1      42.928  26.936  26.591  1.00  0.00     0.012 A 
ATOM     67  C   UNL A   1      41.758  25.067  27.621  1.00  0.00     0.148 A 
ATOM     68  C   UNL A   1      43.272  26.133  25.504  1.00  0.00     0.002 A 
ATOM     69  C   UNL A   1      42.140  24.262  26.554  1.00  0.00     0.091 A 
ATOM     70  F   UNL A   1      41.005  24.599  28.628  1.00  0.00    -0.205 F 
ATOM     71  C   UNL A   1      42.887  24.795  25.492  1.00  0.00     0.022 A 
BRANCH  69  72
ATOM     72  S   UNL A   1      41.758  22.508  26.479  1.00  0.00     0.127 S 
ATOM     73  O   UNL A   1      42.432  22.112  25.243  1.00  0.00    -0.237 OA
ATOM     74  O   UNL A   1      42.381  22.002  27.702  1.00  0.00    -0.237 OA
ATOM     75  O   UNL A   1      40.305  22.417  26.456  1.00  0.00    -0.744 OA
ENDBRANCH  69  72
ENDBRANCH  51  65
BRANCH  52  76
ATOM     76  C   UNL A   1      39.389  32.104  35.373  1.00  0.00     0.023 A 
ATOM     77  C   UNL A   1      38.555  31.506  36.336  1.00  0.00     0.012 A 
ATOM     78  C   UNL A   1      39.820  33.430  35.567  1.00  0.00     0.148 A 
ATOM     79  C   UNL A   1      38.137  32.220  37.459  1.00  0.00     0.002 A 
ATOM     80  C   UNL A   1      39.446  34.118  36.716  1.00  0.00     0.091 A 
ATOM     81  F   UNL A   1      40.600  33.990  34.631  1.00  0.00    -0.205 F 
ATOM     82  C   UNL A   1      38.591  33.521  37.656  1.00  0.00     0.022 A 
BRANCH  80  83
ATOM     83  S   UNL A   1      40.102  35.742  37.118  1.00  0.00     0.127 S 
ATOM     84  O   UNL A   1      39.675  36.531  35.965  1.00  0.00    -0.237 OA
ATOM     85  O   UNL A   1      39.407  36.049  38.369  1.00  0.00    -0.237 OA
ATOM     86  O   UNL A   1      41.539  35.553  37.266  1.00  0.00    -0.744 OA
ENDBRANCH  80  83
ENDBRANCH  52  76
BRANCH  64  87
ATOM     87  C   UNL A   1      44.785  27.829  34.202  1.00  0.00     0.023 A 
ATOM     88  C   UNL A   1      45.971  28.589  34.247  1.00  0.00     0.012 A 
ATOM     89  C   UNL A   1      44.654  26.697  35.029  1.00  0.00     0.148 A 
ATOM     90  C   UNL A   1      47.017  28.218  35.089  1.00  0.00     0.002 A 
ATOM     91  C   UNL A   1      45.685  26.358  35.899  1.00  0.00     0.091 A 
ATOM     92  F   UNL A   1      43.523  25.980  34.958  1.00  0.00    -0.205 F 
ATOM     93  C   UNL A   1      46.870  27.111  35.922  1.00  0.00     0.022 A 
BRANCH  91  94
ATOM     94  S   UNL A   1      45.553  25.005  37.072  1.00  0.00     0.127 S 
ATOM     95  O   UNL A   1      44.394  25.409  37.866  1.00  0.00    -0.237 OA
ATOM     96  O   UNL A   1      45.322  23.857  36.195  1.00  0.00    -0.237 OA
ATOM     97  O   UNL A   1      46.820  24.970  37.791  1.00  0.00    -0.744 OA
ENDBRANCH  91  94
ENDBRANCH  64  87
ENDBRANCH  38  39
ENDBRANCH  30  33
ENDBRANCH  28  29
ENDBRANCH   1  28
TORSDOF 16
ENDMDL
