MODEL 1
REMARK VINA RESULT:     -13.6      0.000      0.000
REMARK SMILES O=C(NCCCNC(=O)[C@@H]1CCCN(c2ccc3cc(S(=O)(=O)N4CCCCC4)ccc3n2)C1)c1ccc(-c2c3nc(c(-c4cccc(S(=O)(=O)[O-])c4F)c4ccc([nH]4)c(-c4cccc(S(=O)(=O)[O-])c4F)c4nc(c(-c5cccc(S(=O)(=O)[O-])c5F)c5ccc2[nH]5)C=C4)C=C3)cc1
REMARK SMILES IDX 5 1 4 2 3 3 1 4 2 5 35 7 36 8 97 9 37 10 96 11 38 12 39 13
REMARK SMILES IDX 40 14 90 15 41 16 95 17 89 18 91 19 42 20 94 21 88 22 87 23
REMARK SMILES IDX 43 25 75 26 55 27 74 28 56 29 59 30 73 31 92 32 57 33 58 34
REMARK SMILES IDX 72 36 93 37 60 38 44 39 45 40 53 41 46 42 48 43 54 44 47 45
REMARK SMILES IDX 49 46 50 47 51 48 52 49 76 50 77 51 85 52 78 53 80 54 86 55
REMARK SMILES IDX 79 56 81 57 82 58 83 59 84 60 61 61 62 62 70 63 63 64 65 65
REMARK SMILES IDX 71 66 64 67 66 68 67 69 68 70 69 71 6 72 7 73 8 74 9 76
REMARK SMILES IDX 10 77 11 78 34 79 12 80 14 81 13 82 15 83 16 84 33 85 17 86
REMARK SMILES IDX 32 87 18 88 31 89 19 90 30 91 20 92 21 93 22 94 23 95 24 96
REMARK SMILES IDX 25 97 29 98 26 99 28 100 27 101
REMARK H PARENT 3 6 91 24 59 35 7 75
REMARK Flexibility Score: inf
ROOT
ATOM      1  C   UNL A   1      47.332  38.129  28.032  1.00  0.00     0.042 C 
ENDROOT
BRANCH   1   2
ATOM      2  C   UNL A   1      47.877  36.890  28.732  1.00  0.00     0.118 C 
BRANCH   2   3
ATOM      3  N   UNL A   1      47.656  36.928  30.171  1.00  0.00    -0.352 N 
ATOM      4  O   UNL A   1      46.585  36.520  32.104  1.00  0.00    -0.269 OA
ATOM      5  C   UNL A   1      46.807  36.174  30.947  1.00  0.00     0.251 C 
ATOM      6  H   UNL A   1      48.195  37.590  30.661  1.00  0.00     0.163 HD
BRANCH   5   7
ATOM      7  C   UNL A   1      46.157  34.968  30.386  1.00  0.00     0.039 A 
ATOM      8  C   UNL A   1      46.296  33.730  31.014  1.00  0.00     0.014 A 
ATOM      9  C   UNL A   1      45.367  35.078  29.236  1.00  0.00     0.014 A 
ATOM     10  C   UNL A   1      45.784  32.586  30.415  1.00  0.00     0.010 A 
ATOM     11  C   UNL A   1      44.759  33.940  28.694  1.00  0.00     0.010 A 
ATOM     12  C   UNL A   1      44.983  32.678  29.264  1.00  0.00    -0.014 A 
BRANCH  12  13
ATOM     13  C   UNL A   1      44.318  31.446  28.765  1.00  0.00     0.031 A 
ATOM     14  C   UNL A   1      45.032  30.453  27.891  1.00  0.00     0.074 A 
ATOM     15  C   UNL A   1      43.048  31.213  29.154  1.00  0.00     0.049 A 
ATOM     16  N   UNL A   1      44.609  29.291  27.459  1.00  0.00    -0.248 NA
ATOM     17  C   UNL A   1      46.385  30.803  27.431  1.00  0.00     0.031 C 
ATOM     18  C   UNL A   1      42.232  32.138  29.947  1.00  0.00     0.029 A 
ATOM     19  N   UNL A   1      42.226  30.133  28.960  1.00  0.00    -0.354 N 
ATOM     20  C   UNL A   1      45.626  28.783  26.661  1.00  0.00     0.074 A 
ATOM     21  C   UNL A   1      46.684  29.770  26.652  1.00  0.00     0.031 C 
ATOM     22  C   UNL A   1      41.048  31.569  30.210  1.00  0.00     0.029 A 
ATOM     23  C   UNL A   1      40.996  30.265  29.562  1.00  0.00     0.049 A 
ATOM     24  H   UNL A   1      42.491  29.341  28.439  1.00  0.00     0.167 HD
ATOM     25  C   UNL A   1      45.680  27.593  26.013  1.00  0.00     0.034 A 
ATOM     26  C   UNL A   1      39.937  29.435  29.585  1.00  0.00     0.034 A 
ATOM     27  C   UNL A   1      44.633  26.604  26.047  1.00  0.00     0.049 A 
ATOM     28  C   UNL A   1      40.048  28.105  28.899  1.00  0.00     0.074 A 
ATOM     29  C   UNL A   1      44.610  25.354  25.452  1.00  0.00     0.029 A 
ATOM     30  N   UNL A   1      43.423  26.751  26.710  1.00  0.00    -0.354 N 
ATOM     31  N   UNL A   1      41.069  27.595  28.254  1.00  0.00    -0.248 NA
ATOM     32  C   UNL A   1      38.875  27.223  28.971  1.00  0.00     0.031 C 
ATOM     33  C   UNL A   1      43.382  24.749  25.747  1.00  0.00     0.029 A 
ATOM     34  C   UNL A   1      42.647  25.616  26.540  1.00  0.00     0.049 A 
ATOM     35  H   UNL A   1      43.155  27.545  27.225  1.00  0.00     0.167 HD
ATOM     36  C   UNL A   1      40.665  26.329  27.849  1.00  0.00     0.074 A 
ATOM     37  C   UNL A   1      39.325  26.134  28.366  1.00  0.00     0.031 C 
ATOM     38  C   UNL A   1      41.331  25.423  27.092  1.00  0.00     0.034 A 
BRANCH  25  39
ATOM     39  C   UNL A   1      46.938  27.261  25.249  1.00  0.00     0.023 A 
ATOM     40  C   UNL A   1      47.904  26.425  25.845  1.00  0.00     0.012 A 
ATOM     41  C   UNL A   1      47.125  27.695  23.923  1.00  0.00     0.148 A 
ATOM     42  C   UNL A   1      49.047  26.044  25.142  1.00  0.00     0.002 A 
ATOM     43  C   UNL A   1      48.249  27.280  23.214  1.00  0.00     0.091 A 
ATOM     44  F   UNL A   1      46.204  28.503  23.378  1.00  0.00    -0.205 F 
ATOM     45  C   UNL A   1      49.213  26.462  23.825  1.00  0.00     0.022 A 
BRANCH  43  46
ATOM     46  S   UNL A   1      48.524  27.703  21.489  1.00  0.00     0.127 S 
ATOM     47  O   UNL A   1      49.312  28.930  21.609  1.00  0.00    -0.237 OA
ATOM     48  O   UNL A   1      49.274  26.543  21.004  1.00  0.00    -0.237 OA
ATOM     49  O   UNL A   1      47.204  27.865  20.898  1.00  0.00    -0.744 OA
ENDBRANCH  43  46
ENDBRANCH  25  39
BRANCH  26  50
ATOM     50  C   UNL A   1      38.701  29.835  30.315  1.00  0.00     0.023 A 
ATOM     51  C   UNL A   1      38.529  29.458  31.661  1.00  0.00     0.012 A 
ATOM     52  C   UNL A   1      37.717  30.627  29.693  1.00  0.00     0.148 A 
ATOM     53  C   UNL A   1      37.386  29.841  32.364  1.00  0.00     0.002 A 
ATOM     54  C   UNL A   1      36.615  31.061  30.419  1.00  0.00     0.091 A 
ATOM     55  F   UNL A   1      37.885  30.959  28.405  1.00  0.00    -0.205 F 
ATOM     56  C   UNL A   1      36.437  30.655  31.749  1.00  0.00     0.022 A 
BRANCH  54  57
ATOM     57  S   UNL A   1      35.443  32.239  29.736  1.00  0.00     0.127 S 
ATOM     58  O   UNL A   1      34.466  32.349  30.814  1.00  0.00    -0.237 OA
ATOM     59  O   UNL A   1      36.278  33.425  29.536  1.00  0.00    -0.237 OA
ATOM     60  O   UNL A   1      34.971  31.633  28.498  1.00  0.00    -0.744 OA
ENDBRANCH  54  57
ENDBRANCH  26  50
BRANCH  38  61
ATOM     61  C   UNL A   1      40.613  24.136  26.782  1.00  0.00     0.023 A 
ATOM     62  C   UNL A   1      39.320  24.181  26.223  1.00  0.00     0.012 A 
ATOM     63  C   UNL A   1      41.225  22.890  27.013  1.00  0.00     0.148 A 
ATOM     64  C   UNL A   1      38.630  23.004  25.938  1.00  0.00     0.002 A 
ATOM     65  C   UNL A   1      40.549  21.720  26.684  1.00  0.00     0.091 A 
ATOM     66  F   UNL A   1      42.446  22.867  27.567  1.00  0.00    -0.205 F 
ATOM     67  C   UNL A   1      39.247  21.775  26.159  1.00  0.00     0.022 A 
BRANCH  65  68
ATOM     68  S   UNL A   1      41.304  20.100  26.855  1.00  0.00     0.127 S 
ATOM     69  O   UNL A   1      41.035  19.793  28.258  1.00  0.00    -0.237 OA
ATOM     70  O   UNL A   1      40.544  19.296  25.898  1.00  0.00    -0.237 OA
ATOM     71  O   UNL A   1      42.707  20.278  26.507  1.00  0.00    -0.744 OA
ENDBRANCH  65  68
ENDBRANCH  38  61
ENDBRANCH  12  13
ENDBRANCH   5   7
ENDBRANCH   2   3
ENDBRANCH   1   2
BRANCH   1  72
ATOM     72  C   UNL A   1      46.237  37.828  27.017  1.00  0.00     0.117 C 
BRANCH  72  73
ATOM     73  N   UNL A   1      46.292  38.712  25.874  1.00  0.00    -0.356 N 
ATOM     74  C   UNL A   1      45.846  39.967  25.650  1.00  0.00     0.224 C 
ATOM     75  H   UNL A   1      46.749  38.316  25.098  1.00  0.00     0.163 HD
ATOM     76  O   UNL A   1      46.261  40.462  24.594  1.00  0.00    -0.275 OA
BRANCH  74  77
ATOM     77  C   UNL A   1      45.055  40.804  26.665  1.00  0.00     0.098 C 
ATOM     78  C   UNL A   1      43.984  40.146  27.556  1.00  0.00     0.017 C 
ATOM     79  C   UNL A   1      44.408  41.987  25.909  1.00  0.00     0.131 C 
ATOM     80  C   UNL A   1      42.686  39.804  26.820  1.00  0.00     0.022 C 
ATOM     81  N   UNL A   1      43.183  41.538  25.252  1.00  0.00    -0.356 N 
ATOM     82  C   UNL A   1      42.121  41.024  26.096  1.00  0.00     0.118 C 
BRANCH  81  83
ATOM     83  C   UNL A   1      42.856  41.995  23.994  1.00  0.00     0.129 A 
ATOM     84  C   UNL A   1      41.521  42.122  23.620  1.00  0.00     0.047 A 
ATOM     85  N   UNL A   1      43.849  42.378  23.169  1.00  0.00    -0.231 NA
ATOM     86  C   UNL A   1      41.191  42.658  22.381  1.00  0.00     0.014 A 
ATOM     87  C   UNL A   1      43.536  42.867  21.961  1.00  0.00     0.073 A 
ATOM     88  C   UNL A   1      42.211  43.035  21.515  1.00  0.00     0.002 A 
ATOM     89  C   UNL A   1      44.563  43.220  21.104  1.00  0.00     0.030 A 
ATOM     90  C   UNL A   1      41.941  43.558  20.241  1.00  0.00     0.032 A 
ATOM     91  C   UNL A   1      44.310  43.723  19.826  1.00  0.00     0.024 A 
ATOM     92  C   UNL A   1      42.997  43.893  19.389  1.00  0.00     0.083 A 
BRANCH  92  93
ATOM     93  S   UNL A   1      42.556  44.495  17.768  1.00  0.00     0.243 S 
ATOM     94  O   UNL A   1      43.404  43.773  16.835  1.00  0.00    -0.207 OA
ATOM     95  O   UNL A   1      41.117  44.421  17.683  1.00  0.00    -0.207 OA
BRANCH  93  96
ATOM     96  N   UNL A   1      43.005  46.143  17.693  1.00  0.00    -0.198 NA
ATOM     97  C   UNL A   1      44.349  46.412  17.121  1.00  0.00     0.102 C 
ATOM     98  C   UNL A   1      41.902  47.094  17.413  1.00  0.00     0.102 C 
ATOM     99  C   UNL A   1      44.719  47.887  17.166  1.00  0.00     0.017 C 
ATOM    100  C   UNL A   1      42.356  48.545  17.459  1.00  0.00     0.017 C 
ATOM    101  C   UNL A   1      43.602  48.760  16.618  1.00  0.00     0.003 C 
ENDBRANCH  93  96
ENDBRANCH  92  93
ENDBRANCH  81  83
ENDBRANCH  74  77
ENDBRANCH  72  73
ENDBRANCH   1  72
TORSDOF 16
ENDMDL
MODEL 2
REMARK VINA RESULT:     -13.3      6.543     13.056
REMARK SMILES O=C(NCCCNC(=O)[C@@H]1CCCN(c2ccc3cc(S(=O)(=O)N4CCCCC4)ccc3n2)C1)c1ccc(-c2c3nc(c(-c4cccc(S(=O)(=O)[O-])c4F)c4ccc([nH]4)c(-c4cccc(S(=O)(=O)[O-])c4F)c4nc(c(-c5cccc(S(=O)(=O)[O-])c5F)c5ccc2[nH]5)C=C4)C=C3)cc1
REMARK SMILES IDX 5 1 4 2 3 3 1 4 2 5 35 7 36 8 97 9 37 10 96 11 38 12 39 13
REMARK SMILES IDX 40 14 90 15 41 16 95 17 89 18 91 19 42 20 94 21 88 22 87 23
REMARK SMILES IDX 43 25 75 26 55 27 74 28 56 29 59 30 73 31 92 32 57 33 58 34
REMARK SMILES IDX 72 36 93 37 60 38 44 39 45 40 53 41 46 42 48 43 54 44 47 45
REMARK SMILES IDX 49 46 50 47 51 48 52 49 76 50 77 51 85 52 78 53 80 54 86 55
REMARK SMILES IDX 79 56 81 57 82 58 83 59 84 60 61 61 62 62 70 63 63 64 65 65
REMARK SMILES IDX 71 66 64 67 66 68 67 69 68 70 69 71 6 72 7 73 8 74 9 76
REMARK SMILES IDX 10 77 11 78 34 79 12 80 14 81 13 82 15 83 16 84 33 85 17 86
REMARK SMILES IDX 32 87 18 88 31 89 19 90 30 91 20 92 21 93 22 94 23 95 24 96
REMARK SMILES IDX 25 97 29 98 26 99 28 100 27 101
REMARK H PARENT 3 6 91 24 59 35 7 75
REMARK Flexibility Score: inf
ROOT
ATOM      1  C   UNL A   1      35.133  23.317  25.920  1.00  0.00     0.042 C 
ENDROOT
BRANCH   1   2
ATOM      2  C   UNL A   1      36.624  23.587  26.084  1.00  0.00     0.118 C 
BRANCH   2   3
ATOM      3  N   UNL A   1      37.399  22.358  26.177  1.00  0.00    -0.352 N 
ATOM      4  O   UNL A   1      39.242  21.073  26.119  1.00  0.00    -0.269 OA
ATOM      5  C   UNL A   1      38.758  22.186  26.303  1.00  0.00     0.251 C 
ATOM      6  H   UNL A   1      36.873  21.526  26.145  1.00  0.00     0.163 HD
BRANCH   5   7
ATOM      7  C   UNL A   1      39.626  23.337  26.641  1.00  0.00     0.039 A 
ATOM      8  C   UNL A   1      39.508  24.542  25.948  1.00  0.00     0.014 A 
ATOM      9  C   UNL A   1      40.548  23.226  27.688  1.00  0.00     0.014 A 
ATOM     10  C   UNL A   1      40.407  25.573  26.191  1.00  0.00     0.010 A 
ATOM     11  C   UNL A   1      41.379  24.306  28.005  1.00  0.00     0.010 A 
ATOM     12  C   UNL A   1      41.335  25.482  27.241  1.00  0.00    -0.014 A 
BRANCH  12  13
ATOM     13  C   UNL A   1      42.153  26.679  27.568  1.00  0.00     0.031 A 
ATOM     14  C   UNL A   1      43.532  26.880  27.004  1.00  0.00     0.074 A 
ATOM     15  C   UNL A   1      41.605  27.619  28.365  1.00  0.00     0.049 A 
ATOM     16  N   UNL A   1      44.321  27.917  27.127  1.00  0.00    -0.248 NA
ATOM     17  C   UNL A   1      44.108  25.782  26.212  1.00  0.00     0.031 C 
ATOM     18  C   UNL A   1      40.300  27.501  29.025  1.00  0.00     0.029 A 
ATOM     19  N   UNL A   1      42.054  28.858  28.744  1.00  0.00    -0.354 N 
ATOM     20  C   UNL A   1      45.492  27.593  26.453  1.00  0.00     0.074 A 
ATOM     21  C   UNL A   1      45.318  26.252  25.935  1.00  0.00     0.031 C 
ATOM     22  C   UNL A   1      40.035  28.635  29.686  1.00  0.00     0.029 A 
ATOM     23  C   UNL A   1      41.169  29.540  29.545  1.00  0.00     0.049 A 
ATOM     24  H   UNL A   1      42.926  29.222  28.468  1.00  0.00     0.167 HD
ATOM     25  C   UNL A   1      46.600  28.351  26.266  1.00  0.00     0.034 A 
ATOM     26  C   UNL A   1      41.258  30.757  30.114  1.00  0.00     0.034 A 
ATOM     27  C   UNL A   1      46.756  29.694  26.763  1.00  0.00     0.049 A 
ATOM     28  C   UNL A   1      42.476  31.590  29.846  1.00  0.00     0.074 A 
ATOM     29  C   UNL A   1      47.826  30.556  26.595  1.00  0.00     0.029 A 
ATOM     30  N   UNL A   1      45.817  30.372  27.526  1.00  0.00    -0.354 N 
ATOM     31  N   UNL A   1      43.518  31.309  29.101  1.00  0.00    -0.248 NA
ATOM     32  C   UNL A   1      42.520  32.920  30.469  1.00  0.00     0.031 C 
ATOM     33  C   UNL A   1      47.539  31.751  27.265  1.00  0.00     0.029 A 
ATOM     34  C   UNL A   1      46.282  31.640  27.836  1.00  0.00     0.049 A 
ATOM     35  H   UNL A   1      44.948  30.006  27.807  1.00  0.00     0.167 HD
ATOM     36  C   UNL A   1      44.338  32.428  29.159  1.00  0.00     0.074 A 
ATOM     37  C   UNL A   1      43.646  33.410  29.971  1.00  0.00     0.031 C 
ATOM     38  C   UNL A   1      45.565  32.617  28.615  1.00  0.00     0.034 A 
BRANCH  25  39
ATOM     39  C   UNL A   1      47.722  27.771  25.440  1.00  0.00     0.023 A 
ATOM     40  C   UNL A   1      48.642  26.894  26.049  1.00  0.00     0.012 A 
ATOM     41  C   UNL A   1      47.814  28.015  24.056  1.00  0.00     0.148 A 
ATOM     42  C   UNL A   1      49.650  26.287  25.301  1.00  0.00     0.002 A 
ATOM     43  C   UNL A   1      48.798  27.376  23.308  1.00  0.00     0.091 A 
ATOM     44  F   UNL A   1      46.940  28.864  23.497  1.00  0.00    -0.205 F 
ATOM     45  C   UNL A   1      49.720  26.519  23.930  1.00  0.00     0.022 A 
BRANCH  43  46
ATOM     46  S   UNL A   1      48.933  27.549  21.524  1.00  0.00     0.127 S 
ATOM     47  O   UNL A   1      49.545  28.872  21.403  1.00  0.00    -0.237 OA
ATOM     48  O   UNL A   1      49.815  26.436  21.173  1.00  0.00    -0.237 OA
ATOM     49  O   UNL A   1      47.578  27.440  21.004  1.00  0.00    -0.744 OA
ENDBRANCH  43  46
ENDBRANCH  25  39
BRANCH  26  50
ATOM     50  C   UNL A   1      40.140  31.261  30.960  1.00  0.00     0.023 A 
ATOM     51  C   UNL A   1      39.027  31.877  30.356  1.00  0.00     0.012 A 
ATOM     52  C   UNL A   1      40.155  31.089  32.357  1.00  0.00     0.148 A 
ATOM     53  C   UNL A   1      37.963  32.336  31.134  1.00  0.00     0.002 A 
ATOM     54  C   UNL A   1      39.064  31.489  33.118  1.00  0.00     0.091 A 
ATOM     55  F   UNL A   1      41.233  30.521  32.918  1.00  0.00    -0.205 F 
ATOM     56  C   UNL A   1      37.973  32.129  32.511  1.00  0.00     0.022 A 
BRANCH  54  57
ATOM     57  S   UNL A   1      38.946  31.106  34.869  1.00  0.00     0.127 S 
ATOM     58  O   UNL A   1      39.193  29.668  34.878  1.00  0.00    -0.237 OA
ATOM     59  O   UNL A   1      40.022  31.921  35.437  1.00  0.00    -0.237 OA
ATOM     60  O   UNL A   1      37.610  31.532  35.263  1.00  0.00    -0.744 OA
ENDBRANCH  54  57
ENDBRANCH  26  50
BRANCH  38  61
ATOM     61  C   UNL A   1      46.233  33.939  28.883  1.00  0.00     0.023 A 
ATOM     62  C   UNL A   1      47.058  34.082  30.017  1.00  0.00     0.012 A 
ATOM     63  C   UNL A   1      46.072  35.026  28.003  1.00  0.00     0.148 A 
ATOM     64  C   UNL A   1      47.679  35.299  30.294  1.00  0.00     0.002 A 
ATOM     65  C   UNL A   1      46.730  36.223  28.261  1.00  0.00     0.091 A 
ATOM     66  F   UNL A   1      45.265  34.879  26.943  1.00  0.00    -0.205 F 
ATOM     67  C   UNL A   1      47.522  36.366  29.412  1.00  0.00     0.022 A 
BRANCH  65  68
ATOM     68  S   UNL A   1      46.654  37.618  27.133  1.00  0.00     0.127 S 
ATOM     69  O   UNL A   1      47.144  37.023  25.891  1.00  0.00    -0.237 OA
ATOM     70  O   UNL A   1      45.228  37.944  27.132  1.00  0.00    -0.237 OA
ATOM     71  O   UNL A   1      47.504  38.647  27.717  1.00  0.00    -0.744 OA
ENDBRANCH  65  68
ENDBRANCH  38  61
ENDBRANCH  12  13
ENDBRANCH   5   7
ENDBRANCH   2   3
ENDBRANCH   1   2
BRANCH   1  72
ATOM     72  C   UNL A   1      34.721  22.994  24.490  1.00  0.00     0.117 C 
BRANCH  72  73
ATOM     73  N   UNL A   1      34.439  24.184  23.719  1.00  0.00    -0.356 N 
ATOM     74  C   UNL A   1      33.364  24.996  23.626  1.00  0.00     0.224 C 
ATOM     75  H   UNL A   1      35.187  24.459  23.141  1.00  0.00     0.163 HD
ATOM     76  O   UNL A   1      33.579  26.038  22.993  1.00  0.00    -0.275 OA
BRANCH  74  77
ATOM     77  C   UNL A   1      32.042  24.778  24.375  1.00  0.00     0.098 C 
ATOM     78  C   UNL A   1      30.694  25.021  23.670  1.00  0.00     0.017 C 
ATOM     79  C   UNL A   1      32.080  25.621  25.669  1.00  0.00     0.131 C 
ATOM     80  C   UNL A   1      30.348  26.501  23.482  1.00  0.00     0.022 C 
ATOM     81  N   UNL A   1      31.733  27.007  25.363  1.00  0.00    -0.356 N 
ATOM     82  C   UNL A   1      30.418  27.259  24.805  1.00  0.00     0.118 C 
BRANCH  81  83
ATOM     83  C   UNL A   1      32.392  28.047  25.980  1.00  0.00     0.129 A 
ATOM     84  C   UNL A   1      33.693  27.875  26.446  1.00  0.00     0.047 A 
ATOM     85  N   UNL A   1      31.779  29.244  26.057  1.00  0.00    -0.231 NA
ATOM     86  C   UNL A   1      34.385  28.947  26.996  1.00  0.00     0.014 A 
ATOM     87  C   UNL A   1      32.431  30.273  26.615  1.00  0.00     0.073 A 
ATOM     88  C   UNL A   1      33.750  30.180  27.099  1.00  0.00     0.002 A 
ATOM     89  C   UNL A   1      31.779  31.487  26.726  1.00  0.00     0.030 A 
ATOM     90  C   UNL A   1      34.387  31.292  27.669  1.00  0.00     0.032 A 
ATOM     91  C   UNL A   1      32.394  32.598  27.309  1.00  0.00     0.024 A 
ATOM     92  C   UNL A   1      33.701  32.504  27.784  1.00  0.00     0.083 A 
BRANCH  92  93
ATOM     93  S   UNL A   1      34.573  33.845  28.575  1.00  0.00     0.243 S 
ATOM     94  O   UNL A   1      35.971  33.455  28.586  1.00  0.00    -0.207 OA
ATOM     95  O   UNL A   1      34.138  35.057  27.922  1.00  0.00    -0.207 OA
BRANCH  93  96
ATOM     96  N   UNL A   1      34.049  33.907  30.202  1.00  0.00    -0.198 NA
ATOM     97  C   UNL A   1      34.732  32.968  31.127  1.00  0.00     0.102 C 
ATOM     98  C   UNL A   1      33.662  35.250  30.699  1.00  0.00     0.102 C 
ATOM     99  C   UNL A   1      34.159  33.012  32.536  1.00  0.00     0.017 C 
ATOM    100  C   UNL A   1      33.116  35.213  32.117  1.00  0.00     0.017 C 
ATOM    101  C   UNL A   1      34.038  34.439  33.044  1.00  0.00     0.003 C 
ENDBRANCH  93  96
ENDBRANCH  92  93
ENDBRANCH  81  83
ENDBRANCH  74  77
ENDBRANCH  72  73
ENDBRANCH   1  72
TORSDOF 16
ENDMDL
MODEL 3
REMARK VINA RESULT:     -13.0      6.794     12.941
REMARK SMILES O=C(NCCCNC(=O)[C@@H]1CCCN(c2ccc3cc(S(=O)(=O)N4CCCCC4)ccc3n2)C1)c1ccc(-c2c3nc(c(-c4cccc(S(=O)(=O)[O-])c4F)c4ccc([nH]4)c(-c4cccc(S(=O)(=O)[O-])c4F)c4nc(c(-c5cccc(S(=O)(=O)[O-])c5F)c5ccc2[nH]5)C=C4)C=C3)cc1
REMARK SMILES IDX 5 1 4 2 3 3 1 4 2 5 35 7 36 8 97 9 37 10 96 11 38 12 39 13
REMARK SMILES IDX 40 14 90 15 41 16 95 17 89 18 91 19 42 20 94 21 88 22 87 23
REMARK SMILES IDX 43 25 75 26 55 27 74 28 56 29 59 30 73 31 92 32 57 33 58 34
REMARK SMILES IDX 72 36 93 37 60 38 44 39 45 40 53 41 46 42 48 43 54 44 47 45
REMARK SMILES IDX 49 46 50 47 51 48 52 49 76 50 77 51 85 52 78 53 80 54 86 55
REMARK SMILES IDX 79 56 81 57 82 58 83 59 84 60 61 61 62 62 70 63 63 64 65 65
REMARK SMILES IDX 71 66 64 67 66 68 67 69 68 70 69 71 6 72 7 73 8 74 9 76
REMARK SMILES IDX 10 77 11 78 34 79 12 80 14 81 13 82 15 83 16 84 33 85 17 86
REMARK SMILES IDX 32 87 18 88 31 89 19 90 30 91 20 92 21 93 22 94 23 95 24 96
REMARK SMILES IDX 25 97 29 98 26 99 28 100 27 101
REMARK H PARENT 3 6 91 24 59 35 7 75
REMARK Flexibility Score: inf
ROOT
ATOM      1  C   UNL A   1      36.206  23.542  24.565  1.00  0.00     0.042 C 
ENDROOT
BRANCH   1   2
ATOM      2  C   UNL A   1      36.720  23.425  25.995  1.00  0.00     0.118 C 
BRANCH   2   3
ATOM      3  N   UNL A   1      37.525  22.229  26.195  1.00  0.00    -0.352 N 
ATOM      4  O   UNL A   1      39.405  21.004  26.313  1.00  0.00    -0.269 OA
ATOM      5  C   UNL A   1      38.878  22.108  26.411  1.00  0.00     0.251 C 
ATOM      6  H   UNL A   1      37.026  21.380  26.174  1.00  0.00     0.163 HD
BRANCH   5   7
ATOM      7  C   UNL A   1      39.689  23.301  26.742  1.00  0.00     0.039 A 
ATOM      8  C   UNL A   1      40.700  23.228  27.702  1.00  0.00     0.014 A 
ATOM      9  C   UNL A   1      39.465  24.502  26.060  1.00  0.00     0.014 A 
ATOM     10  C   UNL A   1      41.372  24.380  28.090  1.00  0.00     0.010 A 
ATOM     11  C   UNL A   1      40.222  25.637  26.376  1.00  0.00     0.010 A 
ATOM     12  C   UNL A   1      41.165  25.593  27.413  1.00  0.00    -0.014 A 
BRANCH  12  13
ATOM     13  C   UNL A   1      42.034  26.750  27.753  1.00  0.00     0.031 A 
ATOM     14  C   UNL A   1      43.439  26.871  27.234  1.00  0.00     0.074 A 
ATOM     15  C   UNL A   1      41.509  27.730  28.518  1.00  0.00     0.049 A 
ATOM     16  N   UNL A   1      44.278  27.867  27.370  1.00  0.00    -0.248 NA
ATOM     17  C   UNL A   1      43.983  25.733  26.476  1.00  0.00     0.031 C 
ATOM     18  C   UNL A   1      40.179  27.690  29.134  1.00  0.00     0.029 A 
ATOM     19  N   UNL A   1      42.010  28.949  28.896  1.00  0.00    -0.354 N 
ATOM     20  C   UNL A   1      45.452  27.471  26.742  1.00  0.00     0.074 A 
ATOM     21  C   UNL A   1      45.225  26.134  26.236  1.00  0.00     0.031 C 
ATOM     22  C   UNL A   1      39.952  28.846  29.770  1.00  0.00     0.029 A 
ATOM     23  C   UNL A   1      41.136  29.688  29.657  1.00  0.00     0.049 A 
ATOM     24  H   UNL A   1      42.909  29.263  28.646  1.00  0.00     0.167 HD
ATOM     25  C   UNL A   1      46.605  28.168  26.583  1.00  0.00     0.034 A 
ATOM     26  C   UNL A   1      41.270  30.907  30.213  1.00  0.00     0.034 A 
ATOM     27  C   UNL A   1      46.814  29.508  27.068  1.00  0.00     0.049 A 
ATOM     28  C   UNL A   1      42.539  31.671  29.976  1.00  0.00     0.074 A 
ATOM     29  C   UNL A   1      47.934  30.310  26.925  1.00  0.00     0.029 A 
ATOM     30  N   UNL A   1      45.887  30.245  27.789  1.00  0.00    -0.354 N 
ATOM     31  N   UNL A   1      43.590  31.325  29.271  1.00  0.00    -0.248 NA
ATOM     32  C   UNL A   1      42.632  33.006  30.583  1.00  0.00     0.031 C 
ATOM     33  C   UNL A   1      47.688  31.528  27.570  1.00  0.00     0.029 A 
ATOM     34  C   UNL A   1      46.408  31.492  28.099  1.00  0.00     0.049 A 
ATOM     35  H   UNL A   1      44.991  29.930  28.045  1.00  0.00     0.167 HD
ATOM     36  C   UNL A   1      44.465  32.400  29.343  1.00  0.00     0.074 A 
ATOM     37  C   UNL A   1      43.799  33.429  30.118  1.00  0.00     0.031 C 
ATOM     38  C   UNL A   1      45.718  32.516  28.839  1.00  0.00     0.034 A 
BRANCH  25  39
ATOM     39  C   UNL A   1      47.721  27.517  25.804  1.00  0.00     0.023 A 
ATOM     40  C   UNL A   1      47.673  27.527  24.395  1.00  0.00     0.012 A 
ATOM     41  C   UNL A   1      48.851  26.983  26.452  1.00  0.00     0.148 A 
ATOM     42  C   UNL A   1      48.720  26.994  23.643  1.00  0.00     0.002 A 
ATOM     43  C   UNL A   1      49.909  26.488  25.695  1.00  0.00     0.091 A 
ATOM     44  F   UNL A   1      48.872  26.968  27.792  1.00  0.00    -0.205 F 
ATOM     45  C   UNL A   1      49.841  26.486  24.293  1.00  0.00     0.022 A 
BRANCH  43  46
ATOM     46  S   UNL A   1      51.431  25.876  26.431  1.00  0.00     0.127 S 
ATOM     47  O   UNL A   1      51.802  26.988  27.305  1.00  0.00    -0.237 OA
ATOM     48  O   UNL A   1      50.972  24.676  27.132  1.00  0.00    -0.237 OA
ATOM     49  O   UNL A   1      52.341  25.623  25.324  1.00  0.00    -0.744 OA
ENDBRANCH  43  46
ENDBRANCH  25  39
BRANCH  26  50
ATOM     50  C   UNL A   1      40.153  31.481  31.013  1.00  0.00     0.023 A 
ATOM     51  C   UNL A   1      39.173  32.272  30.383  1.00  0.00     0.012 A 
ATOM     52  C   UNL A   1      40.031  31.207  32.389  1.00  0.00     0.148 A 
ATOM     53  C   UNL A   1      38.109  32.801  31.115  1.00  0.00     0.002 A 
ATOM     54  C   UNL A   1      38.935  31.681  33.097  1.00  0.00     0.091 A 
ATOM     55  F   UNL A   1      40.985  30.470  32.979  1.00  0.00    -0.205 F 
ATOM     56  C   UNL A   1      37.981  32.493  32.467  1.00  0.00     0.022 A 
BRANCH  54  57
ATOM     57  S   UNL A   1      38.627  31.187  34.797  1.00  0.00     0.127 S 
ATOM     58  O   UNL A   1      38.612  29.732  34.689  1.00  0.00    -0.237 OA
ATOM     59  O   UNL A   1      39.789  31.742  35.495  1.00  0.00    -0.237 OA
ATOM     60  O   UNL A   1      37.365  31.819  35.155  1.00  0.00    -0.744 OA
ENDBRANCH  54  57
ENDBRANCH  26  50
BRANCH  38  61
ATOM     61  C   UNL A   1      46.445  33.806  29.114  1.00  0.00     0.023 A 
ATOM     62  C   UNL A   1      47.267  33.909  30.254  1.00  0.00     0.012 A 
ATOM     63  C   UNL A   1      46.343  34.899  28.232  1.00  0.00     0.148 A 
ATOM     64  C   UNL A   1      47.942  35.095  30.536  1.00  0.00     0.002 A 
ATOM     65  C   UNL A   1      47.055  36.063  28.496  1.00  0.00     0.091 A 
ATOM     66  F   UNL A   1      45.539  34.789  27.165  1.00  0.00    -0.205 F 
ATOM     67  C   UNL A   1      47.844  36.168  29.653  1.00  0.00     0.022 A 
BRANCH  65  68
ATOM     68  S   UNL A   1      47.054  37.460  27.367  1.00  0.00     0.127 S 
ATOM     69  O   UNL A   1      47.619  38.519  28.202  1.00  0.00    -0.237 OA
ATOM     70  O   UNL A   1      47.932  36.997  26.293  1.00  0.00    -0.237 OA
ATOM     71  O   UNL A   1      45.665  37.646  26.969  1.00  0.00    -0.744 OA
ENDBRANCH  65  68
ENDBRANCH  38  61
ENDBRANCH  12  13
ENDBRANCH   5   7
ENDBRANCH   2   3
ENDBRANCH   1   2
BRANCH   1  72
ATOM     72  C   UNL A   1      34.781  24.072  24.467  1.00  0.00     0.117 C 
BRANCH  72  73
ATOM     73  N   UNL A   1      34.560  24.829  23.256  1.00  0.00    -0.356 N 
ATOM     74  C   UNL A   1      33.457  25.348  22.674  1.00  0.00     0.224 C 
ATOM     75  H   UNL A   1      35.386  25.002  22.749  1.00  0.00     0.163 HD
ATOM     76  O   UNL A   1      33.703  26.107  21.729  1.00  0.00    -0.275 OA
BRANCH  74  77
ATOM     77  C   UNL A   1      32.030  25.187  23.217  1.00  0.00     0.098 C 
ATOM     78  C   UNL A   1      30.824  25.712  22.416  1.00  0.00     0.017 C 
ATOM     79  C   UNL A   1      31.986  25.803  24.634  1.00  0.00     0.131 C 
ATOM     80  C   UNL A   1      30.669  27.234  22.448  1.00  0.00     0.022 C 
ATOM     81  N   UNL A   1      31.836  27.253  24.534  1.00  0.00    -0.356 N 
ATOM     82  C   UNL A   1      30.643  27.759  23.882  1.00  0.00     0.118 C 
BRANCH  81  83
ATOM     83  C   UNL A   1      32.515  28.088  25.394  1.00  0.00     0.129 A 
ATOM     84  C   UNL A   1      33.733  27.693  25.940  1.00  0.00     0.047 A 
ATOM     85  N   UNL A   1      32.012  29.315  25.633  1.00  0.00    -0.231 NA
ATOM     86  C   UNL A   1      34.456  28.567  26.743  1.00  0.00     0.014 A 
ATOM     87  C   UNL A   1      32.690  30.150  26.432  1.00  0.00     0.073 A 
ATOM     88  C   UNL A   1      33.931  29.826  27.013  1.00  0.00     0.002 A 
ATOM     89  C   UNL A   1      32.146  31.392  26.705  1.00  0.00     0.030 A 
ATOM     90  C   UNL A   1      34.601  30.742  27.837  1.00  0.00     0.032 A 
ATOM     91  C   UNL A   1      32.792  32.307  27.539  1.00  0.00     0.024 A 
ATOM     92  C   UNL A   1      34.022  31.985  28.109  1.00  0.00     0.083 A 
BRANCH  92  93
ATOM     93  S   UNL A   1      34.920  33.060  29.215  1.00  0.00     0.243 S 
ATOM     94  O   UNL A   1      34.980  32.359  30.485  1.00  0.00    -0.207 OA
ATOM     95  O   UNL A   1      36.122  33.451  28.517  1.00  0.00    -0.207 OA
BRANCH  93  96
ATOM     96  N   UNL A   1      33.969  34.462  29.452  1.00  0.00    -0.198 NA
ATOM     97  C   UNL A   1      33.622  34.765  30.864  1.00  0.00     0.102 C 
ATOM     98  C   UNL A   1      34.241  35.585  28.522  1.00  0.00     0.102 C 
ATOM     99  C   UNL A   1      32.703  35.970  30.995  1.00  0.00     0.017 C 
ATOM    100  C   UNL A   1      33.294  36.756  28.728  1.00  0.00     0.017 C 
ATOM    101  C   UNL A   1      33.218  37.154  30.192  1.00  0.00     0.003 C 
ENDBRANCH  93  96
ENDBRANCH  92  93
ENDBRANCH  81  83
ENDBRANCH  74  77
ENDBRANCH  72  73
ENDBRANCH   1  72
TORSDOF 16
ENDMDL
