MODEL 1
REMARK VINA RESULT:     -12.6      0.000      0.000
REMARK SMILES C[NH+]1CCC(NC(=O)N[C@H]2C=C[C@H](C(=O)NCCCNC(=O)c3ccc(-c4c5nc(c(-c6cccc(S(=O)(=O)[O-])c6F)c6ccc([nH]6)c(-c6cccc(S(=O)(=O)[O-])c6F)c6nc(c(-c7cccc(S(=O)(=O)[O-])c7F)c7ccc4[nH]7)C=C6)C=C5)cc3)C2)CC1
REMARK SMILES IDX 18 1 17 2 16 3 14 4 15 5 13 7 10 8 11 9 86 10 12 11 9 12
REMARK SMILES IDX 6 13 7 14 8 16 5 18 1 19 2 20 3 21 88 22 4 24 87 25 19 26
REMARK SMILES IDX 20 27 21 28 22 30 23 31 24 32 85 33 25 34 84 35 26 36 27 37
REMARK SMILES IDX 28 38 78 39 29 40 83 41 77 42 79 43 30 44 82 45 76 46 75 47
REMARK SMILES IDX 31 49 63 50 43 51 62 52 44 53 47 54 61 55 80 56 45 57 46 58
REMARK SMILES IDX 60 60 81 61 48 62 32 63 33 64 41 65 34 66 36 67 42 68 35 69
REMARK SMILES IDX 37 70 38 71 39 72 40 73 64 74 65 75 73 76 66 77 68 78 74 79
REMARK SMILES IDX 67 80 69 81 70 82 71 83 72 84 49 85 50 86 58 87 51 88 53 89
REMARK SMILES IDX 59 90 52 91 54 92 55 93 56 94 57 95
REMARK H PARENT 16 6 6 15 9 17 2 23 20 29 79 48 47 59
REMARK Flexibility Score: inf
ROOT
ATOM      1  C   UNL A   1      31.513  31.948  26.502  1.00  0.00     0.042 C 
ENDROOT
BRANCH   1   2
ATOM      2  C   UNL A   1      31.557  30.420  26.432  1.00  0.00     0.117 C 
BRANCH   2   3
ATOM      3  N   UNL A   1      32.216  29.916  25.236  1.00  0.00    -0.356 N 
ATOM      4  C   UNL A   1      31.921  28.796  24.498  1.00  0.00     0.227 C 
ATOM      5  O   UNL A   1      32.489  28.626  23.419  1.00  0.00    -0.274 OA
ATOM      6  H   UNL A   1      32.975  30.451  24.912  1.00  0.00     0.163 HD
BRANCH   4   7
ATOM      7  C   UNL A   1      30.875  27.825  25.041  1.00  0.00     0.103 C 
ATOM      8  C   UNL A   1      31.072  25.428  25.553  1.00  0.00     0.107 C 
ATOM      9  C   UNL A   1      30.354  25.650  24.271  1.00  0.00    -0.006 C 
ATOM     10  C   UNL A   1      31.419  26.824  26.082  1.00  0.00     0.047 C 
ATOM     11  C   UNL A   1      30.299  26.951  23.958  1.00  0.00    -0.016 C 
BRANCH   8  12
ATOM     12  N   UNL A   1      30.384  24.506  26.444  1.00  0.00    -0.332 N 
ATOM     13  N   UNL A   1      31.486  22.432  26.839  1.00  0.00    -0.335 N 
ATOM     14  C   UNL A   1      30.477  23.290  26.978  1.00  0.00     0.315 C 
ATOM     15  H   UNL A   1      31.302  21.554  27.247  1.00  0.00     0.165 HD
ATOM     16  O   UNL A   1      29.523  22.924  27.675  1.00  0.00    -0.249 OA
ATOM     17  H   UNL A   1      29.557  24.932  26.766  1.00  0.00     0.165 HD
BRANCH  13  18
ATOM     18  C   UNL A   1      32.791  22.505  26.224  1.00  0.00     0.095 C 
ATOM     19  C   UNL A   1      36.517  21.843  24.306  1.00  0.00     0.332 C 
ATOM     20  N   UNL A   1      35.199  21.565  24.887  1.00  0.00    -0.337 N 
ATOM     21  C   UNL A   1      34.148  22.267  24.139  1.00  0.00     0.264 C 
ATOM     22  C   UNL A   1      35.202  21.880  26.321  1.00  0.00     0.264 C 
ATOM     23  H   UNL A   1      34.992  20.569  24.806  1.00  0.00     0.347 HD
ATOM     24  C   UNL A   1      32.759  22.093  24.756  1.00  0.00     0.086 C 
ATOM     25  C   UNL A   1      33.830  21.669  26.962  1.00  0.00     0.086 C 
ENDBRANCH  13  18
ENDBRANCH   8  12
ENDBRANCH   4   7
ENDBRANCH   2   3
ENDBRANCH   1   2
BRANCH   1  26
ATOM     26  C   UNL A   1      32.704  32.567  27.229  1.00  0.00     0.118 C 
BRANCH  26  27
ATOM     27  N   UNL A   1      32.467  33.954  27.617  1.00  0.00    -0.352 N 
ATOM     28  C   UNL A   1      33.101  34.743  28.546  1.00  0.00     0.251 C 
ATOM     29  H   UNL A   1      31.732  34.397  27.134  1.00  0.00     0.163 HD
ATOM     30  O   UNL A   1      32.658  35.872  28.756  1.00  0.00    -0.269 OA
BRANCH  28  31
ATOM     31  C   UNL A   1      34.270  34.252  29.316  1.00  0.00     0.039 A 
ATOM     32  C   UNL A   1      34.040  33.453  30.443  1.00  0.00     0.014 A 
ATOM     33  C   UNL A   1      35.580  34.578  28.960  1.00  0.00     0.014 A 
ATOM     34  C   UNL A   1      35.118  32.929  31.165  1.00  0.00     0.010 A 
ATOM     35  C   UNL A   1      36.651  33.987  29.626  1.00  0.00     0.010 A 
ATOM     36  C   UNL A   1      36.434  33.161  30.739  1.00  0.00    -0.014 A 
BRANCH  36  37
ATOM     37  C   UNL A   1      37.601  32.547  31.424  1.00  0.00     0.031 A 
ATOM     38  C   UNL A   1      38.339  31.401  30.784  1.00  0.00     0.074 A 
ATOM     39  C   UNL A   1      37.923  32.941  32.672  1.00  0.00     0.049 A 
ATOM     40  N   UNL A   1      39.306  30.667  31.269  1.00  0.00    -0.248 NA
ATOM     41  C   UNL A   1      37.908  31.005  29.432  1.00  0.00     0.031 C 
ATOM     42  C   UNL A   1      37.232  33.982  33.435  1.00  0.00     0.029 A 
ATOM     43  N   UNL A   1      38.894  32.491  33.531  1.00  0.00    -0.354 N 
ATOM     44  C   UNL A   1      39.565  29.696  30.309  1.00  0.00     0.074 A 
ATOM     45  C   UNL A   1      38.629  29.913  29.228  1.00  0.00     0.031 C 
ATOM     46  C   UNL A   1      37.806  34.097  34.643  1.00  0.00     0.029 A 
ATOM     47  C   UNL A   1      38.884  33.120  34.754  1.00  0.00     0.049 A 
ATOM     48  H   UNL A   1      39.539  31.785  33.293  1.00  0.00     0.167 HD
ATOM     49  C   UNL A   1      40.517  28.731  30.310  1.00  0.00     0.034 A 
ATOM     50  C   UNL A   1      39.653  32.929  35.844  1.00  0.00     0.034 A 
ATOM     51  C   UNL A   1      41.485  28.559  31.358  1.00  0.00     0.049 A 
ATOM     52  C   UNL A   1      40.743  31.894  35.796  1.00  0.00     0.074 A 
ATOM     53  C   UNL A   1      42.551  27.679  31.411  1.00  0.00     0.029 A 
ATOM     54  N   UNL A   1      41.508  29.285  32.539  1.00  0.00    -0.354 N 
ATOM     55  N   UNL A   1      41.072  31.087  34.817  1.00  0.00    -0.248 NA
ATOM     56  C   UNL A   1      41.592  31.766  36.990  1.00  0.00     0.031 C 
ATOM     57  C   UNL A   1      43.213  27.866  32.630  1.00  0.00     0.029 A 
ATOM     58  C   UNL A   1      42.568  28.873  33.330  1.00  0.00     0.049 A 
ATOM     59  H   UNL A   1      40.865  29.991  32.781  1.00  0.00     0.167 HD
ATOM     60  C   UNL A   1      42.186  30.382  35.260  1.00  0.00     0.074 A 
ATOM     61  C   UNL A   1      42.485  30.871  36.591  1.00  0.00     0.031 C 
ATOM     62  C   UNL A   1      42.886  29.408  34.628  1.00  0.00     0.034 A 
BRANCH  49  63
ATOM     63  C   UNL A   1      40.591  27.829  29.105  1.00  0.00     0.023 A 
ATOM     64  C   UNL A   1      39.735  26.711  29.023  1.00  0.00     0.012 A 
ATOM     65  C   UNL A   1      41.479  28.095  28.045  1.00  0.00     0.148 A 
ATOM     66  C   UNL A   1      39.792  25.848  27.929  1.00  0.00     0.002 A 
ATOM     67  C   UNL A   1      41.498  27.255  26.936  1.00  0.00     0.091 A 
ATOM     68  F   UNL A   1      42.303  29.148  28.146  1.00  0.00    -0.205 F 
ATOM     69  C   UNL A   1      40.665  26.126  26.882  1.00  0.00     0.022 A 
BRANCH  67  70
ATOM     70  S   UNL A   1      42.536  27.575  25.504  1.00  0.00     0.127 S 
ATOM     71  O   UNL A   1      42.247  26.412  24.665  1.00  0.00    -0.237 OA
ATOM     72  O   UNL A   1      41.993  28.837  25.001  1.00  0.00    -0.237 OA
ATOM     73  O   UNL A   1      43.897  27.663  26.014  1.00  0.00    -0.744 OA
ENDBRANCH  67  70
ENDBRANCH  49  63
BRANCH  50  74
ATOM     74  C   UNL A   1      39.476  33.805  37.036  1.00  0.00     0.023 A 
ATOM     75  C   UNL A   1      39.896  35.148  36.964  1.00  0.00     0.012 A 
ATOM     76  C   UNL A   1      38.851  33.342  38.210  1.00  0.00     0.148 A 
ATOM     77  C   UNL A   1      39.721  36.008  38.048  1.00  0.00     0.002 A 
ATOM     78  C   UNL A   1      38.634  34.218  39.268  1.00  0.00     0.091 A 
ATOM     79  F   UNL A   1      38.467  32.059  38.261  1.00  0.00    -0.205 F 
ATOM     80  C   UNL A   1      39.080  35.547  39.195  1.00  0.00     0.022 A 
BRANCH  78  81
ATOM     81  S   UNL A   1      37.702  33.751  40.732  1.00  0.00     0.127 S 
ATOM     82  O   UNL A   1      37.552  35.035  41.413  1.00  0.00    -0.237 OA
ATOM     83  O   UNL A   1      36.472  33.215  40.148  1.00  0.00    -0.237 OA
ATOM     84  O   UNL A   1      38.520  32.762  41.420  1.00  0.00    -0.744 OA
ENDBRANCH  78  81
ENDBRANCH  50  74
BRANCH  62  85
ATOM     85  C   UNL A   1      44.070  28.820  35.351  1.00  0.00     0.023 A 
ATOM     86  C   UNL A   1      45.350  29.377  35.162  1.00  0.00     0.012 A 
ATOM     87  C   UNL A   1      43.900  27.771  36.275  1.00  0.00     0.148 A 
ATOM     88  C   UNL A   1      46.449  28.881  35.863  1.00  0.00     0.002 A 
ATOM     89  C   UNL A   1      44.991  27.312  37.004  1.00  0.00     0.091 A 
ATOM     90  F   UNL A   1      42.678  27.240  36.424  1.00  0.00    -0.205 F 
ATOM     91  C   UNL A   1      46.267  27.858  36.792  1.00  0.00     0.022 A 
BRANCH  89  92
ATOM     92  S   UNL A   1      44.832  26.065  38.287  1.00  0.00     0.127 S 
ATOM     93  O   UNL A   1      44.094  26.790  39.319  1.00  0.00    -0.237 OA
ATOM     94  O   UNL A   1      44.065  25.017  37.611  1.00  0.00    -0.237 OA
ATOM     95  O   UNL A   1      46.192  25.680  38.640  1.00  0.00    -0.744 OA
ENDBRANCH  89  92
ENDBRANCH  62  85
ENDBRANCH  36  37
ENDBRANCH  28  31
ENDBRANCH  26  27
ENDBRANCH   1  26
TORSDOF 15
ENDMDL
MODEL 2
REMARK VINA RESULT:     -12.6      2.276      2.996
REMARK SMILES C[NH+]1CCC(NC(=O)N[C@H]2C=C[C@H](C(=O)NCCCNC(=O)c3ccc(-c4c5nc(c(-c6cccc(S(=O)(=O)[O-])c6F)c6ccc([nH]6)c(-c6cccc(S(=O)(=O)[O-])c6F)c6nc(c(-c7cccc(S(=O)(=O)[O-])c7F)c7ccc4[nH]7)C=C6)C=C5)cc3)C2)CC1
REMARK SMILES IDX 18 1 17 2 16 3 14 4 15 5 13 7 10 8 11 9 86 10 12 11 9 12
REMARK SMILES IDX 6 13 7 14 8 16 5 18 1 19 2 20 3 21 88 22 4 24 87 25 19 26
REMARK SMILES IDX 20 27 21 28 22 30 23 31 24 32 85 33 25 34 84 35 26 36 27 37
REMARK SMILES IDX 28 38 78 39 29 40 83 41 77 42 79 43 30 44 82 45 76 46 75 47
REMARK SMILES IDX 31 49 63 50 43 51 62 52 44 53 47 54 61 55 80 56 45 57 46 58
REMARK SMILES IDX 60 60 81 61 48 62 32 63 33 64 41 65 34 66 36 67 42 68 35 69
REMARK SMILES IDX 37 70 38 71 39 72 40 73 64 74 65 75 73 76 66 77 68 78 74 79
REMARK SMILES IDX 67 80 69 81 70 82 71 83 72 84 49 85 50 86 58 87 51 88 53 89
REMARK SMILES IDX 59 90 52 91 54 92 55 93 56 94 57 95
REMARK H PARENT 16 6 6 15 9 17 2 23 20 29 79 48 47 59
REMARK Flexibility Score: inf
ROOT
ATOM      1  C   UNL A   1      33.856  29.087  24.378  1.00  0.00     0.042 C 
ENDROOT
BRANCH   1   2
ATOM      2  C   UNL A   1      33.333  29.015  22.942  1.00  0.00     0.117 C 
BRANCH   2   3
ATOM      3  N   UNL A   1      33.682  27.776  22.262  1.00  0.00    -0.356 N 
ATOM      4  C   UNL A   1      33.125  26.529  22.405  1.00  0.00     0.227 C 
ATOM      5  O   UNL A   1      33.445  25.639  21.618  1.00  0.00    -0.274 OA
ATOM      6  H   UNL A   1      34.415  27.842  21.609  1.00  0.00     0.163 HD
BRANCH   4   7
ATOM      7  C   UNL A   1      32.108  26.314  23.524  1.00  0.00     0.103 C 
ATOM      8  C   UNL A   1      31.136  24.226  24.384  1.00  0.00     0.107 C 
ATOM      9  C   UNL A   1      30.177  24.949  23.508  1.00  0.00    -0.006 C 
ATOM     10  C   UNL A   1      32.399  25.092  24.419  1.00  0.00     0.047 C 
ATOM     11  C   UNL A   1      30.725  26.055  22.988  1.00  0.00    -0.016 C 
BRANCH   8  12
ATOM     12  N   UNL A   1      30.553  23.806  25.649  1.00  0.00    -0.332 N 
ATOM     13  N   UNL A   1      31.801  22.193  26.880  1.00  0.00    -0.335 N 
ATOM     14  C   UNL A   1      30.748  22.984  26.678  1.00  0.00     0.315 C 
ATOM     15  H   UNL A   1      31.693  21.603  27.661  1.00  0.00     0.165 HD
ATOM     16  O   UNL A   1      29.856  22.957  27.534  1.00  0.00    -0.249 OA
ATOM     17  H   UNL A   1      29.718  24.307  25.796  1.00  0.00     0.165 HD
BRANCH  13  18
ATOM     18  C   UNL A   1      33.066  22.012  26.207  1.00  0.00     0.095 C 
ATOM     19  C   UNL A   1      36.967  20.949  24.921  1.00  0.00     0.332 C 
ATOM     20  N   UNL A   1      35.758  21.002  25.749  1.00  0.00    -0.337 N 
ATOM     21  C   UNL A   1      34.610  20.445  25.021  1.00  0.00     0.264 C 
ATOM     22  C   UNL A   1      35.532  22.373  26.228  1.00  0.00     0.264 C 
ATOM     23  H   UNL A   1      35.883  20.419  26.577  1.00  0.00     0.347 HD
ATOM     24  C   UNL A   1      33.297  20.561  25.797  1.00  0.00     0.086 C 
ATOM     25  C   UNL A   1      34.245  22.496  27.043  1.00  0.00     0.086 C 
ENDBRANCH  13  18
ENDBRANCH   8  12
ENDBRANCH   4   7
ENDBRANCH   2   3
ENDBRANCH   1   2
BRANCH   1  26
ATOM     26  C   UNL A   1      32.762  29.003  25.438  1.00  0.00     0.118 C 
BRANCH  26  27
ATOM     27  N   UNL A   1      32.336  30.316  25.912  1.00  0.00    -0.352 N 
ATOM     28  C   UNL A   1      32.907  31.163  26.831  1.00  0.00     0.251 C 
ATOM     29  H   UNL A   1      31.503  30.650  25.506  1.00  0.00     0.163 HD
ATOM     30  O   UNL A   1      32.305  32.194  27.130  1.00  0.00    -0.269 OA
BRANCH  28  31
ATOM     31  C   UNL A   1      34.197  30.843  27.489  1.00  0.00     0.039 A 
ATOM     32  C   UNL A   1      35.148  31.861  27.626  1.00  0.00     0.014 A 
ATOM     33  C   UNL A   1      34.491  29.560  27.955  1.00  0.00     0.014 A 
ATOM     34  C   UNL A   1      36.356  31.610  28.287  1.00  0.00     0.010 A 
ATOM     35  C   UNL A   1      35.654  29.333  28.687  1.00  0.00     0.010 A 
ATOM     36  C   UNL A   1      36.603  30.353  28.857  1.00  0.00    -0.014 A 
BRANCH  36  37
ATOM     37  C   UNL A   1      37.831  30.075  29.646  1.00  0.00     0.031 A 
ATOM     38  C   UNL A   1      38.885  29.145  29.106  1.00  0.00     0.074 A 
ATOM     39  C   UNL A   1      37.945  30.567  30.896  1.00  0.00     0.049 A 
ATOM     40  N   UNL A   1      39.967  28.696  29.688  1.00  0.00    -0.248 NA
ATOM     41  C   UNL A   1      38.675  28.620  27.746  1.00  0.00     0.031 C 
ATOM     42  C   UNL A   1      36.954  31.412  31.565  1.00  0.00     0.029 A 
ATOM     43  N   UNL A   1      38.929  30.402  31.837  1.00  0.00    -0.354 N 
ATOM     44  C   UNL A   1      40.538  27.802  28.789  1.00  0.00     0.074 A 
ATOM     45  C   UNL A   1      39.665  27.747  27.637  1.00  0.00     0.031 C 
ATOM     46  C   UNL A   1      37.384  31.698  32.804  1.00  0.00     0.029 A 
ATOM     47  C   UNL A   1      38.663  31.034  33.030  1.00  0.00     0.049 A 
ATOM     48  H   UNL A   1      39.748  29.880  31.674  1.00  0.00     0.167 HD
ATOM     49  C   UNL A   1      41.702  27.115  28.896  1.00  0.00     0.034 A 
ATOM     50  C   UNL A   1      39.369  31.072  34.177  1.00  0.00     0.034 A 
ATOM     51  C   UNL A   1      42.598  27.222  30.015  1.00  0.00     0.049 A 
ATOM     52  C   UNL A   1      40.688  30.352  34.248  1.00  0.00     0.074 A 
ATOM     53  C   UNL A   1      43.846  26.648  30.177  1.00  0.00     0.029 A 
ATOM     54  N   UNL A   1      42.343  27.956  31.163  1.00  0.00    -0.354 N 
ATOM     55  N   UNL A   1      41.287  29.635  33.328  1.00  0.00    -0.248 NA
ATOM     56  C   UNL A   1      41.445  30.474  35.503  1.00  0.00     0.031 C 
ATOM     57  C   UNL A   1      44.341  27.026  31.431  1.00  0.00     0.029 A 
ATOM     58  C   UNL A   1      43.408  27.848  32.042  1.00  0.00     0.049 A 
ATOM     59  H   UNL A   1      41.524  28.477  31.330  1.00  0.00     0.167 HD
ATOM     60  C   UNL A   1      42.505  29.251  33.877  1.00  0.00     0.074 A 
ATOM     61  C   UNL A   1      42.565  29.830  35.204  1.00  0.00     0.031 C 
ATOM     62  C   UNL A   1      43.478  28.477  33.336  1.00  0.00     0.034 A 
BRANCH  49  63
ATOM     63  C   UNL A   1      42.097  26.236  27.738  1.00  0.00     0.023 A 
ATOM     64  C   UNL A   1      42.870  26.777  26.689  1.00  0.00     0.012 A 
ATOM     65  C   UNL A   1      41.736  24.876  27.695  1.00  0.00     0.148 A 
ATOM     66  C   UNL A   1      43.238  25.994  25.596  1.00  0.00     0.002 A 
ATOM     67  C   UNL A   1      42.145  24.088  26.622  1.00  0.00     0.091 A 
ATOM     68  F   UNL A   1      40.982  24.379  28.686  1.00  0.00    -0.205 F 
ATOM     69  C   UNL A   1      42.884  24.648  25.568  1.00  0.00     0.022 A 
BRANCH  67  70
ATOM     70  S   UNL A   1      41.802  22.327  26.535  1.00  0.00     0.127 S 
ATOM     71  O   UNL A   1      42.521  21.946  25.321  1.00  0.00    -0.237 OA
ATOM     72  O   UNL A   1      42.399  21.831  27.776  1.00  0.00    -0.237 OA
ATOM     73  O   UNL A   1      40.352  22.208  26.474  1.00  0.00    -0.744 OA
ENDBRANCH  67  70
ENDBRANCH  49  63
BRANCH  50  74
ATOM     74  C   UNL A   1      38.882  31.900  35.317  1.00  0.00     0.023 A 
ATOM     75  C   UNL A   1      38.965  33.303  35.225  1.00  0.00     0.012 A 
ATOM     76  C   UNL A   1      38.293  31.318  36.456  1.00  0.00     0.148 A 
ATOM     77  C   UNL A   1      38.493  34.113  36.258  1.00  0.00     0.002 A 
ATOM     78  C   UNL A   1      37.778  32.133  37.459  1.00  0.00     0.091 A 
ATOM     79  F   UNL A   1      38.232  29.982  36.527  1.00  0.00    -0.205 F 
ATOM     80  C   UNL A   1      37.890  33.530  37.369  1.00  0.00     0.022 A 
BRANCH  78  81
ATOM     81  S   UNL A   1      36.868  31.479  38.863  1.00  0.00     0.127 S 
ATOM     82  O   UNL A   1      37.839  31.627  39.944  1.00  0.00    -0.237 OA
ATOM     83  O   UNL A   1      35.724  32.388  38.932  1.00  0.00    -0.237 OA
ATOM     84  O   UNL A   1      36.525  30.109  38.505  1.00  0.00    -0.744 OA
ENDBRANCH  78  81
ENDBRANCH  50  74
BRANCH  62  85
ATOM     85  C   UNL A   1      44.713  28.230  34.162  1.00  0.00     0.023 A 
ATOM     86  C   UNL A   1      45.789  29.136  34.097  1.00  0.00     0.012 A 
ATOM     87  C   UNL A   1      44.772  27.147  35.060  1.00  0.00     0.148 A 
ATOM     88  C   UNL A   1      46.918  28.954  34.894  1.00  0.00     0.002 A 
ATOM     89  C   UNL A   1      45.881  26.997  35.885  1.00  0.00     0.091 A 
ATOM     90  F   UNL A   1      43.747  26.283  35.091  1.00  0.00    -0.205 F 
ATOM     91  C   UNL A   1      46.959  27.892  35.797  1.00  0.00     0.022 A 
BRANCH  89  92
ATOM     92  S   UNL A   1      45.976  25.715  37.140  1.00  0.00     0.127 S 
ATOM     93  O   UNL A   1      44.789  25.994  37.945  1.00  0.00    -0.237 OA
ATOM     94  O   UNL A   1      45.899  24.490  36.343  1.00  0.00    -0.237 OA
ATOM     95  O   UNL A   1      47.253  25.912  37.815  1.00  0.00    -0.744 OA
ENDBRANCH  89  92
ENDBRANCH  62  85
ENDBRANCH  36  37
ENDBRANCH  28  31
ENDBRANCH  26  27
ENDBRANCH   1  26
TORSDOF 15
ENDMDL
MODEL 3
REMARK VINA RESULT:     -12.4      5.786     10.918
REMARK SMILES C[NH+]1CCC(NC(=O)N[C@H]2C=C[C@H](C(=O)NCCCNC(=O)c3ccc(-c4c5nc(c(-c6cccc(S(=O)(=O)[O-])c6F)c6ccc([nH]6)c(-c6cccc(S(=O)(=O)[O-])c6F)c6nc(c(-c7cccc(S(=O)(=O)[O-])c7F)c7ccc4[nH]7)C=C6)C=C5)cc3)C2)CC1
REMARK SMILES IDX 18 1 17 2 16 3 14 4 15 5 13 7 10 8 11 9 86 10 12 11 9 12
REMARK SMILES IDX 6 13 7 14 8 16 5 18 1 19 2 20 3 21 88 22 4 24 87 25 19 26
REMARK SMILES IDX 20 27 21 28 22 30 23 31 24 32 85 33 25 34 84 35 26 36 27 37
REMARK SMILES IDX 28 38 78 39 29 40 83 41 77 42 79 43 30 44 82 45 76 46 75 47
REMARK SMILES IDX 31 49 63 50 43 51 62 52 44 53 47 54 61 55 80 56 45 57 46 58
REMARK SMILES IDX 60 60 81 61 48 62 32 63 33 64 41 65 34 66 36 67 42 68 35 69
REMARK SMILES IDX 37 70 38 71 39 72 40 73 64 74 65 75 73 76 66 77 68 78 74 79
REMARK SMILES IDX 67 80 69 81 70 82 71 83 72 84 49 85 50 86 58 87 51 88 53 89
REMARK SMILES IDX 59 90 52 91 54 92 55 93 56 94 57 95
REMARK H PARENT 16 6 6 15 9 17 2 23 20 29 79 48 47 59
REMARK Flexibility Score: inf
ROOT
ATOM      1  C   UNL A   1      35.234  22.304  27.273  1.00  0.00     0.042 C 
ENDROOT
BRANCH   1   2
ATOM      2  C   UNL A   1      33.884  21.590  27.361  1.00  0.00     0.117 C 
BRANCH   2   3
ATOM      3  N   UNL A   1      32.766  22.493  27.593  1.00  0.00    -0.356 N 
ATOM      4  C   UNL A   1      31.973  23.136  26.674  1.00  0.00     0.227 C 
ATOM      5  O   UNL A   1      30.968  23.730  27.065  1.00  0.00    -0.274 OA
ATOM      6  H   UNL A   1      32.549  22.666  28.537  1.00  0.00     0.163 HD
BRANCH   4   7
ATOM      7  C   UNL A   1      32.363  23.057  25.200  1.00  0.00     0.103 C 
ATOM      8  C   UNL A   1      31.598  24.414  23.298  1.00  0.00     0.107 C 
ATOM      9  C   UNL A   1      30.948  23.077  23.306  1.00  0.00    -0.006 C 
ATOM     10  C   UNL A   1      32.530  24.429  24.514  1.00  0.00     0.047 C 
ATOM     11  C   UNL A   1      31.315  22.359  24.374  1.00  0.00    -0.016 C 
BRANCH   8  12
ATOM     12  N   UNL A   1      32.152  24.774  22.001  1.00  0.00    -0.332 N 
ATOM     13  N   UNL A   1      32.578  27.094  21.666  1.00  0.00    -0.335 N 
ATOM     14  C   UNL A   1      32.541  25.821  21.276  1.00  0.00     0.315 C 
ATOM     15  H   UNL A   1      32.812  27.712  20.936  1.00  0.00     0.165 HD
ATOM     16  O   UNL A   1      32.905  25.580  20.119  1.00  0.00    -0.249 OA
ATOM     17  H   UNL A   1      32.287  23.954  21.474  1.00  0.00     0.165 HD
BRANCH  13  18
ATOM     18  C   UNL A   1      32.352  27.766  22.924  1.00  0.00     0.095 C 
ATOM     19  C   UNL A   1      31.788  30.483  26.134  1.00  0.00     0.332 C 
ATOM     20  N   UNL A   1      32.032  29.991  24.775  1.00  0.00    -0.337 N 
ATOM     21  C   UNL A   1      30.865  29.251  24.277  1.00  0.00     0.264 C 
ATOM     22  C   UNL A   1      33.275  29.210  24.735  1.00  0.00     0.264 C 
ATOM     23  H   UNL A   1      32.161  30.781  24.142  1.00  0.00     0.347 HD
ATOM     24  C   UNL A   1      31.095  28.630  22.898  1.00  0.00     0.086 C 
ATOM     25  C   UNL A   1      33.543  28.618  23.350  1.00  0.00     0.086 C 
ENDBRANCH  13  18
ENDBRANCH   8  12
ENDBRANCH   4   7
ENDBRANCH   2   3
ENDBRANCH   1   2
BRANCH   1  26
ATOM     26  C   UNL A   1      35.819  22.347  25.865  1.00  0.00     0.118 C 
BRANCH  26  27
ATOM     27  N   UNL A   1      36.844  21.329  25.651  1.00  0.00    -0.352 N 
ATOM     28  C   UNL A   1      38.207  21.385  25.816  1.00  0.00     0.251 C 
ATOM     29  H   UNL A   1      36.503  20.461  25.336  1.00  0.00     0.163 HD
ATOM     30  O   UNL A   1      38.878  20.409  25.484  1.00  0.00    -0.269 OA
BRANCH  28  31
ATOM     31  C   UNL A   1      38.878  22.598  26.344  1.00  0.00     0.039 A 
ATOM     32  C   UNL A   1      40.004  22.437  27.161  1.00  0.00     0.014 A 
ATOM     33  C   UNL A   1      38.409  23.883  26.065  1.00  0.00     0.014 A 
ATOM     34  C   UNL A   1      40.694  23.558  27.635  1.00  0.00     0.010 A 
ATOM     35  C   UNL A   1      39.145  24.996  26.466  1.00  0.00     0.010 A 
ATOM     36  C   UNL A   1      40.292  24.848  27.260  1.00  0.00    -0.014 A 
BRANCH  36  37
ATOM     37  C   UNL A   1      41.053  26.058  27.667  1.00  0.00     0.031 A 
ATOM     38  C   UNL A   1      40.367  27.168  28.417  1.00  0.00     0.074 A 
ATOM     39  C   UNL A   1      42.329  26.210  27.260  1.00  0.00     0.049 A 
ATOM     40  N   UNL A   1      40.830  28.342  28.762  1.00  0.00    -0.248 NA
ATOM     41  C   UNL A   1      38.962  26.944  28.798  1.00  0.00     0.031 C 
ATOM     42  C   UNL A   1      43.080  25.244  26.455  1.00  0.00     0.029 A 
ATOM     43  N   UNL A   1      43.209  27.246  27.440  1.00  0.00    -0.354 N 
ATOM     44  C   UNL A   1      39.765  29.012  29.353  1.00  0.00     0.074 A 
ATOM     45  C   UNL A   1      38.623  28.127  29.290  1.00  0.00     0.031 C 
ATOM     46  C   UNL A   1      44.309  25.729  26.220  1.00  0.00     0.029 A 
ATOM     47  C   UNL A   1      44.425  27.051  26.827  1.00  0.00     0.049 A 
ATOM     48  H   UNL A   1      42.991  28.055  27.959  1.00  0.00     0.167 HD
ATOM     49  C   UNL A   1      39.746  30.239  29.928  1.00  0.00     0.034 A 
ATOM     50  C   UNL A   1      45.511  27.847  26.759  1.00  0.00     0.034 A 
ATOM     51  C   UNL A   1      40.899  31.089  30.046  1.00  0.00     0.049 A 
ATOM     52  C   UNL A   1      45.484  29.178  27.460  1.00  0.00     0.074 A 
ATOM     53  C   UNL A   1      41.011  32.305  30.696  1.00  0.00     0.029 A 
ATOM     54  N   UNL A   1      42.144  30.811  29.502  1.00  0.00    -0.354 N 
ATOM     55  N   UNL A   1      44.514  29.729  28.148  1.00  0.00    -0.248 NA
ATOM     56  C   UNL A   1      46.714  29.982  27.404  1.00  0.00     0.031 C 
ATOM     57  C   UNL A   1      42.323  32.768  30.536  1.00  0.00     0.029 A 
ATOM     58  C   UNL A   1      43.031  31.832  29.798  1.00  0.00     0.049 A 
ATOM     59  H   UNL A   1      42.365  30.005  28.981  1.00  0.00     0.167 HD
ATOM     60  C   UNL A   1      45.026  30.926  28.638  1.00  0.00     0.074 A 
ATOM     61  C   UNL A   1      46.399  31.010  28.180  1.00  0.00     0.031 C 
ATOM     62  C   UNL A   1      44.410  31.875  29.385  1.00  0.00     0.034 A 
BRANCH  49  63
ATOM     63  C   UNL A   1      38.445  30.703  30.531  1.00  0.00     0.023 A 
ATOM     64  C   UNL A   1      38.163  30.408  31.881  1.00  0.00     0.012 A 
ATOM     65  C   UNL A   1      37.517  31.452  29.782  1.00  0.00     0.148 A 
ATOM     66  C   UNL A   1      36.961  30.808  32.462  1.00  0.00     0.002 A 
ATOM     67  C   UNL A   1      36.339  31.887  30.382  1.00  0.00     0.091 A 
ATOM     68  F   UNL A   1      37.787  31.706  28.494  1.00  0.00    -0.205 F 
ATOM     69  C   UNL A   1      36.054  31.556  31.717  1.00  0.00     0.022 A 
BRANCH  67  70
ATOM     70  S   UNL A   1      35.146  32.921  29.523  1.00  0.00     0.127 S 
ATOM     71  O   UNL A   1      34.181  33.201  30.585  1.00  0.00    -0.237 OA
ATOM     72  O   UNL A   1      35.960  34.069  29.122  1.00  0.00    -0.237 OA
ATOM     73  O   UNL A   1      34.650  32.116  28.416  1.00  0.00    -0.744 OA
ENDBRANCH  67  70
ENDBRANCH  49  63
BRANCH  50  74
ATOM     74  C   UNL A   1      46.743  27.360  26.079  1.00  0.00     0.023 A 
ATOM     75  C   UNL A   1      47.595  26.472  26.764  1.00  0.00     0.012 A 
ATOM     76  C   UNL A   1      47.048  27.719  24.751  1.00  0.00     0.148 A 
ATOM     77  C   UNL A   1      48.743  25.971  26.151  1.00  0.00     0.002 A 
ATOM     78  C   UNL A   1      48.166  27.175  24.128  1.00  0.00     0.091 A 
ATOM     79  F   UNL A   1      46.228  28.571  24.120  1.00  0.00    -0.205 F 
ATOM     80  C   UNL A   1      49.023  26.313  24.830  1.00  0.00     0.022 A 
BRANCH  78  81
ATOM     81  S   UNL A   1      48.535  27.453  22.392  1.00  0.00     0.127 S 
ATOM     82  O   UNL A   1      49.790  28.195  22.468  1.00  0.00    -0.237 OA
ATOM     83  O   UNL A   1      48.655  26.085  21.886  1.00  0.00    -0.237 OA
ATOM     84  O   UNL A   1      47.396  28.190  21.861  1.00  0.00    -0.744 OA
ENDBRANCH  78  81
ENDBRANCH  50  74
BRANCH  62  85
ATOM     85  C   UNL A   1      45.219  33.080  29.787  1.00  0.00     0.023 A 
ATOM     86  C   UNL A   1      45.973  33.049  30.976  1.00  0.00     0.012 A 
ATOM     87  C   UNL A   1      45.295  34.208  28.948  1.00  0.00     0.148 A 
ATOM     88  C   UNL A   1      46.771  34.133  31.338  1.00  0.00     0.002 A 
ATOM     89  C   UNL A   1      46.127  35.267  29.292  1.00  0.00     0.091 A 
ATOM     90  F   UNL A   1      44.552  34.228  27.832  1.00  0.00    -0.205 F 
ATOM     91  C   UNL A   1      46.858  35.236  30.491  1.00  0.00     0.022 A 
BRANCH  89  92
ATOM     92  S   UNL A   1      46.371  36.684  28.216  1.00  0.00     0.127 S 
ATOM     93  O   UNL A   1      46.592  36.043  26.921  1.00  0.00    -0.237 OA
ATOM     94  O   UNL A   1      45.096  37.392  28.336  1.00  0.00    -0.237 OA
ATOM     95  O   UNL A   1      47.513  37.407  28.761  1.00  0.00    -0.744 OA
ENDBRANCH  89  92
ENDBRANCH  62  85
ENDBRANCH  36  37
ENDBRANCH  28  31
ENDBRANCH  26  27
ENDBRANCH   1  26
TORSDOF 15
ENDMDL
