MODEL 1
REMARK VINA RESULT:     -12.7      0.000      0.000
REMARK SMILES Cc1cccc(O[C@@H](C)C(=O)N2CC[C@@H](C(=O)NCCCNC(=O)c3ccc(-c4c5nc(c(-c6cccc(S(=O)(=O)[O-])c6F)c6ccc([nH]6)c(-c6cccc(S(=O)(=O)[O-])c6F)c6nc(c(-c7cccc(S(=O)(=O)[O-])c7F)c7ccc4[nH]7)C=C6)C=C5)cc3)[C@@H]2C)c1
REMARK SMILES IDX 19 1 18 2 16 3 17 4 15 6 12 7 13 8 88 9 14 10 89 11 10 12
REMARK SMILES IDX 11 13 8 14 9 15 7 16 6 17 1 18 2 19 3 20 90 21 4 22 5 23
REMARK SMILES IDX 20 24 21 25 22 26 23 27 24 29 25 30 26 31 87 32 27 33 86 34
REMARK SMILES IDX 28 35 29 36 30 37 80 38 31 39 85 40 79 41 81 42 32 43 84 44
REMARK SMILES IDX 78 45 77 46 33 48 65 49 45 50 64 51 46 52 49 53 63 54 82 55
REMARK SMILES IDX 47 56 48 57 62 59 83 60 50 61 34 62 35 63 43 64 36 65 38 66
REMARK SMILES IDX 44 67 37 68 39 69 40 70 41 71 42 72 66 73 67 74 75 75 68 76
REMARK SMILES IDX 70 77 76 78 69 79 71 80 72 81 73 82 74 83 51 84 52 85 60 86
REMARK SMILES IDX 53 87 55 88 61 89 54 90 56 91 57 92 58 93 59 94
REMARK H PARENT 18 5 22 28 81 47 49 58
REMARK Flexibility Score: inf
ROOT
ATOM      1  C   UNL A   1      35.916  20.500  25.020  1.00  0.00     0.117 C 
ENDROOT
BRANCH   1   2
ATOM      2  N   UNL A   1      34.997  21.167  26.169  1.00  0.00    -0.356 N 
ATOM      3  C   UNL A   1      33.838  21.691  26.714  1.00  0.00     0.225 C 
ATOM      4  O   UNL A   1      34.045  21.903  27.937  1.00  0.00    -0.275 OA
ATOM      5  H   UNL A   1      35.631  21.246  26.918  1.00  0.00     0.163 HD
BRANCH   3   6
ATOM      6  C   UNL A   1      32.243  22.103  26.269  1.00  0.00     0.102 C 
ATOM      7  N   UNL A   1      31.039  23.995  25.196  1.00  0.00    -0.336 N 
ATOM      8  C   UNL A   1      31.167  22.944  24.183  1.00  0.00     0.121 C 
ATOM      9  C   UNL A   1      31.260  23.356  26.521  1.00  0.00     0.094 C 
ATOM     10  C   UNL A   1      31.860  21.722  24.822  1.00  0.00     0.037 C 
ATOM     11  C   UNL A   1      29.886  22.890  27.044  1.00  0.00     0.032 C 
BRANCH   7  12
ATOM     12  C   UNL A   1      30.748  25.290  24.735  1.00  0.00     0.263 C 
ATOM     13  O   UNL A   1      29.961  25.360  23.766  1.00  0.00    -0.271 OA
BRANCH  12  14
ATOM     14  C   UNL A   1      31.365  26.747  25.187  1.00  0.00     0.259 C 
ATOM     15  C   UNL A   1      30.638  27.867  24.340  1.00  0.00     0.064 C 
BRANCH  14  16
ATOM     16  O   UNL A   1      32.688  27.198  25.494  1.00  0.00    -0.481 OA
BRANCH  16  17
ATOM     17  C   UNL A   1      33.671  26.558  24.797  1.00  0.00     0.120 A 
ATOM     18  C   UNL A   1      32.703  25.904  21.449  1.00  0.00     0.044 C 
ATOM     19  C   UNL A   1      33.569  25.614  22.708  1.00  0.00    -0.047 A 
ATOM     20  C   UNL A   1      34.217  24.464  23.261  1.00  0.00     0.003 A 
ATOM     21  C   UNL A   1      33.756  26.738  23.443  1.00  0.00     0.049 A 
ATOM     22  C   UNL A   1      34.695  24.445  24.580  1.00  0.00     0.004 A 
ATOM     23  C   UNL A   1      34.312  25.487  25.399  1.00  0.00     0.046 A 
ENDBRANCH  16  17
ENDBRANCH  14  16
ENDBRANCH  12  14
ENDBRANCH   7  12
ENDBRANCH   3   6
ENDBRANCH   1   2
BRANCH   1  24
ATOM     24  C   UNL A   1      37.473  20.554  25.018  1.00  0.00     0.042 C 
BRANCH  24  25
ATOM     25  C   UNL A   1      38.348  21.706  25.357  1.00  0.00     0.118 C 
BRANCH  25  26
ATOM     26  N   UNL A   1      39.431  21.668  26.380  1.00  0.00    -0.352 N 
ATOM     27  C   UNL A   1      40.090  22.763  27.031  1.00  0.00     0.251 C 
ATOM     28  H   UNL A   1      39.735  20.770  26.646  1.00  0.00     0.163 HD
ATOM     29  O   UNL A   1      41.089  22.542  27.715  1.00  0.00    -0.269 OA
BRANCH  27  30
ATOM     30  C   UNL A   1      39.605  24.191  26.829  1.00  0.00     0.039 A 
ATOM     31  C   UNL A   1      40.226  25.093  25.971  1.00  0.00     0.014 A 
ATOM     32  C   UNL A   1      39.139  24.762  27.996  1.00  0.00     0.014 A 
ATOM     33  C   UNL A   1      40.574  26.364  26.496  1.00  0.00     0.010 A 
ATOM     34  C   UNL A   1      39.031  26.070  28.301  1.00  0.00     0.010 A 
ATOM     35  C   UNL A   1      40.116  26.726  27.767  1.00  0.00    -0.014 A 
BRANCH  35  36
ATOM     36  C   UNL A   1      40.610  27.730  28.687  1.00  0.00     0.031 A 
ATOM     37  C   UNL A   1      39.791  28.939  28.687  1.00  0.00     0.074 A 
ATOM     38  C   UNL A   1      41.490  27.447  29.686  1.00  0.00     0.049 A 
ATOM     39  N   UNL A   1      40.200  30.098  29.041  1.00  0.00    -0.248 NA
ATOM     40  C   UNL A   1      38.421  28.919  28.175  1.00  0.00     0.031 C 
ATOM     41  C   UNL A   1      41.638  28.176  30.951  1.00  0.00     0.029 A 
ATOM     42  N   UNL A   1      42.453  26.458  29.829  1.00  0.00    -0.354 N 
ATOM     43  C   UNL A   1      39.068  30.879  29.120  1.00  0.00     0.074 A 
ATOM     44  C   UNL A   1      38.064  30.181  28.370  1.00  0.00     0.031 C 
ATOM     45  C   UNL A   1      42.773  27.793  31.564  1.00  0.00     0.029 A 
ATOM     46  C   UNL A   1      43.487  26.923  30.651  1.00  0.00     0.049 A 
ATOM     47  H   UNL A   1      42.415  25.566  29.413  1.00  0.00     0.167 HD
ATOM     48  C   UNL A   1      39.047  31.898  30.019  1.00  0.00     0.034 A 
ATOM     49  C   UNL A   1      44.755  27.172  30.190  1.00  0.00     0.034 A 
ATOM     50  C   UNL A   1      40.345  31.968  30.723  1.00  0.00     0.049 A 
ATOM     51  C   UNL A   1      45.080  28.663  30.116  1.00  0.00     0.074 A 
ATOM     52  C   UNL A   1      40.768  31.548  31.975  1.00  0.00     0.029 A 
ATOM     53  N   UNL A   1      41.507  32.185  29.984  1.00  0.00    -0.354 N 
ATOM     54  N   UNL A   1      44.250  29.612  30.459  1.00  0.00    -0.248 NA
ATOM     55  C   UNL A   1      46.352  29.207  29.644  1.00  0.00     0.031 C 
ATOM     56  C   UNL A   1      42.190  31.451  31.955  1.00  0.00     0.029 A 
ATOM     57  C   UNL A   1      42.642  31.837  30.704  1.00  0.00     0.049 A 
ATOM     58  H   UNL A   1      41.521  32.540  29.066  1.00  0.00     0.167 HD
ATOM     59  C   UNL A   1      44.747  30.835  30.091  1.00  0.00     0.074 A 
ATOM     60  C   UNL A   1      46.111  30.532  29.687  1.00  0.00     0.031 C 
ATOM     61  C   UNL A   1      43.968  31.968  30.091  1.00  0.00     0.034 A 
BRANCH  48  62
ATOM     62  C   UNL A   1      37.779  32.587  30.496  1.00  0.00     0.023 A 
ATOM     63  C   UNL A   1      37.565  32.622  31.888  1.00  0.00     0.012 A 
ATOM     64  C   UNL A   1      36.760  33.182  29.708  1.00  0.00     0.148 A 
ATOM     65  C   UNL A   1      36.395  33.140  32.455  1.00  0.00     0.002 A 
ATOM     66  C   UNL A   1      35.565  33.641  30.263  1.00  0.00     0.091 A 
ATOM     67  F   UNL A   1      36.952  33.419  28.413  1.00  0.00    -0.205 F 
ATOM     68  C   UNL A   1      35.380  33.625  31.643  1.00  0.00     0.022 A 
BRANCH  66  69
ATOM     69  S   UNL A   1      34.198  34.243  29.250  1.00  0.00     0.127 S 
ATOM     70  O   UNL A   1      34.816  35.360  28.531  1.00  0.00    -0.237 OA
ATOM     71  O   UNL A   1      33.890  33.082  28.419  1.00  0.00    -0.237 OA
ATOM     72  O   UNL A   1      33.146  34.649  30.176  1.00  0.00    -0.744 OA
ENDBRANCH  66  69
ENDBRANCH  48  62
BRANCH  49  73
ATOM     73  C   UNL A   1      45.225  26.121  29.238  1.00  0.00     0.023 A 
ATOM     74  C   UNL A   1      45.253  24.798  29.743  1.00  0.00     0.012 A 
ATOM     75  C   UNL A   1      45.112  26.325  27.854  1.00  0.00     0.148 A 
ATOM     76  C   UNL A   1      44.947  23.717  28.917  1.00  0.00     0.002 A 
ATOM     77  C   UNL A   1      44.796  25.241  27.039  1.00  0.00     0.091 A 
ATOM     78  F   UNL A   1      45.212  27.571  27.377  1.00  0.00    -0.205 F 
ATOM     79  C   UNL A   1      44.660  23.950  27.578  1.00  0.00     0.022 A 
BRANCH  77  80
ATOM     80  S   UNL A   1      44.357  25.461  25.314  1.00  0.00     0.127 S 
ATOM     81  O   UNL A   1      45.677  25.544  24.682  1.00  0.00    -0.237 OA
ATOM     82  O   UNL A   1      43.634  24.216  25.038  1.00  0.00    -0.237 OA
ATOM     83  O   UNL A   1      43.550  26.658  25.264  1.00  0.00    -0.744 OA
ENDBRANCH  77  80
ENDBRANCH  49  73
BRANCH  61  84
ATOM     84  C   UNL A   1      44.359  33.319  29.495  1.00  0.00     0.023 A 
ATOM     85  C   UNL A   1      44.628  34.457  30.278  1.00  0.00     0.012 A 
ATOM     86  C   UNL A   1      44.597  33.457  28.098  1.00  0.00     0.148 A 
ATOM     87  C   UNL A   1      45.033  35.674  29.715  1.00  0.00     0.002 A 
ATOM     88  C   UNL A   1      45.138  34.622  27.562  1.00  0.00     0.091 A 
ATOM     89  F   UNL A   1      44.264  32.469  27.256  1.00  0.00    -0.205 F 
ATOM     90  C   UNL A   1      45.316  35.749  28.359  1.00  0.00     0.022 A 
BRANCH  88  91
ATOM     91  S   UNL A   1      45.773  34.663  25.880  1.00  0.00     0.127 S 
ATOM     92  O   UNL A   1      44.551  34.517  25.092  1.00  0.00    -0.237 OA
ATOM     93  O   UNL A   1      46.388  35.991  25.813  1.00  0.00    -0.237 OA
ATOM     94  O   UNL A   1      46.724  33.564  25.803  1.00  0.00    -0.744 OA
ENDBRANCH  88  91
ENDBRANCH  61  84
ENDBRANCH  35  36
ENDBRANCH  27  30
ENDBRANCH  25  26
ENDBRANCH  24  25
ENDBRANCH   1  24
TORSDOF 17
ENDMDL
MODEL 2
REMARK VINA RESULT:     -12.5      4.830     10.248
REMARK SMILES Cc1cccc(O[C@@H](C)C(=O)N2CC[C@@H](C(=O)NCCCNC(=O)c3ccc(-c4c5nc(c(-c6cccc(S(=O)(=O)[O-])c6F)c6ccc([nH]6)c(-c6cccc(S(=O)(=O)[O-])c6F)c6nc(c(-c7cccc(S(=O)(=O)[O-])c7F)c7ccc4[nH]7)C=C6)C=C5)cc3)[C@@H]2C)c1
REMARK SMILES IDX 19 1 18 2 16 3 17 4 15 6 12 7 13 8 88 9 14 10 89 11 10 12
REMARK SMILES IDX 11 13 8 14 9 15 7 16 6 17 1 18 2 19 3 20 90 21 4 22 5 23
REMARK SMILES IDX 20 24 21 25 22 26 23 27 24 29 25 30 26 31 87 32 27 33 86 34
REMARK SMILES IDX 28 35 29 36 30 37 80 38 31 39 85 40 79 41 81 42 32 43 84 44
REMARK SMILES IDX 78 45 77 46 33 48 65 49 45 50 64 51 46 52 49 53 63 54 82 55
REMARK SMILES IDX 47 56 48 57 62 59 83 60 50 61 34 62 35 63 43 64 36 65 38 66
REMARK SMILES IDX 44 67 37 68 39 69 40 70 41 71 42 72 66 73 67 74 75 75 68 76
REMARK SMILES IDX 70 77 76 78 69 79 71 80 72 81 73 82 74 83 51 84 52 85 60 86
REMARK SMILES IDX 53 87 55 88 61 89 54 90 56 91 57 92 58 93 59 94
REMARK H PARENT 18 5 22 28 81 47 49 58
REMARK Flexibility Score: inf
ROOT
ATOM      1  C   UNL A   1      33.643  34.199  28.391  1.00  0.00     0.117 C 
ENDROOT
BRANCH   1   2
ATOM      2  N   UNL A   1      32.621  33.319  27.503  1.00  0.00    -0.356 N 
ATOM      3  C   UNL A   1      32.084  32.160  26.972  1.00  0.00     0.225 C 
ATOM      4  O   UNL A   1      31.032  32.466  26.354  1.00  0.00    -0.275 OA
ATOM      5  H   UNL A   1      32.041  34.013  27.111  1.00  0.00     0.163 HD
BRANCH   3   6
ATOM      6  C   UNL A   1      32.373  30.479  26.920  1.00  0.00     0.102 C 
ATOM      7  N   UNL A   1      32.795  28.715  25.219  1.00  0.00    -0.336 N 
ATOM      8  C   UNL A   1      34.087  29.029  25.833  1.00  0.00     0.121 C 
ATOM      9  C   UNL A   1      31.739  29.221  26.136  1.00  0.00     0.094 C 
ATOM     10  C   UNL A   1      33.866  30.082  26.940  1.00  0.00     0.037 C 
ATOM     11  C   UNL A   1      31.386  28.078  27.110  1.00  0.00     0.032 C 
BRANCH   7  12
ATOM     12  C   UNL A   1      32.824  28.044  23.985  1.00  0.00     0.263 C 
ATOM     13  O   UNL A   1      33.902  28.108  23.354  1.00  0.00    -0.271 OA
BRANCH  12  14
ATOM     14  C   UNL A   1      31.627  27.272  23.162  1.00  0.00     0.259 C 
ATOM     15  C   UNL A   1      32.171  25.851  22.729  1.00  0.00     0.064 C 
BRANCH  14  16
ATOM     16  O   UNL A   1      30.669  27.705  22.192  1.00  0.00    -0.481 OA
BRANCH  16  17
ATOM     17  C   UNL A   1      30.010  28.850  22.532  1.00  0.00     0.120 A 
ATOM     18  C   UNL A   1      26.667  28.206  23.523  1.00  0.00     0.044 C 
ATOM     19  C   UNL A   1      27.779  29.147  22.976  1.00  0.00    -0.047 A 
ATOM     20  C   UNL A   1      27.820  30.288  22.114  1.00  0.00     0.003 A 
ATOM     21  C   UNL A   1      28.997  28.792  23.451  1.00  0.00     0.049 A 
ATOM     22  C   UNL A   1      29.022  30.761  21.566  1.00  0.00     0.004 A 
ATOM     23  C   UNL A   1      30.130  29.950  21.696  1.00  0.00     0.046 A 
ENDBRANCH  16  17
ENDBRANCH  14  16
ENDBRANCH  12  14
ENDBRANCH   7  12
ENDBRANCH   3   6
ENDBRANCH   1   2
BRANCH   1  24
ATOM     24  C   UNL A   1      33.296  35.602  28.975  1.00  0.00     0.042 C 
BRANCH  24  25
ATOM     25  C   UNL A   1      32.848  35.933  30.353  1.00  0.00     0.118 C 
BRANCH  25  26
ATOM     26  N   UNL A   1      33.762  36.321  31.464  1.00  0.00    -0.352 N 
ATOM     27  C   UNL A   1      34.632  35.489  32.245  1.00  0.00     0.251 C 
ATOM     28  H   UNL A   1      33.770  37.278  31.694  1.00  0.00     0.163 HD
ATOM     29  O   UNL A   1      35.177  35.958  33.243  1.00  0.00    -0.269 OA
BRANCH  27  30
ATOM     30  C   UNL A   1      34.831  34.024  31.886  1.00  0.00     0.039 A 
ATOM     31  C   UNL A   1      34.704  32.989  32.806  1.00  0.00     0.014 A 
ATOM     32  C   UNL A   1      35.850  33.836  30.973  1.00  0.00     0.014 A 
ATOM     33  C   UNL A   1      35.773  32.061  32.900  1.00  0.00     0.010 A 
ATOM     34  C   UNL A   1      36.572  32.722  30.744  1.00  0.00     0.010 A 
ATOM     35  C   UNL A   1      36.799  32.103  31.952  1.00  0.00    -0.014 A 
BRANCH  35  36
ATOM     36  C   UNL A   1      38.150  31.584  32.013  1.00  0.00     0.031 A 
ATOM     37  C   UNL A   1      38.301  30.330  31.279  1.00  0.00     0.074 A 
ATOM     38  C   UNL A   1      39.217  32.343  32.383  1.00  0.00     0.049 A 
ATOM     39  N   UNL A   1      39.206  29.455  31.505  1.00  0.00    -0.248 NA
ATOM     40  C   UNL A   1      37.331  29.937  30.256  1.00  0.00     0.031 C 
ATOM     41  C   UNL A   1      40.614  32.139  31.984  1.00  0.00     0.029 A 
ATOM     42  N   UNL A   1      39.327  33.468  33.189  1.00  0.00    -0.354 N 
ATOM     43  C   UNL A   1      39.134  28.571  30.452  1.00  0.00     0.074 A 
ATOM     44  C   UNL A   1      37.845  28.782  29.858  1.00  0.00     0.031 C 
ATOM     45  C   UNL A   1      41.420  32.899  32.748  1.00  0.00     0.029 A 
ATOM     46  C   UNL A   1      40.597  33.503  33.777  1.00  0.00     0.049 A 
ATOM     47  H   UNL A   1      38.619  34.139  33.326  1.00  0.00     0.167 HD
ATOM     48  C   UNL A   1      40.272  27.943  30.057  1.00  0.00     0.034 A 
ATOM     49  C   UNL A   1      40.804  33.328  35.122  1.00  0.00     0.034 A 
ATOM     50  C   UNL A   1      41.394  28.345  30.933  1.00  0.00     0.049 A 
ATOM     51  C   UNL A   1      41.448  31.984  35.457  1.00  0.00     0.074 A 
ATOM     52  C   UNL A   1      42.441  29.242  30.780  1.00  0.00     0.029 A 
ATOM     53  N   UNL A   1      41.314  28.085  32.300  1.00  0.00    -0.354 N 
ATOM     54  N   UNL A   1      41.780  31.088  34.565  1.00  0.00    -0.248 NA
ATOM     55  C   UNL A   1      41.762  31.534  36.812  1.00  0.00     0.031 C 
ATOM     56  C   UNL A   1      42.941  29.566  32.076  1.00  0.00     0.029 A 
ATOM     57  C   UNL A   1      42.222  28.851  33.018  1.00  0.00     0.049 A 
ATOM     58  H   UNL A   1      40.691  27.440  32.704  1.00  0.00     0.167 HD
ATOM     59  C   UNL A   1      42.142  29.917  35.178  1.00  0.00     0.074 A 
ATOM     60  C   UNL A   1      42.218  30.287  36.583  1.00  0.00     0.031 C 
ATOM     61  C   UNL A   1      42.279  28.741  34.480  1.00  0.00     0.034 A 
BRANCH  48  62
ATOM     62  C   UNL A   1      40.444  27.259  28.710  1.00  0.00     0.023 A 
ATOM     63  C   UNL A   1      39.593  26.167  28.444  1.00  0.00     0.012 A 
ATOM     64  C   UNL A   1      41.379  27.566  27.688  1.00  0.00     0.148 A 
ATOM     65  C   UNL A   1      39.709  25.390  27.285  1.00  0.00     0.002 A 
ATOM     66  C   UNL A   1      41.540  26.757  26.562  1.00  0.00     0.091 A 
ATOM     67  F   UNL A   1      42.069  28.703  27.717  1.00  0.00    -0.205 F 
ATOM     68  C   UNL A   1      40.701  25.667  26.355  1.00  0.00     0.022 A 
BRANCH  66  69
ATOM     69  S   UNL A   1      42.840  27.048  25.344  1.00  0.00     0.127 S 
ATOM     70  O   UNL A   1      42.841  25.793  24.589  1.00  0.00    -0.237 OA
ATOM     71  O   UNL A   1      42.326  28.200  24.607  1.00  0.00    -0.237 OA
ATOM     72  O   UNL A   1      44.066  27.282  26.099  1.00  0.00    -0.744 OA
ENDBRANCH  66  69
ENDBRANCH  48  62
BRANCH  49  73
ATOM     73  C   UNL A   1      39.784  34.043  35.946  1.00  0.00     0.023 A 
ATOM     74  C   UNL A   1      38.645  33.285  36.313  1.00  0.00     0.012 A 
ATOM     75  C   UNL A   1      40.161  35.141  36.736  1.00  0.00     0.148 A 
ATOM     76  C   UNL A   1      38.035  33.475  37.553  1.00  0.00     0.002 A 
ATOM     77  C   UNL A   1      39.554  35.315  37.976  1.00  0.00     0.091 A 
ATOM     78  F   UNL A   1      41.160  35.924  36.313  1.00  0.00    -0.205 F 
ATOM     79  C   UNL A   1      38.532  34.451  38.407  1.00  0.00     0.022 A 
BRANCH  77  80
ATOM     80  S   UNL A   1      40.169  36.514  39.161  1.00  0.00     0.127 S 
ATOM     81  O   UNL A   1      39.890  35.841  40.433  1.00  0.00    -0.237 OA
ATOM     82  O   UNL A   1      41.590  36.568  38.808  1.00  0.00    -0.237 OA
ATOM     83  O   UNL A   1      39.431  37.730  38.908  1.00  0.00    -0.744 OA
ENDBRANCH  77  80
ENDBRANCH  49  73
BRANCH  61  84
ATOM     84  C   UNL A   1      42.458  27.354  35.095  1.00  0.00     0.023 A 
ATOM     85  C   UNL A   1      41.405  26.431  35.232  1.00  0.00     0.012 A 
ATOM     86  C   UNL A   1      43.752  26.876  35.450  1.00  0.00     0.148 A 
ATOM     87  C   UNL A   1      41.600  25.146  35.754  1.00  0.00     0.002 A 
ATOM     88  C   UNL A   1      43.962  25.554  35.829  1.00  0.00     0.091 A 
ATOM     89  F   UNL A   1      44.800  27.712  35.463  1.00  0.00    -0.205 F 
ATOM     90  C   UNL A   1      42.883  24.696  36.026  1.00  0.00     0.022 A 
BRANCH  88  91
ATOM     91  S   UNL A   1      45.621  24.865  35.918  1.00  0.00     0.127 S 
ATOM     92  O   UNL A   1      45.350  23.430  35.963  1.00  0.00    -0.237 OA
ATOM     93  O   UNL A   1      46.220  25.334  34.667  1.00  0.00    -0.237 OA
ATOM     94  O   UNL A   1      46.213  25.446  37.115  1.00  0.00    -0.744 OA
ENDBRANCH  88  91
ENDBRANCH  61  84
ENDBRANCH  35  36
ENDBRANCH  27  30
ENDBRANCH  25  26
ENDBRANCH  24  25
ENDBRANCH   1  24
TORSDOF 17
ENDMDL
MODEL 3
REMARK VINA RESULT:     -12.5      4.719     10.087
REMARK SMILES Cc1cccc(O[C@@H](C)C(=O)N2CC[C@@H](C(=O)NCCCNC(=O)c3ccc(-c4c5nc(c(-c6cccc(S(=O)(=O)[O-])c6F)c6ccc([nH]6)c(-c6cccc(S(=O)(=O)[O-])c6F)c6nc(c(-c7cccc(S(=O)(=O)[O-])c7F)c7ccc4[nH]7)C=C6)C=C5)cc3)[C@@H]2C)c1
REMARK SMILES IDX 19 1 18 2 16 3 17 4 15 6 12 7 13 8 88 9 14 10 89 11 10 12
REMARK SMILES IDX 11 13 8 14 9 15 7 16 6 17 1 18 2 19 3 20 90 21 4 22 5 23
REMARK SMILES IDX 20 24 21 25 22 26 23 27 24 29 25 30 26 31 87 32 27 33 86 34
REMARK SMILES IDX 28 35 29 36 30 37 80 38 31 39 85 40 79 41 81 42 32 43 84 44
REMARK SMILES IDX 78 45 77 46 33 48 65 49 45 50 64 51 46 52 49 53 63 54 82 55
REMARK SMILES IDX 47 56 48 57 62 59 83 60 50 61 34 62 35 63 43 64 36 65 38 66
REMARK SMILES IDX 44 67 37 68 39 69 40 70 41 71 42 72 66 73 67 74 75 75 68 76
REMARK SMILES IDX 70 77 76 78 69 79 71 80 72 81 73 82 74 83 51 84 52 85 60 86
REMARK SMILES IDX 53 87 55 88 61 89 54 90 56 91 57 92 58 93 59 94
REMARK H PARENT 18 5 22 28 81 47 49 58
REMARK Flexibility Score: inf
ROOT
ATOM      1  C   UNL A   1      33.689  34.323  28.371  1.00  0.00     0.117 C 
ENDROOT
BRANCH   1   2
ATOM      2  N   UNL A   1      32.668  33.399  27.527  1.00  0.00    -0.356 N 
ATOM      3  C   UNL A   1      32.141  32.215  27.042  1.00  0.00     0.225 C 
ATOM      4  O   UNL A   1      31.076  32.486  26.429  1.00  0.00    -0.275 OA
ATOM      5  H   UNL A   1      32.072  34.071  27.120  1.00  0.00     0.163 HD
BRANCH   3   6
ATOM      6  C   UNL A   1      32.454  30.538  27.040  1.00  0.00     0.102 C 
ATOM      7  N   UNL A   1      32.746  28.701  25.391  1.00  0.00    -0.336 N 
ATOM      8  C   UNL A   1      34.085  29.061  25.865  1.00  0.00     0.121 C 
ATOM      9  C   UNL A   1      31.772  29.235  26.379  1.00  0.00     0.094 C 
ATOM     10  C   UNL A   1      33.949  30.163  26.938  1.00  0.00     0.037 C 
ATOM     11  C   UNL A   1      31.532  28.136  27.435  1.00  0.00     0.032 C 
BRANCH   7  12
ATOM     12  C   UNL A   1      32.671  27.972  24.192  1.00  0.00     0.263 C 
ATOM     13  O   UNL A   1      32.025  28.509  23.265  1.00  0.00    -0.271 OA
BRANCH  12  14
ATOM     14  C   UNL A   1      33.201  26.456  23.830  1.00  0.00     0.259 C 
ATOM     15  C   UNL A   1      33.470  26.393  22.273  1.00  0.00     0.064 C 
BRANCH  14  16
ATOM     16  O   UNL A   1      32.819  25.153  24.278  1.00  0.00    -0.481 OA
BRANCH  16  17
ATOM     17  C   UNL A   1      33.348  24.800  25.485  1.00  0.00     0.120 A 
ATOM     18  C   UNL A   1      36.733  23.783  25.195  1.00  0.00     0.044 C 
ATOM     19  C   UNL A   1      35.364  23.798  25.932  1.00  0.00    -0.047 A 
ATOM     20  C   UNL A   1      34.659  22.904  26.799  1.00  0.00     0.003 A 
ATOM     21  C   UNL A   1      34.693  24.952  25.696  1.00  0.00     0.049 A 
ATOM     22  C   UNL A   1      33.295  23.067  27.084  1.00  0.00     0.004 A 
ATOM     23  C   UNL A   1      32.601  23.981  26.317  1.00  0.00     0.046 A 
ENDBRANCH  16  17
ENDBRANCH  14  16
ENDBRANCH  12  14
ENDBRANCH   7  12
ENDBRANCH   3   6
ENDBRANCH   1   2
BRANCH   1  24
ATOM     24  C   UNL A   1      33.290  35.680  29.024  1.00  0.00     0.042 C 
BRANCH  24  25
ATOM     25  C   UNL A   1      32.877  35.932  30.429  1.00  0.00     0.118 C 
BRANCH  25  26
ATOM     26  N   UNL A   1      33.812  36.294  31.530  1.00  0.00    -0.352 N 
ATOM     27  C   UNL A   1      34.696  35.444  32.275  1.00  0.00     0.251 C 
ATOM     28  H   UNL A   1      33.827  37.246  31.782  1.00  0.00     0.163 HD
ATOM     29  O   UNL A   1      35.261  35.890  33.272  1.00  0.00    -0.269 OA
BRANCH  27  30
ATOM     30  C   UNL A   1      34.886  33.987  31.879  1.00  0.00     0.039 A 
ATOM     31  C   UNL A   1      34.741  32.929  32.772  1.00  0.00     0.014 A 
ATOM     32  C   UNL A   1      35.911  33.814  30.972  1.00  0.00     0.014 A 
ATOM     33  C   UNL A   1      35.800  31.989  32.851  1.00  0.00     0.010 A 
ATOM     34  C   UNL A   1      36.625  32.699  30.720  1.00  0.00     0.010 A 
ATOM     35  C   UNL A   1      36.835  32.047  31.914  1.00  0.00    -0.014 A 
BRANCH  35  36
ATOM     36  C   UNL A   1      38.181  31.514  31.974  1.00  0.00     0.031 A 
ATOM     37  C   UNL A   1      38.315  30.251  31.252  1.00  0.00     0.074 A 
ATOM     38  C   UNL A   1      39.258  32.265  32.331  1.00  0.00     0.049 A 
ATOM     39  N   UNL A   1      39.212  29.369  31.483  1.00  0.00    -0.248 NA
ATOM     40  C   UNL A   1      37.337  29.858  30.238  1.00  0.00     0.031 C 
ATOM     41  C   UNL A   1      40.651  32.042  31.927  1.00  0.00     0.029 A 
ATOM     42  N   UNL A   1      39.384  33.397  33.125  1.00  0.00    -0.354 N 
ATOM     43  C   UNL A   1      39.125  28.475  30.439  1.00  0.00     0.074 A 
ATOM     44  C   UNL A   1      37.836  28.693  29.849  1.00  0.00     0.031 C 
ATOM     45  C   UNL A   1      41.468  32.801  32.680  1.00  0.00     0.029 A 
ATOM     46  C   UNL A   1      40.657  33.425  33.707  1.00  0.00     0.049 A 
ATOM     47  H   UNL A   1      38.683  34.077  33.258  1.00  0.00     0.167 HD
ATOM     48  C   UNL A   1      40.255  27.831  30.045  1.00  0.00     0.034 A 
ATOM     49  C   UNL A   1      40.868  33.261  35.053  1.00  0.00     0.034 A 
ATOM     50  C   UNL A   1      41.385  28.230  30.911  1.00  0.00     0.049 A 
ATOM     51  C   UNL A   1      41.499  31.913  35.398  1.00  0.00     0.074 A 
ATOM     52  C   UNL A   1      42.440  29.114  30.745  1.00  0.00     0.029 A 
ATOM     53  N   UNL A   1      41.309  27.984  32.281  1.00  0.00    -0.354 N 
ATOM     54  N   UNL A   1      41.817  31.005  34.514  1.00  0.00    -0.248 NA
ATOM     55  C   UNL A   1      41.815  31.473  36.756  1.00  0.00     0.031 C 
ATOM     56  C   UNL A   1      42.950  29.445  32.035  1.00  0.00     0.029 A 
ATOM     57  C   UNL A   1      42.229  28.747  32.988  1.00  0.00     0.049 A 
ATOM     58  H   UNL A   1      40.681  27.350  32.695  1.00  0.00     0.167 HD
ATOM     59  C   UNL A   1      42.170  29.836  35.137  1.00  0.00     0.074 A 
ATOM     60  C   UNL A   1      42.257  30.220  36.538  1.00  0.00     0.031 C 
ATOM     61  C   UNL A   1      42.291  28.652  34.450  1.00  0.00     0.034 A 
BRANCH  48  62
ATOM     62  C   UNL A   1      40.413  27.132  28.704  1.00  0.00     0.023 A 
ATOM     63  C   UNL A   1      39.547  26.048  28.452  1.00  0.00     0.012 A 
ATOM     64  C   UNL A   1      41.348  27.416  27.676  1.00  0.00     0.148 A 
ATOM     65  C   UNL A   1      39.648  25.259  27.300  1.00  0.00     0.002 A 
ATOM     66  C   UNL A   1      41.495  26.595  26.557  1.00  0.00     0.091 A 
ATOM     67  F   UNL A   1      42.054  28.544  27.691  1.00  0.00    -0.205 F 
ATOM     68  C   UNL A   1      40.640  25.513  26.364  1.00  0.00     0.022 A 
BRANCH  66  69
ATOM     69  S   UNL A   1      42.794  26.856  25.332  1.00  0.00     0.127 S 
ATOM     70  O   UNL A   1      43.982  27.024  26.173  1.00  0.00    -0.237 OA
ATOM     71  O   UNL A   1      42.760  25.611  24.570  1.00  0.00    -0.237 OA
ATOM     72  O   UNL A   1      42.424  28.057  24.590  1.00  0.00    -0.744 OA
ENDBRANCH  66  69
ENDBRANCH  48  62
BRANCH  49  73
ATOM     73  C   UNL A   1      39.860  33.995  35.874  1.00  0.00     0.023 A 
ATOM     74  C   UNL A   1      38.663  33.291  36.157  1.00  0.00     0.012 A 
ATOM     75  C   UNL A   1      40.269  35.026  36.735  1.00  0.00     0.148 A 
ATOM     76  C   UNL A   1      38.016  33.455  37.381  1.00  0.00     0.002 A 
ATOM     77  C   UNL A   1      39.623  35.175  37.959  1.00  0.00     0.091 A 
ATOM     78  F   UNL A   1      41.330  35.766  36.392  1.00  0.00    -0.205 F 
ATOM     79  C   UNL A   1      38.534  34.355  38.304  1.00  0.00     0.022 A 
BRANCH  77  80
ATOM     80  S   UNL A   1      40.259  36.271  39.228  1.00  0.00     0.127 S 
ATOM     81  O   UNL A   1      39.650  35.708  40.437  1.00  0.00    -0.237 OA
ATOM     82  O   UNL A   1      41.702  36.038  39.116  1.00  0.00    -0.237 OA
ATOM     83  O   UNL A   1      39.825  37.597  38.854  1.00  0.00    -0.744 OA
ENDBRANCH  77  80
ENDBRANCH  49  73
BRANCH  61  84
ATOM     84  C   UNL A   1      42.458  27.269  35.079  1.00  0.00     0.023 A 
ATOM     85  C   UNL A   1      41.383  26.388  35.296  1.00  0.00     0.012 A 
ATOM     86  C   UNL A   1      43.754  26.750  35.363  1.00  0.00     0.148 A 
ATOM     87  C   UNL A   1      41.564  25.105  35.829  1.00  0.00     0.002 A 
ATOM     88  C   UNL A   1      43.939  25.428  35.752  1.00  0.00     0.091 A 
ATOM     89  F   UNL A   1      44.829  27.547  35.296  1.00  0.00    -0.205 F 
ATOM     90  C   UNL A   1      42.845  24.613  36.030  1.00  0.00     0.022 A 
BRANCH  88  91
ATOM     91  S   UNL A   1      45.575  24.680  35.752  1.00  0.00     0.127 S 
ATOM     92  O   UNL A   1      45.315  23.385  36.378  1.00  0.00    -0.237 OA
ATOM     93  O   UNL A   1      45.887  24.615  34.323  1.00  0.00    -0.237 OA
ATOM     94  O   UNL A   1      46.417  25.600  36.503  1.00  0.00    -0.744 OA
ENDBRANCH  88  91
ENDBRANCH  61  84
ENDBRANCH  35  36
ENDBRANCH  27  30
ENDBRANCH  25  26
ENDBRANCH  24  25
ENDBRANCH   1  24
TORSDOF 17
ENDMDL
