MODEL 1
REMARK VINA RESULT:     -11.1      0.000      0.000
REMARK SMILES COc1ccc(CCNc2ncnc3sc(C(=O)NCCCNC(=O)c4ccc(-c5c6nc(c(-c7cccc(S(=O)(=O)[O-])c7F)c7ccc([nH]7)c(-c7cccc(S(=O)(=O)[O-])c7F)c7nc(c(-c8cccc(S(=O)(=O)[O-])c8F)c8ccc5[nH]8)C=C7)C=C6)cc4)c(C)c23)cc1OC
REMARK SMILES IDX 20 1 19 2 17 3 18 4 16 6 10 7 11 8 91 9 12 10 14 11 89 12
REMARK SMILES IDX 13 13 15 14 90 15 9 16 8 18 7 19 6 20 3 21 4 22 93 23 5 24
REMARK SMILES IDX 92 25 2 26 1 27 94 28 95 29 21 30 22 31 23 32 24 33 25 35
REMARK SMILES IDX 26 36 27 37 88 38 28 39 87 40 29 41 30 42 31 43 81 44 32 45
REMARK SMILES IDX 86 46 80 47 82 48 33 49 85 50 79 51 78 52 34 54 66 55 46 56
REMARK SMILES IDX 65 57 47 58 50 59 64 60 83 61 48 62 49 63 63 65 84 66 51 67
REMARK SMILES IDX 35 68 36 69 44 70 37 71 39 72 45 73 38 74 40 75 41 76 42 77
REMARK SMILES IDX 43 78 67 79 68 80 76 81 69 82 71 83 77 84 70 85 72 86 73 87
REMARK SMILES IDX 74 88 75 89 52 90 53 91 61 92 54 93 56 94 62 95 55 96 57 97
REMARK SMILES IDX 58 98 59 99 60 100
REMARK H PARENT 19 5 9 17 23 34 82 53 50 64
REMARK Flexibility Score: inf
ROOT
ATOM      1  C   UNL A   1      37.385  24.027  26.512  1.00  0.00     0.118 C 
ENDROOT
BRANCH   1   2
ATOM      2  N   UNL A   1      37.373  22.686  25.971  1.00  0.00    -0.351 N 
ATOM      3  C   UNL A   1      36.372  21.788  25.710  1.00  0.00     0.261 C 
ATOM      4  O   UNL A   1      36.792  20.716  25.266  1.00  0.00    -0.268 OA
ATOM      5  H   UNL A   1      38.270  22.348  25.743  1.00  0.00     0.163 HD
BRANCH   3   6
ATOM      6  C   UNL A   1      34.941  22.076  25.856  1.00  0.00     0.098 A 
ATOM      7  C   UNL A   1      31.591  23.416  24.769  1.00  0.00     0.138 A 
ATOM      8  N   UNL A   1      30.567  23.774  25.572  1.00  0.00    -0.219 NA
ATOM      9  C   UNL A   1      32.748  22.843  25.352  1.00  0.00     0.057 A 
ATOM     10  C   UNL A   1      30.641  23.479  26.877  1.00  0.00     0.225 A 
ATOM     11  C   UNL A   1      32.676  22.608  26.710  1.00  0.00     0.129 A 
ATOM     12  C   UNL A   1      34.069  22.486  24.842  1.00  0.00    -0.014 A 
ATOM     13  N   UNL A   1      31.644  22.883  27.524  1.00  0.00    -0.225 NA
ATOM     14  S   UNL A   1      34.073  21.880  27.316  1.00  0.00    -0.110 S 
ATOM     15  C   UNL A   1      34.447  22.640  23.406  1.00  0.00     0.047 C 
BRANCH   7  16
ATOM     16  N   UNL A   1      31.472  23.594  23.412  1.00  0.00    -0.369 N 
ATOM     17  H   UNL A   1      31.671  22.829  22.825  1.00  0.00     0.162 HD
BRANCH  16  18
ATOM     18  C   UNL A   1      31.071  24.841  22.792  1.00  0.00     0.119 C 
BRANCH  18  19
ATOM     19  C   UNL A   1      32.304  25.706  22.447  1.00  0.00     0.057 C 
BRANCH  19  20
ATOM     20  C   UNL A   1      32.624  26.857  23.385  1.00  0.00    -0.042 A 
ATOM     21  C   UNL A   1      33.317  28.881  25.241  1.00  0.00     0.160 A 
ATOM     22  C   UNL A   1      34.129  28.626  24.141  1.00  0.00     0.051 A 
ATOM     23  C   UNL A   1      32.127  28.161  25.406  1.00  0.00     0.160 A 
ATOM     24  C   UNL A   1      33.779  27.627  23.236  1.00  0.00     0.008 A 
ATOM     25  C   UNL A   1      31.806  27.143  24.485  1.00  0.00     0.054 A 
BRANCH  21  26
ATOM     26  O   UNL A   1      33.683  29.892  26.086  1.00  0.00    -0.493 OA
ATOM     27  C   UNL A   1      34.632  29.461  27.065  1.00  0.00     0.278 C 
ENDBRANCH  21  26
BRANCH  23  28
ATOM     28  O   UNL A   1      31.185  28.304  26.391  1.00  0.00    -0.493 OA
ATOM     29  C   UNL A   1      31.553  27.946  27.714  1.00  0.00     0.278 C 
ENDBRANCH  23  28
ENDBRANCH  19  20
ENDBRANCH  18  19
ENDBRANCH  16  18
ENDBRANCH   7  16
ENDBRANCH   3   6
ENDBRANCH   1   2
BRANCH   1  30
ATOM     30  C   UNL A   1      38.804  24.602  26.533  1.00  0.00     0.042 C 
BRANCH  30  31
ATOM     31  C   UNL A   1      39.674  23.914  27.575  1.00  0.00     0.118 C 
BRANCH  31  32
ATOM     32  N   UNL A   1      40.875  23.349  26.967  1.00  0.00    -0.352 N 
ATOM     33  C   UNL A   1      42.035  23.978  26.575  1.00  0.00     0.251 C 
ATOM     34  H   UNL A   1      40.852  22.376  26.816  1.00  0.00     0.163 HD
ATOM     35  O   UNL A   1      42.814  23.416  25.827  1.00  0.00    -0.269 OA
BRANCH  33  36
ATOM     36  C   UNL A   1      42.299  25.351  27.042  1.00  0.00     0.039 A 
ATOM     37  C   UNL A   1      41.931  26.425  26.232  1.00  0.00     0.014 A 
ATOM     38  C   UNL A   1      42.874  25.561  28.295  1.00  0.00     0.014 A 
ATOM     39  C   UNL A   1      42.059  27.715  26.730  1.00  0.00     0.010 A 
ATOM     40  C   UNL A   1      42.897  26.832  28.831  1.00  0.00     0.010 A 
ATOM     41  C   UNL A   1      42.504  27.915  28.048  1.00  0.00    -0.014 A 
BRANCH  41  42
ATOM     42  C   UNL A   1      42.345  29.240  28.652  1.00  0.00     0.031 A 
ATOM     43  C   UNL A   1      43.476  30.159  28.350  1.00  0.00     0.074 A 
ATOM     44  C   UNL A   1      41.220  29.685  29.253  1.00  0.00     0.049 A 
ATOM     45  N   UNL A   1      44.387  30.577  29.168  1.00  0.00    -0.248 NA
ATOM     46  C   UNL A   1      43.737  30.510  26.943  1.00  0.00     0.031 C 
ATOM     47  C   UNL A   1      39.929  28.992  29.320  1.00  0.00     0.029 A 
ATOM     48  N   UNL A   1      40.940  30.907  29.801  1.00  0.00    -0.354 N 
ATOM     49  C   UNL A   1      45.148  31.482  28.429  1.00  0.00     0.074 A 
ATOM     50  C   UNL A   1      44.872  31.204  27.047  1.00  0.00     0.031 C 
ATOM     51  C   UNL A   1      38.959  29.884  29.616  1.00  0.00     0.029 A 
ATOM     52  C   UNL A   1      39.576  31.157  29.932  1.00  0.00     0.049 A 
ATOM     53  H   UNL A   1      41.636  31.548  30.076  1.00  0.00     0.167 HD
ATOM     54  C   UNL A   1      45.641  32.603  29.025  1.00  0.00     0.034 A 
ATOM     55  C   UNL A   1      38.982  32.332  30.245  1.00  0.00     0.034 A 
ATOM     56  C   UNL A   1      45.554  32.497  30.461  1.00  0.00     0.049 A 
ATOM     57  C   UNL A   1      39.975  33.157  30.962  1.00  0.00     0.074 A 
ATOM     58  C   UNL A   1      46.142  31.760  31.464  1.00  0.00     0.029 A 
ATOM     59  N   UNL A   1      44.401  33.035  30.964  1.00  0.00    -0.354 N 
ATOM     60  N   UNL A   1      40.432  32.860  32.146  1.00  0.00    -0.248 NA
ATOM     61  C   UNL A   1      40.708  34.196  30.248  1.00  0.00     0.031 C 
ATOM     62  C   UNL A   1      45.200  31.738  32.537  1.00  0.00     0.029 A 
ATOM     63  C   UNL A   1      44.084  32.492  32.175  1.00  0.00     0.049 A 
ATOM     64  H   UNL A   1      43.869  33.727  30.511  1.00  0.00     0.167 HD
ATOM     65  C   UNL A   1      41.740  33.303  32.112  1.00  0.00     0.074 A 
ATOM     66  C   UNL A   1      41.781  34.286  31.038  1.00  0.00     0.031 C 
ATOM     67  C   UNL A   1      42.736  32.580  32.700  1.00  0.00     0.034 A 
BRANCH  54  68
ATOM     68  C   UNL A   1      45.689  33.988  28.386  1.00  0.00     0.023 A 
ATOM     69  C   UNL A   1      46.919  34.685  28.475  1.00  0.00     0.012 A 
ATOM     70  C   UNL A   1      44.559  34.754  28.017  1.00  0.00     0.148 A 
ATOM     71  C   UNL A   1      47.004  36.069  28.282  1.00  0.00     0.002 A 
ATOM     72  C   UNL A   1      44.661  36.117  27.753  1.00  0.00     0.091 A 
ATOM     73  F   UNL A   1      43.340  34.216  28.048  1.00  0.00    -0.205 F 
ATOM     74  C   UNL A   1      45.873  36.787  27.917  1.00  0.00     0.022 A 
BRANCH  72  75
ATOM     75  S   UNL A   1      43.232  37.087  27.249  1.00  0.00     0.127 S 
ATOM     76  O   UNL A   1      42.478  37.163  28.497  1.00  0.00    -0.237 OA
ATOM     77  O   UNL A   1      43.860  38.338  26.823  1.00  0.00    -0.237 OA
ATOM     78  O   UNL A   1      42.608  36.334  26.168  1.00  0.00    -0.744 OA
ENDBRANCH  72  75
ENDBRANCH  54  68
BRANCH  55  79
ATOM     79  C   UNL A   1      37.649  32.867  29.879  1.00  0.00     0.023 A 
ATOM     80  C   UNL A   1      37.119  32.593  28.602  1.00  0.00     0.012 A 
ATOM     81  C   UNL A   1      36.783  33.395  30.863  1.00  0.00     0.148 A 
ATOM     82  C   UNL A   1      35.759  32.783  28.330  1.00  0.00     0.002 A 
ATOM     83  C   UNL A   1      35.433  33.589  30.584  1.00  0.00     0.091 A 
ATOM     84  F   UNL A   1      37.263  33.618  32.093  1.00  0.00    -0.205 F 
ATOM     85  C   UNL A   1      34.914  33.268  29.323  1.00  0.00     0.022 A 
BRANCH  83  86
ATOM     86  S   UNL A   1      34.276  34.197  31.820  1.00  0.00     0.127 S 
ATOM     87  O   UNL A   1      33.208  34.753  30.989  1.00  0.00    -0.237 OA
ATOM     88  O   UNL A   1      33.923  32.972  32.532  1.00  0.00    -0.237 OA
ATOM     89  O   UNL A   1      35.010  35.192  32.593  1.00  0.00    -0.744 OA
ENDBRANCH  83  86
ENDBRANCH  55  79
BRANCH  67  90
ATOM     90  C   UNL A   1      42.366  31.678  33.842  1.00  0.00     0.023 A 
ATOM     91  C   UNL A   1      42.126  32.143  35.149  1.00  0.00     0.012 A 
ATOM     92  C   UNL A   1      42.182  30.314  33.558  1.00  0.00     0.148 A 
ATOM     93  C   UNL A   1      41.743  31.256  36.159  1.00  0.00     0.002 A 
ATOM     94  C   UNL A   1      41.754  29.445  34.551  1.00  0.00     0.091 A 
ATOM     95  F   UNL A   1      42.428  29.884  32.311  1.00  0.00    -0.205 F 
ATOM     96  C   UNL A   1      41.545  29.909  35.859  1.00  0.00     0.022 A 
BRANCH  94  97
ATOM     97  S   UNL A   1      41.377  27.732  34.181  1.00  0.00     0.127 S 
ATOM     98  O   UNL A   1      42.618  27.271  33.562  1.00  0.00    -0.237 OA
ATOM     99  O   UNL A   1      41.109  27.172  35.507  1.00  0.00    -0.237 OA
ATOM    100  O   UNL A   1      40.209  27.765  33.308  1.00  0.00    -0.744 OA
ENDBRANCH  94  97
ENDBRANCH  67  90
ENDBRANCH  41  42
ENDBRANCH  33  36
ENDBRANCH  31  32
ENDBRANCH  30  31
ENDBRANCH   1  30
TORSDOF 19
ENDMDL
MODEL 2
REMARK VINA RESULT:     -10.7      2.557      6.903
REMARK SMILES COc1ccc(CCNc2ncnc3sc(C(=O)NCCCNC(=O)c4ccc(-c5c6nc(c(-c7cccc(S(=O)(=O)[O-])c7F)c7ccc([nH]7)c(-c7cccc(S(=O)(=O)[O-])c7F)c7nc(c(-c8cccc(S(=O)(=O)[O-])c8F)c8ccc5[nH]8)C=C7)C=C6)cc4)c(C)c23)cc1OC
REMARK SMILES IDX 20 1 19 2 17 3 18 4 16 6 10 7 11 8 91 9 12 10 14 11 89 12
REMARK SMILES IDX 13 13 15 14 90 15 9 16 8 18 7 19 6 20 3 21 4 22 93 23 5 24
REMARK SMILES IDX 92 25 2 26 1 27 94 28 95 29 21 30 22 31 23 32 24 33 25 35
REMARK SMILES IDX 26 36 27 37 88 38 28 39 87 40 29 41 30 42 31 43 81 44 32 45
REMARK SMILES IDX 86 46 80 47 82 48 33 49 85 50 79 51 78 52 34 54 66 55 46 56
REMARK SMILES IDX 65 57 47 58 50 59 64 60 83 61 48 62 49 63 63 65 84 66 51 67
REMARK SMILES IDX 35 68 36 69 44 70 37 71 39 72 45 73 38 74 40 75 41 76 42 77
REMARK SMILES IDX 43 78 67 79 68 80 76 81 69 82 71 83 77 84 70 85 72 86 73 87
REMARK SMILES IDX 74 88 75 89 52 90 53 91 61 92 54 93 56 94 62 95 55 96 57 97
REMARK SMILES IDX 58 98 59 99 60 100
REMARK H PARENT 19 5 9 17 23 34 82 53 50 64
REMARK Flexibility Score: inf
ROOT
ATOM      1  C   UNL A   1      37.408  23.595  26.453  1.00  0.00     0.118 C 
ENDROOT
BRANCH   1   2
ATOM      2  N   UNL A   1      37.626  22.263  25.932  1.00  0.00    -0.351 N 
ATOM      3  C   UNL A   1      36.805  21.342  25.339  1.00  0.00     0.261 C 
ATOM      4  O   UNL A   1      37.387  20.290  25.060  1.00  0.00    -0.268 OA
ATOM      5  H   UNL A   1      38.556  21.956  26.024  1.00  0.00     0.163 HD
BRANCH   3   6
ATOM      6  C   UNL A   1      35.401  21.585  24.988  1.00  0.00     0.098 A 
ATOM      7  C   UNL A   1      32.578  23.262  23.140  1.00  0.00     0.138 A 
ATOM      8  N   UNL A   1      31.290  23.347  23.539  1.00  0.00    -0.219 NA
ATOM      9  C   UNL A   1      33.487  22.509  23.923  1.00  0.00     0.057 A 
ATOM     10  C   UNL A   1      30.900  22.631  24.603  1.00  0.00     0.225 A 
ATOM     11  C   UNL A   1      32.935  21.836  24.994  1.00  0.00     0.129 A 
ATOM     12  C   UNL A   1      34.936  22.323  23.894  1.00  0.00    -0.014 A 
ATOM     13  N   UNL A   1      31.647  21.839  25.373  1.00  0.00    -0.225 NA
ATOM     14  S   UNL A   1      34.075  20.926  25.843  1.00  0.00    -0.110 S 
ATOM     15  C   UNL A   1      35.807  22.943  22.853  1.00  0.00     0.047 C 
BRANCH   7  16
ATOM     16  N   UNL A   1      32.960  23.884  21.977  1.00  0.00    -0.369 N 
ATOM     17  H   UNL A   1      33.476  23.363  21.320  1.00  0.00     0.162 HD
BRANCH  16  18
ATOM     18  C   UNL A   1      32.649  25.263  21.658  1.00  0.00     0.119 C 
BRANCH  18  19
ATOM     19  C   UNL A   1      33.656  26.225  22.330  1.00  0.00     0.057 C 
BRANCH  19  20
ATOM     20  C   UNL A   1      33.109  27.167  23.389  1.00  0.00    -0.042 A 
ATOM     21  C   UNL A   1      32.245  28.887  25.466  1.00  0.00     0.160 A 
ATOM     22  C   UNL A   1      33.003  29.382  24.410  1.00  0.00     0.051 A 
ATOM     23  C   UNL A   1      31.870  27.538  25.477  1.00  0.00     0.160 A 
ATOM     24  C   UNL A   1      33.425  28.526  23.396  1.00  0.00     0.008 A 
ATOM     25  C   UNL A   1      32.325  26.689  24.446  1.00  0.00     0.054 A 
BRANCH  21  26
ATOM     26  O   UNL A   1      31.827  29.769  26.423  1.00  0.00    -0.493 OA
ATOM     27  C   UNL A   1      32.871  30.105  27.342  1.00  0.00     0.278 C 
ENDBRANCH  21  26
BRANCH  23  28
ATOM     28  O   UNL A   1      31.093  26.885  26.398  1.00  0.00    -0.493 OA
ATOM     29  C   UNL A   1      30.134  25.957  25.915  1.00  0.00     0.278 C 
ENDBRANCH  23  28
ENDBRANCH  19  20
ENDBRANCH  18  19
ENDBRANCH  16  18
ENDBRANCH   7  16
ENDBRANCH   3   6
ENDBRANCH   1   2
BRANCH   1  30
ATOM     30  C   UNL A   1      38.681  24.440  26.362  1.00  0.00     0.042 C 
BRANCH  30  31
ATOM     31  C   UNL A   1      39.909  23.653  26.801  1.00  0.00     0.118 C 
BRANCH  31  32
ATOM     32  N   UNL A   1      41.089  24.056  26.042  1.00  0.00    -0.352 N 
ATOM     33  C   UNL A   1      41.719  25.279  25.989  1.00  0.00     0.251 C 
ATOM     34  H   UNL A   1      41.493  23.350  25.486  1.00  0.00     0.163 HD
ATOM     35  O   UNL A   1      42.507  25.524  25.094  1.00  0.00    -0.269 OA
BRANCH  33  36
ATOM     36  C   UNL A   1      41.399  26.295  27.008  1.00  0.00     0.039 A 
ATOM     37  C   UNL A   1      41.777  26.067  28.333  1.00  0.00     0.014 A 
ATOM     38  C   UNL A   1      40.763  27.478  26.637  1.00  0.00     0.014 A 
ATOM     39  C   UNL A   1      41.594  27.081  29.264  1.00  0.00     0.010 A 
ATOM     40  C   UNL A   1      40.684  28.522  27.535  1.00  0.00     0.010 A 
ATOM     41  C   UNL A   1      41.085  28.325  28.854  1.00  0.00    -0.014 A 
BRANCH  41  42
ATOM     42  C   UNL A   1      41.183  29.463  29.772  1.00  0.00     0.031 A 
ATOM     43  C   UNL A   1      39.857  29.967  30.221  1.00  0.00     0.074 A 
ATOM     44  C   UNL A   1      42.330  29.908  30.330  1.00  0.00     0.049 A 
ATOM     45  N   UNL A   1      39.286  31.078  29.887  1.00  0.00    -0.248 NA
ATOM     46  C   UNL A   1      38.983  29.056  30.981  1.00  0.00     0.031 C 
ATOM     47  C   UNL A   1      43.655  29.288  30.224  1.00  0.00     0.029 A 
ATOM     48  N   UNL A   1      42.535  30.917  31.230  1.00  0.00    -0.354 N 
ATOM     49  C   UNL A   1      38.116  31.125  30.644  1.00  0.00     0.074 A 
ATOM     50  C   UNL A   1      37.865  29.778  31.078  1.00  0.00     0.031 C 
ATOM     51  C   UNL A   1      44.444  29.750  31.217  1.00  0.00     0.029 A 
ATOM     52  C   UNL A   1      43.747  30.817  31.909  1.00  0.00     0.049 A 
ATOM     53  H   UNL A   1      41.889  31.644  31.384  1.00  0.00     0.167 HD
ATOM     54  C   UNL A   1      37.675  32.312  31.144  1.00  0.00     0.034 A 
ATOM     55  C   UNL A   1      44.148  31.532  32.987  1.00  0.00     0.034 A 
ATOM     56  C   UNL A   1      38.353  33.415  30.509  1.00  0.00     0.049 A 
ATOM     57  C   UNL A   1      43.375  32.790  33.000  1.00  0.00     0.074 A 
ATOM     58  C   UNL A   1      38.394  34.006  29.267  1.00  0.00     0.029 A 
ATOM     59  N   UNL A   1      39.465  33.821  31.196  1.00  0.00    -0.354 N 
ATOM     60  N   UNL A   1      43.509  33.722  32.098  1.00  0.00    -0.248 NA
ATOM     61  C   UNL A   1      42.211  32.919  33.868  1.00  0.00     0.031 C 
ATOM     62  C   UNL A   1      39.668  34.643  29.176  1.00  0.00     0.029 A 
ATOM     63  C   UNL A   1      40.352  34.458  30.378  1.00  0.00     0.049 A 
ATOM     64  H   UNL A   1      39.607  33.674  32.158  1.00  0.00     0.167 HD
ATOM     65  C   UNL A   1      42.236  34.245  31.978  1.00  0.00     0.074 A 
ATOM     66  C   UNL A   1      41.555  33.878  33.211  1.00  0.00     0.031 C 
ATOM     67  C   UNL A   1      41.743  34.602  30.756  1.00  0.00     0.034 A 
BRANCH  54  68
ATOM     68  C   UNL A   1      37.076  32.511  32.534  1.00  0.00     0.023 A 
ATOM     69  C   UNL A   1      35.990  33.416  32.632  1.00  0.00     0.012 A 
ATOM     70  C   UNL A   1      37.698  32.144  33.749  1.00  0.00     0.148 A 
ATOM     71  C   UNL A   1      35.597  33.975  33.855  1.00  0.00     0.002 A 
ATOM     72  C   UNL A   1      37.257  32.645  34.971  1.00  0.00     0.091 A 
ATOM     73  F   UNL A   1      38.814  31.415  33.743  1.00  0.00    -0.205 F 
ATOM     74  C   UNL A   1      36.230  33.587  35.028  1.00  0.00     0.022 A 
BRANCH  72  75
ATOM     75  S   UNL A   1      38.024  32.151  36.522  1.00  0.00     0.127 S 
ATOM     76  O   UNL A   1      39.368  32.701  36.368  1.00  0.00    -0.237 OA
ATOM     77  O   UNL A   1      37.178  32.836  37.500  1.00  0.00    -0.237 OA
ATOM     78  O   UNL A   1      37.927  30.697  36.563  1.00  0.00    -0.744 OA
ENDBRANCH  72  75
ENDBRANCH  54  68
BRANCH  55  79
ATOM     79  C   UNL A   1      45.071  31.178  34.091  1.00  0.00     0.023 A 
ATOM     80  C   UNL A   1      46.394  31.665  34.071  1.00  0.00     0.012 A 
ATOM     81  C   UNL A   1      44.585  30.612  35.290  1.00  0.00     0.148 A 
ATOM     82  C   UNL A   1      47.188  31.642  35.224  1.00  0.00     0.002 A 
ATOM     83  C   UNL A   1      45.382  30.586  36.432  1.00  0.00     0.091 A 
ATOM     84  F   UNL A   1      43.316  30.187  35.337  1.00  0.00    -0.205 F 
ATOM     85  C   UNL A   1      46.679  31.115  36.406  1.00  0.00     0.022 A 
BRANCH  83  86
ATOM     86  S   UNL A   1      44.790  29.936  38.001  1.00  0.00     0.127 S 
ATOM     87  O   UNL A   1      45.990  30.010  38.834  1.00  0.00    -0.237 OA
ATOM     88  O   UNL A   1      43.743  30.893  38.349  1.00  0.00    -0.237 OA
ATOM     89  O   UNL A   1      44.341  28.577  37.722  1.00  0.00    -0.744 OA
ENDBRANCH  83  86
ENDBRANCH  55  79
BRANCH  67  90
ATOM     90  C   UNL A   1      42.727  34.985  29.689  1.00  0.00     0.023 A 
ATOM     91  C   UNL A   1      43.222  36.293  29.525  1.00  0.00     0.012 A 
ATOM     92  C   UNL A   1      43.225  33.959  28.867  1.00  0.00     0.148 A 
ATOM     93  C   UNL A   1      44.169  36.575  28.537  1.00  0.00     0.002 A 
ATOM     94  C   UNL A   1      44.202  34.233  27.922  1.00  0.00     0.091 A 
ATOM     95  F   UNL A   1      42.733  32.720  29.027  1.00  0.00    -0.205 F 
ATOM     96  C   UNL A   1      44.669  35.544  27.743  1.00  0.00     0.022 A 
BRANCH  94  97
ATOM     97  S   UNL A   1      44.953  32.919  26.960  1.00  0.00     0.127 S 
ATOM     98  O   UNL A   1      46.161  33.563  26.450  1.00  0.00    -0.237 OA
ATOM     99  O   UNL A   1      45.189  31.883  27.967  1.00  0.00    -0.237 OA
ATOM    100  O   UNL A   1      43.960  32.551  25.956  1.00  0.00    -0.744 OA
ENDBRANCH  94  97
ENDBRANCH  67  90
ENDBRANCH  41  42
ENDBRANCH  33  36
ENDBRANCH  31  32
ENDBRANCH  30  31
ENDBRANCH   1  30
TORSDOF 19
ENDMDL
MODEL 3
REMARK VINA RESULT:     -10.4      4.814      9.754
REMARK SMILES COc1ccc(CCNc2ncnc3sc(C(=O)NCCCNC(=O)c4ccc(-c5c6nc(c(-c7cccc(S(=O)(=O)[O-])c7F)c7ccc([nH]7)c(-c7cccc(S(=O)(=O)[O-])c7F)c7nc(c(-c8cccc(S(=O)(=O)[O-])c8F)c8ccc5[nH]8)C=C7)C=C6)cc4)c(C)c23)cc1OC
REMARK SMILES IDX 20 1 19 2 17 3 18 4 16 6 10 7 11 8 91 9 12 10 14 11 89 12
REMARK SMILES IDX 13 13 15 14 90 15 9 16 8 18 7 19 6 20 3 21 4 22 93 23 5 24
REMARK SMILES IDX 92 25 2 26 1 27 94 28 95 29 21 30 22 31 23 32 24 33 25 35
REMARK SMILES IDX 26 36 27 37 88 38 28 39 87 40 29 41 30 42 31 43 81 44 32 45
REMARK SMILES IDX 86 46 80 47 82 48 33 49 85 50 79 51 78 52 34 54 66 55 46 56
REMARK SMILES IDX 65 57 47 58 50 59 64 60 83 61 48 62 49 63 63 65 84 66 51 67
REMARK SMILES IDX 35 68 36 69 44 70 37 71 39 72 45 73 38 74 40 75 41 76 42 77
REMARK SMILES IDX 43 78 67 79 68 80 76 81 69 82 71 83 77 84 70 85 72 86 73 87
REMARK SMILES IDX 74 88 75 89 52 90 53 91 61 92 54 93 56 94 62 95 55 96 57 97
REMARK SMILES IDX 58 98 59 99 60 100
REMARK H PARENT 19 5 9 17 23 34 82 53 50 64
REMARK Flexibility Score: inf
ROOT
ATOM      1  C   UNL A   1      39.932  21.704  25.928  1.00  0.00     0.118 C 
ENDROOT
BRANCH   1   2
ATOM      2  N   UNL A   1      40.744  20.630  26.457  1.00  0.00    -0.351 N 
ATOM      3  C   UNL A   1      42.088  20.494  26.685  1.00  0.00     0.261 C 
ATOM      4  O   UNL A   1      42.389  19.383  27.129  1.00  0.00    -0.268 OA
ATOM      5  H   UNL A   1      40.223  19.832  26.703  1.00  0.00     0.163 HD
BRANCH   3   6
ATOM      6  C   UNL A   1      43.073  21.567  26.507  1.00  0.00     0.098 A 
ATOM      7  C   UNL A   1      44.756  24.837  27.325  1.00  0.00     0.138 A 
ATOM      8  N   UNL A   1      45.481  25.604  26.482  1.00  0.00    -0.219 NA
ATOM      9  C   UNL A   1      44.273  23.587  26.865  1.00  0.00     0.057 A 
ATOM     10  C   UNL A   1      45.804  25.107  25.280  1.00  0.00     0.225 A 
ATOM     11  C   UNL A   1      44.683  23.218  25.601  1.00  0.00     0.129 A 
ATOM     12  C   UNL A   1      43.359  22.590  27.417  1.00  0.00    -0.014 A 
ATOM     13  N   UNL A   1      45.466  23.923  24.767  1.00  0.00    -0.225 NA
ATOM     14  S   UNL A   1      44.106  21.697  25.151  1.00  0.00    -0.110 S 
ATOM     15  C   UNL A   1      42.741  22.724  28.769  1.00  0.00     0.047 C 
BRANCH   7  16
ATOM     16  N   UNL A   1      44.530  25.279  28.605  1.00  0.00    -0.369 N 
ATOM     17  H   UNL A   1      43.815  25.941  28.747  1.00  0.00     0.162 HD
BRANCH  16  18
ATOM     18  C   UNL A   1      45.280  24.830  29.761  1.00  0.00     0.119 C 
BRANCH  18  19
ATOM     19  C   UNL A   1      45.383  25.950  30.821  1.00  0.00     0.057 C 
BRANCH  19  20
ATOM     20  C   UNL A   1      44.667  25.718  32.141  1.00  0.00    -0.042 A 
ATOM     21  C   UNL A   1      43.475  25.380  34.687  1.00  0.00     0.160 A 
ATOM     22  C   UNL A   1      43.166  26.488  33.906  1.00  0.00     0.051 A 
ATOM     23  C   UNL A   1      44.348  24.404  34.191  1.00  0.00     0.160 A 
ATOM     24  C   UNL A   1      43.760  26.645  32.657  1.00  0.00     0.008 A 
ATOM     25  C   UNL A   1      44.950  24.597  32.930  1.00  0.00     0.054 A 
BRANCH  21  26
ATOM     26  O   UNL A   1      42.844  25.251  35.894  1.00  0.00    -0.493 OA
ATOM     27  C   UNL A   1      41.493  25.717  35.851  1.00  0.00     0.278 C 
ENDBRANCH  21  26
BRANCH  23  28
ATOM     28  O   UNL A   1      44.731  23.232  34.789  1.00  0.00    -0.493 OA
ATOM     29  C   UNL A   1      45.533  22.336  34.035  1.00  0.00     0.278 C 
ENDBRANCH  23  28
ENDBRANCH  19  20
ENDBRANCH  18  19
ENDBRANCH  16  18
ENDBRANCH   7  16
ENDBRANCH   3   6
ENDBRANCH   1   2
BRANCH   1  30
ATOM     30  C   UNL A   1      39.415  22.609  27.050  1.00  0.00     0.042 C 
BRANCH  30  31
ATOM     31  C   UNL A   1      39.458  24.077  26.651  1.00  0.00     0.118 C 
BRANCH  31  32
ATOM     32  N   UNL A   1      40.688  24.389  25.929  1.00  0.00    -0.352 N 
ATOM     33  C   UNL A   1      41.417  25.557  25.907  1.00  0.00     0.251 C 
ATOM     34  H   UNL A   1      41.049  23.658  25.377  1.00  0.00     0.163 HD
ATOM     35  O   UNL A   1      42.247  25.745  25.036  1.00  0.00    -0.269 OA
BRANCH  33  36
ATOM     36  C   UNL A   1      41.152  26.586  26.929  1.00  0.00     0.039 A 
ATOM     37  C   UNL A   1      41.351  26.272  28.274  1.00  0.00     0.014 A 
ATOM     38  C   UNL A   1      40.746  27.863  26.542  1.00  0.00     0.014 A 
ATOM     39  C   UNL A   1      41.230  27.280  29.221  1.00  0.00     0.010 A 
ATOM     40  C   UNL A   1      40.735  28.885  27.468  1.00  0.00     0.010 A 
ATOM     41  C   UNL A   1      40.962  28.597  28.812  1.00  0.00    -0.014 A 
BRANCH  41  42
ATOM     42  C   UNL A   1      41.138  29.685  29.778  1.00  0.00     0.031 A 
ATOM     43  C   UNL A   1      39.851  30.201  30.317  1.00  0.00     0.074 A 
ATOM     44  C   UNL A   1      42.323  30.069  30.301  1.00  0.00     0.049 A 
ATOM     45  N   UNL A   1      39.297  31.342  30.067  1.00  0.00    -0.248 NA
ATOM     46  C   UNL A   1      38.988  29.276  31.073  1.00  0.00     0.031 C 
ATOM     47  C   UNL A   1      43.623  29.421  30.099  1.00  0.00     0.029 A 
ATOM     48  N   UNL A   1      42.601  31.026  31.238  1.00  0.00    -0.354 N 
ATOM     49  C   UNL A   1      38.166  31.382  30.883  1.00  0.00     0.074 A 
ATOM     50  C   UNL A   1      37.897  30.023  31.262  1.00  0.00     0.031 C 
ATOM     51  C   UNL A   1      44.472  29.811  31.073  1.00  0.00     0.029 A 
ATOM     52  C   UNL A   1      43.841  30.859  31.850  1.00  0.00     0.049 A 
ATOM     53  H   UNL A   1      41.984  31.762  31.459  1.00  0.00     0.167 HD
ATOM     54  C   UNL A   1      37.785  32.554  31.462  1.00  0.00     0.034 A 
ATOM     55  C   UNL A   1      44.314  31.507  32.940  1.00  0.00     0.034 A 
ATOM     56  C   UNL A   1      38.464  33.669  30.849  1.00  0.00     0.049 A 
ATOM     57  C   UNL A   1      43.580  32.784  33.054  1.00  0.00     0.074 A 
ATOM     58  C   UNL A   1      38.462  34.321  29.637  1.00  0.00     0.029 A 
ATOM     59  N   UNL A   1      39.619  34.010  31.499  1.00  0.00    -0.354 N 
ATOM     60  N   UNL A   1      43.697  33.757  32.194  1.00  0.00    -0.248 NA
ATOM     61  C   UNL A   1      42.463  32.900  33.984  1.00  0.00     0.031 C 
ATOM     62  C   UNL A   1      39.749  34.927  29.514  1.00  0.00     0.029 A 
ATOM     63  C   UNL A   1      40.484  34.663  30.670  1.00  0.00     0.049 A 
ATOM     64  H   UNL A   1      39.803  33.810  32.444  1.00  0.00     0.167 HD
ATOM     65  C   UNL A   1      42.436  34.319  32.162  1.00  0.00     0.074 A 
ATOM     66  C   UNL A   1      41.805  33.909  33.409  1.00  0.00     0.031 C 
ATOM     67  C   UNL A   1      41.895  34.750  30.986  1.00  0.00     0.034 A 
BRANCH  54  68
ATOM     68  C   UNL A   1      37.260  32.699  32.888  1.00  0.00     0.023 A 
ATOM     69  C   UNL A   1      36.180  33.596  33.077  1.00  0.00     0.012 A 
ATOM     70  C   UNL A   1      37.946  32.288  34.053  1.00  0.00     0.148 A 
ATOM     71  C   UNL A   1      35.851  34.107  34.339  1.00  0.00     0.002 A 
ATOM     72  C   UNL A   1      37.569  32.740  35.315  1.00  0.00     0.091 A 
ATOM     73  F   UNL A   1      39.060  31.562  33.961  1.00  0.00    -0.205 F 
ATOM     74  C   UNL A   1      36.545  33.677  35.461  1.00  0.00     0.022 A 
BRANCH  72  75
ATOM     75  S   UNL A   1      38.417  32.191  36.804  1.00  0.00     0.127 S 
ATOM     76  O   UNL A   1      39.785  32.624  36.534  1.00  0.00    -0.237 OA
ATOM     77  O   UNL A   1      37.715  32.950  37.840  1.00  0.00    -0.237 OA
ATOM     78  O   UNL A   1      38.202  30.751  36.870  1.00  0.00    -0.744 OA
ENDBRANCH  72  75
ENDBRANCH  54  68
BRANCH  55  79
ATOM     79  C   UNL A   1      45.278  31.074  33.979  1.00  0.00     0.023 A 
ATOM     80  C   UNL A   1      46.499  31.764  34.123  1.00  0.00     0.012 A 
ATOM     81  C   UNL A   1      44.890  30.182  35.003  1.00  0.00     0.148 A 
ATOM     82  C   UNL A   1      47.279  31.617  35.276  1.00  0.00     0.002 A 
ATOM     83  C   UNL A   1      45.674  30.033  36.144  1.00  0.00     0.091 A 
ATOM     84  F   UNL A   1      43.712  29.553  34.901  1.00  0.00    -0.205 F 
ATOM     85  C   UNL A   1      46.862  30.762  36.291  1.00  0.00     0.022 A 
BRANCH  83  86
ATOM     86  S   UNL A   1      45.194  28.960  37.505  1.00  0.00     0.127 S 
ATOM     87  O   UNL A   1      46.266  29.196  38.472  1.00  0.00    -0.237 OA
ATOM     88  O   UNL A   1      43.897  29.514  37.883  1.00  0.00    -0.237 OA
ATOM     89  O   UNL A   1      45.172  27.610  36.956  1.00  0.00    -0.744 OA
ENDBRANCH  83  86
ENDBRANCH  55  79
BRANCH  67  90
ATOM     90  C   UNL A   1      42.838  35.160  29.891  1.00  0.00     0.023 A 
ATOM     91  C   UNL A   1      43.364  36.460  29.769  1.00  0.00     0.012 A 
ATOM     92  C   UNL A   1      43.262  34.164  28.994  1.00  0.00     0.148 A 
ATOM     93  C   UNL A   1      44.271  36.766  28.750  1.00  0.00     0.002 A 
ATOM     94  C   UNL A   1      44.200  34.459  28.016  1.00  0.00     0.091 A 
ATOM     95  F   UNL A   1      42.741  32.934  29.115  1.00  0.00    -0.205 F 
ATOM     96  C   UNL A   1      44.698  35.764  27.881  1.00  0.00     0.022 A 
BRANCH  94  97
ATOM     97  S   UNL A   1      44.862  33.177  26.952  1.00  0.00     0.127 S 
ATOM     98  O   UNL A   1      43.780  32.988  25.989  1.00  0.00    -0.237 OA
ATOM     99  O   UNL A   1      46.066  33.806  26.407  1.00  0.00    -0.237 OA
ATOM    100  O   UNL A   1      45.134  32.042  27.828  1.00  0.00    -0.744 OA
ENDBRANCH  94  97
ENDBRANCH  67  90
ENDBRANCH  41  42
ENDBRANCH  33  36
ENDBRANCH  31  32
ENDBRANCH  30  31
ENDBRANCH   1  30
TORSDOF 19
ENDMDL
