MODEL 1
REMARK VINA RESULT:     -10.8      0.000      0.000
REMARK SMILES O=C(CCCNC(=O)[C@@H]1CCCN(S(=O)(=O)c2ccc(F)cc2)C1)NCCCNC(=O)c1ccc(-c2c3nc(c(-c4cccc(S(=O)(=O)[O-])c4F)c4ccc([nH]4)c(-c4cccc(S(=O)(=O)[O-])c4F)c4nc(c(-c5cccc(S(=O)(=O)[O-])c5F)c5ccc2[nH]5)C=C4)C=C3)cc1
REMARK SMILES IDX 1 1 2 2 25 3 3 5 4 6 5 7 6 8 7 9 8 11 9 12 10 13 24 14 11 15
REMARK SMILES IDX 13 16 12 17 14 18 15 19 16 20 17 21 18 22 23 23 19 24 22 25
REMARK SMILES IDX 20 26 21 27 26 28 27 29 28 30 29 31 30 32 31 34 32 35 33 36
REMARK SMILES IDX 94 37 34 38 93 39 35 40 36 41 37 42 87 43 38 44 92 45 86 46
REMARK SMILES IDX 88 47 39 48 91 49 85 50 84 51 40 53 72 54 52 55 71 56 53 57
REMARK SMILES IDX 56 58 70 59 89 60 54 61 55 62 69 64 90 65 57 66 41 67 42 68
REMARK SMILES IDX 50 69 43 70 45 71 51 72 44 73 46 74 47 75 48 76 49 77 73 78
REMARK SMILES IDX 74 79 82 80 75 81 77 82 83 83 76 84 78 85 79 86 80 87 81 88
REMARK SMILES IDX 58 89 59 90 67 91 60 92 62 93 68 94 61 95 63 96 64 97 65 98
REMARK SMILES IDX 66 99
REMARK H PARENT 25 4 6 10 29 33 88 52 56 63
REMARK Flexibility Score: inf
ROOT
ATOM      1  O   UNL A   1      36.165  30.213  27.603  1.00  0.00    -0.275 OA
ATOM      2  C   UNL A   1      35.001  30.577  27.485  1.00  0.00     0.220 C 
ATOM      3  N   UNL A   1      34.571  31.869  27.688  1.00  0.00    -0.356 N 
ATOM      4  H   UNL A   1      33.623  32.087  27.540  1.00  0.00     0.163 HD
ENDROOT
BRANCH   2   5
ATOM      5  C   UNL A   1      33.888  29.604  27.166  1.00  0.00     0.102 C 
BRANCH   5   6
ATOM      6  C   UNL A   1      32.548  30.323  26.988  1.00  0.00     0.031 C 
BRANCH   6   7
ATOM      7  C   UNL A   1      31.860  30.086  25.642  1.00  0.00     0.116 C 
BRANCH   7   8
ATOM      8  N   UNL A   1      32.758  29.487  24.672  1.00  0.00    -0.356 N 
ATOM      9  C   UNL A   1      32.646  28.331  23.957  1.00  0.00     0.224 C 
ATOM     10  H   UNL A   1      33.583  29.997  24.503  1.00  0.00     0.163 HD
ATOM     11  O   UNL A   1      33.482  28.151  23.075  1.00  0.00    -0.275 OA
BRANCH   9  12
ATOM     12  C   UNL A   1      31.542  27.336  24.292  1.00  0.00     0.093 C 
ATOM     13  C   UNL A   1      31.501  27.025  25.790  1.00  0.00     0.016 C 
ATOM     14  C   UNL A   1      31.672  26.047  23.467  1.00  0.00     0.116 C 
ATOM     15  C   UNL A   1      32.674  26.147  26.203  1.00  0.00     0.018 C 
ATOM     16  N   UNL A   1      32.780  25.155  23.938  1.00  0.00    -0.197 NA
ATOM     17  C   UNL A   1      32.713  24.861  25.391  1.00  0.00     0.102 C 
BRANCH  16  18
ATOM     18  S   UNL A   1      32.951  23.762  22.934  1.00  0.00     0.243 S 
ATOM     19  O   UNL A   1      31.762  22.955  23.122  1.00  0.00    -0.207 OA
ATOM     20  O   UNL A   1      33.338  24.203  21.611  1.00  0.00    -0.207 OA
BRANCH  18  21
ATOM     21  C   UNL A   1      34.328  22.879  23.639  1.00  0.00     0.082 A 
ATOM     22  C   UNL A   1      34.095  21.698  24.357  1.00  0.00     0.025 A 
ATOM     23  C   UNL A   1      35.637  23.303  23.379  1.00  0.00     0.025 A 
ATOM     24  C   UNL A   1      35.175  20.977  24.868  1.00  0.00     0.040 A 
ATOM     25  C   UNL A   1      36.713  22.560  23.871  1.00  0.00     0.040 A 
ATOM     26  C   UNL A   1      36.472  21.413  24.620  1.00  0.00     0.123 A 
ATOM     27  F   UNL A   1      37.502  20.705  25.103  1.00  0.00    -0.207 F 
ENDBRANCH  18  21
ENDBRANCH  16  18
ENDBRANCH   9  12
ENDBRANCH   7   8
ENDBRANCH   6   7
ENDBRANCH   5   6
ENDBRANCH   2   5
BRANCH   3  28
ATOM     28  C   UNL A   1      35.475  32.920  28.114  1.00  0.00     0.117 C 
BRANCH  28  29
ATOM     29  C   UNL A   1      34.759  34.230  28.422  1.00  0.00     0.042 C 
BRANCH  29  30
ATOM     30  C   UNL A   1      33.264  34.107  28.709  1.00  0.00     0.118 C 
BRANCH  30  31
ATOM     31  N   UNL A   1      32.788  35.041  29.716  1.00  0.00    -0.352 N 
ATOM     32  C   UNL A   1      33.235  35.250  30.999  1.00  0.00     0.251 C 
ATOM     33  H   UNL A   1      32.033  35.610  29.437  1.00  0.00     0.163 HD
ATOM     34  O   UNL A   1      32.612  36.016  31.732  1.00  0.00    -0.269 OA
BRANCH  32  35
ATOM     35  C   UNL A   1      34.431  34.542  31.514  1.00  0.00     0.039 A 
ATOM     36  C   UNL A   1      34.279  33.242  32.009  1.00  0.00     0.014 A 
ATOM     37  C   UNL A   1      35.690  35.149  31.536  1.00  0.00     0.014 A 
ATOM     38  C   UNL A   1      35.394  32.533  32.469  1.00  0.00     0.010 A 
ATOM     39  C   UNL A   1      36.810  34.417  31.932  1.00  0.00     0.010 A 
ATOM     40  C   UNL A   1      36.676  33.104  32.408  1.00  0.00    -0.014 A 
BRANCH  40  41
ATOM     41  C   UNL A   1      37.880  32.343  32.835  1.00  0.00     0.031 A 
ATOM     42  C   UNL A   1      38.594  32.696  34.113  1.00  0.00     0.074 A 
ATOM     43  C   UNL A   1      38.383  31.380  32.035  1.00  0.00     0.049 A 
ATOM     44  N   UNL A   1      39.683  32.177  34.618  1.00  0.00    -0.248 NA
ATOM     45  C   UNL A   1      38.022  33.788  34.920  1.00  0.00     0.031 C 
ATOM     46  C   UNL A   1      37.832  30.987  30.738  1.00  0.00     0.029 A 
ATOM     47  N   UNL A   1      39.483  30.570  32.187  1.00  0.00    -0.354 N 
ATOM     48  C   UNL A   1      39.948  32.900  35.775  1.00  0.00     0.074 A 
ATOM     49  C   UNL A   1      38.921  33.913  35.886  1.00  0.00     0.031 C 
ATOM     50  C   UNL A   1      38.590  30.010  30.216  1.00  0.00     0.029 A 
ATOM     51  C   UNL A   1      39.694  29.720  31.126  1.00  0.00     0.049 A 
ATOM     52  H   UNL A   1      40.065  30.595  32.981  1.00  0.00     0.167 HD
ATOM     53  C   UNL A   1      40.935  32.715  36.685  1.00  0.00     0.034 A 
ATOM     54  C   UNL A   1      40.665  28.809  30.908  1.00  0.00     0.034 A 
ATOM     55  C   UNL A   1      41.915  31.667  36.613  1.00  0.00     0.049 A 
ATOM     56  C   UNL A   1      41.724  28.593  31.956  1.00  0.00     0.074 A 
ATOM     57  C   UNL A   1      42.888  31.339  37.542  1.00  0.00     0.029 A 
ATOM     58  N   UNL A   1      42.050  30.776  35.561  1.00  0.00    -0.354 N 
ATOM     59  N   UNL A   1      41.862  29.180  33.119  1.00  0.00    -0.248 NA
ATOM     60  C   UNL A   1      42.743  27.570  31.677  1.00  0.00     0.031 C 
ATOM     61  C   UNL A   1      43.620  30.257  37.044  1.00  0.00     0.029 A 
ATOM     62  C   UNL A   1      43.096  29.904  35.811  1.00  0.00     0.049 A 
ATOM     63  H   UNL A   1      41.485  30.765  34.754  1.00  0.00     0.167 HD
ATOM     64  C   UNL A   1      42.964  28.583  33.721  1.00  0.00     0.074 A 
ATOM     65  C   UNL A   1      43.445  27.571  32.803  1.00  0.00     0.031 C 
ATOM     66  C   UNL A   1      43.535  28.863  34.918  1.00  0.00     0.034 A 
BRANCH  53  67
ATOM     67  C   UNL A   1      40.962  33.619  37.888  1.00  0.00     0.023 A 
ATOM     68  C   UNL A   1      41.813  34.742  37.885  1.00  0.00     0.012 A 
ATOM     69  C   UNL A   1      40.087  33.415  38.974  1.00  0.00     0.148 A 
ATOM     70  C   UNL A   1      41.813  35.636  38.954  1.00  0.00     0.002 A 
ATOM     71  C   UNL A   1      40.064  34.334  40.018  1.00  0.00     0.091 A 
ATOM     72  F   UNL A   1      39.300  32.331  38.966  1.00  0.00    -0.205 F 
ATOM     73  C   UNL A   1      40.931  35.438  40.013  1.00  0.00     0.022 A 
BRANCH  71  74
ATOM     74  S   UNL A   1      38.911  34.212  41.390  1.00  0.00     0.127 S 
ATOM     75  O   UNL A   1      38.931  35.576  41.915  1.00  0.00    -0.237 OA
ATOM     76  O   UNL A   1      37.668  33.836  40.717  1.00  0.00    -0.237 OA
ATOM     77  O   UNL A   1      39.452  33.192  42.279  1.00  0.00    -0.744 OA
ENDBRANCH  71  74
ENDBRANCH  53  67
BRANCH  54  78
ATOM     78  C   UNL A   1      40.624  27.973  29.674  1.00  0.00     0.023 A 
ATOM     79  C   UNL A   1      39.641  26.971  29.560  1.00  0.00     0.012 A 
ATOM     80  C   UNL A   1      41.502  28.202  28.597  1.00  0.00     0.148 A 
ATOM     81  C   UNL A   1      39.542  26.201  28.401  1.00  0.00     0.002 A 
ATOM     82  C   UNL A   1      41.364  27.465  27.426  1.00  0.00     0.091 A 
ATOM     83  F   UNL A   1      42.441  29.149  28.733  1.00  0.00    -0.205 F 
ATOM     84  C   UNL A   1      40.394  26.455  27.330  1.00  0.00     0.022 A 
BRANCH  82  85
ATOM     85  S   UNL A   1      42.326  27.816  25.949  1.00  0.00     0.127 S 
ATOM     86  O   UNL A   1      41.797  26.834  25.006  1.00  0.00    -0.237 OA
ATOM     87  O   UNL A   1      41.952  29.204  25.667  1.00  0.00    -0.237 OA
ATOM     88  O   UNL A   1      43.718  27.639  26.335  1.00  0.00    -0.744 OA
ENDBRANCH  82  85
ENDBRANCH  54  78
BRANCH  66  89
ATOM     89  C   UNL A   1      44.749  28.072  35.330  1.00  0.00     0.023 A 
ATOM     90  C   UNL A   1      46.031  28.597  35.077  1.00  0.00     0.012 A 
ATOM     91  C   UNL A   1      44.621  26.884  36.077  1.00  0.00     0.148 A 
ATOM     92  C   UNL A   1      47.169  27.944  35.549  1.00  0.00     0.002 A 
ATOM     93  C   UNL A   1      45.758  26.263  36.582  1.00  0.00     0.091 A 
ATOM     94  F   UNL A   1      43.392  26.394  36.293  1.00  0.00    -0.205 F 
ATOM     95  C   UNL A   1      47.032  26.788  36.313  1.00  0.00     0.022 A 
BRANCH  93  96
ATOM     96  S   UNL A   1      45.675  24.824  37.655  1.00  0.00     0.127 S 
ATOM     97  O   UNL A   1      45.131  23.811  36.753  1.00  0.00    -0.237 OA
ATOM     98  O   UNL A   1      47.079  24.626  38.020  1.00  0.00    -0.237 OA
ATOM     99  O   UNL A   1      44.811  25.201  38.765  1.00  0.00    -0.744 OA
ENDBRANCH  93  96
ENDBRANCH  66  89
ENDBRANCH  40  41
ENDBRANCH  32  35
ENDBRANCH  30  31
ENDBRANCH  29  30
ENDBRANCH  28  29
ENDBRANCH   3  28
TORSDOF 19
ENDMDL
MODEL 2
REMARK VINA RESULT:     -10.6      4.989     12.175
REMARK SMILES O=C(CCCNC(=O)[C@@H]1CCCN(S(=O)(=O)c2ccc(F)cc2)C1)NCCCNC(=O)c1ccc(-c2c3nc(c(-c4cccc(S(=O)(=O)[O-])c4F)c4ccc([nH]4)c(-c4cccc(S(=O)(=O)[O-])c4F)c4nc(c(-c5cccc(S(=O)(=O)[O-])c5F)c5ccc2[nH]5)C=C4)C=C3)cc1
REMARK SMILES IDX 1 1 2 2 25 3 3 5 4 6 5 7 6 8 7 9 8 11 9 12 10 13 24 14 11 15
REMARK SMILES IDX 13 16 12 17 14 18 15 19 16 20 17 21 18 22 23 23 19 24 22 25
REMARK SMILES IDX 20 26 21 27 26 28 27 29 28 30 29 31 30 32 31 34 32 35 33 36
REMARK SMILES IDX 94 37 34 38 93 39 35 40 36 41 37 42 87 43 38 44 92 45 86 46
REMARK SMILES IDX 88 47 39 48 91 49 85 50 84 51 40 53 72 54 52 55 71 56 53 57
REMARK SMILES IDX 56 58 70 59 89 60 54 61 55 62 69 64 90 65 57 66 41 67 42 68
REMARK SMILES IDX 50 69 43 70 45 71 51 72 44 73 46 74 47 75 48 76 49 77 73 78
REMARK SMILES IDX 74 79 82 80 75 81 77 82 83 83 76 84 78 85 79 86 80 87 81 88
REMARK SMILES IDX 58 89 59 90 67 91 60 92 62 93 68 94 61 95 63 96 64 97 65 98
REMARK SMILES IDX 66 99
REMARK H PARENT 25 4 6 10 29 33 88 52 56 63
REMARK Flexibility Score: inf
ROOT
ATOM      1  O   UNL A   1      44.887  23.414  28.692  1.00  0.00    -0.275 OA
ATOM      2  C   UNL A   1      43.985  23.188  29.489  1.00  0.00     0.220 C 
ATOM      3  N   UNL A   1      42.889  22.402  29.213  1.00  0.00    -0.356 N 
ATOM      4  H   UNL A   1      42.225  22.243  29.921  1.00  0.00     0.163 HD
ENDROOT
BRANCH   2   5
ATOM      5  C   UNL A   1      43.955  23.823  30.862  1.00  0.00     0.102 C 
BRANCH   5   6
ATOM      6  C   UNL A   1      45.061  24.869  31.020  1.00  0.00     0.031 C 
BRANCH   6   7
ATOM      7  C   UNL A   1      44.964  25.728  32.283  1.00  0.00     0.116 C 
BRANCH   7   8
ATOM      8  N   UNL A   1      44.064  25.149  33.264  1.00  0.00    -0.356 N 
ATOM      9  C   UNL A   1      43.506  25.693  34.383  1.00  0.00     0.224 C 
ATOM     10  H   UNL A   1      43.817  24.211  33.096  1.00  0.00     0.163 HD
ATOM     11  O   UNL A   1      42.641  25.023  34.943  1.00  0.00    -0.275 OA
BRANCH   9  12
ATOM     12  C   UNL A   1      43.984  27.049  34.888  1.00  0.00     0.093 C 
ATOM     13  C   UNL A   1      43.527  27.307  36.325  1.00  0.00     0.016 C 
ATOM     14  C   UNL A   1      43.541  28.188  33.958  1.00  0.00     0.116 C 
ATOM     15  C   UNL A   1      42.034  27.603  36.384  1.00  0.00     0.018 C 
ATOM     16  N   UNL A   1      42.086  28.522  34.087  1.00  0.00    -0.197 NA
ATOM     17  C   UNL A   1      41.669  28.777  35.489  1.00  0.00     0.102 C 
BRANCH  16  18
ATOM     18  S   UNL A   1      41.607  29.743  32.966  1.00  0.00     0.243 S 
ATOM     19  O   UNL A   1      42.751  30.611  32.770  1.00  0.00    -0.207 OA
ATOM     20  O   UNL A   1      40.972  29.097  31.837  1.00  0.00    -0.207 OA
BRANCH  18  21
ATOM     21  C   UNL A   1      40.360  30.672  33.835  1.00  0.00     0.082 A 
ATOM     22  C   UNL A   1      40.641  31.980  34.255  1.00  0.00     0.025 A 
ATOM     23  C   UNL A   1      39.075  30.138  33.993  1.00  0.00     0.025 A 
ATOM     24  C   UNL A   1      39.650  32.728  34.891  1.00  0.00     0.040 A 
ATOM     25  C   UNL A   1      38.080  30.905  34.607  1.00  0.00     0.040 A 
ATOM     26  C   UNL A   1      38.380  32.186  35.061  1.00  0.00     0.123 A 
ATOM     27  F   UNL A   1      37.432  32.918  35.660  1.00  0.00    -0.207 F 
ENDBRANCH  18  21
ENDBRANCH  16  18
ENDBRANCH   9  12
ENDBRANCH   7   8
ENDBRANCH   6   7
ENDBRANCH   5   6
ENDBRANCH   2   5
BRANCH   3  28
ATOM     28  C   UNL A   1      42.685  21.802  27.910  1.00  0.00     0.117 C 
BRANCH  28  29
ATOM     29  C   UNL A   1      41.212  21.603  27.572  1.00  0.00     0.042 C 
BRANCH  29  30
ATOM     30  C   UNL A   1      40.860  21.705  26.090  1.00  0.00     0.118 C 
BRANCH  30  31
ATOM     31  N   UNL A   1      39.437  21.868  25.842  1.00  0.00    -0.352 N 
ATOM     32  C   UNL A   1      38.605  22.915  26.163  1.00  0.00     0.251 C 
ATOM     33  H   UNL A   1      39.004  21.117  25.374  1.00  0.00     0.163 HD
ATOM     34  O   UNL A   1      37.398  22.802  25.964  1.00  0.00    -0.269 OA
BRANCH  32  35
ATOM     35  C   UNL A   1      39.142  24.156  26.772  1.00  0.00     0.039 A 
ATOM     36  C   UNL A   1      39.884  25.030  25.970  1.00  0.00     0.014 A 
ATOM     37  C   UNL A   1      38.942  24.456  28.123  1.00  0.00     0.014 A 
ATOM     38  C   UNL A   1      40.373  26.226  26.504  1.00  0.00     0.010 A 
ATOM     39  C   UNL A   1      39.374  25.680  28.636  1.00  0.00     0.010 A 
ATOM     40  C   UNL A   1      40.099  26.576  27.837  1.00  0.00    -0.014 A 
BRANCH  40  41
ATOM     41  C   UNL A   1      40.558  27.871  28.404  1.00  0.00     0.031 A 
ATOM     42  C   UNL A   1      42.028  28.151  28.577  1.00  0.00     0.074 A 
ATOM     43  C   UNL A   1      39.653  28.772  28.839  1.00  0.00     0.049 A 
ATOM     44  N   UNL A   1      42.611  29.200  29.098  1.00  0.00    -0.248 NA
ATOM     45  C   UNL A   1      42.965  27.108  28.127  1.00  0.00     0.031 C 
ATOM     46  C   UNL A   1      38.200  28.597  28.797  1.00  0.00     0.029 A 
ATOM     47  N   UNL A   1      39.822  30.006  29.419  1.00  0.00    -0.354 N 
ATOM     48  C   UNL A   1      43.973  28.930  29.073  1.00  0.00     0.074 A 
ATOM     49  C   UNL A   1      44.132  27.607  28.511  1.00  0.00     0.031 C 
ATOM     50  C   UNL A   1      37.611  29.683  29.321  1.00  0.00     0.029 A 
ATOM     51  C   UNL A   1      38.639  30.623  29.760  1.00  0.00     0.049 A 
ATOM     52  H   UNL A   1      40.705  30.411  29.577  1.00  0.00     0.167 HD
ATOM     53  C   UNL A   1      45.003  29.725  29.449  1.00  0.00     0.034 A 
ATOM     54  C   UNL A   1      38.406  31.810  30.355  1.00  0.00     0.034 A 
ATOM     55  C   UNL A   1      44.852  31.066  29.943  1.00  0.00     0.049 A 
ATOM     56  C   UNL A   1      39.569  32.694  30.722  1.00  0.00     0.074 A 
ATOM     57  C   UNL A   1      45.843  31.983  30.251  1.00  0.00     0.029 A 
ATOM     58  N   UNL A   1      43.640  31.685  30.202  1.00  0.00    -0.354 N 
ATOM     59  N   UNL A   1      40.849  32.485  30.542  1.00  0.00    -0.248 NA
ATOM     60  C   UNL A   1      39.255  33.989  31.346  1.00  0.00     0.031 C 
ATOM     61  C   UNL A   1      45.229  33.152  30.707  1.00  0.00     0.029 A 
ATOM     62  C   UNL A   1      43.856  32.968  30.674  1.00  0.00     0.049 A 
ATOM     63  H   UNL A   1      42.756  31.272  30.069  1.00  0.00     0.167 HD
ATOM     64  C   UNL A   1      41.493  33.627  31.004  1.00  0.00     0.074 A 
ATOM     65  C   UNL A   1      40.459  34.537  31.454  1.00  0.00     0.031 C 
ATOM     66  C   UNL A   1      42.821  33.888  31.068  1.00  0.00     0.034 A 
BRANCH  53  67
ATOM     67  C   UNL A   1      46.402  29.199  29.266  1.00  0.00     0.023 A 
ATOM     68  C   UNL A   1      47.050  28.579  30.353  1.00  0.00     0.012 A 
ATOM     69  C   UNL A   1      47.036  29.233  28.008  1.00  0.00     0.148 A 
ATOM     70  C   UNL A   1      48.318  28.021  30.199  1.00  0.00     0.002 A 
ATOM     71  C   UNL A   1      48.284  28.639  27.853  1.00  0.00     0.091 A 
ATOM     72  F   UNL A   1      46.411  29.845  26.993  1.00  0.00    -0.205 F 
ATOM     73  C   UNL A   1      48.929  28.041  28.948  1.00  0.00     0.022 A 
BRANCH  71  74
ATOM     74  S   UNL A   1      49.121  28.543  26.266  1.00  0.00     0.127 S 
ATOM     75  O   UNL A   1      47.992  28.489  25.339  1.00  0.00    -0.237 OA
ATOM     76  O   UNL A   1      49.875  29.796  26.237  1.00  0.00    -0.237 OA
ATOM     77  O   UNL A   1      49.943  27.341  26.319  1.00  0.00    -0.744 OA
ENDBRANCH  71  74
ENDBRANCH  53  67
BRANCH  54  78
ATOM     78  C   UNL A   1      37.001  32.265  30.562  1.00  0.00     0.023 A 
ATOM     79  C   UNL A   1      36.424  32.144  31.840  1.00  0.00     0.012 A 
ATOM     80  C   UNL A   1      36.261  32.869  29.527  1.00  0.00     0.148 A 
ATOM     81  C   UNL A   1      35.129  32.602  32.083  1.00  0.00     0.002 A 
ATOM     82  C   UNL A   1      34.990  33.370  29.789  1.00  0.00     0.091 A 
ATOM     83  F   UNL A   1      36.822  32.961  28.313  1.00  0.00    -0.205 F 
ATOM     84  C   UNL A   1      34.417  33.226  31.063  1.00  0.00     0.022 A 
BRANCH  82  85
ATOM     85  S   UNL A   1      34.055  34.309  28.575  1.00  0.00     0.127 S 
ATOM     86  O   UNL A   1      32.822  34.597  29.303  1.00  0.00    -0.237 OA
ATOM     87  O   UNL A   1      34.924  35.466  28.352  1.00  0.00    -0.237 OA
ATOM     88  O   UNL A   1      33.920  33.432  27.420  1.00  0.00    -0.744 OA
ENDBRANCH  82  85
ENDBRANCH  54  78
BRANCH  66  89
ATOM     89  C   UNL A   1      43.260  35.211  31.640  1.00  0.00     0.023 A 
ATOM     90  C   UNL A   1      43.515  35.313  33.021  1.00  0.00     0.012 A 
ATOM     91  C   UNL A   1      43.543  36.306  30.799  1.00  0.00     0.148 A 
ATOM     92  C   UNL A   1      44.033  36.490  33.560  1.00  0.00     0.002 A 
ATOM     93  C   UNL A   1      44.100  37.461  31.338  1.00  0.00     0.091 A 
ATOM     94  F   UNL A   1      43.277  36.193  29.490  1.00  0.00    -0.205 F 
ATOM     95  C   UNL A   1      44.339  37.557  32.718  1.00  0.00     0.022 A 
BRANCH  93  96
ATOM     96  S   UNL A   1      44.615  38.849  30.319  1.00  0.00     0.127 S 
ATOM     97  O   UNL A   1      43.352  39.555  30.116  1.00  0.00    -0.237 OA
ATOM     98  O   UNL A   1      45.566  39.540  31.192  1.00  0.00    -0.237 OA
ATOM     99  O   UNL A   1      45.207  38.270  29.121  1.00  0.00    -0.744 OA
ENDBRANCH  93  96
ENDBRANCH  66  89
ENDBRANCH  40  41
ENDBRANCH  32  35
ENDBRANCH  30  31
ENDBRANCH  29  30
ENDBRANCH  28  29
ENDBRANCH   3  28
TORSDOF 19
ENDMDL
MODEL 3
REMARK VINA RESULT:     -10.6      4.596      8.875
REMARK SMILES O=C(CCCNC(=O)[C@@H]1CCCN(S(=O)(=O)c2ccc(F)cc2)C1)NCCCNC(=O)c1ccc(-c2c3nc(c(-c4cccc(S(=O)(=O)[O-])c4F)c4ccc([nH]4)c(-c4cccc(S(=O)(=O)[O-])c4F)c4nc(c(-c5cccc(S(=O)(=O)[O-])c5F)c5ccc2[nH]5)C=C4)C=C3)cc1
REMARK SMILES IDX 1 1 2 2 25 3 3 5 4 6 5 7 6 8 7 9 8 11 9 12 10 13 24 14 11 15
REMARK SMILES IDX 13 16 12 17 14 18 15 19 16 20 17 21 18 22 23 23 19 24 22 25
REMARK SMILES IDX 20 26 21 27 26 28 27 29 28 30 29 31 30 32 31 34 32 35 33 36
REMARK SMILES IDX 94 37 34 38 93 39 35 40 36 41 37 42 87 43 38 44 92 45 86 46
REMARK SMILES IDX 88 47 39 48 91 49 85 50 84 51 40 53 72 54 52 55 71 56 53 57
REMARK SMILES IDX 56 58 70 59 89 60 54 61 55 62 69 64 90 65 57 66 41 67 42 68
REMARK SMILES IDX 50 69 43 70 45 71 51 72 44 73 46 74 47 75 48 76 49 77 73 78
REMARK SMILES IDX 74 79 82 80 75 81 77 82 83 83 76 84 78 85 79 86 80 87 81 88
REMARK SMILES IDX 58 89 59 90 67 91 60 92 62 93 68 94 61 95 63 96 64 97 65 98
REMARK SMILES IDX 66 99
REMARK H PARENT 25 4 6 10 29 33 88 52 56 63
REMARK Flexibility Score: inf
ROOT
ATOM      1  O   UNL A   1      37.113  32.227  34.776  1.00  0.00    -0.275 OA
ATOM      2  C   UNL A   1      37.158  33.231  34.074  1.00  0.00     0.220 C 
ATOM      3  N   UNL A   1      36.562  33.337  32.838  1.00  0.00    -0.356 N 
ATOM      4  H   UNL A   1      36.618  34.191  32.352  1.00  0.00     0.163 HD
ENDROOT
BRANCH   2   5
ATOM      5  C   UNL A   1      37.950  34.454  34.480  1.00  0.00     0.102 C 
BRANCH   5   6
ATOM      6  C   UNL A   1      39.448  34.263  34.224  1.00  0.00     0.031 C 
BRANCH   6   7
ATOM      7  C   UNL A   1      39.869  34.355  32.756  1.00  0.00     0.116 C 
BRANCH   7   8
ATOM      8  N   UNL A   1      41.265  34.729  32.614  1.00  0.00    -0.356 N 
ATOM      9  C   UNL A   1      42.100  34.641  31.540  1.00  0.00     0.224 C 
ATOM     10  H   UNL A   1      41.675  35.107  33.425  1.00  0.00     0.163 HD
ATOM     11  O   UNL A   1      43.193  35.192  31.651  1.00  0.00    -0.275 OA
BRANCH   9  12
ATOM     12  C   UNL A   1      41.666  33.866  30.302  1.00  0.00     0.093 C 
ATOM     13  C   UNL A   1      42.391  32.522  30.198  1.00  0.00     0.016 C 
ATOM     14  C   UNL A   1      41.855  34.691  29.021  1.00  0.00     0.116 C 
ATOM     15  C   UNL A   1      43.848  32.711  29.798  1.00  0.00     0.018 C 
ATOM     16  N   UNL A   1      43.287  34.800  28.595  1.00  0.00    -0.197 NA
ATOM     17  C   UNL A   1      43.965  33.483  28.493  1.00  0.00     0.102 C 
BRANCH  16  18
ATOM     18  S   UNL A   1      43.467  35.806  27.205  1.00  0.00     0.243 S 
ATOM     19  O   UNL A   1      44.884  35.870  26.909  1.00  0.00    -0.207 OA
ATOM     20  O   UNL A   1      42.525  35.362  26.200  1.00  0.00    -0.207 OA
BRANCH  18  21
ATOM     21  C   UNL A   1      42.952  37.418  27.761  1.00  0.00     0.082 A 
ATOM     22  C   UNL A   1      43.474  37.935  28.955  1.00  0.00     0.025 A 
ATOM     23  C   UNL A   1      42.124  38.204  26.950  1.00  0.00     0.025 A 
ATOM     24  C   UNL A   1      43.112  39.218  29.367  1.00  0.00     0.040 A 
ATOM     25  C   UNL A   1      41.788  39.499  27.358  1.00  0.00     0.040 A 
ATOM     26  C   UNL A   1      42.274  39.988  28.567  1.00  0.00     0.123 A 
ATOM     27  F   UNL A   1      41.944  41.223  28.965  1.00  0.00    -0.207 F 
ENDBRANCH  18  21
ENDBRANCH  16  18
ENDBRANCH   9  12
ENDBRANCH   7   8
ENDBRANCH   6   7
ENDBRANCH   5   6
ENDBRANCH   2   5
BRANCH   3  28
ATOM     28  C   UNL A   1      35.856  32.227  32.229  1.00  0.00     0.117 C 
BRANCH  28  29
ATOM     29  C   UNL A   1      34.594  32.659  31.491  1.00  0.00     0.042 C 
BRANCH  29  30
ATOM     30  C   UNL A   1      34.826  33.347  30.147  1.00  0.00     0.118 C 
BRANCH  30  31
ATOM     31  N   UNL A   1      34.237  32.636  29.024  1.00  0.00    -0.352 N 
ATOM     32  C   UNL A   1      34.715  31.555  28.322  1.00  0.00     0.251 C 
ATOM     33  H   UNL A   1      33.365  32.981  28.720  1.00  0.00     0.163 HD
ATOM     34  O   UNL A   1      34.109  31.176  27.322  1.00  0.00    -0.269 OA
BRANCH  32  35
ATOM     35  C   UNL A   1      35.962  30.868  28.736  1.00  0.00     0.039 A 
ATOM     36  C   UNL A   1      37.190  31.420  28.355  1.00  0.00     0.014 A 
ATOM     37  C   UNL A   1      35.935  29.681  29.474  1.00  0.00     0.014 A 
ATOM     38  C   UNL A   1      38.385  30.816  28.760  1.00  0.00     0.010 A 
ATOM     39  C   UNL A   1      37.127  29.119  29.934  1.00  0.00     0.010 A 
ATOM     40  C   UNL A   1      38.364  29.675  29.579  1.00  0.00    -0.014 A 
BRANCH  40  41
ATOM     41  C   UNL A   1      39.624  29.056  30.070  1.00  0.00     0.031 A 
ATOM     42  C   UNL A   1      40.298  29.578  31.312  1.00  0.00     0.074 A 
ATOM     43  C   UNL A   1      40.209  28.070  29.359  1.00  0.00     0.049 A 
ATOM     44  N   UNL A   1      41.423  29.198  31.860  1.00  0.00    -0.248 NA
ATOM     45  C   UNL A   1      39.634  30.687  32.018  1.00  0.00     0.031 C 
ATOM     46  C   UNL A   1      39.701  27.520  28.102  1.00  0.00     0.029 A 
ATOM     47  N   UNL A   1      41.371  27.370  29.581  1.00  0.00    -0.354 N 
ATOM     48  C   UNL A   1      41.621  30.039  32.947  1.00  0.00     0.074 A 
ATOM     49  C   UNL A   1      40.514  30.970  32.968  1.00  0.00     0.031 C 
ATOM     50  C   UNL A   1      40.540  26.566  27.668  1.00  0.00     0.029 A 
ATOM     51  C   UNL A   1      41.658  26.450  28.599  1.00  0.00     0.049 A 
ATOM     52  H   UNL A   1      41.943  27.513  30.369  1.00  0.00     0.167 HD
ATOM     53  C   UNL A   1      42.613  30.017  33.869  1.00  0.00     0.034 A 
ATOM     54  C   UNL A   1      42.701  25.606  28.463  1.00  0.00     0.034 A 
ATOM     55  C   UNL A   1      43.676  29.051  33.890  1.00  0.00     0.049 A 
ATOM     56  C   UNL A   1      43.768  25.571  29.525  1.00  0.00     0.074 A 
ATOM     57  C   UNL A   1      44.667  28.888  34.843  1.00  0.00     0.029 A 
ATOM     58  N   UNL A   1      43.891  28.085  32.921  1.00  0.00    -0.354 N 
ATOM     59  N   UNL A   1      43.850  26.269  30.631  1.00  0.00    -0.248 NA
ATOM     60  C   UNL A   1      44.869  24.614  29.336  1.00  0.00     0.031 C 
ATOM     61  C   UNL A   1      45.488  27.830  34.443  1.00  0.00     0.029 A 
ATOM     62  C   UNL A   1      45.003  27.327  33.247  1.00  0.00     0.049 A 
ATOM     63  H   UNL A   1      43.334  27.956  32.119  1.00  0.00     0.167 HD
ATOM     64  C   UNL A   1      44.993  25.819  31.283  1.00  0.00     0.074 A 
ATOM     65  C   UNL A   1      45.561  24.773  30.458  1.00  0.00     0.031 C 
ATOM     66  C   UNL A   1      45.531  26.251  32.449  1.00  0.00     0.034 A 
BRANCH  53  67
ATOM     67  C   UNL A   1      42.558  31.024  34.987  1.00  0.00     0.023 A 
ATOM     68  C   UNL A   1      42.037  30.633  36.237  1.00  0.00     0.012 A 
ATOM     69  C   UNL A   1      43.101  32.315  34.835  1.00  0.00     0.148 A 
ATOM     70  C   UNL A   1      42.034  31.519  37.313  1.00  0.00     0.002 A 
ATOM     71  C   UNL A   1      43.130  33.179  35.924  1.00  0.00     0.091 A 
ATOM     72  F   UNL A   1      43.573  32.672  33.633  1.00  0.00    -0.205 F 
ATOM     73  C   UNL A   1      42.591  32.786  37.159  1.00  0.00     0.022 A 
BRANCH  71  74
ATOM     74  S   UNL A   1      43.895  34.803  35.852  1.00  0.00     0.127 S 
ATOM     75  O   UNL A   1      43.757  35.257  37.234  1.00  0.00    -0.237 OA
ATOM     76  O   UNL A   1      45.264  34.482  35.449  1.00  0.00    -0.237 OA
ATOM     77  O   UNL A   1      43.135  35.561  34.867  1.00  0.00    -0.744 OA
ENDBRANCH  71  74
ENDBRANCH  53  67
BRANCH  54  78
ATOM     78  C   UNL A   1      42.737  24.663  27.308  1.00  0.00     0.023 A 
ATOM     79  C   UNL A   1      43.418  25.042  26.136  1.00  0.00     0.012 A 
ATOM     80  C   UNL A   1      42.160  23.380  27.384  1.00  0.00     0.148 A 
ATOM     81  C   UNL A   1      43.513  24.168  25.053  1.00  0.00     0.002 A 
ATOM     82  C   UNL A   1      42.303  22.495  26.321  1.00  0.00     0.091 A 
ATOM     83  F   UNL A   1      41.502  23.044  28.503  1.00  0.00    -0.205 F 
ATOM     84  C   UNL A   1      42.967  22.891  25.149  1.00  0.00     0.022 A 
BRANCH  82  85
ATOM     85  S   UNL A   1      41.753  20.786  26.410  1.00  0.00     0.127 S 
ATOM     86  O   UNL A   1      40.324  20.917  26.136  1.00  0.00    -0.237 OA
ATOM     87  O   UNL A   1      42.530  20.161  25.339  1.00  0.00    -0.237 OA
ATOM     88  O   UNL A   1      42.103  20.330  27.748  1.00  0.00    -0.744 OA
ENDBRANCH  82  85
ENDBRANCH  54  78
BRANCH  66  89
ATOM     89  C   UNL A   1      46.803  25.602  32.929  1.00  0.00     0.023 A 
ATOM     90  C   UNL A   1      48.041  26.182  32.593  1.00  0.00     0.012 A 
ATOM     91  C   UNL A   1      46.769  24.504  33.812  1.00  0.00     0.148 A 
ATOM     92  C   UNL A   1      49.229  25.672  33.118  1.00  0.00     0.002 A 
ATOM     93  C   UNL A   1      47.953  24.028  34.365  1.00  0.00     0.091 A 
ATOM     94  F   UNL A   1      45.580  23.957  34.106  1.00  0.00    -0.205 F 
ATOM     95  C   UNL A   1      49.183  24.607  34.013  1.00  0.00     0.022 A 
BRANCH  93  96
ATOM     96  S   UNL A   1      47.984  22.724  35.601  1.00  0.00     0.127 S 
ATOM     97  O   UNL A   1      46.812  23.052  36.410  1.00  0.00    -0.237 OA
ATOM     98  O   UNL A   1      47.843  21.517  34.785  1.00  0.00    -0.237 OA
ATOM     99  O   UNL A   1      49.266  22.846  36.281  1.00  0.00    -0.744 OA
ENDBRANCH  93  96
ENDBRANCH  66  89
ENDBRANCH  40  41
ENDBRANCH  32  35
ENDBRANCH  30  31
ENDBRANCH  29  30
ENDBRANCH  28  29
ENDBRANCH   3  28
TORSDOF 19
ENDMDL
