MODEL 1
REMARK VINA RESULT:     -12.9      0.000      0.000
REMARK SMILES COc1ccc(-c2nc3ccc(C)cc3[nH]2)c(C(=O)NCCCNC(=O)c2ccc(-c3c4nc(c(-c5cccc(S(=O)(=O)[O-])c5F)c5ccc([nH]5)c(-c5cccc(S(=O)(=O)[O-])c5F)c5nc(c(-c6cccc(S(=O)(=O)[O-])c6F)c6ccc3[nH]6)C=C5)C=C4)cc2)c1OC
REMARK SMILES IDX 23 1 22 2 21 3 20 4 18 5 19 6 17 8 3 9 4 10 90 11 5 12 6 13
REMARK SMILES IDX 2 14 1 15 91 16 92 17 7 18 8 19 16 20 9 21 15 22 10 24 14 25
REMARK SMILES IDX 11 26 12 27 13 28 24 29 25 30 26 32 27 33 28 34 89 35 29 36
REMARK SMILES IDX 88 37 30 38 31 39 32 40 82 41 33 42 87 43 81 44 83 45 34 46
REMARK SMILES IDX 86 47 80 48 79 49 35 51 67 52 47 53 66 54 48 55 51 56 65 57
REMARK SMILES IDX 84 58 49 59 50 60 64 62 85 63 52 64 36 65 37 66 45 67 38 68
REMARK SMILES IDX 40 69 46 70 39 71 41 72 42 73 43 74 44 75 68 76 69 77 77 78
REMARK SMILES IDX 70 79 72 80 78 81 71 82 73 83 74 84 75 85 76 86 53 87 54 88
REMARK SMILES IDX 62 89 55 90 57 91 63 92 56 93 58 94 59 95 60 96 61 97
REMARK H PARENT 20 7 16 23 24 31 83 50 51 61
REMARK Flexibility Score: inf
ROOT
ATOM      1  C   UNL A   1      37.806  21.881  25.177  1.00  0.00     0.118 C 
ENDROOT
BRANCH   1   2
ATOM      2  C   UNL A   1      36.398  21.753  25.722  1.00  0.00     0.042 C 
BRANCH   2   3
ATOM      3  C   UNL A   1      35.761  23.044  26.166  1.00  0.00     0.118 C 
BRANCH   3   4
ATOM      4  N   UNL A   1      34.736  23.026  27.174  1.00  0.00    -0.352 N 
ATOM      5  C   UNL A   1      33.421  22.675  26.912  1.00  0.00     0.255 C 
ATOM      6  O   UNL A   1      32.751  22.089  27.760  1.00  0.00    -0.269 OA
ATOM      7  H   UNL A   1      34.979  23.277  28.093  1.00  0.00     0.163 HD
BRANCH   5   8
ATOM      8  C   UNL A   1      32.779  23.132  25.642  1.00  0.00     0.096 A 
ATOM      9  C   UNL A   1      31.731  24.808  24.215  1.00  0.00     0.161 A 
ATOM     10  C   UNL A   1      31.469  23.773  23.295  1.00  0.00     0.051 A 
ATOM     11  C   UNL A   1      32.434  24.503  25.395  1.00  0.00     0.174 A 
ATOM     12  C   UNL A   1      31.898  22.463  23.492  1.00  0.00     0.017 A 
ATOM     13  C   UNL A   1      32.548  22.118  24.673  1.00  0.00     0.034 A 
BRANCH   9  14
ATOM     14  O   UNL A   1      31.240  25.967  23.694  1.00  0.00    -0.493 OA
ATOM     15  C   UNL A   1      31.766  26.608  22.558  1.00  0.00     0.278 C 
ENDBRANCH   9  14
BRANCH  11  16
ATOM     16  O   UNL A   1      33.020  25.438  26.219  1.00  0.00    -0.492 OA
ATOM     17  C   UNL A   1      33.967  26.346  25.663  1.00  0.00     0.278 C 
ENDBRANCH  11  16
BRANCH  13  18
ATOM     18  C   UNL A   1      32.975  20.724  24.856  1.00  0.00     0.139 A 
ATOM     19  N   UNL A   1      34.064  20.167  24.365  1.00  0.00    -0.228 NA
ATOM     20  N   UNL A   1      32.230  19.784  25.541  1.00  0.00    -0.338 N 
ATOM     21  C   UNL A   1      33.939  18.822  24.606  1.00  0.00     0.089 A 
ATOM     22  C   UNL A   1      32.802  18.549  25.356  1.00  0.00     0.066 A 
ATOM     23  H   UNL A   1      31.423  19.968  26.073  1.00  0.00     0.168 HD
ATOM     24  C   UNL A   1      34.750  17.761  24.184  1.00  0.00     0.031 A 
ATOM     25  C   UNL A   1      32.420  17.253  25.729  1.00  0.00     0.031 A 
ATOM     26  C   UNL A   1      34.374  16.451  24.513  1.00  0.00     0.006 A 
ATOM     27  C   UNL A   1      33.226  16.192  25.277  1.00  0.00    -0.049 A 
ATOM     28  C   UNL A   1      32.857  14.765  25.573  1.00  0.00     0.044 C 
ENDBRANCH  13  18
ENDBRANCH   5   8
ENDBRANCH   3   4
ENDBRANCH   2   3
ENDBRANCH   1   2
BRANCH   1  29
ATOM     29  N   UNL A   1      38.776  20.953  25.754  1.00  0.00    -0.352 N 
ATOM     30  C   UNL A   1      39.910  21.153  26.517  1.00  0.00     0.251 C 
ATOM     31  H   UNL A   1      38.585  20.007  25.564  1.00  0.00     0.163 HD
ATOM     32  O   UNL A   1      40.600  20.191  26.821  1.00  0.00    -0.269 OA
BRANCH  30  33
ATOM     33  C   UNL A   1      40.321  22.516  26.939  1.00  0.00     0.039 A 
ATOM     34  C   UNL A   1      41.242  22.666  27.981  1.00  0.00     0.014 A 
ATOM     35  C   UNL A   1      39.805  23.651  26.323  1.00  0.00     0.014 A 
ATOM     36  C   UNL A   1      41.694  23.942  28.338  1.00  0.00     0.010 A 
ATOM     37  C   UNL A   1      40.376  24.893  26.558  1.00  0.00     0.010 A 
ATOM     38  C   UNL A   1      41.294  25.067  27.600  1.00  0.00    -0.014 A 
BRANCH  38  39
ATOM     39  C   UNL A   1      41.746  26.445  27.931  1.00  0.00     0.031 A 
ATOM     40  C   UNL A   1      43.156  26.868  27.588  1.00  0.00     0.074 A 
ATOM     41  C   UNL A   1      40.941  27.278  28.621  1.00  0.00     0.049 A 
ATOM     42  N   UNL A   1      43.781  27.979  27.882  1.00  0.00    -0.248 NA
ATOM     43  C   UNL A   1      43.993  25.893  26.862  1.00  0.00     0.031 C 
ATOM     44  C   UNL A   1      39.593  26.959  29.097  1.00  0.00     0.029 A 
ATOM     45  N   UNL A   1      41.153  28.559  29.065  1.00  0.00    -0.354 N 
ATOM     46  C   UNL A   1      45.087  27.808  27.434  1.00  0.00     0.074 A 
ATOM     47  C   UNL A   1      45.183  26.469  26.904  1.00  0.00     0.031 C 
ATOM     48  C   UNL A   1      39.093  28.021  29.749  1.00  0.00     0.029 A 
ATOM     49  C   UNL A   1      40.092  29.084  29.768  1.00  0.00     0.049 A 
ATOM     50  H   UNL A   1      41.985  29.056  28.898  1.00  0.00     0.167 HD
ATOM     51  C   UNL A   1      46.107  28.697  27.418  1.00  0.00     0.034 A 
ATOM     52  C   UNL A   1      39.944  30.286  30.358  1.00  0.00     0.034 A 
ATOM     53  C   UNL A   1      45.984  30.055  27.871  1.00  0.00     0.049 A 
ATOM     54  C   UNL A   1      41.062  31.289  30.255  1.00  0.00     0.074 A 
ATOM     55  C   UNL A   1      46.918  31.072  27.807  1.00  0.00     0.029 A 
ATOM     56  N   UNL A   1      44.851  30.585  28.469  1.00  0.00    -0.354 N 
ATOM     57  N   UNL A   1      42.238  31.159  29.691  1.00  0.00    -0.248 NA
ATOM     58  C   UNL A   1      40.817  32.619  30.829  1.00  0.00     0.031 C 
ATOM     59  C   UNL A   1      46.356  32.214  28.386  1.00  0.00     0.029 A 
ATOM     60  C   UNL A   1      45.060  31.916  28.776  1.00  0.00     0.049 A 
ATOM     61  H   UNL A   1      44.021  30.087  28.646  1.00  0.00     0.167 HD
ATOM     62  C   UNL A   1      42.853  32.402  29.798  1.00  0.00     0.074 A 
ATOM     63  C   UNL A   1      41.913  33.275  30.469  1.00  0.00     0.031 C 
ATOM     64  C   UNL A   1      44.087  32.784  29.387  1.00  0.00     0.034 A 
BRANCH  51  65
ATOM     65  C   UNL A   1      47.422  28.248  26.834  1.00  0.00     0.023 A 
ATOM     66  C   UNL A   1      48.518  27.996  27.686  1.00  0.00     0.012 A 
ATOM     67  C   UNL A   1      47.565  28.035  25.449  1.00  0.00     0.148 A 
ATOM     68  C   UNL A   1      49.746  27.588  27.168  1.00  0.00     0.002 A 
ATOM     69  C   UNL A   1      48.776  27.576  24.945  1.00  0.00     0.091 A 
ATOM     70  F   UNL A   1      46.521  28.298  24.650  1.00  0.00    -0.205 F 
ATOM     71  C   UNL A   1      49.871  27.367  25.800  1.00  0.00     0.022 A 
BRANCH  69  72
ATOM     72  S   UNL A   1      49.015  27.175  23.211  1.00  0.00     0.127 S 
ATOM     73  O   UNL A   1      48.239  25.942  23.084  1.00  0.00    -0.237 OA
ATOM     74  O   UNL A   1      48.426  28.337  22.543  1.00  0.00    -0.237 OA
ATOM     75  O   UNL A   1      50.452  27.031  23.025  1.00  0.00    -0.744 OA
ENDBRANCH  69  72
ENDBRANCH  51  65
BRANCH  52  76
ATOM     76  C   UNL A   1      38.657  30.640  31.024  1.00  0.00     0.023 A 
ATOM     77  C   UNL A   1      38.483  30.350  32.392  1.00  0.00     0.012 A 
ATOM     78  C   UNL A   1      37.617  31.278  30.321  1.00  0.00     0.148 A 
ATOM     79  C   UNL A   1      37.284  30.651  33.038  1.00  0.00     0.002 A 
ATOM     80  C   UNL A   1      36.445  31.626  30.984  1.00  0.00     0.091 A 
ATOM     81  F   UNL A   1      37.798  31.541  29.020  1.00  0.00    -0.205 F 
ATOM     82  C   UNL A   1      36.268  31.297  32.338  1.00  0.00     0.022 A 
BRANCH  80  83
ATOM     83  S   UNL A   1      35.137  32.575  30.200  1.00  0.00     0.127 S 
ATOM     84  O   UNL A   1      34.201  32.764  31.305  1.00  0.00    -0.237 OA
ATOM     85  O   UNL A   1      35.850  33.783  29.782  1.00  0.00    -0.237 OA
ATOM     86  O   UNL A   1      34.659  31.749  29.100  1.00  0.00    -0.744 OA
ENDBRANCH  80  83
ENDBRANCH  52  76
BRANCH  64  87
ATOM     87  C   UNL A   1      44.477  34.225  29.586  1.00  0.00     0.023 A 
ATOM     88  C   UNL A   1      45.071  34.638  30.794  1.00  0.00     0.012 A 
ATOM     89  C   UNL A   1      44.323  35.152  28.536  1.00  0.00     0.148 A 
ATOM     90  C   UNL A   1      45.472  35.963  30.966  1.00  0.00     0.002 A 
ATOM     91  C   UNL A   1      44.774  36.455  28.695  1.00  0.00     0.091 A 
ATOM     92  F   UNL A   1      43.738  34.742  27.400  1.00  0.00    -0.205 F 
ATOM     93  C   UNL A   1      45.335  36.866  29.915  1.00  0.00     0.022 A 
BRANCH  91  94
ATOM     94  S   UNL A   1      44.734  37.654  27.359  1.00  0.00     0.127 S 
ATOM     95  O   UNL A   1      45.026  38.898  28.067  1.00  0.00    -0.237 OA
ATOM     96  O   UNL A   1      45.809  37.182  26.486  1.00  0.00    -0.237 OA
ATOM     97  O   UNL A   1      43.402  37.562  26.778  1.00  0.00    -0.744 OA
ENDBRANCH  91  94
ENDBRANCH  64  87
ENDBRANCH  38  39
ENDBRANCH  30  33
ENDBRANCH   1  29
TORSDOF 16
ENDMDL
MODEL 2
REMARK VINA RESULT:     -12.8      5.140     10.557
REMARK SMILES COc1ccc(-c2nc3ccc(C)cc3[nH]2)c(C(=O)NCCCNC(=O)c2ccc(-c3c4nc(c(-c5cccc(S(=O)(=O)[O-])c5F)c5ccc([nH]5)c(-c5cccc(S(=O)(=O)[O-])c5F)c5nc(c(-c6cccc(S(=O)(=O)[O-])c6F)c6ccc3[nH]6)C=C5)C=C4)cc2)c1OC
REMARK SMILES IDX 23 1 22 2 21 3 20 4 18 5 19 6 17 8 3 9 4 10 90 11 5 12 6 13
REMARK SMILES IDX 2 14 1 15 91 16 92 17 7 18 8 19 16 20 9 21 15 22 10 24 14 25
REMARK SMILES IDX 11 26 12 27 13 28 24 29 25 30 26 32 27 33 28 34 89 35 29 36
REMARK SMILES IDX 88 37 30 38 31 39 32 40 82 41 33 42 87 43 81 44 83 45 34 46
REMARK SMILES IDX 86 47 80 48 79 49 35 51 67 52 47 53 66 54 48 55 51 56 65 57
REMARK SMILES IDX 84 58 49 59 50 60 64 62 85 63 52 64 36 65 37 66 45 67 38 68
REMARK SMILES IDX 40 69 46 70 39 71 41 72 42 73 43 74 44 75 68 76 69 77 77 78
REMARK SMILES IDX 70 79 72 80 78 81 71 82 73 83 74 84 75 85 76 86 53 87 54 88
REMARK SMILES IDX 62 89 55 90 57 91 63 92 56 93 58 94 59 95 60 96 61 97
REMARK H PARENT 20 7 16 23 24 31 83 50 51 61
REMARK Flexibility Score: inf
ROOT
ATOM      1  C   UNL A   1      32.900  29.732  25.309  1.00  0.00     0.118 C 
ENDROOT
BRANCH   1   2
ATOM      2  C   UNL A   1      32.318  28.462  25.895  1.00  0.00     0.042 C 
BRANCH   2   3
ATOM      3  C   UNL A   1      33.052  27.195  25.540  1.00  0.00     0.118 C 
BRANCH   3   4
ATOM      4  N   UNL A   1      33.857  27.144  24.350  1.00  0.00    -0.352 N 
ATOM      5  C   UNL A   1      33.448  26.515  23.184  1.00  0.00     0.255 C 
ATOM      6  O   UNL A   1      33.782  26.958  22.087  1.00  0.00    -0.269 OA
ATOM      7  H   UNL A   1      34.741  27.575  24.364  1.00  0.00     0.163 HD
BRANCH   5   8
ATOM      8  C   UNL A   1      32.713  25.217  23.271  1.00  0.00     0.096 A 
ATOM      9  C   UNL A   1      32.600  22.785  23.405  1.00  0.00     0.161 A 
ATOM     10  C   UNL A   1      31.202  22.904  23.267  1.00  0.00     0.051 A 
ATOM     11  C   UNL A   1      33.377  23.957  23.451  1.00  0.00     0.174 A 
ATOM     12  C   UNL A   1      30.552  24.133  23.198  1.00  0.00     0.017 A 
ATOM     13  C   UNL A   1      31.296  25.308  23.185  1.00  0.00     0.034 A 
BRANCH   9  14
ATOM     14  O   UNL A   1      32.900  21.461  23.511  1.00  0.00    -0.493 OA
ATOM     15  C   UNL A   1      33.417  20.858  24.671  1.00  0.00     0.278 C 
ENDBRANCH   9  14
BRANCH  11  16
ATOM     16  O   UNL A   1      34.683  24.012  23.882  1.00  0.00    -0.492 OA
ATOM     17  C   UNL A   1      35.684  23.330  23.128  1.00  0.00     0.278 C 
ENDBRANCH  11  16
BRANCH  13  18
ATOM     18  C   UNL A   1      30.582  26.590  23.097  1.00  0.00     0.139 A 
ATOM     19  N   UNL A   1      29.428  26.884  23.660  1.00  0.00    -0.228 NA
ATOM     20  N   UNL A   1      31.023  27.656  22.337  1.00  0.00    -0.338 N 
ATOM     21  C   UNL A   1      29.049  28.093  23.133  1.00  0.00     0.089 A 
ATOM     22  C   UNL A   1      30.038  28.613  22.307  1.00  0.00     0.066 A 
ATOM     23  H   UNL A   1      31.898  27.720  21.892  1.00  0.00     0.168 HD
ATOM     24  C   UNL A   1      27.851  28.801  23.292  1.00  0.00     0.031 A 
ATOM     25  C   UNL A   1      29.907  29.828  21.622  1.00  0.00     0.031 A 
ATOM     26  C   UNL A   1      27.678  30.002  22.592  1.00  0.00     0.006 A 
ATOM     27  C   UNL A   1      28.689  30.517  21.767  1.00  0.00    -0.049 A 
ATOM     28  C   UNL A   1      28.434  31.796  21.017  1.00  0.00     0.044 C 
ENDBRANCH  13  18
ENDBRANCH   5   8
ENDBRANCH   3   4
ENDBRANCH   2   3
ENDBRANCH   1   2
BRANCH   1  29
ATOM     29  N   UNL A   1      32.510  30.961  25.995  1.00  0.00    -0.352 N 
ATOM     30  C   UNL A   1      33.073  31.654  27.049  1.00  0.00     0.251 C 
ATOM     31  H   UNL A   1      31.690  31.374  25.640  1.00  0.00     0.163 HD
ATOM     32  O   UNL A   1      32.500  32.640  27.489  1.00  0.00    -0.269 OA
BRANCH  30  33
ATOM     33  C   UNL A   1      34.340  31.200  27.676  1.00  0.00     0.039 A 
ATOM     34  C   UNL A   1      35.374  32.119  27.883  1.00  0.00     0.014 A 
ATOM     35  C   UNL A   1      34.525  29.876  28.057  1.00  0.00     0.014 A 
ATOM     36  C   UNL A   1      36.544  31.720  28.542  1.00  0.00     0.010 A 
ATOM     37  C   UNL A   1      35.604  29.523  28.855  1.00  0.00     0.010 A 
ATOM     38  C   UNL A   1      36.652  30.425  29.070  1.00  0.00    -0.014 A 
BRANCH  38  39
ATOM     39  C   UNL A   1      37.869  29.948  29.782  1.00  0.00     0.031 A 
ATOM     40  C   UNL A   1      38.147  30.434  31.186  1.00  0.00     0.074 A 
ATOM     41  C   UNL A   1      38.768  29.171  29.146  1.00  0.00     0.049 A 
ATOM     42  N   UNL A   1      39.196  30.228  31.940  1.00  0.00    -0.248 NA
ATOM     43  C   UNL A   1      37.136  31.310  31.808  1.00  0.00     0.031 C 
ATOM     44  C   UNL A   1      38.667  28.711  27.759  1.00  0.00     0.029 A 
ATOM     45  N   UNL A   1      39.962  28.651  29.580  1.00  0.00    -0.354 N 
ATOM     46  C   UNL A   1      38.995  30.992  33.085  1.00  0.00     0.074 A 
ATOM     47  C   UNL A   1      37.758  31.712  32.904  1.00  0.00     0.031 C 
ATOM     48  C   UNL A   1      39.742  27.963  27.463  1.00  0.00     0.029 A 
ATOM     49  C   UNL A   1      40.626  27.915  28.624  1.00  0.00     0.049 A 
ATOM     50  H   UNL A   1      40.312  28.790  30.489  1.00  0.00     0.167 HD
ATOM     51  C   UNL A   1      39.745  31.057  34.210  1.00  0.00     0.034 A 
ATOM     52  C   UNL A   1      41.810  27.276  28.679  1.00  0.00     0.034 A 
ATOM     53  C   UNL A   1      40.932  30.276  34.419  1.00  0.00     0.049 A 
ATOM     54  C   UNL A   1      42.586  27.293  29.970  1.00  0.00     0.074 A 
ATOM     55  C   UNL A   1      41.712  30.183  35.557  1.00  0.00     0.029 A 
ATOM     56  N   UNL A   1      41.507  29.449  33.468  1.00  0.00    -0.354 N 
ATOM     57  N   UNL A   1      42.301  27.901  31.096  1.00  0.00    -0.248 NA
ATOM     58  C   UNL A   1      43.823  26.502  30.012  1.00  0.00     0.031 C 
ATOM     59  C   UNL A   1      42.773  29.314  35.285  1.00  0.00     0.029 A 
ATOM     60  C   UNL A   1      42.631  28.839  33.991  1.00  0.00     0.049 A 
ATOM     61  H   UNL A   1      41.165  29.315  32.554  1.00  0.00     0.167 HD
ATOM     62  C   UNL A   1      43.294  27.526  31.994  1.00  0.00     0.074 A 
ATOM     63  C   UNL A   1      44.180  26.628  31.283  1.00  0.00     0.031 C 
ATOM     64  C   UNL A   1      43.463  27.898  33.286  1.00  0.00     0.034 A 
BRANCH  51  65
ATOM     65  C   UNL A   1      39.266  31.954  35.323  1.00  0.00     0.023 A 
ATOM     66  C   UNL A   1      38.347  31.461  36.273  1.00  0.00     0.012 A 
ATOM     67  C   UNL A   1      39.753  33.269  35.455  1.00  0.00     0.148 A 
ATOM     68  C   UNL A   1      37.883  32.275  37.306  1.00  0.00     0.002 A 
ATOM     69  C   UNL A   1      39.329  34.057  36.518  1.00  0.00     0.091 A 
ATOM     70  F   UNL A   1      40.611  33.729  34.533  1.00  0.00    -0.205 F 
ATOM     71  C   UNL A   1      38.383  33.568  37.435  1.00  0.00     0.022 A 
BRANCH  69  72
ATOM     72  S   UNL A   1      39.978  35.703  36.825  1.00  0.00     0.127 S 
ATOM     73  O   UNL A   1      39.317  36.050  38.082  1.00  0.00    -0.237 OA
ATOM     74  O   UNL A   1      41.415  35.448  36.943  1.00  0.00    -0.237 OA
ATOM     75  O   UNL A   1      39.596  36.508  35.675  1.00  0.00    -0.744 OA
ENDBRANCH  69  72
ENDBRANCH  51  65
BRANCH  52  76
ATOM     76  C   UNL A   1      42.294  26.492  27.505  1.00  0.00     0.023 A 
ATOM     77  C   UNL A   1      43.068  27.134  26.518  1.00  0.00     0.012 A 
ATOM     78  C   UNL A   1      42.013  25.120  27.371  1.00  0.00     0.148 A 
ATOM     79  C   UNL A   1      43.519  26.433  25.399  1.00  0.00     0.002 A 
ATOM     80  C   UNL A   1      42.512  24.414  26.282  1.00  0.00     0.091 A 
ATOM     81  F   UNL A   1      41.270  24.528  28.317  1.00  0.00    -0.205 F 
ATOM     82  C   UNL A   1      43.249  25.072  25.284  1.00  0.00     0.022 A 
BRANCH  80  83
ATOM     83  S   UNL A   1      42.326  22.635  26.117  1.00  0.00     0.127 S 
ATOM     84  O   UNL A   1      40.874  22.481  26.149  1.00  0.00    -0.237 OA
ATOM     85  O   UNL A   1      42.943  22.388  24.812  1.00  0.00    -0.237 OA
ATOM     86  O   UNL A   1      43.049  22.058  27.241  1.00  0.00    -0.744 OA
ENDBRANCH  80  83
ENDBRANCH  52  76
BRANCH  64  87
ATOM     87  C   UNL A   1      44.610  27.288  34.047  1.00  0.00     0.023 A 
ATOM     88  C   UNL A   1      45.870  27.917  34.056  1.00  0.00     0.012 A 
ATOM     89  C   UNL A   1      44.410  26.126  34.820  1.00  0.00     0.148 A 
ATOM     90  C   UNL A   1      46.924  27.377  34.793  1.00  0.00     0.002 A 
ATOM     91  C   UNL A   1      45.448  25.625  35.593  1.00  0.00     0.091 A 
ATOM     92  F   UNL A   1      43.208  25.533  34.783  1.00  0.00    -0.205 F 
ATOM     93  C   UNL A   1      46.710  26.241  35.570  1.00  0.00     0.022 A 
BRANCH  91  94
ATOM     94  S   UNL A   1      45.230  24.231  36.704  1.00  0.00     0.127 S 
ATOM     95  O   UNL A   1      46.578  24.066  37.243  1.00  0.00    -0.237 OA
ATOM     96  O   UNL A   1      44.250  24.747  37.661  1.00  0.00    -0.237 OA
ATOM     97  O   UNL A   1      44.747  23.133  35.879  1.00  0.00    -0.744 OA
ENDBRANCH  91  94
ENDBRANCH  64  87
ENDBRANCH  38  39
ENDBRANCH  30  33
ENDBRANCH   1  29
TORSDOF 16
ENDMDL
MODEL 3
REMARK VINA RESULT:     -12.3      5.181     10.246
REMARK SMILES COc1ccc(-c2nc3ccc(C)cc3[nH]2)c(C(=O)NCCCNC(=O)c2ccc(-c3c4nc(c(-c5cccc(S(=O)(=O)[O-])c5F)c5ccc([nH]5)c(-c5cccc(S(=O)(=O)[O-])c5F)c5nc(c(-c6cccc(S(=O)(=O)[O-])c6F)c6ccc3[nH]6)C=C5)C=C4)cc2)c1OC
REMARK SMILES IDX 23 1 22 2 21 3 20 4 18 5 19 6 17 8 3 9 4 10 90 11 5 12 6 13
REMARK SMILES IDX 2 14 1 15 91 16 92 17 7 18 8 19 16 20 9 21 15 22 10 24 14 25
REMARK SMILES IDX 11 26 12 27 13 28 24 29 25 30 26 32 27 33 28 34 89 35 29 36
REMARK SMILES IDX 88 37 30 38 31 39 32 40 82 41 33 42 87 43 81 44 83 45 34 46
REMARK SMILES IDX 86 47 80 48 79 49 35 51 67 52 47 53 66 54 48 55 51 56 65 57
REMARK SMILES IDX 84 58 49 59 50 60 64 62 85 63 52 64 36 65 37 66 45 67 38 68
REMARK SMILES IDX 40 69 46 70 39 71 41 72 42 73 43 74 44 75 68 76 69 77 77 78
REMARK SMILES IDX 70 79 72 80 78 81 71 82 73 83 74 84 75 85 76 86 53 87 54 88
REMARK SMILES IDX 62 89 55 90 57 91 63 92 56 93 58 94 59 95 60 96 61 97
REMARK H PARENT 20 7 16 23 24 31 83 50 51 61
REMARK Flexibility Score: inf
ROOT
ATOM      1  C   UNL A   1      33.712  29.096  26.268  1.00  0.00     0.118 C 
ENDROOT
BRANCH   1   2
ATOM      2  C   UNL A   1      33.258  27.969  27.172  1.00  0.00     0.042 C 
BRANCH   2   3
ATOM      3  C   UNL A   1      32.625  26.797  26.469  1.00  0.00     0.118 C 
BRANCH   3   4
ATOM      4  N   UNL A   1      31.196  26.636  26.491  1.00  0.00    -0.352 N 
ATOM      5  C   UNL A   1      30.560  25.454  26.147  1.00  0.00     0.255 C 
ATOM      6  O   UNL A   1      29.520  25.119  26.709  1.00  0.00    -0.269 OA
ATOM      7  H   UNL A   1      30.644  27.404  26.760  1.00  0.00     0.163 HD
BRANCH   5   8
ATOM      8  C   UNL A   1      31.073  24.654  24.993  1.00  0.00     0.096 A 
ATOM      9  C   UNL A   1      32.238  22.750  24.013  1.00  0.00     0.161 A 
ATOM     10  C   UNL A   1      32.089  23.381  22.762  1.00  0.00     0.051 A 
ATOM     11  C   UNL A   1      31.688  23.367  25.152  1.00  0.00     0.174 A 
ATOM     12  C   UNL A   1      31.400  24.579  22.598  1.00  0.00     0.017 A 
ATOM     13  C   UNL A   1      30.892  25.242  23.711  1.00  0.00     0.034 A 
BRANCH   9  14
ATOM     14  O   UNL A   1      32.897  21.574  23.814  1.00  0.00    -0.493 OA
ATOM     15  C   UNL A   1      32.272  20.371  23.445  1.00  0.00     0.278 C 
ENDBRANCH   9  14
BRANCH  11  16
ATOM     16  O   UNL A   1      31.487  22.739  26.360  1.00  0.00    -0.492 OA
ATOM     17  C   UNL A   1      32.514  22.804  27.347  1.00  0.00     0.278 C 
ENDBRANCH  11  16
BRANCH  13  18
ATOM     18  C   UNL A   1      30.182  26.512  23.508  1.00  0.00     0.139 A 
ATOM     19  N   UNL A   1      28.902  26.738  23.726  1.00  0.00    -0.228 NA
ATOM     20  N   UNL A   1      30.781  27.644  22.990  1.00  0.00    -0.338 N 
ATOM     21  C   UNL A   1      28.644  27.978  23.197  1.00  0.00     0.089 A 
ATOM     22  C   UNL A   1      29.808  28.581  22.739  1.00  0.00     0.066 A 
ATOM     23  H   UNL A   1      31.744  27.760  22.827  1.00  0.00     0.168 HD
ATOM     24  C   UNL A   1      27.423  28.648  23.047  1.00  0.00     0.031 A 
ATOM     25  C   UNL A   1      29.833  29.845  22.134  1.00  0.00     0.031 A 
ATOM     26  C   UNL A   1      27.412  29.898  22.414  1.00  0.00     0.006 A 
ATOM     27  C   UNL A   1      28.598  30.497  21.962  1.00  0.00    -0.049 A 
ATOM     28  C   UNL A   1      28.520  31.826  21.263  1.00  0.00     0.044 C 
ENDBRANCH  13  18
ENDBRANCH   5   8
ENDBRANCH   3   4
ENDBRANCH   2   3
ENDBRANCH   1   2
BRANCH   1  29
ATOM     29  N   UNL A   1      33.690  30.423  26.880  1.00  0.00    -0.352 N 
ATOM     30  C   UNL A   1      34.571  31.069  27.725  1.00  0.00     0.251 C 
ATOM     31  H   UNL A   1      32.898  30.957  26.645  1.00  0.00     0.163 HD
ATOM     32  O   UNL A   1      34.279  32.175  28.157  1.00  0.00    -0.269 OA
BRANCH  30  33
ATOM     33  C   UNL A   1      35.843  30.428  28.144  1.00  0.00     0.039 A 
ATOM     34  C   UNL A   1      36.984  30.577  27.348  1.00  0.00     0.014 A 
ATOM     35  C   UNL A   1      35.924  29.676  29.310  1.00  0.00     0.014 A 
ATOM     36  C   UNL A   1      38.207  30.041  27.770  1.00  0.00     0.010 A 
ATOM     37  C   UNL A   1      37.161  29.294  29.809  1.00  0.00     0.010 A 
ATOM     38  C   UNL A   1      38.315  29.428  29.028  1.00  0.00    -0.014 A 
BRANCH  38  39
ATOM     39  C   UNL A   1      39.588  28.845  29.529  1.00  0.00     0.031 A 
ATOM     40  C   UNL A   1      40.314  29.517  30.672  1.00  0.00     0.074 A 
ATOM     41  C   UNL A   1      40.144  27.787  28.906  1.00  0.00     0.049 A 
ATOM     42  N   UNL A   1      41.483  29.237  31.188  1.00  0.00    -0.248 NA
ATOM     43  C   UNL A   1      39.664  30.691  31.285  1.00  0.00     0.031 C 
ATOM     44  C   UNL A   1      39.596  27.105  27.731  1.00  0.00     0.029 A 
ATOM     45  N   UNL A   1      41.314  27.115  29.161  1.00  0.00    -0.354 N 
ATOM     46  C   UNL A   1      41.727  30.229  32.133  1.00  0.00     0.074 A 
ATOM     47  C   UNL A   1      40.617  31.150  32.079  1.00  0.00     0.031 C 
ATOM     48  C   UNL A   1      40.416  26.102  27.380  1.00  0.00     0.029 A 
ATOM     49  C   UNL A   1      41.565  26.087  28.280  1.00  0.00     0.049 A 
ATOM     50  H   UNL A   1      41.917  27.345  29.903  1.00  0.00     0.167 HD
ATOM     51  C   UNL A   1      42.757  30.343  33.003  1.00  0.00     0.034 A 
ATOM     52  C   UNL A   1      42.603  25.231  28.209  1.00  0.00     0.034 A 
ATOM     53  C   UNL A   1      43.817  29.380  33.111  1.00  0.00     0.049 A 
ATOM     54  C   UNL A   1      43.695  25.326  29.241  1.00  0.00     0.074 A 
ATOM     55  C   UNL A   1      44.854  29.339  34.024  1.00  0.00     0.029 A 
ATOM     56  N   UNL A   1      43.971  28.284  32.277  1.00  0.00    -0.354 N 
ATOM     57  N   UNL A   1      43.829  26.182  30.224  1.00  0.00    -0.248 NA
ATOM     58  C   UNL A   1      44.755  24.310  29.182  1.00  0.00     0.031 C 
ATOM     59  C   UNL A   1      45.649  28.228  33.728  1.00  0.00     0.029 A 
ATOM     60  C   UNL A   1      45.085  27.558  32.654  1.00  0.00     0.049 A 
ATOM     61  H   UNL A   1      43.375  28.057  31.527  1.00  0.00     0.167 HD
ATOM     62  C   UNL A   1      44.958  25.780  30.930  1.00  0.00     0.074 A 
ATOM     63  C   UNL A   1      45.462  24.595  30.267  1.00  0.00     0.031 C 
ATOM     64  C   UNL A   1      45.532  26.345  32.020  1.00  0.00     0.034 A 
BRANCH  51  65
ATOM     65  C   UNL A   1      42.749  31.516  33.951  1.00  0.00     0.023 A 
ATOM     66  C   UNL A   1      43.226  32.771  33.518  1.00  0.00     0.012 A 
ATOM     67  C   UNL A   1      42.233  31.389  35.256  1.00  0.00     0.148 A 
ATOM     68  C   UNL A   1      43.236  33.867  34.379  1.00  0.00     0.002 A 
ATOM     69  C   UNL A   1      42.196  32.499  36.092  1.00  0.00     0.091 A 
ATOM     70  F   UNL A   1      41.802  30.186  35.660  1.00  0.00    -0.205 F 
ATOM     71  C   UNL A   1      42.711  33.734  35.661  1.00  0.00     0.022 A 
BRANCH  69  72
ATOM     72  S   UNL A   1      41.459  32.457  37.729  1.00  0.00     0.127 S 
ATOM     73  O   UNL A   1      40.074  32.106  37.419  1.00  0.00    -0.237 OA
ATOM     74  O   UNL A   1      42.225  31.394  38.382  1.00  0.00    -0.237 OA
ATOM     75  O   UNL A   1      41.655  33.784  38.294  1.00  0.00    -0.744 OA
ENDBRANCH  69  72
ENDBRANCH  51  65
BRANCH  52  76
ATOM     76  C   UNL A   1      42.616  24.154  27.176  1.00  0.00     0.023 A 
ATOM     77  C   UNL A   1      43.281  24.378  25.954  1.00  0.00     0.012 A 
ATOM     78  C   UNL A   1      41.998  22.910  27.403  1.00  0.00     0.148 A 
ATOM     79  C   UNL A   1      43.294  23.398  24.961  1.00  0.00     0.002 A 
ATOM     80  C   UNL A   1      42.063  21.918  26.431  1.00  0.00     0.091 A 
ATOM     81  F   UNL A   1      41.365  22.718  28.569  1.00  0.00    -0.205 F 
ATOM     82  C   UNL A   1      42.694  22.165  25.201  1.00  0.00     0.022 A 
BRANCH  80  83
ATOM     83  S   UNL A   1      41.432  20.257  26.703  1.00  0.00     0.127 S 
ATOM     84  O   UNL A   1      42.164  19.852  27.899  1.00  0.00    -0.237 OA
ATOM     85  O   UNL A   1      40.005  20.508  26.910  1.00  0.00    -0.237 OA
ATOM     86  O   UNL A   1      41.742  19.516  25.489  1.00  0.00    -0.744 OA
ENDBRANCH  80  83
ENDBRANCH  52  76
BRANCH  64  87
ATOM     87  C   UNL A   1      46.732  25.658  32.616  1.00  0.00     0.023 A 
ATOM     88  C   UNL A   1      48.030  26.011  32.199  1.00  0.00     0.012 A 
ATOM     89  C   UNL A   1      46.568  24.715  33.651  1.00  0.00     0.148 A 
ATOM     90  C   UNL A   1      49.146  25.406  32.778  1.00  0.00     0.002 A 
ATOM     91  C   UNL A   1      47.685  24.158  34.259  1.00  0.00     0.091 A 
ATOM     92  F   UNL A   1      45.323  24.380  34.020  1.00  0.00    -0.205 F 
ATOM     93  C   UNL A   1      48.974  24.492  33.815  1.00  0.00     0.022 A 
BRANCH  91  94
ATOM     94  S   UNL A   1      47.557  23.054  35.670  1.00  0.00     0.127 S 
ATOM     95  O   UNL A   1      47.017  23.944  36.696  1.00  0.00    -0.237 OA
ATOM     96  O   UNL A   1      46.620  22.040  35.187  1.00  0.00    -0.237 OA
ATOM     97  O   UNL A   1      48.905  22.561  35.915  1.00  0.00    -0.744 OA
ENDBRANCH  91  94
ENDBRANCH  64  87
ENDBRANCH  38  39
ENDBRANCH  30  33
ENDBRANCH   1  29
TORSDOF 16
ENDMDL
