MODEL 1
REMARK VINA RESULT:     -10.7      0.000      0.000
REMARK SMILES CC(C)n1cncc1[C@@H](O)[C@H](C)C(=O)NCCCNC(=O)c1ccc(-c2c3nc(c(-c4cccc(S(=O)(=O)[O-])c4F)c4ccc([nH]4)c(-c4cccc(S(=O)(=O)[O-])c4F)c4nc(c(-c5cccc(S(=O)(=O)[O-])c5F)c5ccc2[nH]5)C=C4)C=C3)cc1
REMARK SMILES IDX 17 1 16 2 15 3 13 4 14 5 11 7 12 8 9 9 8 10 4 11 5 12 6 13
REMARK SMILES IDX 7 14 2 15 1 16 3 17 10 18 18 20 19 21 20 22 21 24 22 25
REMARK SMILES IDX 23 26 84 27 24 28 83 29 25 30 26 31 27 32 77 33 28 34 82 35
REMARK SMILES IDX 76 36 78 37 29 38 81 39 75 40 74 41 30 43 62 44 42 45 61 46
REMARK SMILES IDX 43 47 46 48 60 49 79 50 44 51 45 52 59 54 80 55 47 56 31 57
REMARK SMILES IDX 32 58 40 59 33 60 35 61 41 62 34 63 36 64 37 65 38 66 39 67
REMARK SMILES IDX 63 68 64 69 72 70 65 71 67 72 73 73 66 74 68 75 69 76 70 77
REMARK SMILES IDX 71 78 48 79 49 80 57 81 50 82 52 83 58 84 51 85 53 86 54 87
REMARK SMILES IDX 55 88 56 89
REMARK H PARENT 15 6 10 19 19 23 78 42 46 53
REMARK Flexibility Score: inf
ROOT
ATOM      1  C   UNL A   1      31.853  32.372  26.769  1.00  0.00     0.042 C 
ENDROOT
BRANCH   1   2
ATOM      2  C   UNL A   1      31.989  30.877  26.528  1.00  0.00     0.117 C 
BRANCH   2   3
ATOM      3  N   UNL A   1      31.486  30.397  25.252  1.00  0.00    -0.356 N 
ATOM      4  C   UNL A   1      31.345  29.097  24.849  1.00  0.00     0.225 C 
ATOM      5  O   UNL A   1      30.624  28.849  23.882  1.00  0.00    -0.275 OA
ATOM      6  H   UNL A   1      31.218  31.085  24.603  1.00  0.00     0.163 HD
BRANCH   4   7
ATOM      7  C   UNL A   1      32.101  27.977  25.549  1.00  0.00     0.110 C 
ATOM      8  C   UNL A   1      31.173  26.774  25.758  1.00  0.00     0.021 C 
BRANCH   7   9
ATOM      9  C   UNL A   1      33.539  27.759  25.009  1.00  0.00     0.175 C 
BRANCH   9  10
ATOM     10  C   UNL A   1      33.700  26.670  23.997  1.00  0.00     0.067 A 
ATOM     11  N   UNL A   1      34.105  25.376  24.250  1.00  0.00    -0.330 N 
ATOM     12  C   UNL A   1      34.090  24.703  23.051  1.00  0.00     0.199 A 
ATOM     13  N   UNL A   1      33.769  25.483  22.051  1.00  0.00    -0.245 NA
ATOM     14  C   UNL A   1      33.539  26.700  22.619  1.00  0.00     0.137 A 
BRANCH  11  15
ATOM     15  C   UNL A   1      34.643  24.774  25.466  1.00  0.00     0.082 C 
ATOM     16  C   UNL A   1      33.569  23.926  26.148  1.00  0.00     0.031 C 
ATOM     17  C   UNL A   1      35.960  24.009  25.313  1.00  0.00     0.031 C 
ENDBRANCH  11  15
ENDBRANCH   9  10
BRANCH   9  18
ATOM     18  O   UNL A   1      34.167  28.905  24.445  1.00  0.00    -0.386 OA
ATOM     19  H   UNL A   1      35.131  28.807  24.504  1.00  0.00     0.211 HD
ENDBRANCH   9  18
ENDBRANCH   7   9
ENDBRANCH   4   7
ENDBRANCH   2   3
ENDBRANCH   1   2
BRANCH   1  20
ATOM     20  C   UNL A   1      32.977  32.910  27.617  1.00  0.00     0.118 C 
BRANCH  20  21
ATOM     21  N   UNL A   1      32.591  34.097  28.386  1.00  0.00    -0.352 N 
ATOM     22  C   UNL A   1      33.164  34.562  29.558  1.00  0.00     0.251 C 
ATOM     23  H   UNL A   1      31.838  34.623  28.030  1.00  0.00     0.163 HD
ATOM     24  O   UNL A   1      32.581  35.343  30.284  1.00  0.00    -0.269 OA
BRANCH  22  25
ATOM     25  C   UNL A   1      34.514  34.068  29.888  1.00  0.00     0.039 A 
ATOM     26  C   UNL A   1      34.698  32.957  30.709  1.00  0.00     0.014 A 
ATOM     27  C   UNL A   1      35.591  34.686  29.254  1.00  0.00     0.014 A 
ATOM     28  C   UNL A   1      35.977  32.420  30.805  1.00  0.00     0.010 A 
ATOM     29  C   UNL A   1      36.795  34.039  29.189  1.00  0.00     0.010 A 
ATOM     30  C   UNL A   1      37.013  32.944  30.009  1.00  0.00    -0.014 A 
BRANCH  30  31
ATOM     31  C   UNL A   1      38.301  32.268  29.921  1.00  0.00     0.031 A 
ATOM     32  C   UNL A   1      38.222  30.950  29.243  1.00  0.00     0.074 A 
ATOM     33  C   UNL A   1      39.477  32.830  30.274  1.00  0.00     0.049 A 
ATOM     34  N   UNL A   1      38.137  29.800  29.825  1.00  0.00    -0.248 NA
ATOM     35  C   UNL A   1      37.981  30.900  27.795  1.00  0.00     0.031 C 
ATOM     36  C   UNL A   1      39.746  34.223  30.649  1.00  0.00     0.029 A 
ATOM     37  N   UNL A   1      40.722  32.283  30.266  1.00  0.00    -0.354 N 
ATOM     38  C   UNL A   1      38.151  28.866  28.797  1.00  0.00     0.074 A 
ATOM     39  C   UNL A   1      37.785  29.591  27.610  1.00  0.00     0.031 C 
ATOM     40  C   UNL A   1      41.077  34.460  30.593  1.00  0.00     0.029 A 
ATOM     41  C   UNL A   1      41.762  33.205  30.362  1.00  0.00     0.049 A 
ATOM     42  H   UNL A   1      40.876  31.313  30.199  1.00  0.00     0.167 HD
ATOM     43  C   UNL A   1      38.773  27.666  28.973  1.00  0.00     0.034 A 
ATOM     44  C   UNL A   1      43.089  32.948  30.238  1.00  0.00     0.034 A 
ATOM     45  C   UNL A   1      39.081  27.458  30.373  1.00  0.00     0.049 A 
ATOM     46  C   UNL A   1      43.273  31.505  30.506  1.00  0.00     0.074 A 
ATOM     47  C   UNL A   1      38.357  27.435  31.548  1.00  0.00     0.029 A 
ATOM     48  N   UNL A   1      40.391  27.663  30.737  1.00  0.00    -0.354 N 
ATOM     49  N   UNL A   1      43.080  30.965  31.677  1.00  0.00    -0.248 NA
ATOM     50  C   UNL A   1      43.237  30.591  29.377  1.00  0.00     0.031 C 
ATOM     51  C   UNL A   1      39.189  28.088  32.507  1.00  0.00     0.029 A 
ATOM     52  C   UNL A   1      40.409  28.387  31.897  1.00  0.00     0.049 A 
ATOM     53  H   UNL A   1      41.182  27.345  30.246  1.00  0.00     0.167 HD
ATOM     54  C   UNL A   1      42.413  29.782  31.391  1.00  0.00     0.074 A 
ATOM     55  C   UNL A   1      42.648  29.547  29.967  1.00  0.00     0.031 C 
ATOM     56  C   UNL A   1      41.489  29.278  32.261  1.00  0.00     0.034 A 
BRANCH  43  57
ATOM     57  C   UNL A   1      39.513  26.887  27.902  1.00  0.00     0.023 A 
ATOM     58  C   UNL A   1      39.221  25.503  27.815  1.00  0.00     0.012 A 
ATOM     59  C   UNL A   1      40.653  27.337  27.198  1.00  0.00     0.148 A 
ATOM     60  C   UNL A   1      40.069  24.610  27.154  1.00  0.00     0.002 A 
ATOM     61  C   UNL A   1      41.454  26.456  26.481  1.00  0.00     0.091 A 
ATOM     62  F   UNL A   1      41.055  28.603  27.304  1.00  0.00    -0.205 F 
ATOM     63  C   UNL A   1      41.189  25.085  26.488  1.00  0.00     0.022 A 
BRANCH  61  64
ATOM     64  S   UNL A   1      42.893  27.018  25.560  1.00  0.00     0.127 S 
ATOM     65  O   UNL A   1      42.298  28.010  24.669  1.00  0.00    -0.237 OA
ATOM     66  O   UNL A   1      43.731  27.563  26.628  1.00  0.00    -0.237 OA
ATOM     67  O   UNL A   1      43.442  25.833  24.914  1.00  0.00    -0.744 OA
ENDBRANCH  61  64
ENDBRANCH  43  57
BRANCH  44  68
ATOM     68  C   UNL A   1      44.194  33.768  29.693  1.00  0.00     0.023 A 
ATOM     69  C   UNL A   1      45.172  34.285  30.571  1.00  0.00     0.012 A 
ATOM     70  C   UNL A   1      44.476  33.765  28.311  1.00  0.00     0.148 A 
ATOM     71  C   UNL A   1      46.410  34.731  30.092  1.00  0.00     0.002 A 
ATOM     72  C   UNL A   1      45.710  34.206  27.840  1.00  0.00     0.091 A 
ATOM     73  F   UNL A   1      43.573  33.238  27.472  1.00  0.00    -0.205 F 
ATOM     74  C   UNL A   1      46.685  34.677  28.730  1.00  0.00     0.022 A 
BRANCH  72  75
ATOM     75  S   UNL A   1      46.163  34.121  26.102  1.00  0.00     0.127 S 
ATOM     76  O   UNL A   1      47.307  35.032  26.044  1.00  0.00    -0.237 OA
ATOM     77  O   UNL A   1      46.497  32.708  25.946  1.00  0.00    -0.237 OA
ATOM     78  O   UNL A   1      44.993  34.578  25.364  1.00  0.00    -0.744 OA
ENDBRANCH  72  75
ENDBRANCH  44  68
BRANCH  56  79
ATOM     79  C   UNL A   1      41.458  29.830  33.663  1.00  0.00     0.023 A 
ATOM     80  C   UNL A   1      42.322  29.399  34.691  1.00  0.00     0.012 A 
ATOM     81  C   UNL A   1      40.610  30.923  33.903  1.00  0.00     0.148 A 
ATOM     82  C   UNL A   1      42.317  30.032  35.939  1.00  0.00     0.002 A 
ATOM     83  C   UNL A   1      40.642  31.580  35.125  1.00  0.00     0.091 A 
ATOM     84  F   UNL A   1      39.788  31.315  32.917  1.00  0.00    -0.205 F 
ATOM     85  C   UNL A   1      41.486  31.132  36.150  1.00  0.00     0.022 A 
BRANCH  83  86
ATOM     86  S   UNL A   1      39.679  33.067  35.395  1.00  0.00     0.127 S 
ATOM     87  O   UNL A   1      38.312  32.551  35.384  1.00  0.00    -0.237 OA
ATOM     88  O   UNL A   1      40.153  33.518  36.705  1.00  0.00    -0.237 OA
ATOM     89  O   UNL A   1      40.023  33.968  34.301  1.00  0.00    -0.744 OA
ENDBRANCH  83  86
ENDBRANCH  56  79
ENDBRANCH  30  31
ENDBRANCH  22  25
ENDBRANCH  20  21
ENDBRANCH   1  20
TORSDOF 17
ENDMDL
MODEL 2
REMARK VINA RESULT:     -10.4      3.152      7.366
REMARK SMILES CC(C)n1cncc1[C@@H](O)[C@H](C)C(=O)NCCCNC(=O)c1ccc(-c2c3nc(c(-c4cccc(S(=O)(=O)[O-])c4F)c4ccc([nH]4)c(-c4cccc(S(=O)(=O)[O-])c4F)c4nc(c(-c5cccc(S(=O)(=O)[O-])c5F)c5ccc2[nH]5)C=C4)C=C3)cc1
REMARK SMILES IDX 17 1 16 2 15 3 13 4 14 5 11 7 12 8 9 9 8 10 4 11 5 12 6 13
REMARK SMILES IDX 7 14 2 15 1 16 3 17 10 18 18 20 19 21 20 22 21 24 22 25
REMARK SMILES IDX 23 26 84 27 24 28 83 29 25 30 26 31 27 32 77 33 28 34 82 35
REMARK SMILES IDX 76 36 78 37 29 38 81 39 75 40 74 41 30 43 62 44 42 45 61 46
REMARK SMILES IDX 43 47 46 48 60 49 79 50 44 51 45 52 59 54 80 55 47 56 31 57
REMARK SMILES IDX 32 58 40 59 33 60 35 61 41 62 34 63 36 64 37 65 38 66 39 67
REMARK SMILES IDX 63 68 64 69 72 70 65 71 67 72 73 73 66 74 68 75 69 76 70 77
REMARK SMILES IDX 71 78 48 79 49 80 57 81 50 82 52 83 58 84 51 85 53 86 54 87
REMARK SMILES IDX 55 88 56 89
REMARK H PARENT 15 6 10 19 19 23 78 42 46 53
REMARK Flexibility Score: inf
ROOT
ATOM      1  C   UNL A   1      32.993  32.228  27.481  1.00  0.00     0.042 C 
ENDROOT
BRANCH   1   2
ATOM      2  C   UNL A   1      32.854  30.789  27.012  1.00  0.00     0.117 C 
BRANCH   2   3
ATOM      3  N   UNL A   1      32.096  30.596  25.788  1.00  0.00    -0.356 N 
ATOM      4  C   UNL A   1      31.691  29.411  25.237  1.00  0.00     0.225 C 
ATOM      5  O   UNL A   1      30.803  29.425  24.384  1.00  0.00    -0.275 OA
ATOM      6  H   UNL A   1      31.847  31.412  25.297  1.00  0.00     0.163 HD
BRANCH   4   7
ATOM      7  C   UNL A   1      32.355  28.100  25.632  1.00  0.00     0.110 C 
ATOM      8  C   UNL A   1      31.301  26.990  25.724  1.00  0.00     0.021 C 
BRANCH   7   9
ATOM      9  C   UNL A   1      33.697  27.832  24.901  1.00  0.00     0.175 C 
BRANCH   9  10
ATOM     10  C   UNL A   1      33.709  26.672  23.958  1.00  0.00     0.067 A 
ATOM     11  N   UNL A   1      34.012  25.365  24.278  1.00  0.00    -0.330 N 
ATOM     12  C   UNL A   1      33.875  24.622  23.129  1.00  0.00     0.199 A 
ATOM     13  N   UNL A   1      33.571  25.364  22.095  1.00  0.00    -0.245 NA
ATOM     14  C   UNL A   1      33.479  26.630  22.590  1.00  0.00     0.137 A 
BRANCH  11  15
ATOM     15  C   UNL A   1      34.559  24.794  25.505  1.00  0.00     0.082 C 
ATOM     16  C   UNL A   1      33.488  23.968  26.219  1.00  0.00     0.031 C 
ATOM     17  C   UNL A   1      35.872  24.022  25.362  1.00  0.00     0.031 C 
ENDBRANCH  11  15
ENDBRANCH   9  10
BRANCH   9  18
ATOM     18  O   UNL A   1      34.230  28.930  24.168  1.00  0.00    -0.386 OA
ATOM     19  H   UNL A   1      33.533  29.590  24.022  1.00  0.00     0.211 HD
ENDBRANCH   9  18
ENDBRANCH   7   9
ENDBRANCH   4   7
ENDBRANCH   2   3
ENDBRANCH   1   2
BRANCH   1  20
ATOM     20  C   UNL A   1      34.365  32.508  28.040  1.00  0.00     0.118 C 
BRANCH  20  21
ATOM     21  N   UNL A   1      34.344  32.806  29.476  1.00  0.00    -0.352 N 
ATOM     22  C   UNL A   1      35.138  32.244  30.462  1.00  0.00     0.251 C 
ATOM     23  H   UNL A   1      33.691  33.481  29.772  1.00  0.00     0.163 HD
ATOM     24  O   UNL A   1      34.831  32.305  31.636  1.00  0.00    -0.269 OA
BRANCH  22  25
ATOM     25  C   UNL A   1      36.372  31.566  30.025  1.00  0.00     0.039 A 
ATOM     26  C   UNL A   1      37.564  32.269  29.856  1.00  0.00     0.014 A 
ATOM     27  C   UNL A   1      36.327  30.178  29.899  1.00  0.00     0.014 A 
ATOM     28  C   UNL A   1      38.730  31.540  29.651  1.00  0.00     0.010 A 
ATOM     29  C   UNL A   1      37.494  29.464  29.904  1.00  0.00     0.010 A 
ATOM     30  C   UNL A   1      38.692  30.135  29.717  1.00  0.00    -0.014 A 
BRANCH  30  31
ATOM     31  C   UNL A   1      39.923  29.355  29.728  1.00  0.00     0.031 A 
ATOM     32  C   UNL A   1      40.459  29.133  31.094  1.00  0.00     0.074 A 
ATOM     33  C   UNL A   1      40.452  28.759  28.638  1.00  0.00     0.049 A 
ATOM     34  N   UNL A   1      41.391  29.820  31.666  1.00  0.00    -0.248 NA
ATOM     35  C   UNL A   1      39.752  28.221  32.004  1.00  0.00     0.031 C 
ATOM     36  C   UNL A   1      39.866  28.620  27.299  1.00  0.00     0.029 A 
ATOM     37  N   UNL A   1      41.603  28.044  28.529  1.00  0.00    -0.354 N 
ATOM     38  C   UNL A   1      41.594  29.210  32.898  1.00  0.00     0.074 A 
ATOM     39  C   UNL A   1      40.406  28.439  33.149  1.00  0.00     0.031 C 
ATOM     40  C   UNL A   1      40.541  27.677  26.603  1.00  0.00     0.029 A 
ATOM     41  C   UNL A   1      41.707  27.282  27.368  1.00  0.00     0.049 A 
ATOM     42  H   UNL A   1      42.309  28.063  29.216  1.00  0.00     0.167 HD
ATOM     43  C   UNL A   1      42.848  29.149  33.430  1.00  0.00     0.034 A 
ATOM     44  C   UNL A   1      42.675  26.377  27.073  1.00  0.00     0.034 A 
ATOM     45  C   UNL A   1      43.747  30.026  32.708  1.00  0.00     0.049 A 
ATOM     46  C   UNL A   1      43.843  26.709  27.917  1.00  0.00     0.074 A 
ATOM     47  C   UNL A   1      43.772  31.371  32.398  1.00  0.00     0.029 A 
ATOM     48  N   UNL A   1      44.598  29.414  31.819  1.00  0.00    -0.354 N 
ATOM     49  N   UNL A   1      44.545  27.798  27.770  1.00  0.00    -0.248 NA
ATOM     50  C   UNL A   1      43.961  26.053  29.208  1.00  0.00     0.031 C 
ATOM     51  C   UNL A   1      44.265  31.431  31.060  1.00  0.00     0.029 A 
ATOM     52  C   UNL A   1      44.606  30.137  30.660  1.00  0.00     0.049 A 
ATOM     53  H   UNL A   1      45.115  28.594  31.989  1.00  0.00     0.167 HD
ATOM     54  C   UNL A   1      44.774  28.223  29.071  1.00  0.00     0.074 A 
ATOM     55  C   UNL A   1      44.503  27.054  29.907  1.00  0.00     0.031 C 
ATOM     56  C   UNL A   1      44.863  29.555  29.361  1.00  0.00     0.034 A 
BRANCH  43  57
ATOM     57  C   UNL A   1      43.397  28.011  34.270  1.00  0.00     0.023 A 
ATOM     58  C   UNL A   1      44.042  28.374  35.478  1.00  0.00     0.012 A 
ATOM     59  C   UNL A   1      43.585  26.681  33.829  1.00  0.00     0.148 A 
ATOM     60  C   UNL A   1      44.902  27.499  36.148  1.00  0.00     0.002 A 
ATOM     61  C   UNL A   1      44.383  25.791  34.538  1.00  0.00     0.091 A 
ATOM     62  F   UNL A   1      43.095  26.284  32.655  1.00  0.00    -0.205 F 
ATOM     63  C   UNL A   1      45.075  26.206  35.677  1.00  0.00     0.022 A 
BRANCH  61  64
ATOM     64  S   UNL A   1      44.611  24.089  34.004  1.00  0.00     0.127 S 
ATOM     65  O   UNL A   1      43.277  23.535  34.224  1.00  0.00    -0.237 OA
ATOM     66  O   UNL A   1      44.985  24.269  32.601  1.00  0.00    -0.237 OA
ATOM     67  O   UNL A   1      45.671  23.545  34.843  1.00  0.00    -0.744 OA
ENDBRANCH  61  64
ENDBRANCH  43  57
BRANCH  44  68
ATOM     68  C   UNL A   1      42.627  25.115  26.301  1.00  0.00     0.023 A 
ATOM     69  C   UNL A   1      43.721  24.761  25.481  1.00  0.00     0.012 A 
ATOM     70  C   UNL A   1      41.682  24.116  26.618  1.00  0.00     0.148 A 
ATOM     71  C   UNL A   1      43.898  23.445  25.039  1.00  0.00     0.002 A 
ATOM     72  C   UNL A   1      41.864  22.806  26.179  1.00  0.00     0.091 A 
ATOM     73  F   UNL A   1      40.663  24.429  27.429  1.00  0.00    -0.205 F 
ATOM     74  C   UNL A   1      42.979  22.465  25.401  1.00  0.00     0.022 A 
BRANCH  72  75
ATOM     75  S   UNL A   1      40.753  21.473  26.643  1.00  0.00     0.127 S 
ATOM     76  O   UNL A   1      41.405  20.312  26.038  1.00  0.00    -0.237 OA
ATOM     77  O   UNL A   1      40.818  21.520  28.102  1.00  0.00    -0.237 OA
ATOM     78  O   UNL A   1      39.461  21.810  26.059  1.00  0.00    -0.744 OA
ENDBRANCH  72  75
ENDBRANCH  44  68
BRANCH  56  79
ATOM     79  C   UNL A   1      45.049  30.520  28.219  1.00  0.00     0.023 A 
ATOM     80  C   UNL A   1      43.984  31.043  27.457  1.00  0.00     0.012 A 
ATOM     81  C   UNL A   1      46.345  31.016  28.004  1.00  0.00     0.148 A 
ATOM     82  C   UNL A   1      44.217  32.021  26.483  1.00  0.00     0.002 A 
ATOM     83  C   UNL A   1      46.565  32.022  27.073  1.00  0.00     0.091 A 
ATOM     84  F   UNL A   1      47.349  30.503  28.732  1.00  0.00    -0.205 F 
ATOM     85  C   UNL A   1      45.506  32.520  26.302  1.00  0.00     0.022 A 
BRANCH  83  86
ATOM     86  S   UNL A   1      48.183  32.772  26.895  1.00  0.00     0.127 S 
ATOM     87  O   UNL A   1      49.006  31.632  26.500  1.00  0.00    -0.237 OA
ATOM     88  O   UNL A   1      47.959  33.761  25.839  1.00  0.00    -0.237 OA
ATOM     89  O   UNL A   1      48.496  33.356  28.194  1.00  0.00    -0.744 OA
ENDBRANCH  83  86
ENDBRANCH  56  79
ENDBRANCH  30  31
ENDBRANCH  22  25
ENDBRANCH  20  21
ENDBRANCH   1  20
TORSDOF 17
ENDMDL
MODEL 3
REMARK VINA RESULT:     -10.3      3.301      7.536
REMARK SMILES CC(C)n1cncc1[C@@H](O)[C@H](C)C(=O)NCCCNC(=O)c1ccc(-c2c3nc(c(-c4cccc(S(=O)(=O)[O-])c4F)c4ccc([nH]4)c(-c4cccc(S(=O)(=O)[O-])c4F)c4nc(c(-c5cccc(S(=O)(=O)[O-])c5F)c5ccc2[nH]5)C=C4)C=C3)cc1
REMARK SMILES IDX 17 1 16 2 15 3 13 4 14 5 11 7 12 8 9 9 8 10 4 11 5 12 6 13
REMARK SMILES IDX 7 14 2 15 1 16 3 17 10 18 18 20 19 21 20 22 21 24 22 25
REMARK SMILES IDX 23 26 84 27 24 28 83 29 25 30 26 31 27 32 77 33 28 34 82 35
REMARK SMILES IDX 76 36 78 37 29 38 81 39 75 40 74 41 30 43 62 44 42 45 61 46
REMARK SMILES IDX 43 47 46 48 60 49 79 50 44 51 45 52 59 54 80 55 47 56 31 57
REMARK SMILES IDX 32 58 40 59 33 60 35 61 41 62 34 63 36 64 37 65 38 66 39 67
REMARK SMILES IDX 63 68 64 69 72 70 65 71 67 72 73 73 66 74 68 75 69 76 70 77
REMARK SMILES IDX 71 78 48 79 49 80 57 81 50 82 52 83 58 84 51 85 53 86 54 87
REMARK SMILES IDX 55 88 56 89
REMARK H PARENT 15 6 10 19 19 23 78 42 46 53
REMARK Flexibility Score: inf
ROOT
ATOM      1  C   UNL A   1      33.207  32.087  27.794  1.00  0.00     0.042 C 
ENDROOT
BRANCH   1   2
ATOM      2  C   UNL A   1      33.504  30.706  27.232  1.00  0.00     0.117 C 
BRANCH   2   3
ATOM      3  N   UNL A   1      32.392  29.771  27.240  1.00  0.00    -0.356 N 
ATOM      4  C   UNL A   1      32.380  28.489  26.764  1.00  0.00     0.225 C 
ATOM      5  O   UNL A   1      31.477  27.731  27.121  1.00  0.00    -0.275 OA
ATOM      6  H   UNL A   1      31.550  30.099  27.630  1.00  0.00     0.163 HD
BRANCH   4   7
ATOM      7  C   UNL A   1      33.432  28.014  25.774  1.00  0.00     0.110 C 
ATOM      8  C   UNL A   1      33.670  26.508  25.949  1.00  0.00     0.021 C 
BRANCH   7   9
ATOM      9  C   UNL A   1      33.268  28.609  24.351  1.00  0.00     0.175 C 
BRANCH   9  10
ATOM     10  C   UNL A   1      32.868  27.645  23.280  1.00  0.00     0.067 A 
ATOM     11  N   UNL A   1      31.599  27.151  23.061  1.00  0.00    -0.330 N 
ATOM     12  C   UNL A   1      31.667  26.324  21.965  1.00  0.00     0.199 A 
ATOM     13  N   UNL A   1      32.888  26.206  21.511  1.00  0.00    -0.245 NA
ATOM     14  C   UNL A   1      33.639  27.005  22.321  1.00  0.00     0.137 A 
BRANCH  11  15
ATOM     15  C   UNL A   1      30.388  27.263  23.870  1.00  0.00     0.082 C 
ATOM     16  C   UNL A   1      29.332  28.073  23.118  1.00  0.00     0.031 C 
ATOM     17  C   UNL A   1      29.818  25.951  24.414  1.00  0.00     0.031 C 
ENDBRANCH  11  15
ENDBRANCH   9  10
BRANCH   9  18
ATOM     18  O   UNL A   1      32.365  29.704  24.241  1.00  0.00    -0.386 OA
ATOM     19  H   UNL A   1      32.814  30.451  23.814  1.00  0.00     0.211 HD
ENDBRANCH   9  18
ENDBRANCH   7   9
ENDBRANCH   4   7
ENDBRANCH   2   3
ENDBRANCH   1   2
BRANCH   1  20
ATOM     20  C   UNL A   1      34.449  32.758  28.325  1.00  0.00     0.118 C 
BRANCH  20  21
ATOM     21  N   UNL A   1      34.414  32.951  29.778  1.00  0.00    -0.352 N 
ATOM     22  C   UNL A   1      35.174  32.294  30.731  1.00  0.00     0.251 C 
ATOM     23  H   UNL A   1      33.778  33.623  30.114  1.00  0.00     0.163 HD
ATOM     24  O   UNL A   1      34.851  32.280  31.903  1.00  0.00    -0.269 OA
BRANCH  22  25
ATOM     25  C   UNL A   1      36.395  31.611  30.263  1.00  0.00     0.039 A 
ATOM     26  C   UNL A   1      37.600  32.297  30.122  1.00  0.00     0.014 A 
ATOM     27  C   UNL A   1      36.322  30.232  30.078  1.00  0.00     0.014 A 
ATOM     28  C   UNL A   1      38.751  31.555  29.884  1.00  0.00     0.010 A 
ATOM     29  C   UNL A   1      37.474  29.495  30.049  1.00  0.00     0.010 A 
ATOM     30  C   UNL A   1      38.685  30.148  29.889  1.00  0.00    -0.014 A 
BRANCH  30  31
ATOM     31  C   UNL A   1      39.900  29.345  29.864  1.00  0.00     0.031 A 
ATOM     32  C   UNL A   1      40.465  29.102  31.215  1.00  0.00     0.074 A 
ATOM     33  C   UNL A   1      40.389  28.745  28.757  1.00  0.00     0.049 A 
ATOM     34  N   UNL A   1      41.425  29.766  31.768  1.00  0.00    -0.248 NA
ATOM     35  C   UNL A   1      39.763  28.198  32.137  1.00  0.00     0.031 C 
ATOM     36  C   UNL A   1      39.768  28.628  27.433  1.00  0.00     0.029 A 
ATOM     37  N   UNL A   1      41.523  28.009  28.615  1.00  0.00    -0.354 N 
ATOM     38  C   UNL A   1      41.647  29.145  32.990  1.00  0.00     0.074 A 
ATOM     39  C   UNL A   1      40.451  28.395  33.266  1.00  0.00     0.031 C 
ATOM     40  C   UNL A   1      40.406  27.676  26.714  1.00  0.00     0.029 A 
ATOM     41  C   UNL A   1      41.582  27.253  27.446  1.00  0.00     0.049 A 
ATOM     42  H   UNL A   1      42.246  28.009  29.284  1.00  0.00     0.167 HD
ATOM     43  C   UNL A   1      42.912  29.054  33.490  1.00  0.00     0.034 A 
ATOM     44  C   UNL A   1      42.524  26.331  27.122  1.00  0.00     0.034 A 
ATOM     45  C   UNL A   1      43.810  29.919  32.751  1.00  0.00     0.049 A 
ATOM     46  C   UNL A   1      43.719  26.634  27.938  1.00  0.00     0.074 A 
ATOM     47  C   UNL A   1      43.854  31.265  32.449  1.00  0.00     0.029 A 
ATOM     48  N   UNL A   1      44.626  29.296  31.837  1.00  0.00    -0.354 N 
ATOM     49  N   UNL A   1      44.439  27.709  27.780  1.00  0.00    -0.248 NA
ATOM     50  C   UNL A   1      43.856  25.967  29.221  1.00  0.00     0.031 C 
ATOM     51  C   UNL A   1      44.315  31.325  31.100  1.00  0.00     0.029 A 
ATOM     52  C   UNL A   1      44.620  30.027  30.683  1.00  0.00     0.049 A 
ATOM     53  H   UNL A   1      45.130  28.464  31.988  1.00  0.00     0.167 HD
ATOM     54  C   UNL A   1      44.709  28.121  29.077  1.00  0.00     0.074 A 
ATOM     55  C   UNL A   1      44.436  26.952  29.913  1.00  0.00     0.031 C 
ATOM     56  C   UNL A   1      44.832  29.449  29.374  1.00  0.00     0.034 A 
BRANCH  43  57
ATOM     57  C   UNL A   1      43.459  27.900  34.308  1.00  0.00     0.023 A 
ATOM     58  C   UNL A   1      44.166  28.243  35.487  1.00  0.00     0.012 A 
ATOM     59  C   UNL A   1      43.585  26.564  33.862  1.00  0.00     0.148 A 
ATOM     60  C   UNL A   1      45.024  27.341  36.122  1.00  0.00     0.002 A 
ATOM     61  C   UNL A   1      44.383  25.649  34.539  1.00  0.00     0.091 A 
ATOM     62  F   UNL A   1      43.034  26.182  32.711  1.00  0.00    -0.205 F 
ATOM     63  C   UNL A   1      45.136  26.043  35.648  1.00  0.00     0.022 A 
BRANCH  61  64
ATOM     64  S   UNL A   1      44.533  23.940  34.000  1.00  0.00     0.127 S 
ATOM     65  O   UNL A   1      45.585  23.448  34.885  1.00  0.00    -0.237 OA
ATOM     66  O   UNL A   1      43.193  23.425  34.281  1.00  0.00    -0.237 OA
ATOM     67  O   UNL A   1      44.869  23.996  32.584  1.00  0.00    -0.744 OA
ENDBRANCH  61  64
ENDBRANCH  43  57
BRANCH  44  68
ATOM     68  C   UNL A   1      42.432  25.075  26.343  1.00  0.00     0.023 A 
ATOM     69  C   UNL A   1      43.441  24.765  25.406  1.00  0.00     0.012 A 
ATOM     70  C   UNL A   1      41.557  24.044  26.746  1.00  0.00     0.148 A 
ATOM     71  C   UNL A   1      43.609  23.458  24.930  1.00  0.00     0.002 A 
ATOM     72  C   UNL A   1      41.731  22.745  26.273  1.00  0.00     0.091 A 
ATOM     73  F   UNL A   1      40.623  24.317  27.666  1.00  0.00    -0.205 F 
ATOM     74  C   UNL A   1      42.765  22.447  25.376  1.00  0.00     0.022 A 
BRANCH  72  75
ATOM     75  S   UNL A   1      40.717  21.372  26.837  1.00  0.00     0.127 S 
ATOM     76  O   UNL A   1      40.806  21.509  28.291  1.00  0.00    -0.237 OA
ATOM     77  O   UNL A   1      39.414  21.707  26.269  1.00  0.00    -0.237 OA
ATOM     78  O   UNL A   1      41.347  20.170  26.307  1.00  0.00    -0.744 OA
ENDBRANCH  72  75
ENDBRANCH  44  68
BRANCH  56  79
ATOM     79  C   UNL A   1      45.009  30.417  28.234  1.00  0.00     0.023 A 
ATOM     80  C   UNL A   1      43.936  30.957  27.494  1.00  0.00     0.012 A 
ATOM     81  C   UNL A   1      46.307  30.901  27.998  1.00  0.00     0.148 A 
ATOM     82  C   UNL A   1      44.163  31.938  26.521  1.00  0.00     0.002 A 
ATOM     83  C   UNL A   1      46.521  31.908  27.069  1.00  0.00     0.091 A 
ATOM     84  F   UNL A   1      47.317  30.371  28.705  1.00  0.00    -0.205 F 
ATOM     85  C   UNL A   1      45.454  32.423  26.320  1.00  0.00     0.022 A 
BRANCH  83  86
ATOM     86  S   UNL A   1      48.145  32.641  26.865  1.00  0.00     0.127 S 
ATOM     87  O   UNL A   1      48.399  33.192  28.194  1.00  0.00    -0.237 OA
ATOM     88  O   UNL A   1      48.972  31.485  26.512  1.00  0.00    -0.237 OA
ATOM     89  O   UNL A   1      48.007  33.619  25.792  1.00  0.00    -0.744 OA
ENDBRANCH  83  86
ENDBRANCH  56  79
ENDBRANCH  30  31
ENDBRANCH  22  25
ENDBRANCH  20  21
ENDBRANCH   1  20
TORSDOF 17
ENDMDL
