MODEL 1
REMARK VINA RESULT:     -10.6      0.000      0.000
REMARK SMILES C[C@@H](C(=O)NCCCNC(=O)c1ccc(-c2c3nc(c(-c4cccc(S(=O)(=O)[O-])c4F)c4ccc([nH]4)c(-c4cccc(S(=O)(=O)[O-])c4F)c4nc(c(-c5cccc(S(=O)(=O)[O-])c5F)c5ccc2[nH]5)C=C4)C=C3)cc1)c1cc(C(=O)c2ccccc2)ccc1O
REMARK SMILES IDX 7 1 6 2 5 3 3 4 4 5 2 7 1 8 75 9 76 10 88 11 77 12 87 13
REMARK SMILES IDX 86 14 89 15 78 17 79 18 80 19 81 20 85 21 82 22 84 23 83 24
REMARK SMILES IDX 8 25 9 26 10 27 11 29 12 30 13 31 74 32 14 33 73 34 15 35
REMARK SMILES IDX 16 36 17 37 67 38 18 39 72 40 66 41 68 42 19 43 71 44 65 45
REMARK SMILES IDX 64 46 20 48 52 49 32 50 51 51 33 52 36 53 50 54 69 55 34 56
REMARK SMILES IDX 35 57 49 59 70 60 37 61 21 62 22 63 30 64 23 65 25 66 31 67
REMARK SMILES IDX 24 68 26 69 27 70 28 71 29 72 53 73 54 74 62 75 55 76 57 77
REMARK SMILES IDX 63 78 56 79 58 80 59 81 60 82 61 83 38 84 39 85 47 86 40 87
REMARK SMILES IDX 42 88 48 89 41 90 43 91 44 92 45 93 46 94
REMARK H PARENT 5 6 89 16 9 28 68 47 36 58
REMARK Flexibility Score: inf
ROOT
ATOM      1  C   UNL A   1      33.360  34.127  28.411  1.00  0.00     0.042 C 
ENDROOT
BRANCH   1   2
ATOM      2  C   UNL A   1      33.975  35.382  29.031  1.00  0.00     0.117 C 
BRANCH   2   3
ATOM      3  N   UNL A   1      33.738  35.454  30.462  1.00  0.00    -0.356 N 
ATOM      4  C   UNL A   1      34.158  34.640  31.475  1.00  0.00     0.227 C 
ATOM      5  O   UNL A   1      33.554  34.753  32.542  1.00  0.00    -0.274 OA
ATOM      6  H   UNL A   1      33.182  36.214  30.748  1.00  0.00     0.163 HD
BRANCH   4   7
ATOM      7  C   UNL A   1      35.287  33.621  31.231  1.00  0.00     0.109 C 
ATOM      8  C   UNL A   1      34.862  32.344  31.977  1.00  0.00     0.023 C 
BRANCH   7   9
ATOM      9  C   UNL A   1      36.712  34.057  31.624  1.00  0.00     0.007 A 
ATOM     10  C   UNL A   1      37.116  34.212  32.968  1.00  0.00     0.020 A 
ATOM     11  C   UNL A   1      37.695  34.321  30.651  1.00  0.00     0.119 A 
ATOM     12  C   UNL A   1      38.452  34.477  33.322  1.00  0.00     0.023 A 
ATOM     13  C   UNL A   1      39.034  34.518  30.988  1.00  0.00     0.047 A 
ATOM     14  C   UNL A   1      39.420  34.563  32.321  1.00  0.00     0.016 A 
BRANCH  11  15
ATOM     15  O   UNL A   1      37.428  34.436  29.317  1.00  0.00    -0.508 OA
ATOM     16  H   UNL A   1      36.901  33.792  28.887  1.00  0.00     0.293 HD
ENDBRANCH  11  15
BRANCH  12  17
ATOM     17  C   UNL A   1      38.802  34.621  34.769  1.00  0.00     0.193 C 
ATOM     18  O   UNL A   1      39.404  35.610  35.175  1.00  0.00    -0.289 OA
BRANCH  17  19
ATOM     19  C   UNL A   1      38.431  33.582  35.757  1.00  0.00     0.022 A 
ATOM     20  C   UNL A   1      38.304  32.260  35.318  1.00  0.00     0.012 A 
ATOM     21  C   UNL A   1      38.188  33.904  37.098  1.00  0.00     0.012 A 
ATOM     22  C   UNL A   1      37.987  31.254  36.231  1.00  0.00     0.001 A 
ATOM     23  C   UNL A   1      37.877  32.893  38.008  1.00  0.00     0.001 A 
ATOM     24  C   UNL A   1      37.785  31.569  37.575  1.00  0.00     0.000 A 
ENDBRANCH  17  19
ENDBRANCH  12  17
ENDBRANCH   7   9
ENDBRANCH   4   7
ENDBRANCH   2   3
ENDBRANCH   1   2
BRANCH   1  25
ATOM     25  C   UNL A   1      34.363  33.030  28.064  1.00  0.00     0.118 C 
BRANCH  25  26
ATOM     26  N   UNL A   1      33.727  31.846  27.506  1.00  0.00    -0.352 N 
ATOM     27  C   UNL A   1      34.222  30.573  27.352  1.00  0.00     0.251 C 
ATOM     28  H   UNL A   1      32.804  31.976  27.191  1.00  0.00     0.163 HD
ATOM     29  O   UNL A   1      33.596  29.759  26.680  1.00  0.00    -0.269 OA
BRANCH  27  30
ATOM     30  C   UNL A   1      35.512  30.187  27.971  1.00  0.00     0.039 A 
ATOM     31  C   UNL A   1      35.517  29.761  29.302  1.00  0.00     0.014 A 
ATOM     32  C   UNL A   1      36.710  30.258  27.258  1.00  0.00     0.014 A 
ATOM     33  C   UNL A   1      36.712  29.339  29.893  1.00  0.00     0.010 A 
ATOM     34  C   UNL A   1      37.885  29.764  27.822  1.00  0.00     0.010 A 
ATOM     35  C   UNL A   1      37.901  29.299  29.146  1.00  0.00    -0.014 A 
BRANCH  35  36
ATOM     36  C   UNL A   1      39.158  28.749  29.719  1.00  0.00     0.031 A 
ATOM     37  C   UNL A   1      39.804  29.404  30.911  1.00  0.00     0.074 A 
ATOM     38  C   UNL A   1      39.773  27.718  29.105  1.00  0.00     0.049 A 
ATOM     39  N   UNL A   1      40.936  29.112  31.499  1.00  0.00    -0.248 NA
ATOM     40  C   UNL A   1      39.099  30.551  31.508  1.00  0.00     0.031 C 
ATOM     41  C   UNL A   1      39.287  27.041  27.899  1.00  0.00     0.029 A 
ATOM     42  N   UNL A   1      40.954  27.077  29.388  1.00  0.00    -0.354 N 
ATOM     43  C   UNL A   1      41.102  30.061  32.500  1.00  0.00     0.074 A 
ATOM     44  C   UNL A   1      39.964  30.951  32.430  1.00  0.00     0.031 C 
ATOM     45  C   UNL A   1      40.164  26.088  27.545  1.00  0.00     0.029 A 
ATOM     46  C   UNL A   1      41.292  26.108  28.472  1.00  0.00     0.049 A 
ATOM     47  H   UNL A   1      41.509  27.293  30.173  1.00  0.00     0.167 HD
ATOM     48  C   UNL A   1      42.101  30.170  33.409  1.00  0.00     0.034 A 
ATOM     49  C   UNL A   1      42.392  25.336  28.373  1.00  0.00     0.034 A 
ATOM     50  C   UNL A   1      43.209  29.258  33.503  1.00  0.00     0.049 A 
ATOM     51  C   UNL A   1      43.474  25.465  29.411  1.00  0.00     0.074 A 
ATOM     52  C   UNL A   1      44.211  29.222  34.457  1.00  0.00     0.029 A 
ATOM     53  N   UNL A   1      43.476  28.239  32.603  1.00  0.00    -0.354 N 
ATOM     54  N   UNL A   1      43.524  26.253  30.457  1.00  0.00    -0.248 NA
ATOM     55  C   UNL A   1      44.638  24.576  29.275  1.00  0.00     0.031 C 
ATOM     56  C   UNL A   1      45.108  28.207  34.111  1.00  0.00     0.029 A 
ATOM     57  C   UNL A   1      44.641  27.584  32.964  1.00  0.00     0.049 A 
ATOM     58  H   UNL A   1      42.919  28.014  31.824  1.00  0.00     0.167 HD
ATOM     59  C   UNL A   1      44.702  25.933  31.121  1.00  0.00     0.074 A 
ATOM     60  C   UNL A   1      45.326  24.862  30.372  1.00  0.00     0.031 C 
ATOM     61  C   UNL A   1      45.227  26.484  32.242  1.00  0.00     0.034 A 
BRANCH  48  62
ATOM     62  C   UNL A   1      42.031  31.298  34.406  1.00  0.00     0.023 A 
ATOM     63  C   UNL A   1      41.632  31.038  35.732  1.00  0.00     0.012 A 
ATOM     64  C   UNL A   1      42.439  32.599  34.049  1.00  0.00     0.148 A 
ATOM     65  C   UNL A   1      41.610  32.061  36.680  1.00  0.00     0.002 A 
ATOM     66  C   UNL A   1      42.461  33.601  35.011  1.00  0.00     0.091 A 
ATOM     67  F   UNL A   1      42.799  32.830  32.778  1.00  0.00    -0.205 F 
ATOM     68  C   UNL A   1      42.035  33.337  36.322  1.00  0.00     0.022 A 
BRANCH  66  69
ATOM     69  S   UNL A   1      43.071  35.257  34.674  1.00  0.00     0.127 S 
ATOM     70  O   UNL A   1      42.782  35.940  35.934  1.00  0.00    -0.237 OA
ATOM     71  O   UNL A   1      44.492  35.015  34.423  1.00  0.00    -0.237 OA
ATOM     72  O   UNL A   1      42.322  35.735  33.520  1.00  0.00    -0.744 OA
ENDBRANCH  66  69
ENDBRANCH  48  62
BRANCH  49  73
ATOM     73  C   UNL A   1      42.514  24.343  27.266  1.00  0.00     0.023 A 
ATOM     74  C   UNL A   1      43.151  24.716  26.065  1.00  0.00     0.012 A 
ATOM     75  C   UNL A   1      42.011  23.034  27.397  1.00  0.00     0.148 A 
ATOM     76  C   UNL A   1      43.248  23.817  25.003  1.00  0.00     0.002 A 
ATOM     77  C   UNL A   1      42.164  22.125  26.357  1.00  0.00     0.091 A 
ATOM     78  F   UNL A   1      41.398  22.701  28.543  1.00  0.00    -0.205 F 
ATOM     79  C   UNL A   1      42.763  22.520  25.152  1.00  0.00     0.022 A 
BRANCH  77  80
ATOM     80  S   UNL A   1      41.694  20.399  26.512  1.00  0.00     0.127 S 
ATOM     81  O   UNL A   1      42.250  20.053  27.817  1.00  0.00    -0.237 OA
ATOM     82  O   UNL A   1      40.234  20.477  26.464  1.00  0.00    -0.237 OA
ATOM     83  O   UNL A   1      42.295  19.725  25.367  1.00  0.00    -0.744 OA
ENDBRANCH  77  80
ENDBRANCH  49  73
BRANCH  61  84
ATOM     84  C   UNL A   1      46.523  25.921  32.763  1.00  0.00     0.023 A 
ATOM     85  C   UNL A   1      47.746  26.528  32.415  1.00  0.00     0.012 A 
ATOM     86  C   UNL A   1      46.521  24.841  33.668  1.00  0.00     0.148 A 
ATOM     87  C   UNL A   1      48.948  26.051  32.936  1.00  0.00     0.002 A 
ATOM     88  C   UNL A   1      47.717  24.404  34.224  1.00  0.00     0.091 A 
ATOM     89  F   UNL A   1      45.348  24.267  33.974  1.00  0.00    -0.205 F 
ATOM     90  C   UNL A   1      48.933  24.999  33.850  1.00  0.00     0.022 A 
BRANCH  88  91
ATOM     91  S   UNL A   1      47.787  23.123  35.482  1.00  0.00     0.127 S 
ATOM     92  O   UNL A   1      46.839  23.629  36.474  1.00  0.00    -0.237 OA
ATOM     93  O   UNL A   1      47.331  21.944  34.748  1.00  0.00    -0.237 OA
ATOM     94  O   UNL A   1      49.174  23.065  35.923  1.00  0.00    -0.744 OA
ENDBRANCH  88  91
ENDBRANCH  61  84
ENDBRANCH  35  36
ENDBRANCH  27  30
ENDBRANCH  25  26
ENDBRANCH   1  25
TORSDOF 17
ENDMDL
MODEL 2
REMARK VINA RESULT:     -10.5      1.699      2.786
REMARK SMILES C[C@@H](C(=O)NCCCNC(=O)c1ccc(-c2c3nc(c(-c4cccc(S(=O)(=O)[O-])c4F)c4ccc([nH]4)c(-c4cccc(S(=O)(=O)[O-])c4F)c4nc(c(-c5cccc(S(=O)(=O)[O-])c5F)c5ccc2[nH]5)C=C4)C=C3)cc1)c1cc(C(=O)c2ccccc2)ccc1O
REMARK SMILES IDX 7 1 6 2 5 3 3 4 4 5 2 7 1 8 75 9 76 10 88 11 77 12 87 13
REMARK SMILES IDX 86 14 89 15 78 17 79 18 80 19 81 20 85 21 82 22 84 23 83 24
REMARK SMILES IDX 8 25 9 26 10 27 11 29 12 30 13 31 74 32 14 33 73 34 15 35
REMARK SMILES IDX 16 36 17 37 67 38 18 39 72 40 66 41 68 42 19 43 71 44 65 45
REMARK SMILES IDX 64 46 20 48 52 49 32 50 51 51 33 52 36 53 50 54 69 55 34 56
REMARK SMILES IDX 35 57 49 59 70 60 37 61 21 62 22 63 30 64 23 65 25 66 31 67
REMARK SMILES IDX 24 68 26 69 27 70 28 71 29 72 53 73 54 74 62 75 55 76 57 77
REMARK SMILES IDX 63 78 56 79 58 80 59 81 60 82 61 83 38 84 39 85 47 86 40 87
REMARK SMILES IDX 42 88 48 89 41 90 43 91 44 92 45 93 46 94
REMARK H PARENT 5 6 89 16 9 28 68 47 36 58
REMARK Flexibility Score: inf
ROOT
ATOM      1  C   UNL A   1      34.695  34.623  28.997  1.00  0.00     0.042 C 
ENDROOT
BRANCH   1   2
ATOM      2  C   UNL A   1      33.496  35.043  29.848  1.00  0.00     0.117 C 
BRANCH   2   3
ATOM      3  N   UNL A   1      33.655  36.381  30.388  1.00  0.00    -0.356 N 
ATOM      4  C   UNL A   1      33.559  36.840  31.671  1.00  0.00     0.227 C 
ATOM      5  O   UNL A   1      33.428  38.057  31.800  1.00  0.00    -0.274 OA
ATOM      6  H   UNL A   1      33.867  37.072  29.720  1.00  0.00     0.163 HD
BRANCH   4   7
ATOM      7  C   UNL A   1      33.566  35.848  32.850  1.00  0.00     0.109 C 
ATOM      8  C   UNL A   1      33.566  36.715  34.122  1.00  0.00     0.023 C 
BRANCH   7   9
ATOM      9  C   UNL A   1      34.701  34.806  32.875  1.00  0.00     0.007 A 
ATOM     10  C   UNL A   1      36.065  35.170  32.882  1.00  0.00     0.020 A 
ATOM     11  C   UNL A   1      34.432  33.425  32.898  1.00  0.00     0.119 A 
ATOM     12  C   UNL A   1      37.092  34.221  33.042  1.00  0.00     0.023 A 
ATOM     13  C   UNL A   1      35.432  32.481  33.123  1.00  0.00     0.047 A 
ATOM     14  C   UNL A   1      36.758  32.878  33.229  1.00  0.00     0.016 A 
BRANCH  11  15
ATOM     15  O   UNL A   1      33.194  32.892  32.675  1.00  0.00    -0.508 OA
ATOM     16  H   UNL A   1      32.963  32.067  33.056  1.00  0.00     0.293 HD
ENDBRANCH  11  15
BRANCH  12  17
ATOM     17  C   UNL A   1      38.513  34.686  33.045  1.00  0.00     0.193 C 
ATOM     18  O   UNL A   1      39.017  35.162  34.057  1.00  0.00    -0.289 OA
BRANCH  17  19
ATOM     19  C   UNL A   1      39.358  34.583  31.833  1.00  0.00     0.022 A 
ATOM     20  C   UNL A   1      40.747  34.529  31.991  1.00  0.00     0.012 A 
ATOM     21  C   UNL A   1      38.795  34.561  30.551  1.00  0.00     0.012 A 
ATOM     22  C   UNL A   1      41.568  34.400  30.871  1.00  0.00     0.001 A 
ATOM     23  C   UNL A   1      39.621  34.426  29.434  1.00  0.00     0.001 A 
ATOM     24  C   UNL A   1      41.004  34.338  29.596  1.00  0.00     0.000 A 
ENDBRANCH  17  19
ENDBRANCH  12  17
ENDBRANCH   7   9
ENDBRANCH   4   7
ENDBRANCH   2   3
ENDBRANCH   1   2
BRANCH   1  25
ATOM     25  C   UNL A   1      35.138  33.175  29.190  1.00  0.00     0.118 C 
BRANCH  25  26
ATOM     26  N   UNL A   1      34.321  32.235  28.437  1.00  0.00    -0.352 N 
ATOM     27  C   UNL A   1      34.633  30.981  27.967  1.00  0.00     0.251 C 
ATOM     28  H   UNL A   1      33.409  32.543  28.233  1.00  0.00     0.163 HD
ATOM     29  O   UNL A   1      33.870  30.423  27.185  1.00  0.00    -0.269 OA
BRANCH  27  30
ATOM     30  C   UNL A   1      35.889  30.313  28.382  1.00  0.00     0.039 A 
ATOM     31  C   UNL A   1      36.996  30.374  27.531  1.00  0.00     0.014 A 
ATOM     32  C   UNL A   1      35.977  29.617  29.590  1.00  0.00     0.014 A 
ATOM     33  C   UNL A   1      38.208  29.799  27.923  1.00  0.00     0.010 A 
ATOM     34  C   UNL A   1      37.205  29.114  30.014  1.00  0.00     0.010 A 
ATOM     35  C   UNL A   1      38.336  29.198  29.186  1.00  0.00    -0.014 A 
BRANCH  35  36
ATOM     36  C   UNL A   1      39.643  28.680  29.670  1.00  0.00     0.031 A 
ATOM     37  C   UNL A   1      40.386  29.392  30.769  1.00  0.00     0.074 A 
ATOM     38  C   UNL A   1      40.208  27.622  29.053  1.00  0.00     0.049 A 
ATOM     39  N   UNL A   1      41.568  29.132  31.267  1.00  0.00    -0.248 NA
ATOM     40  C   UNL A   1      39.728  30.564  31.371  1.00  0.00     0.031 C 
ATOM     41  C   UNL A   1      39.624  26.888  27.928  1.00  0.00     0.029 A 
ATOM     42  N   UNL A   1      41.415  27.000  29.260  1.00  0.00    -0.354 N 
ATOM     43  C   UNL A   1      41.815  30.128  32.204  1.00  0.00     0.074 A 
ATOM     44  C   UNL A   1      40.668  31.010  32.194  1.00  0.00     0.031 C 
ATOM     45  C   UNL A   1      40.473  25.923  27.542  1.00  0.00     0.029 A 
ATOM     46  C   UNL A   1      41.677  25.990  28.364  1.00  0.00     0.049 A 
ATOM     47  H   UNL A   1      42.035  27.254  29.982  1.00  0.00     0.167 HD
ATOM     48  C   UNL A   1      42.889  30.283  33.014  1.00  0.00     0.034 A 
ATOM     49  C   UNL A   1      42.771  25.218  28.204  1.00  0.00     0.034 A 
ATOM     50  C   UNL A   1      44.008  29.381  33.052  1.00  0.00     0.049 A 
ATOM     51  C   UNL A   1      43.939  25.399  29.135  1.00  0.00     0.074 A 
ATOM     52  C   UNL A   1      45.091  29.393  33.914  1.00  0.00     0.029 A 
ATOM     53  N   UNL A   1      44.202  28.321  32.181  1.00  0.00    -0.354 N 
ATOM     54  N   UNL A   1      44.075  26.237  30.134  1.00  0.00    -0.248 NA
ATOM     55  C   UNL A   1      45.093  24.509  28.937  1.00  0.00     0.031 C 
ATOM     56  C   UNL A   1      45.961  28.365  33.538  1.00  0.00     0.029 A 
ATOM     57  C   UNL A   1      45.399  27.688  32.468  1.00  0.00     0.049 A 
ATOM     58  H   UNL A   1      43.580  28.057  31.465  1.00  0.00     0.167 HD
ATOM     59  C   UNL A   1      45.310  25.951  30.705  1.00  0.00     0.074 A 
ATOM     60  C   UNL A   1      45.873  24.849  29.955  1.00  0.00     0.031 C 
ATOM     61  C   UNL A   1      45.928  26.557  31.749  1.00  0.00     0.034 A 
BRANCH  48  62
ATOM     62  C   UNL A   1      42.899  31.457  33.960  1.00  0.00     0.023 A 
ATOM     63  C   UNL A   1      43.474  32.679  33.556  1.00  0.00     0.012 A 
ATOM     64  C   UNL A   1      42.266  31.373  35.216  1.00  0.00     0.148 A 
ATOM     65  C   UNL A   1      43.448  33.789  34.399  1.00  0.00     0.002 A 
ATOM     66  C   UNL A   1      42.200  32.497  36.030  1.00  0.00     0.091 A 
ATOM     67  F   UNL A   1      41.740  30.197  35.589  1.00  0.00    -0.205 F 
ATOM     68  C   UNL A   1      42.802  33.701  35.629  1.00  0.00     0.022 A 
BRANCH  66  69
ATOM     69  S   UNL A   1      41.319  32.512  37.595  1.00  0.00     0.127 S 
ATOM     70  O   UNL A   1      41.414  33.921  37.974  1.00  0.00    -0.237 OA
ATOM     71  O   UNL A   1      39.980  32.077  37.196  1.00  0.00    -0.237 OA
ATOM     72  O   UNL A   1      42.026  31.583  38.465  1.00  0.00    -0.744 OA
ENDBRANCH  66  69
ENDBRANCH  48  62
BRANCH  49  73
ATOM     73  C   UNL A   1      42.802  24.174  27.138  1.00  0.00     0.023 A 
ATOM     74  C   UNL A   1      43.481  24.435  25.931  1.00  0.00     0.012 A 
ATOM     75  C   UNL A   1      42.171  22.928  27.315  1.00  0.00     0.148 A 
ATOM     76  C   UNL A   1      43.497  23.488  24.906  1.00  0.00     0.002 A 
ATOM     77  C   UNL A   1      42.241  21.967  26.313  1.00  0.00     0.091 A 
ATOM     78  F   UNL A   1      41.519  22.703  28.465  1.00  0.00    -0.205 F 
ATOM     79  C   UNL A   1      42.885  22.253  25.099  1.00  0.00     0.022 A 
BRANCH  77  80
ATOM     80  S   UNL A   1      41.602  20.303  26.529  1.00  0.00     0.127 S 
ATOM     81  O   UNL A   1      40.161  20.538  26.561  1.00  0.00    -0.237 OA
ATOM     82  O   UNL A   1      42.090  19.632  25.325  1.00  0.00    -0.237 OA
ATOM     83  O   UNL A   1      42.193  19.814  27.768  1.00  0.00    -0.744 OA
ENDBRANCH  77  80
ENDBRANCH  49  73
BRANCH  61  84
ATOM     84  C   UNL A   1      47.269  26.023  32.178  1.00  0.00     0.023 A 
ATOM     85  C   UNL A   1      48.447  26.515  31.582  1.00  0.00     0.012 A 
ATOM     86  C   UNL A   1      47.365  25.097  33.235  1.00  0.00     0.148 A 
ATOM     87  C   UNL A   1      49.698  26.070  32.010  1.00  0.00     0.002 A 
ATOM     88  C   UNL A   1      48.615  24.698  33.692  1.00  0.00     0.091 A 
ATOM     89  F   UNL A   1      46.231  24.629  33.779  1.00  0.00    -0.205 F 
ATOM     90  C   UNL A   1      49.782  25.173  33.073  1.00  0.00     0.022 A 
BRANCH  88  91
ATOM     91  S   UNL A   1      48.825  23.624  35.118  1.00  0.00     0.127 S 
ATOM     92  O   UNL A   1      48.198  22.387  34.653  1.00  0.00    -0.237 OA
ATOM     93  O   UNL A   1      50.281  23.560  35.243  1.00  0.00    -0.237 OA
ATOM     94  O   UNL A   1      48.150  24.285  36.225  1.00  0.00    -0.744 OA
ENDBRANCH  88  91
ENDBRANCH  61  84
ENDBRANCH  35  36
ENDBRANCH  27  30
ENDBRANCH  25  26
ENDBRANCH   1  25
TORSDOF 17
ENDMDL
MODEL 3
REMARK VINA RESULT:     -10.5      5.746     10.738
REMARK SMILES C[C@@H](C(=O)NCCCNC(=O)c1ccc(-c2c3nc(c(-c4cccc(S(=O)(=O)[O-])c4F)c4ccc([nH]4)c(-c4cccc(S(=O)(=O)[O-])c4F)c4nc(c(-c5cccc(S(=O)(=O)[O-])c5F)c5ccc2[nH]5)C=C4)C=C3)cc1)c1cc(C(=O)c2ccccc2)ccc1O
REMARK SMILES IDX 7 1 6 2 5 3 3 4 4 5 2 7 1 8 75 9 76 10 88 11 77 12 87 13
REMARK SMILES IDX 86 14 89 15 78 17 79 18 80 19 81 20 85 21 82 22 84 23 83 24
REMARK SMILES IDX 8 25 9 26 10 27 11 29 12 30 13 31 74 32 14 33 73 34 15 35
REMARK SMILES IDX 16 36 17 37 67 38 18 39 72 40 66 41 68 42 19 43 71 44 65 45
REMARK SMILES IDX 64 46 20 48 52 49 32 50 51 51 33 52 36 53 50 54 69 55 34 56
REMARK SMILES IDX 35 57 49 59 70 60 37 61 21 62 22 63 30 64 23 65 25 66 31 67
REMARK SMILES IDX 24 68 26 69 27 70 28 71 29 72 53 73 54 74 62 75 55 76 57 77
REMARK SMILES IDX 63 78 56 79 58 80 59 81 60 82 61 83 38 84 39 85 47 86 40 87
REMARK SMILES IDX 42 88 48 89 41 90 43 91 44 92 45 93 46 94
REMARK H PARENT 5 6 89 16 9 28 68 47 36 58
REMARK Flexibility Score: inf
ROOT
ATOM      1  C   UNL A   1      37.364  19.361  24.985  1.00  0.00     0.042 C 
ENDROOT
BRANCH   1   2
ATOM      2  C   UNL A   1      36.055  20.151  24.996  1.00  0.00     0.117 C 
BRANCH   2   3
ATOM      3  N   UNL A   1      36.209  21.451  25.625  1.00  0.00    -0.356 N 
ATOM      4  C   UNL A   1      35.567  22.634  25.392  1.00  0.00     0.227 C 
ATOM      5  O   UNL A   1      36.112  23.640  25.845  1.00  0.00    -0.274 OA
ATOM      6  H   UNL A   1      36.889  21.485  26.335  1.00  0.00     0.163 HD
BRANCH   4   7
ATOM      7  C   UNL A   1      34.271  22.659  24.561  1.00  0.00     0.109 C 
ATOM      8  C   UNL A   1      34.582  23.536  23.334  1.00  0.00     0.023 C 
BRANCH   7   9
ATOM      9  C   UNL A   1      32.992  23.128  25.281  1.00  0.00     0.007 A 
ATOM     10  C   UNL A   1      32.705  24.492  25.508  1.00  0.00     0.020 A 
ATOM     11  C   UNL A   1      32.033  22.210  25.751  1.00  0.00     0.119 A 
ATOM     12  C   UNL A   1      31.475  24.918  26.044  1.00  0.00     0.023 A 
ATOM     13  C   UNL A   1      30.787  22.620  26.221  1.00  0.00     0.047 A 
ATOM     14  C   UNL A   1      30.492  23.972  26.337  1.00  0.00     0.016 A 
BRANCH  11  15
ATOM     15  O   UNL A   1      32.245  20.863  25.816  1.00  0.00    -0.508 OA
ATOM     16  H   UNL A   1      31.572  20.297  26.139  1.00  0.00     0.293 HD
ENDBRANCH  11  15
BRANCH  12  17
ATOM     17  C   UNL A   1      31.244  26.381  26.249  1.00  0.00     0.193 C 
ATOM     18  O   UNL A   1      31.398  26.895  27.352  1.00  0.00    -0.289 OA
BRANCH  17  19
ATOM     19  C   UNL A   1      30.827  27.258  25.130  1.00  0.00     0.022 A 
ATOM     20  C   UNL A   1      29.882  26.772  24.220  1.00  0.00     0.012 A 
ATOM     21  C   UNL A   1      31.373  28.536  24.962  1.00  0.00     0.012 A 
ATOM     22  C   UNL A   1      29.445  27.586  23.174  1.00  0.00     0.001 A 
ATOM     23  C   UNL A   1      30.928  29.347  23.917  1.00  0.00     0.001 A 
ATOM     24  C   UNL A   1      29.960  28.875  23.030  1.00  0.00     0.000 A 
ENDBRANCH  17  19
ENDBRANCH  12  17
ENDBRANCH   7   9
ENDBRANCH   4   7
ENDBRANCH   2   3
ENDBRANCH   1   2
BRANCH   1  25
ATOM     25  C   UNL A   1      38.579  20.133  25.493  1.00  0.00     0.118 C 
BRANCH  25  26
ATOM     26  N   UNL A   1      39.715  19.268  25.770  1.00  0.00    -0.352 N 
ATOM     27  C   UNL A   1      40.995  19.594  26.152  1.00  0.00     0.251 C 
ATOM     28  H   UNL A   1      39.542  18.304  25.671  1.00  0.00     0.163 HD
ATOM     29  O   UNL A   1      41.864  18.728  26.149  1.00  0.00    -0.269 OA
BRANCH  27  30
ATOM     30  C   UNL A   1      41.333  20.983  26.542  1.00  0.00     0.039 A 
ATOM     31  C   UNL A   1      42.020  21.196  27.741  1.00  0.00     0.014 A 
ATOM     32  C   UNL A   1      40.965  22.071  25.747  1.00  0.00     0.014 A 
ATOM     33  C   UNL A   1      42.398  22.492  28.105  1.00  0.00     0.010 A 
ATOM     34  C   UNL A   1      41.411  23.351  26.072  1.00  0.00     0.010 A 
ATOM     35  C   UNL A   1      42.132  23.578  27.254  1.00  0.00    -0.014 A 
BRANCH  35  36
ATOM     36  C   UNL A   1      42.623  24.946  27.566  1.00  0.00     0.031 A 
ATOM     37  C   UNL A   1      41.708  25.959  28.202  1.00  0.00     0.074 A 
ATOM     38  C   UNL A   1      43.866  25.308  27.189  1.00  0.00     0.049 A 
ATOM     39  N   UNL A   1      41.937  27.218  28.477  1.00  0.00    -0.248 NA
ATOM     40  C   UNL A   1      40.350  25.507  28.551  1.00  0.00     0.031 C 
ATOM     41  C   UNL A   1      44.827  24.442  26.500  1.00  0.00     0.029 A 
ATOM     42  N   UNL A   1      44.525  26.508  27.299  1.00  0.00    -0.354 N 
ATOM     43  C   UNL A   1      40.745  27.719  28.987  1.00  0.00     0.074 A 
ATOM     44  C   UNL A   1      39.789  26.634  28.968  1.00  0.00     0.031 C 
ATOM     45  C   UNL A   1      45.945  25.139  26.246  1.00  0.00     0.029 A 
ATOM     46  C   UNL A   1      45.772  26.510  26.716  1.00  0.00     0.049 A 
ATOM     47  H   UNL A   1      44.142  27.294  27.751  1.00  0.00     0.167 HD
ATOM     48  C   UNL A   1      40.478  28.963  29.450  1.00  0.00     0.034 A 
ATOM     49  C   UNL A   1      46.667  27.505  26.557  1.00  0.00     0.034 A 
ATOM     50  C   UNL A   1      41.443  30.028  29.509  1.00  0.00     0.049 A 
ATOM     51  C   UNL A   1      46.350  28.871  27.102  1.00  0.00     0.074 A 
ATOM     52  C   UNL A   1      41.298  31.288  30.060  1.00  0.00     0.029 A 
ATOM     53  N   UNL A   1      42.722  29.968  28.979  1.00  0.00    -0.354 N 
ATOM     54  N   UNL A   1      45.281  29.275  27.744  1.00  0.00    -0.248 NA
ATOM     55  C   UNL A   1      47.375  29.912  26.931  1.00  0.00     0.031 C 
ATOM     56  C   UNL A   1      42.475  32.006  29.828  1.00  0.00     0.029 A 
ATOM     57  C   UNL A   1      43.368  31.177  29.168  1.00  0.00     0.049 A 
ATOM     58  H   UNL A   1      43.113  29.181  28.535  1.00  0.00     0.167 HD
ATOM     59  C   UNL A   1      45.518  30.602  28.082  1.00  0.00     0.074 A 
ATOM     60  C   UNL A   1      46.841  30.928  27.596  1.00  0.00     0.031 C 
ATOM     61  C   UNL A   1      44.707  31.476  28.727  1.00  0.00     0.034 A 
BRANCH  48  62
ATOM     62  C   UNL A   1      39.090  29.243  29.968  1.00  0.00     0.023 A 
ATOM     63  C   UNL A   1      38.743  28.869  31.282  1.00  0.00     0.012 A 
ATOM     64  C   UNL A   1      38.159  29.950  29.181  1.00  0.00     0.148 A 
ATOM     65  C   UNL A   1      37.480  29.164  31.794  1.00  0.00     0.002 A 
ATOM     66  C   UNL A   1      36.920  30.284  29.715  1.00  0.00     0.091 A 
ATOM     67  F   UNL A   1      38.502  30.282  27.928  1.00  0.00    -0.205 F 
ATOM     68  C   UNL A   1      36.575  29.881  31.016  1.00  0.00     0.022 A 
BRANCH  66  69
ATOM     69  S   UNL A   1      35.716  31.277  28.827  1.00  0.00     0.127 S 
ATOM     70  O   UNL A   1      36.572  32.262  28.169  1.00  0.00    -0.237 OA
ATOM     71  O   UNL A   1      35.113  30.293  27.926  1.00  0.00    -0.237 OA
ATOM     72  O   UNL A   1      34.812  31.812  29.836  1.00  0.00    -0.744 OA
ENDBRANCH  66  69
ENDBRANCH  48  62
BRANCH  49  73
ATOM     73  C   UNL A   1      47.970  27.240  25.879  1.00  0.00     0.023 A 
ATOM     74  C   UNL A   1      49.057  26.754  26.632  1.00  0.00     0.012 A 
ATOM     75  C   UNL A   1      48.136  27.459  24.498  1.00  0.00     0.148 A 
ATOM     76  C   UNL A   1      50.296  26.529  26.030  1.00  0.00     0.002 A 
ATOM     77  C   UNL A   1      49.354  27.178  23.893  1.00  0.00     0.091 A 
ATOM     78  F   UNL A   1      47.093  27.934  23.800  1.00  0.00    -0.205 F 
ATOM     79  C   UNL A   1      50.442  26.733  24.660  1.00  0.00     0.022 A 
BRANCH  77  80
ATOM     80  S   UNL A   1      49.593  27.279  22.116  1.00  0.00     0.127 S 
ATOM     81  O   UNL A   1      51.012  26.959  21.985  1.00  0.00    -0.237 OA
ATOM     82  O   UNL A   1      48.680  26.244  21.629  1.00  0.00    -0.237 OA
ATOM     83  O   UNL A   1      49.210  28.635  21.745  1.00  0.00    -0.744 OA
ENDBRANCH  77  80
ENDBRANCH  49  73
BRANCH  61  84
ATOM     84  C   UNL A   1      45.232  32.864  28.986  1.00  0.00     0.023 A 
ATOM     85  C   UNL A   1      45.999  33.123  30.140  1.00  0.00     0.012 A 
ATOM     86  C   UNL A   1      45.038  33.890  28.040  1.00  0.00     0.148 A 
ATOM     87  C   UNL A   1      46.538  34.389  30.363  1.00  0.00     0.002 A 
ATOM     88  C   UNL A   1      45.622  35.134  28.243  1.00  0.00     0.091 A 
ATOM     89  F   UNL A   1      44.292  33.627  26.957  1.00  0.00    -0.205 F 
ATOM     90  C   UNL A   1      46.362  35.389  29.409  1.00  0.00     0.022 A 
BRANCH  88  91
ATOM     91  S   UNL A   1      45.534  36.453  27.026  1.00  0.00     0.127 S 
ATOM     92  O   UNL A   1      46.269  37.526  27.696  1.00  0.00    -0.237 OA
ATOM     93  O   UNL A   1      46.226  35.862  25.880  1.00  0.00    -0.237 OA
ATOM     94  O   UNL A   1      44.117  36.712  26.812  1.00  0.00    -0.744 OA
ENDBRANCH  88  91
ENDBRANCH  61  84
ENDBRANCH  35  36
ENDBRANCH  27  30
ENDBRANCH  25  26
ENDBRANCH   1  25
TORSDOF 17
ENDMDL
