MODEL 1
REMARK VINA RESULT:     -12.2      0.000      0.000
REMARK SMILES CC[C@@H](C)[C@@H](C(=O)NCCCNC(=O)c1ccc(-c2c3nc(c(-c4cccc(S(=O)(=O)[O-])c4F)c4ccc([nH]4)c(-c4cccc(S(=O)(=O)[O-])c4F)c4nc(c(-c5cccc(S(=O)(=O)[O-])c5F)c5ccc2[nH]5)C=C4)C=C3)cc1)N1C(=O)/C(=C/c2ccc(O)cc2)SC1=S
REMARK SMILES IDX 10 1 9 2 8 3 6 4 7 5 5 7 3 8 4 9 2 10 1 11 78 12 79 13 91 14
REMARK SMILES IDX 80 15 81 16 90 17 92 18 82 19 83 20 84 21 89 22 85 23 88 24
REMARK SMILES IDX 86 25 87 26 11 28 12 29 13 30 14 32 15 33 16 34 77 35 17 36
REMARK SMILES IDX 76 37 18 38 19 39 20 40 70 41 21 42 75 43 69 44 71 45 22 46
REMARK SMILES IDX 74 47 68 48 67 49 23 51 55 52 35 53 54 54 36 55 39 56 53 57
REMARK SMILES IDX 72 58 37 59 38 60 52 62 73 63 40 64 24 65 25 66 33 67 26 68
REMARK SMILES IDX 28 69 34 70 27 71 29 72 30 73 31 74 32 75 56 76 57 77 65 78
REMARK SMILES IDX 58 79 60 80 66 81 59 82 61 83 62 84 63 85 64 86 41 87 42 88
REMARK SMILES IDX 50 89 43 90 45 91 51 92 44 93 46 94 47 95 48 96 49 97
REMARK H PARENT 8 6 87 27 12 31 71 50 39 61
REMARK Flexibility Score: inf
ROOT
ATOM      1  C   UNL A   1      32.148  28.571  26.150  1.00  0.00     0.042 C 
ENDROOT
BRANCH   1   2
ATOM      2  C   UNL A   1      32.738  27.307  26.780  1.00  0.00     0.117 C 
BRANCH   2   3
ATOM      3  N   UNL A   1      31.750  26.253  26.952  1.00  0.00    -0.354 N 
ATOM      4  C   UNL A   1      31.439  25.142  26.227  1.00  0.00     0.243 C 
ATOM      5  O   UNL A   1      30.665  24.359  26.796  1.00  0.00    -0.273 OA
ATOM      6  H   UNL A   1      31.194  26.364  27.756  1.00  0.00     0.163 HD
BRANCH   4   7
ATOM      7  C   UNL A   1      32.065  24.814  24.833  1.00  0.00     0.184 C 
BRANCH   7   8
ATOM      8  C   UNL A   1      31.159  24.809  23.553  1.00  0.00     0.018 C 
ATOM      9  C   UNL A   1      31.993  25.179  22.315  1.00  0.00     0.010 C 
BRANCH   8  10
ATOM     10  C   UNL A   1      29.948  25.727  23.680  1.00  0.00     0.002 C 
ATOM     11  C   UNL A   1      30.150  27.180  23.281  1.00  0.00     0.004 C 
ENDBRANCH   8  10
ENDBRANCH   7   8
BRANCH   7  12
ATOM     12  N   UNL A   1      32.727  23.487  25.012  1.00  0.00    -0.280 N 
ATOM     13  C   UNL A   1      31.958  22.332  24.909  1.00  0.00     0.266 C 
ATOM     14  C   UNL A   1      34.048  23.303  25.357  1.00  0.00     0.149 C 
ATOM     15  O   UNL A   1      30.763  22.257  24.681  1.00  0.00    -0.268 OA
ATOM     16  C   UNL A   1      32.805  21.128  25.082  1.00  0.00     0.081 C 
ATOM     17  S   UNL A   1      34.417  21.581  25.439  1.00  0.00    -0.054 SA
ATOM     18  S   UNL A   1      35.218  24.460  25.638  1.00  0.00    -0.052 S 
ATOM     19  C   UNL A   1      32.286  19.905  24.903  1.00  0.00     0.029 C 
BRANCH  19  20
ATOM     20  C   UNL A   1      33.004  18.633  24.977  1.00  0.00    -0.024 A 
ATOM     21  C   UNL A   1      34.187  18.475  24.244  1.00  0.00     0.012 A 
ATOM     22  C   UNL A   1      32.513  17.562  25.732  1.00  0.00     0.012 A 
ATOM     23  C   UNL A   1      34.891  17.272  24.298  1.00  0.00     0.047 A 
ATOM     24  C   UNL A   1      33.217  16.358  25.789  1.00  0.00     0.047 A 
ATOM     25  C   UNL A   1      34.405  16.228  25.076  1.00  0.00     0.115 A 
BRANCH  25  26
ATOM     26  O   UNL A   1      35.130  15.073  25.116  1.00  0.00    -0.508 OA
ATOM     27  H   UNL A   1      34.921  14.368  24.535  1.00  0.00     0.293 HD
ENDBRANCH  25  26
ENDBRANCH  19  20
ENDBRANCH   7  12
ENDBRANCH   4   7
ENDBRANCH   2   3
ENDBRANCH   1   2
BRANCH   1  28
ATOM     28  C   UNL A   1      33.182  29.567  25.648  1.00  0.00     0.118 C 
BRANCH  28  29
ATOM     29  N   UNL A   1      32.912  30.908  26.128  1.00  0.00    -0.352 N 
ATOM     30  C   UNL A   1      33.490  31.596  27.169  1.00  0.00     0.251 C 
ATOM     31  H   UNL A   1      32.212  31.398  25.639  1.00  0.00     0.163 HD
ATOM     32  O   UNL A   1      32.935  32.610  27.589  1.00  0.00    -0.269 OA
BRANCH  30  33
ATOM     33  C   UNL A   1      34.755  31.131  27.794  1.00  0.00     0.039 A 
ATOM     34  C   UNL A   1      34.810  29.839  28.324  1.00  0.00     0.014 A 
ATOM     35  C   UNL A   1      35.865  31.972  27.922  1.00  0.00     0.014 A 
ATOM     36  C   UNL A   1      35.976  29.386  28.952  1.00  0.00     0.010 A 
ATOM     37  C   UNL A   1      37.058  31.485  28.453  1.00  0.00     0.010 A 
ATOM     38  C   UNL A   1      37.118  30.200  29.010  1.00  0.00    -0.014 A 
BRANCH  38  39
ATOM     39  C   UNL A   1      38.359  29.753  29.699  1.00  0.00     0.031 A 
ATOM     40  C   UNL A   1      38.704  30.299  31.064  1.00  0.00     0.074 A 
ATOM     41  C   UNL A   1      39.209  28.907  29.083  1.00  0.00     0.049 A 
ATOM     42  N   UNL A   1      39.761  30.074  31.802  1.00  0.00    -0.248 NA
ATOM     43  C   UNL A   1      37.751  31.246  31.666  1.00  0.00     0.031 C 
ATOM     44  C   UNL A   1      39.032  28.361  27.735  1.00  0.00     0.029 A 
ATOM     45  N   UNL A   1      40.406  28.377  29.499  1.00  0.00    -0.354 N 
ATOM     46  C   UNL A   1      39.620  30.881  32.926  1.00  0.00     0.074 A 
ATOM     47  C   UNL A   1      38.396  31.631  32.757  1.00  0.00     0.031 C 
ATOM     48  C   UNL A   1      40.075  27.567  27.441  1.00  0.00     0.029 A 
ATOM     49  C   UNL A   1      41.011  27.573  28.561  1.00  0.00     0.049 A 
ATOM     50  H   UNL A   1      40.794  28.555  30.386  1.00  0.00     0.167 HD
ATOM     51  C   UNL A   1      40.416  30.968  34.019  1.00  0.00     0.034 A 
ATOM     52  C   UNL A   1      42.191  26.920  28.595  1.00  0.00     0.034 A 
ATOM     53  C   UNL A   1      41.603  30.182  34.211  1.00  0.00     0.049 A 
ATOM     54  C   UNL A   1      43.035  26.999  29.839  1.00  0.00     0.074 A 
ATOM     55  C   UNL A   1      42.431  30.130  35.320  1.00  0.00     0.029 A 
ATOM     56  N   UNL A   1      42.136  29.312  33.274  1.00  0.00    -0.354 N 
ATOM     57  N   UNL A   1      42.807  27.652  30.952  1.00  0.00    -0.248 NA
ATOM     58  C   UNL A   1      44.280  26.216  29.848  1.00  0.00     0.031 C 
ATOM     59  C   UNL A   1      43.480  29.249  35.040  1.00  0.00     0.029 A 
ATOM     60  C   UNL A   1      43.285  28.724  33.773  1.00  0.00     0.049 A 
ATOM     61  H   UNL A   1      41.755  29.138  32.383  1.00  0.00     0.167 HD
ATOM     62  C   UNL A   1      43.855  27.327  31.807  1.00  0.00     0.074 A 
ATOM     63  C   UNL A   1      44.708  26.404  31.089  1.00  0.00     0.031 C 
ATOM     64  C   UNL A   1      44.093  27.762  33.069  1.00  0.00     0.034 A 
BRANCH  51  65
ATOM     65  C   UNL A   1      40.001  31.914  35.118  1.00  0.00     0.023 A 
ATOM     66  C   UNL A   1      40.446  33.252  35.093  1.00  0.00     0.012 A 
ATOM     67  C   UNL A   1      39.124  31.497  36.139  1.00  0.00     0.148 A 
ATOM     68  C   UNL A   1      40.059  34.149  36.087  1.00  0.00     0.002 A 
ATOM     69  C   UNL A   1      38.703  32.411  37.099  1.00  0.00     0.091 A 
ATOM     70  F   UNL A   1      38.726  30.218  36.158  1.00  0.00    -0.205 F 
ATOM     71  C   UNL A   1      39.180  33.732  37.083  1.00  0.00     0.022 A 
BRANCH  69  72
ATOM     72  S   UNL A   1      37.508  31.997  38.374  1.00  0.00     0.127 S 
ATOM     73  O   UNL A   1      36.431  32.945  38.088  1.00  0.00    -0.237 OA
ATOM     74  O   UNL A   1      37.194  30.604  38.059  1.00  0.00    -0.237 OA
ATOM     75  O   UNL A   1      38.191  32.195  39.645  1.00  0.00    -0.744 OA
ENDBRANCH  69  72
ENDBRANCH  51  65
BRANCH  52  76
ATOM     76  C   UNL A   1      42.615  26.082  27.437  1.00  0.00     0.023 A 
ATOM     77  C   UNL A   1      43.436  26.641  26.439  1.00  0.00     0.012 A 
ATOM     78  C   UNL A   1      42.224  24.733  27.327  1.00  0.00     0.148 A 
ATOM     79  C   UNL A   1      43.829  25.885  25.333  1.00  0.00     0.002 A 
ATOM     80  C   UNL A   1      42.667  23.970  26.254  1.00  0.00     0.091 A 
ATOM     81  F   UNL A   1      41.435  24.221  28.282  1.00  0.00    -0.205 F 
ATOM     82  C   UNL A   1      43.453  24.548  25.246  1.00  0.00     0.022 A 
BRANCH  80  83
ATOM     83  S   UNL A   1      42.342  22.207  26.126  1.00  0.00     0.127 S 
ATOM     84  O   UNL A   1      42.841  21.717  27.408  1.00  0.00    -0.237 OA
ATOM     85  O   UNL A   1      40.887  22.179  25.980  1.00  0.00    -0.237 OA
ATOM     86  O   UNL A   1      43.071  21.757  24.948  1.00  0.00    -0.744 OA
ENDBRANCH  80  83
ENDBRANCH  52  76
BRANCH  64  87
ATOM     87  C   UNL A   1      45.296  27.206  33.788  1.00  0.00     0.023 A 
ATOM     88  C   UNL A   1      46.531  27.876  33.722  1.00  0.00     0.012 A 
ATOM     89  C   UNL A   1      45.174  26.057  34.594  1.00  0.00     0.148 A 
ATOM     90  C   UNL A   1      47.638  27.392  34.419  1.00  0.00     0.002 A 
ATOM     91  C   UNL A   1      46.265  25.610  35.327  1.00  0.00     0.091 A 
ATOM     92  F   UNL A   1      43.992  25.422  34.630  1.00  0.00    -0.205 F 
ATOM     93  C   UNL A   1      47.502  26.268  35.230  1.00  0.00     0.022 A 
BRANCH  91  94
ATOM     94  S   UNL A   1      46.155  24.234  36.477  1.00  0.00     0.127 S 
ATOM     95  O   UNL A   1      47.510  24.195  37.025  1.00  0.00    -0.237 OA
ATOM     96  O   UNL A   1      45.130  24.694  37.414  1.00  0.00    -0.237 OA
ATOM     97  O   UNL A   1      45.770  23.076  35.681  1.00  0.00    -0.744 OA
ENDBRANCH  91  94
ENDBRANCH  64  87
ENDBRANCH  38  39
ENDBRANCH  30  33
ENDBRANCH  28  29
ENDBRANCH   1  28
TORSDOF 18
ENDMDL
MODEL 2
REMARK VINA RESULT:     -12.0      2.319      2.755
REMARK SMILES CC[C@@H](C)[C@@H](C(=O)NCCCNC(=O)c1ccc(-c2c3nc(c(-c4cccc(S(=O)(=O)[O-])c4F)c4ccc([nH]4)c(-c4cccc(S(=O)(=O)[O-])c4F)c4nc(c(-c5cccc(S(=O)(=O)[O-])c5F)c5ccc2[nH]5)C=C4)C=C3)cc1)N1C(=O)/C(=C/c2ccc(O)cc2)SC1=S
REMARK SMILES IDX 10 1 9 2 8 3 6 4 7 5 5 7 3 8 4 9 2 10 1 11 78 12 79 13 91 14
REMARK SMILES IDX 80 15 81 16 90 17 92 18 82 19 83 20 84 21 89 22 85 23 88 24
REMARK SMILES IDX 86 25 87 26 11 28 12 29 13 30 14 32 15 33 16 34 77 35 17 36
REMARK SMILES IDX 76 37 18 38 19 39 20 40 70 41 21 42 75 43 69 44 71 45 22 46
REMARK SMILES IDX 74 47 68 48 67 49 23 51 55 52 35 53 54 54 36 55 39 56 53 57
REMARK SMILES IDX 72 58 37 59 38 60 52 62 73 63 40 64 24 65 25 66 33 67 26 68
REMARK SMILES IDX 28 69 34 70 27 71 29 72 30 73 31 74 32 75 56 76 57 77 65 78
REMARK SMILES IDX 58 79 60 80 66 81 59 82 61 83 62 84 63 85 64 86 41 87 42 88
REMARK SMILES IDX 50 89 43 90 45 91 51 92 44 93 46 94 47 95 48 96 49 97
REMARK H PARENT 8 6 87 27 12 31 71 50 39 61
REMARK Flexibility Score: inf
ROOT
ATOM      1  C   UNL A   1      33.508  28.984  25.806  1.00  0.00     0.042 C 
ENDROOT
BRANCH   1   2
ATOM      2  C   UNL A   1      33.867  27.545  25.427  1.00  0.00     0.117 C 
BRANCH   2   3
ATOM      3  N   UNL A   1      32.858  26.586  25.848  1.00  0.00    -0.354 N 
ATOM      4  C   UNL A   1      32.458  25.380  25.357  1.00  0.00     0.243 C 
ATOM      5  O   UNL A   1      31.700  24.748  26.105  1.00  0.00    -0.273 OA
ATOM      6  H   UNL A   1      32.363  26.865  26.652  1.00  0.00     0.163 HD
BRANCH   4   7
ATOM      7  C   UNL A   1      32.974  24.779  24.010  1.00  0.00     0.184 C 
BRANCH   7   8
ATOM      8  C   UNL A   1      32.054  24.811  22.740  1.00  0.00     0.018 C 
ATOM      9  C   UNL A   1      32.904  25.038  21.478  1.00  0.00     0.010 C 
BRANCH   8  10
ATOM     10  C   UNL A   1      30.945  25.854  22.836  1.00  0.00     0.002 C 
ATOM     11  C   UNL A   1      31.291  27.260  22.375  1.00  0.00     0.004 C 
ENDBRANCH   8  10
ENDBRANCH   7   8
BRANCH   7  12
ATOM     12  N   UNL A   1      33.365  23.376  24.338  1.00  0.00    -0.280 N 
ATOM     13  C   UNL A   1      32.444  22.354  24.130  1.00  0.00     0.266 C 
ATOM     14  C   UNL A   1      34.558  23.003  24.918  1.00  0.00     0.149 C 
ATOM     15  O   UNL A   1      31.310  22.458  23.694  1.00  0.00    -0.268 OA
ATOM     16  C   UNL A   1      33.036  21.042  24.483  1.00  0.00     0.081 C 
ATOM     17  S   UNL A   1      34.616  21.252  25.110  1.00  0.00    -0.054 SA
ATOM     18  S   UNL A   1      35.839  23.973  25.373  1.00  0.00    -0.052 S 
ATOM     19  C   UNL A   1      32.360  19.909  24.246  1.00  0.00     0.029 C 
BRANCH  19  20
ATOM     20  C   UNL A   1      32.833  18.545  24.481  1.00  0.00    -0.024 A 
ATOM     21  C   UNL A   1      32.529  17.919  25.695  1.00  0.00     0.012 A 
ATOM     22  C   UNL A   1      33.614  17.872  23.534  1.00  0.00     0.012 A 
ATOM     23  C   UNL A   1      32.969  16.618  25.943  1.00  0.00     0.047 A 
ATOM     24  C   UNL A   1      34.052  16.570  23.779  1.00  0.00     0.047 A 
ATOM     25  C   UNL A   1      33.718  15.952  24.981  1.00  0.00     0.115 A 
BRANCH  25  26
ATOM     26  O   UNL A   1      34.115  14.676  25.253  1.00  0.00    -0.508 OA
ATOM     27  H   UNL A   1      34.951  14.520  25.648  1.00  0.00     0.293 HD
ENDBRANCH  25  26
ENDBRANCH  19  20
ENDBRANCH   7  12
ENDBRANCH   4   7
ENDBRANCH   2   3
ENDBRANCH   1   2
BRANCH   1  28
ATOM     28  C   UNL A   1      33.574  29.277  27.297  1.00  0.00     0.118 C 
BRANCH  28  29
ATOM     29  N   UNL A   1      33.652  30.702  27.560  1.00  0.00    -0.352 N 
ATOM     30  C   UNL A   1      34.589  31.406  28.280  1.00  0.00     0.251 C 
ATOM     31  H   UNL A   1      32.930  31.243  27.167  1.00  0.00     0.163 HD
ATOM     32  O   UNL A   1      34.330  32.560  28.617  1.00  0.00    -0.269 OA
BRANCH  30  33
ATOM     33  C   UNL A   1      35.888  30.797  28.662  1.00  0.00     0.039 A 
ATOM     34  C   UNL A   1      35.911  29.841  29.682  1.00  0.00     0.014 A 
ATOM     35  C   UNL A   1      37.091  31.199  28.074  1.00  0.00     0.014 A 
ATOM     36  C   UNL A   1      37.125  29.278  30.090  1.00  0.00     0.010 A 
ATOM     37  C   UNL A   1      38.285  30.561  28.407  1.00  0.00     0.010 A 
ATOM     38  C   UNL A   1      38.324  29.621  29.445  1.00  0.00    -0.014 A 
BRANCH  38  39
ATOM     39  C   UNL A   1      39.631  29.057  29.881  1.00  0.00     0.031 A 
ATOM     40  C   UNL A   1      40.388  29.699  31.018  1.00  0.00     0.074 A 
ATOM     41  C   UNL A   1      40.172  28.013  29.222  1.00  0.00     0.049 A 
ATOM     42  N   UNL A   1      41.561  29.390  31.509  1.00  0.00    -0.248 NA
ATOM     43  C   UNL A   1      39.759  30.859  31.672  1.00  0.00     0.031 C 
ATOM     44  C   UNL A   1      39.579  27.345  28.061  1.00  0.00     0.029 A 
ATOM     45  N   UNL A   1      41.354  27.343  29.420  1.00  0.00    -0.354 N 
ATOM     46  C   UNL A   1      41.827  30.339  32.491  1.00  0.00     0.074 A 
ATOM     47  C   UNL A   1      40.712  31.259  32.501  1.00  0.00     0.031 C 
ATOM     48  C   UNL A   1      40.395  26.358  27.656  1.00  0.00     0.029 A 
ATOM     49  C   UNL A   1      41.582  26.341  28.505  1.00  0.00     0.049 A 
ATOM     50  H   UNL A   1      41.980  27.559  30.149  1.00  0.00     0.167 HD
ATOM     51  C   UNL A   1      42.884  30.422  33.334  1.00  0.00     0.034 A 
ATOM     52  C   UNL A   1      42.633  25.508  28.360  1.00  0.00     0.034 A 
ATOM     53  C   UNL A   1      43.965  29.477  33.360  1.00  0.00     0.049 A 
ATOM     54  C   UNL A   1      43.775  25.593  29.338  1.00  0.00     0.074 A 
ATOM     55  C   UNL A   1      45.039  29.421  34.233  1.00  0.00     0.029 A 
ATOM     56  N   UNL A   1      44.116  28.423  32.473  1.00  0.00    -0.354 N 
ATOM     57  N   UNL A   1      43.933  26.405  30.354  1.00  0.00    -0.248 NA
ATOM     58  C   UNL A   1      44.864  24.619  29.174  1.00  0.00     0.031 C 
ATOM     59  C   UNL A   1      45.852  28.349  33.855  1.00  0.00     0.029 A 
ATOM     60  C   UNL A   1      45.266  27.714  32.771  1.00  0.00     0.049 A 
ATOM     61  H   UNL A   1      43.496  28.209  31.739  1.00  0.00     0.167 HD
ATOM     62  C   UNL A   1      45.114  26.014  30.975  1.00  0.00     0.074 A 
ATOM     63  C   UNL A   1      45.622  24.880  30.231  1.00  0.00     0.031 C 
ATOM     64  C   UNL A   1      45.729  26.552  32.058  1.00  0.00     0.034 A 
BRANCH  51  65
ATOM     65  C   UNL A   1      42.899  31.551  34.334  1.00  0.00     0.023 A 
ATOM     66  C   UNL A   1      43.603  32.737  34.040  1.00  0.00     0.012 A 
ATOM     67  C   UNL A   1      42.168  31.462  35.536  1.00  0.00     0.148 A 
ATOM     68  C   UNL A   1      43.614  33.800  34.942  1.00  0.00     0.002 A 
ATOM     69  C   UNL A   1      42.143  32.546  36.407  1.00  0.00     0.091 A 
ATOM     70  F   UNL A   1      41.519  30.322  35.808  1.00  0.00    -0.205 F 
ATOM     71  C   UNL A   1      42.875  33.709  36.118  1.00  0.00     0.022 A 
BRANCH  69  72
ATOM     72  S   UNL A   1      41.156  32.563  37.907  1.00  0.00     0.127 S 
ATOM     73  O   UNL A   1      39.897  31.985  37.439  1.00  0.00    -0.237 OA
ATOM     74  O   UNL A   1      41.932  31.695  38.793  1.00  0.00    -0.237 OA
ATOM     75  O   UNL A   1      41.085  33.955  38.327  1.00  0.00    -0.744 OA
ENDBRANCH  69  72
ENDBRANCH  51  65
BRANCH  52  76
ATOM     76  C   UNL A   1      42.626  24.476  27.283  1.00  0.00     0.023 A 
ATOM     77  C   UNL A   1      43.222  24.766  26.041  1.00  0.00     0.012 A 
ATOM     78  C   UNL A   1      42.049  23.208  27.488  1.00  0.00     0.148 A 
ATOM     79  C   UNL A   1      43.210  23.826  25.008  1.00  0.00     0.002 A 
ATOM     80  C   UNL A   1      42.091  22.257  26.476  1.00  0.00     0.091 A 
ATOM     81  F   UNL A   1      41.478  22.954  28.674  1.00  0.00    -0.205 F 
ATOM     82  C   UNL A   1      42.654  22.569  25.229  1.00  0.00     0.022 A 
BRANCH  80  83
ATOM     83  S   UNL A   1      41.519  20.570  26.714  1.00  0.00     0.127 S 
ATOM     84  O   UNL A   1      42.234  20.180  27.926  1.00  0.00    -0.237 OA
ATOM     85  O   UNL A   1      40.078  20.762  26.882  1.00  0.00    -0.237 OA
ATOM     86  O   UNL A   1      41.890  19.854  25.501  1.00  0.00    -0.744 OA
ENDBRANCH  80  83
ENDBRANCH  52  76
BRANCH  64  87
ATOM     87  C   UNL A   1      46.992  25.892  32.547  1.00  0.00     0.023 A 
ATOM     88  C   UNL A   1      46.944  24.982  33.620  1.00  0.00     0.012 A 
ATOM     89  C   UNL A   1      48.215  26.120  31.886  1.00  0.00     0.148 A 
ATOM     90  C   UNL A   1      48.102  24.335  34.052  1.00  0.00     0.002 A 
ATOM     91  C   UNL A   1      49.354  25.431  32.287  1.00  0.00     0.091 A 
ATOM     92  F   UNL A   1      48.244  27.003  30.878  1.00  0.00    -0.205 F 
ATOM     93  C   UNL A   1      49.302  24.549  33.378  1.00  0.00     0.022 A 
BRANCH  91  94
ATOM     94  S   UNL A   1      50.917  25.567  31.413  1.00  0.00     0.127 S 
ATOM     95  O   UNL A   1      50.528  25.213  30.049  1.00  0.00    -0.237 OA
ATOM     96  O   UNL A   1      51.259  26.977  31.604  1.00  0.00    -0.237 OA
ATOM     97  O   UNL A   1      51.824  24.632  32.065  1.00  0.00    -0.744 OA
ENDBRANCH  91  94
ENDBRANCH  64  87
ENDBRANCH  38  39
ENDBRANCH  30  33
ENDBRANCH  28  29
ENDBRANCH   1  28
TORSDOF 18
ENDMDL
MODEL 3
REMARK VINA RESULT:     -11.9      2.383      5.138
REMARK SMILES CC[C@@H](C)[C@@H](C(=O)NCCCNC(=O)c1ccc(-c2c3nc(c(-c4cccc(S(=O)(=O)[O-])c4F)c4ccc([nH]4)c(-c4cccc(S(=O)(=O)[O-])c4F)c4nc(c(-c5cccc(S(=O)(=O)[O-])c5F)c5ccc2[nH]5)C=C4)C=C3)cc1)N1C(=O)/C(=C/c2ccc(O)cc2)SC1=S
REMARK SMILES IDX 10 1 9 2 8 3 6 4 7 5 5 7 3 8 4 9 2 10 1 11 78 12 79 13 91 14
REMARK SMILES IDX 80 15 81 16 90 17 92 18 82 19 83 20 84 21 89 22 85 23 88 24
REMARK SMILES IDX 86 25 87 26 11 28 12 29 13 30 14 32 15 33 16 34 77 35 17 36
REMARK SMILES IDX 76 37 18 38 19 39 20 40 70 41 21 42 75 43 69 44 71 45 22 46
REMARK SMILES IDX 74 47 68 48 67 49 23 51 55 52 35 53 54 54 36 55 39 56 53 57
REMARK SMILES IDX 72 58 37 59 38 60 52 62 73 63 40 64 24 65 25 66 33 67 26 68
REMARK SMILES IDX 28 69 34 70 27 71 29 72 30 73 31 74 32 75 56 76 57 77 65 78
REMARK SMILES IDX 58 79 60 80 66 81 59 82 61 83 62 84 63 85 64 86 41 87 42 88
REMARK SMILES IDX 50 89 43 90 45 91 51 92 44 93 46 94 47 95 48 96 49 97
REMARK H PARENT 8 6 87 27 12 31 71 50 39 61
REMARK Flexibility Score: inf
ROOT
ATOM      1  C   UNL A   1      32.072  28.391  26.619  1.00  0.00     0.042 C 
ENDROOT
BRANCH   1   2
ATOM      2  C   UNL A   1      32.498  26.930  26.449  1.00  0.00     0.117 C 
BRANCH   2   3
ATOM      3  N   UNL A   1      31.433  25.994  26.773  1.00  0.00    -0.354 N 
ATOM      4  C   UNL A   1      30.827  24.995  26.073  1.00  0.00     0.243 C 
ATOM      5  O   UNL A   1      30.089  24.268  26.752  1.00  0.00    -0.273 OA
ATOM      6  H   UNL A   1      31.078  26.105  27.685  1.00  0.00     0.163 HD
BRANCH   4   7
ATOM      7  C   UNL A   1      31.096  24.711  24.560  1.00  0.00     0.184 C 
BRANCH   7   8
ATOM      8  C   UNL A   1      32.481  24.127  24.112  1.00  0.00     0.018 C 
ATOM      9  C   UNL A   1      32.272  22.828  23.315  1.00  0.00     0.010 C 
BRANCH   8  10
ATOM     10  C   UNL A   1      33.433  23.894  25.280  1.00  0.00     0.002 C 
ATOM     11  C   UNL A   1      34.804  23.333  24.941  1.00  0.00     0.004 C 
ENDBRANCH   8  10
ENDBRANCH   7   8
BRANCH   7  12
ATOM     12  N   UNL A   1      30.827  26.008  23.871  1.00  0.00    -0.280 N 
ATOM     13  C   UNL A   1      29.540  26.537  23.911  1.00  0.00     0.266 C 
ATOM     14  C   UNL A   1      31.742  26.706  23.114  1.00  0.00     0.149 C 
ATOM     15  O   UNL A   1      28.561  26.060  24.458  1.00  0.00    -0.268 OA
ATOM     16  C   UNL A   1      29.491  27.837  23.201  1.00  0.00     0.081 C 
ATOM     17  S   UNL A   1      31.014  28.191  22.503  1.00  0.00    -0.054 SA
ATOM     18  S   UNL A   1      33.333  26.318  22.791  1.00  0.00    -0.052 S 
ATOM     19  C   UNL A   1      28.373  28.576  23.219  1.00  0.00     0.029 C 
BRANCH  19  20
ATOM     20  C   UNL A   1      28.192  29.899  22.623  1.00  0.00    -0.024 A 
ATOM     21  C   UNL A   1      28.089  31.016  23.462  1.00  0.00     0.012 A 
ATOM     22  C   UNL A   1      28.080  30.065  21.238  1.00  0.00     0.012 A 
ATOM     23  C   UNL A   1      27.915  32.288  22.918  1.00  0.00     0.047 A 
ATOM     24  C   UNL A   1      27.909  31.338  20.692  1.00  0.00     0.047 A 
ATOM     25  C   UNL A   1      27.836  32.440  21.539  1.00  0.00     0.115 A 
BRANCH  25  26
ATOM     26  O   UNL A   1      27.683  33.702  21.044  1.00  0.00    -0.508 OA
ATOM     27  H   UNL A   1      27.097  34.301  21.463  1.00  0.00     0.293 HD
ENDBRANCH  25  26
ENDBRANCH  19  20
ENDBRANCH   7  12
ENDBRANCH   4   7
ENDBRANCH   2   3
ENDBRANCH   1   2
BRANCH   1  28
ATOM     28  C   UNL A   1      32.787  29.366  25.697  1.00  0.00     0.118 C 
BRANCH  28  29
ATOM     29  N   UNL A   1      32.527  30.744  26.069  1.00  0.00    -0.352 N 
ATOM     30  C   UNL A   1      33.112  31.508  27.051  1.00  0.00     0.251 C 
ATOM     31  H   UNL A   1      31.829  31.198  25.542  1.00  0.00     0.163 HD
ATOM     32  O   UNL A   1      32.565  32.556  27.389  1.00  0.00    -0.269 OA
BRANCH  30  33
ATOM     33  C   UNL A   1      34.375  31.086  27.708  1.00  0.00     0.039 A 
ATOM     34  C   UNL A   1      34.488  29.770  28.168  1.00  0.00     0.014 A 
ATOM     35  C   UNL A   1      35.422  31.983  27.935  1.00  0.00     0.014 A 
ATOM     36  C   UNL A   1      35.651  29.354  28.826  1.00  0.00     0.010 A 
ATOM     37  C   UNL A   1      36.620  31.540  28.495  1.00  0.00     0.010 A 
ATOM     38  C   UNL A   1      36.736  30.231  28.983  1.00  0.00    -0.014 A 
BRANCH  38  39
ATOM     39  C   UNL A   1      37.971  29.820  29.705  1.00  0.00     0.031 A 
ATOM     40  C   UNL A   1      38.238  30.338  31.098  1.00  0.00     0.074 A 
ATOM     41  C   UNL A   1      38.883  29.037  29.095  1.00  0.00     0.049 A 
ATOM     42  N   UNL A   1      39.277  30.139  31.868  1.00  0.00    -0.248 NA
ATOM     43  C   UNL A   1      37.219  31.218  31.693  1.00  0.00     0.031 C 
ATOM     44  C   UNL A   1      38.783  28.527  27.726  1.00  0.00     0.029 A 
ATOM     45  N   UNL A   1      40.088  28.550  29.541  1.00  0.00    -0.354 N 
ATOM     46  C   UNL A   1      39.056  30.901  33.011  1.00  0.00     0.074 A 
ATOM     47  C   UNL A   1      37.805  31.597  32.818  1.00  0.00     0.031 C 
ATOM     48  C   UNL A   1      39.873  27.794  27.447  1.00  0.00     0.029 A 
ATOM     49  C   UNL A   1      40.766  27.808  28.602  1.00  0.00     0.049 A 
ATOM     50  H   UNL A   1      40.434  28.718  30.447  1.00  0.00     0.167 HD
ATOM     51  C   UNL A   1      39.807  30.990  34.136  1.00  0.00     0.034 A 
ATOM     52  C   UNL A   1      41.974  27.210  28.661  1.00  0.00     0.034 A 
ATOM     53  C   UNL A   1      41.022  30.255  34.349  1.00  0.00     0.049 A 
ATOM     54  C   UNL A   1      42.767  27.288  29.938  1.00  0.00     0.074 A 
ATOM     55  C   UNL A   1      41.810  30.206  35.486  1.00  0.00     0.029 A 
ATOM     56  N   UNL A   1      41.631  29.443  33.406  1.00  0.00    -0.354 N 
ATOM     57  N   UNL A   1      42.466  27.893  31.061  1.00  0.00    -0.248 NA
ATOM     58  C   UNL A   1      44.047  26.565  29.971  1.00  0.00     0.031 C 
ATOM     59  C   UNL A   1      42.910  29.386  35.219  1.00  0.00     0.029 A 
ATOM     60  C   UNL A   1      42.788  28.893  33.930  1.00  0.00     0.049 A 
ATOM     61  H   UNL A   1      41.291  29.280  32.496  1.00  0.00     0.167 HD
ATOM     62  C   UNL A   1      43.497  27.590  31.945  1.00  0.00     0.074 A 
ATOM     63  C   UNL A   1      44.420  26.733  31.232  1.00  0.00     0.031 C 
ATOM     64  C   UNL A   1      43.668  27.995  33.228  1.00  0.00     0.034 A 
BRANCH  51  65
ATOM     65  C   UNL A   1      39.306  31.879  35.246  1.00  0.00     0.023 A 
ATOM     66  C   UNL A   1      38.391  31.370  36.190  1.00  0.00     0.012 A 
ATOM     67  C   UNL A   1      39.786  33.196  35.391  1.00  0.00     0.148 A 
ATOM     68  C   UNL A   1      37.929  32.168  37.236  1.00  0.00     0.002 A 
ATOM     69  C   UNL A   1      39.359  33.969  36.466  1.00  0.00     0.091 A 
ATOM     70  F   UNL A   1      40.641  33.670  34.475  1.00  0.00    -0.205 F 
ATOM     71  C   UNL A   1      38.422  33.462  37.380  1.00  0.00     0.022 A 
BRANCH  69  72
ATOM     72  S   UNL A   1      39.996  35.617  36.789  1.00  0.00     0.127 S 
ATOM     73  O   UNL A   1      39.332  35.948  38.049  1.00  0.00    -0.237 OA
ATOM     74  O   UNL A   1      41.434  35.373  36.903  1.00  0.00    -0.237 OA
ATOM     75  O   UNL A   1      39.606  36.430  35.645  1.00  0.00    -0.744 OA
ENDBRANCH  69  72
ENDBRANCH  51  65
BRANCH  52  76
ATOM     76  C   UNL A   1      42.480  26.431  27.494  1.00  0.00     0.023 A 
ATOM     77  C   UNL A   1      43.336  27.052  26.564  1.00  0.00     0.012 A 
ATOM     78  C   UNL A   1      42.133  25.079  27.310  1.00  0.00     0.148 A 
ATOM     79  C   UNL A   1      43.807  26.353  25.451  1.00  0.00     0.002 A 
ATOM     80  C   UNL A   1      42.652  24.372  26.233  1.00  0.00     0.091 A 
ATOM     81  F   UNL A   1      41.310  24.508  28.201  1.00  0.00    -0.205 F 
ATOM     82  C   UNL A   1      43.473  25.011  25.292  1.00  0.00     0.022 A 
BRANCH  80  83
ATOM     83  S   UNL A   1      42.383  22.608  26.018  1.00  0.00     0.127 S 
ATOM     84  O   UNL A   1      43.162  22.331  24.815  1.00  0.00    -0.237 OA
ATOM     85  O   UNL A   1      42.945  22.065  27.255  1.00  0.00    -0.237 OA
ATOM     86  O   UNL A   1      40.941  22.442  25.892  1.00  0.00    -0.744 OA
ENDBRANCH  80  83
ENDBRANCH  52  76
BRANCH  64  87
ATOM     87  C   UNL A   1      44.868  27.473  33.975  1.00  0.00     0.023 A 
ATOM     88  C   UNL A   1      46.065  28.213  33.994  1.00  0.00     0.012 A 
ATOM     89  C   UNL A   1      44.778  26.282  34.723  1.00  0.00     0.148 A 
ATOM     90  C   UNL A   1      47.168  27.758  34.717  1.00  0.00     0.002 A 
ATOM     91  C   UNL A   1      45.862  25.863  35.484  1.00  0.00     0.091 A 
ATOM     92  F   UNL A   1      43.635  25.583  34.678  1.00  0.00    -0.205 F 
ATOM     93  C   UNL A   1      47.062  26.592  35.472  1.00  0.00     0.022 A 
BRANCH  91  94
ATOM     94  S   UNL A   1      45.782  24.431  36.566  1.00  0.00     0.127 S 
ATOM     95  O   UNL A   1      44.670  24.786  37.447  1.00  0.00    -0.237 OA
ATOM     96  O   UNL A   1      45.493  23.348  35.626  1.00  0.00    -0.237 OA
ATOM     97  O   UNL A   1      47.085  24.341  37.210  1.00  0.00    -0.744 OA
ENDBRANCH  91  94
ENDBRANCH  64  87
ENDBRANCH  38  39
ENDBRANCH  30  33
ENDBRANCH  28  29
ENDBRANCH   1  28
TORSDOF 18
ENDMDL
