MODEL 1
REMARK VINA RESULT:     -12.2      0.000      0.000
REMARK SMILES C[C@H]1SCCC[C@]1(Nc1ccc(Cl)cc1)C(=O)NCCCNC(=O)c1ccc(-c2c3nc(c(-c4cccc(S(=O)(=O)[O-])c4F)c4ccc([nH]4)c(-c4cccc(S(=O)(=O)[O-])c4F)c4nc(c(-c5cccc(S(=O)(=O)[O-])c5F)c5ccc2[nH]5)C=C4)C=C3)cc1
REMARK SMILES IDX 20 1 19 2 18 3 16 4 17 5 7 7 1 8 2 9 3 10 4 11 6 12 5 13
REMARK SMILES IDX 8 14 9 16 10 17 15 18 11 19 14 20 12 21 13 22 21 23 22 24
REMARK SMILES IDX 23 25 24 27 25 28 26 29 87 30 27 31 86 32 28 33 29 34 30 35
REMARK SMILES IDX 80 36 31 37 85 38 79 39 81 40 32 41 84 42 78 43 77 44 33 46
REMARK SMILES IDX 65 47 45 48 64 49 46 50 49 51 63 52 82 53 47 54 48 55 62 57
REMARK SMILES IDX 83 58 50 59 34 60 35 61 43 62 36 63 38 64 44 65 37 66 39 67
REMARK SMILES IDX 40 68 41 69 42 70 66 71 67 72 75 73 68 74 70 75 76 76 69 77
REMARK SMILES IDX 71 78 72 79 73 80 74 81 51 82 52 83 60 84 53 85 55 86 61 87
REMARK SMILES IDX 54 88 56 89 57 90 58 91 59 92
REMARK H PARENT 18 6 8 15 22 26 81 45 49 56
REMARK Flexibility Score: inf
ROOT
ATOM      1  C   UNL A   1      31.638  31.861  26.671  1.00  0.00     0.042 C 
ENDROOT
BRANCH   1   2
ATOM      2  C   UNL A   1      31.823  30.363  26.504  1.00  0.00     0.117 C 
BRANCH   2   3
ATOM      3  N   UNL A   1      32.801  30.039  25.482  1.00  0.00    -0.354 N 
ATOM      4  C   UNL A   1      32.759  29.190  24.417  1.00  0.00     0.246 C 
ATOM      5  O   UNL A   1      33.733  29.282  23.653  1.00  0.00    -0.272 OA
ATOM      6  H   UNL A   1      33.654  30.522  25.575  1.00  0.00     0.163 HD
BRANCH   4   7
ATOM      7  C   UNL A   1      31.612  28.144  24.142  1.00  0.00     0.128 C 
ATOM      8  C   UNL A   1      31.467  27.350  26.680  1.00  0.00     0.022 C 
ATOM      9  C   UNL A   1      31.672  26.993  25.215  1.00  0.00     0.078 C 
ATOM     10  S   UNL A   1      30.428  25.672  24.880  1.00  0.00    -0.156 SA
ATOM     11  C   UNL A   1      31.088  25.142  23.291  1.00  0.00     0.070 C 
ATOM     12  C   UNL A   1      31.930  27.495  22.747  1.00  0.00     0.040 C 
ATOM     13  C   UNL A   1      31.062  26.307  22.316  1.00  0.00     0.014 C 
BRANCH   7  14
ATOM     14  N   UNL A   1      30.246  28.744  24.067  1.00  0.00    -0.370 N 
ATOM     15  H   UNL A   1      29.545  28.298  24.594  1.00  0.00     0.161 HD
BRANCH  14  16
ATOM     16  C   UNL A   1      29.853  29.854  23.342  1.00  0.00     0.035 A 
ATOM     17  C   UNL A   1      29.381  31.036  23.924  1.00  0.00     0.027 A 
ATOM     18  C   UNL A   1      29.724  29.721  21.947  1.00  0.00     0.027 A 
ATOM     19  C   UNL A   1      28.723  32.010  23.162  1.00  0.00     0.022 A 
ATOM     20  C   UNL A   1      29.043  30.676  21.183  1.00  0.00     0.022 A 
ATOM     21  C   UNL A   1      28.528  31.810  21.800  1.00  0.00     0.041 A 
ATOM     22  Cl  UNL A   1      27.608  32.942  20.889  1.00  0.00    -0.084 Cl
ENDBRANCH  14  16
ENDBRANCH   7  14
ENDBRANCH   4   7
ENDBRANCH   2   3
ENDBRANCH   1   2
BRANCH   1  23
ATOM     23  C   UNL A   1      32.855  32.530  27.277  1.00  0.00     0.118 C 
BRANCH  23  24
ATOM     24  N   UNL A   1      32.623  33.940  27.558  1.00  0.00    -0.352 N 
ATOM     25  C   UNL A   1      33.150  34.734  28.552  1.00  0.00     0.251 C 
ATOM     26  H   UNL A   1      31.999  34.392  26.948  1.00  0.00     0.163 HD
ATOM     27  O   UNL A   1      32.658  35.834  28.776  1.00  0.00    -0.269 OA
BRANCH  25  28
ATOM     28  C   UNL A   1      34.289  34.247  29.363  1.00  0.00     0.039 A 
ATOM     29  C   UNL A   1      34.036  33.452  30.485  1.00  0.00     0.014 A 
ATOM     30  C   UNL A   1      35.602  34.565  29.019  1.00  0.00     0.014 A 
ATOM     31  C   UNL A   1      35.106  32.921  31.210  1.00  0.00     0.010 A 
ATOM     32  C   UNL A   1      36.660  33.934  29.661  1.00  0.00     0.010 A 
ATOM     33  C   UNL A   1      36.428  33.120  30.778  1.00  0.00    -0.014 A 
BRANCH  33  34
ATOM     34  C   UNL A   1      37.580  32.497  31.479  1.00  0.00     0.031 A 
ATOM     35  C   UNL A   1      38.335  31.363  30.836  1.00  0.00     0.074 A 
ATOM     36  C   UNL A   1      37.889  32.888  32.733  1.00  0.00     0.049 A 
ATOM     37  N   UNL A   1      39.323  30.652  31.316  1.00  0.00    -0.248 NA
ATOM     38  C   UNL A   1      37.903  30.946  29.489  1.00  0.00     0.031 C 
ATOM     39  C   UNL A   1      37.175  33.909  33.502  1.00  0.00     0.029 A 
ATOM     40  N   UNL A   1      38.867  32.452  33.592  1.00  0.00    -0.354 N 
ATOM     41  C   UNL A   1      39.597  29.684  30.357  1.00  0.00     0.074 A 
ATOM     42  C   UNL A   1      38.648  29.870  29.283  1.00  0.00     0.031 C 
ATOM     43  C   UNL A   1      37.743  34.028  34.712  1.00  0.00     0.029 A 
ATOM     44  C   UNL A   1      38.836  33.067  34.822  1.00  0.00     0.049 A 
ATOM     45  H   UNL A   1      39.529  31.763  33.351  1.00  0.00     0.167 HD
ATOM     46  C   UNL A   1      40.571  28.744  30.354  1.00  0.00     0.034 A 
ATOM     47  C   UNL A   1      39.593  32.871  35.919  1.00  0.00     0.034 A 
ATOM     48  C   UNL A   1      41.546  28.597  31.398  1.00  0.00     0.049 A 
ATOM     49  C   UNL A   1      40.699  31.854  35.871  1.00  0.00     0.074 A 
ATOM     50  C   UNL A   1      42.641  27.753  31.438  1.00  0.00     0.029 A 
ATOM     51  N   UNL A   1      41.539  29.300  32.592  1.00  0.00    -0.354 N 
ATOM     52  N   UNL A   1      41.054  31.070  34.882  1.00  0.00    -0.248 NA
ATOM     53  C   UNL A   1      41.531  31.717  37.075  1.00  0.00     0.031 C 
ATOM     54  C   UNL A   1      43.275  27.920  32.674  1.00  0.00     0.029 A 
ATOM     55  C   UNL A   1      42.596  28.895  33.386  1.00  0.00     0.049 A 
ATOM     56  H   UNL A   1      40.878  29.988  32.839  1.00  0.00     0.167 HD
ATOM     57  C   UNL A   1      42.166  30.368  35.334  1.00  0.00     0.074 A 
ATOM     58  C   UNL A   1      42.443  30.841  36.674  1.00  0.00     0.031 C 
ATOM     59  C   UNL A   1      42.884  29.406  34.702  1.00  0.00     0.034 A 
BRANCH  46  60
ATOM     60  C   UNL A   1      40.662  27.828  29.160  1.00  0.00     0.023 A 
ATOM     61  C   UNL A   1      39.826  26.695  29.081  1.00  0.00     0.012 A 
ATOM     62  C   UNL A   1      41.529  28.122  28.090  1.00  0.00     0.148 A 
ATOM     63  C   UNL A   1      39.876  25.851  27.972  1.00  0.00     0.002 A 
ATOM     64  C   UNL A   1      41.538  27.303  26.967  1.00  0.00     0.091 A 
ATOM     65  F   UNL A   1      42.331  29.191  28.192  1.00  0.00    -0.205 F 
ATOM     66  C   UNL A   1      40.723  26.162  26.912  1.00  0.00     0.022 A 
BRANCH  64  67
ATOM     67  S   UNL A   1      42.530  27.661  25.513  1.00  0.00     0.127 S 
ATOM     68  O   UNL A   1      42.261  26.491  24.678  1.00  0.00    -0.237 OA
ATOM     69  O   UNL A   1      41.929  28.905  25.031  1.00  0.00    -0.237 OA
ATOM     70  O   UNL A   1      43.903  27.789  25.982  1.00  0.00    -0.744 OA
ENDBRANCH  64  67
ENDBRANCH  46  60
BRANCH  47  71
ATOM     71  C   UNL A   1      39.357  33.690  37.143  1.00  0.00     0.023 A 
ATOM     72  C   UNL A   1      39.818  35.021  37.189  1.00  0.00     0.012 A 
ATOM     73  C   UNL A   1      38.660  33.168  38.249  1.00  0.00     0.148 A 
ATOM     74  C   UNL A   1      39.620  35.804  38.328  1.00  0.00     0.002 A 
ATOM     75  C   UNL A   1      38.415  33.971  39.356  1.00  0.00     0.091 A 
ATOM     76  F   UNL A   1      38.239  31.896  38.190  1.00  0.00    -0.205 F 
ATOM     77  C   UNL A   1      38.910  35.283  39.406  1.00  0.00     0.022 A 
BRANCH  75  78
ATOM     78  S   UNL A   1      37.393  33.428  40.730  1.00  0.00     0.127 S 
ATOM     79  O   UNL A   1      37.289  34.648  41.526  1.00  0.00    -0.237 OA
ATOM     80  O   UNL A   1      36.160  33.027  40.049  1.00  0.00    -0.237 OA
ATOM     81  O   UNL A   1      38.118  32.327  41.349  1.00  0.00    -0.744 OA
ENDBRANCH  75  78
ENDBRANCH  47  71
BRANCH  59  82
ATOM     82  C   UNL A   1      44.058  28.815  35.437  1.00  0.00     0.023 A 
ATOM     83  C   UNL A   1      45.334  29.399  35.306  1.00  0.00     0.012 A 
ATOM     84  C   UNL A   1      43.881  27.729  36.317  1.00  0.00     0.148 A 
ATOM     85  C   UNL A   1      46.421  28.890  36.015  1.00  0.00     0.002 A 
ATOM     86  C   UNL A   1      44.958  27.261  37.059  1.00  0.00     0.091 A 
ATOM     87  F   UNL A   1      42.662  27.179  36.415  1.00  0.00    -0.205 F 
ATOM     88  C   UNL A   1      46.231  27.831  36.899  1.00  0.00     0.022 A 
BRANCH  86  89
ATOM     89  S   UNL A   1      44.789  25.968  38.295  1.00  0.00     0.127 S 
ATOM     90  O   UNL A   1      43.984  26.637  39.316  1.00  0.00    -0.237 OA
ATOM     91  O   UNL A   1      44.086  24.922  37.551  1.00  0.00    -0.237 OA
ATOM     92  O   UNL A   1      46.143  25.618  38.700  1.00  0.00    -0.744 OA
ENDBRANCH  86  89
ENDBRANCH  59  82
ENDBRANCH  33  34
ENDBRANCH  25  28
ENDBRANCH  23  24
ENDBRANCH   1  23
TORSDOF 15
ENDMDL
MODEL 2
REMARK VINA RESULT:     -12.1      3.483      8.842
REMARK SMILES C[C@H]1SCCC[C@]1(Nc1ccc(Cl)cc1)C(=O)NCCCNC(=O)c1ccc(-c2c3nc(c(-c4cccc(S(=O)(=O)[O-])c4F)c4ccc([nH]4)c(-c4cccc(S(=O)(=O)[O-])c4F)c4nc(c(-c5cccc(S(=O)(=O)[O-])c5F)c5ccc2[nH]5)C=C4)C=C3)cc1
REMARK SMILES IDX 20 1 19 2 18 3 16 4 17 5 7 7 1 8 2 9 3 10 4 11 6 12 5 13
REMARK SMILES IDX 8 14 9 16 10 17 15 18 11 19 14 20 12 21 13 22 21 23 22 24
REMARK SMILES IDX 23 25 24 27 25 28 26 29 87 30 27 31 86 32 28 33 29 34 30 35
REMARK SMILES IDX 80 36 31 37 85 38 79 39 81 40 32 41 84 42 78 43 77 44 33 46
REMARK SMILES IDX 65 47 45 48 64 49 46 50 49 51 63 52 82 53 47 54 48 55 62 57
REMARK SMILES IDX 83 58 50 59 34 60 35 61 43 62 36 63 38 64 44 65 37 66 39 67
REMARK SMILES IDX 40 68 41 69 42 70 66 71 67 72 75 73 68 74 70 75 76 76 69 77
REMARK SMILES IDX 71 78 72 79 73 80 74 81 51 82 52 83 60 84 53 85 55 86 61 87
REMARK SMILES IDX 54 88 56 89 57 90 58 91 59 92
REMARK H PARENT 18 6 8 15 22 26 81 45 49 56
REMARK Flexibility Score: inf
ROOT
ATOM      1  C   UNL A   1      33.126  29.032  24.561  1.00  0.00     0.042 C 
ENDROOT
BRANCH   1   2
ATOM      2  C   UNL A   1      32.216  28.084  23.799  1.00  0.00     0.117 C 
BRANCH   2   3
ATOM      3  N   UNL A   1      32.926  27.350  22.767  1.00  0.00    -0.354 N 
ATOM      4  C   UNL A   1      33.224  26.027  22.632  1.00  0.00     0.246 C 
ATOM      5  O   UNL A   1      33.714  25.726  21.532  1.00  0.00    -0.272 OA
ATOM      6  H   UNL A   1      33.252  27.911  22.027  1.00  0.00     0.163 HD
BRANCH   4   7
ATOM      7  C   UNL A   1      33.013  24.935  23.749  1.00  0.00     0.128 C 
ATOM      8  C   UNL A   1      30.463  24.502  23.111  1.00  0.00     0.022 C 
ATOM      9  C   UNL A   1      31.494  24.884  24.163  1.00  0.00     0.078 C 
ATOM     10  S   UNL A   1      31.198  23.707  25.554  1.00  0.00    -0.156 SA
ATOM     11  C   UNL A   1      32.201  24.557  26.784  1.00  0.00     0.070 C 
ATOM     12  C   UNL A   1      33.821  25.425  25.004  1.00  0.00     0.040 C 
ATOM     13  C   UNL A   1      33.641  24.632  26.304  1.00  0.00     0.014 C 
BRANCH   7  14
ATOM     14  N   UNL A   1      33.520  23.580  23.379  1.00  0.00    -0.370 N 
ATOM     15  H   UNL A   1      33.046  23.124  22.647  1.00  0.00     0.161 HD
BRANCH  14  16
ATOM     16  C   UNL A   1      34.578  22.893  23.945  1.00  0.00     0.035 A 
ATOM     17  C   UNL A   1      35.921  23.170  23.670  1.00  0.00     0.027 A 
ATOM     18  C   UNL A   1      34.292  21.724  24.672  1.00  0.00     0.027 A 
ATOM     19  C   UNL A   1      36.937  22.274  24.026  1.00  0.00     0.022 A 
ATOM     20  C   UNL A   1      35.297  20.808  25.007  1.00  0.00     0.022 A 
ATOM     21  C   UNL A   1      36.616  21.081  24.664  1.00  0.00     0.041 A 
ATOM     22  Cl  UNL A   1      37.845  19.921  24.985  1.00  0.00    -0.084 Cl
ENDBRANCH  14  16
ENDBRANCH   7  14
ENDBRANCH   4   7
ENDBRANCH   2   3
ENDBRANCH   1   2
BRANCH   1  23
ATOM     23  C   UNL A   1      32.614  29.328  25.957  1.00  0.00     0.118 C 
BRANCH  23  24
ATOM     24  N   UNL A   1      32.473  30.758  26.198  1.00  0.00    -0.352 N 
ATOM     25  C   UNL A   1      33.191  31.581  27.034  1.00  0.00     0.251 C 
ATOM     26  H   UNL A   1      31.758  31.200  25.687  1.00  0.00     0.163 HD
ATOM     27  O   UNL A   1      32.776  32.706  27.283  1.00  0.00    -0.269 OA
BRANCH  25  28
ATOM     28  C   UNL A   1      34.447  31.095  27.651  1.00  0.00     0.039 A 
ATOM     29  C   UNL A   1      35.516  31.982  27.809  1.00  0.00     0.014 A 
ATOM     30  C   UNL A   1      34.572  29.773  28.078  1.00  0.00     0.014 A 
ATOM     31  C   UNL A   1      36.676  31.556  28.463  1.00  0.00     0.010 A 
ATOM     32  C   UNL A   1      35.670  29.390  28.838  1.00  0.00     0.010 A 
ATOM     33  C   UNL A   1      36.745  30.269  29.023  1.00  0.00    -0.014 A 
BRANCH  33  34
ATOM     34  C   UNL A   1      37.931  29.819  29.797  1.00  0.00     0.031 A 
ATOM     35  C   UNL A   1      38.181  30.357  31.182  1.00  0.00     0.074 A 
ATOM     36  C   UNL A   1      38.832  28.997  29.220  1.00  0.00     0.049 A 
ATOM     37  N   UNL A   1      39.189  30.134  31.984  1.00  0.00    -0.248 NA
ATOM     38  C   UNL A   1      37.187  31.299  31.727  1.00  0.00     0.031 C 
ATOM     39  C   UNL A   1      38.754  28.482  27.851  1.00  0.00     0.029 A 
ATOM     40  N   UNL A   1      40.007  28.475  29.702  1.00  0.00    -0.354 N 
ATOM     41  C   UNL A   1      38.975  30.935  33.099  1.00  0.00     0.074 A 
ATOM     42  C   UNL A   1      37.761  31.682  32.856  1.00  0.00     0.031 C 
ATOM     43  C   UNL A   1      39.825  27.711  27.607  1.00  0.00     0.029 A 
ATOM     44  C   UNL A   1      40.686  27.707  28.785  1.00  0.00     0.049 A 
ATOM     45  H   UNL A   1      40.332  28.635  30.617  1.00  0.00     0.167 HD
ATOM     46  C   UNL A   1      39.703  31.021  34.236  1.00  0.00     0.034 A 
ATOM     47  C   UNL A   1      41.876  27.081  28.877  1.00  0.00     0.034 A 
ATOM     48  C   UNL A   1      40.879  30.237  34.496  1.00  0.00     0.049 A 
ATOM     49  C   UNL A   1      42.641  27.153  30.170  1.00  0.00     0.074 A 
ATOM     50  C   UNL A   1      41.623  30.165  35.659  1.00  0.00     0.029 A 
ATOM     51  N   UNL A   1      41.490  29.400  33.576  1.00  0.00    -0.354 N 
ATOM     52  N   UNL A   1      42.327  27.777  31.279  1.00  0.00    -0.248 NA
ATOM     53  C   UNL A   1      43.906  26.407  30.238  1.00  0.00     0.031 C 
ATOM     54  C   UNL A   1      42.708  29.311  35.430  1.00  0.00     0.029 A 
ATOM     55  C   UNL A   1      42.615  28.823  34.137  1.00  0.00     0.049 A 
ATOM     56  H   UNL A   1      41.170  29.239  32.659  1.00  0.00     0.167 HD
ATOM     57  C   UNL A   1      43.339  27.478  32.184  1.00  0.00     0.074 A 
ATOM     58  C   UNL A   1      44.260  26.593  31.502  1.00  0.00     0.031 C 
ATOM     59  C   UNL A   1      43.500  27.910  33.460  1.00  0.00     0.034 A 
BRANCH  46  60
ATOM     60  C   UNL A   1      39.223  31.962  35.312  1.00  0.00     0.023 A 
ATOM     61  C   UNL A   1      38.238  31.537  36.226  1.00  0.00     0.012 A 
ATOM     62  C   UNL A   1      39.792  33.242  35.456  1.00  0.00     0.148 A 
ATOM     63  C   UNL A   1      37.801  32.383  37.246  1.00  0.00     0.002 A 
ATOM     64  C   UNL A   1      39.386  34.061  36.502  1.00  0.00     0.091 A 
ATOM     65  F   UNL A   1      40.711  33.637  34.564  1.00  0.00    -0.205 F 
ATOM     66  C   UNL A   1      38.383  33.639  37.390  1.00  0.00     0.022 A 
BRANCH  64  67
ATOM     67  S   UNL A   1      40.131  35.663  36.826  1.00  0.00     0.127 S 
ATOM     68  O   UNL A   1      39.663  36.443  35.680  1.00  0.00    -0.237 OA
ATOM     69  O   UNL A   1      39.521  36.033  38.104  1.00  0.00    -0.237 OA
ATOM     70  O   UNL A   1      41.568  35.437  36.880  1.00  0.00    -0.744 OA
ENDBRANCH  64  67
ENDBRANCH  46  60
BRANCH  47  71
ATOM     71  C   UNL A   1      42.394  26.292  27.723  1.00  0.00     0.023 A 
ATOM     72  C   UNL A   1      43.305  26.886  26.826  1.00  0.00     0.012 A 
ATOM     73  C   UNL A   1      42.011  24.952  27.522  1.00  0.00     0.148 A 
ATOM     74  C   UNL A   1      43.796  26.171  25.732  1.00  0.00     0.002 A 
ATOM     75  C   UNL A   1      42.547  24.228  26.465  1.00  0.00     0.091 A 
ATOM     76  F   UNL A   1      41.135  24.408  28.380  1.00  0.00    -0.205 F 
ATOM     77  C   UNL A   1      43.425  24.840  25.557  1.00  0.00     0.022 A 
BRANCH  75  78
ATOM     78  S   UNL A   1      42.233  22.474  26.243  1.00  0.00     0.127 S 
ATOM     79  O   UNL A   1      42.997  22.183  25.033  1.00  0.00    -0.237 OA
ATOM     80  O   UNL A   1      42.790  21.910  27.475  1.00  0.00    -0.237 OA
ATOM     81  O   UNL A   1      40.788  22.344  26.127  1.00  0.00    -0.744 OA
ENDBRANCH  75  78
ENDBRANCH  47  71
BRANCH  59  82
ATOM     82  C   UNL A   1      44.702  27.413  34.218  1.00  0.00     0.023 A 
ATOM     83  C   UNL A   1      45.892  28.169  34.221  1.00  0.00     0.012 A 
ATOM     84  C   UNL A   1      44.627  26.238  34.991  1.00  0.00     0.148 A 
ATOM     85  C   UNL A   1      46.998  27.744  34.955  1.00  0.00     0.002 A 
ATOM     86  C   UNL A   1      45.716  25.849  35.761  1.00  0.00     0.091 A 
ATOM     87  F   UNL A   1      43.492  25.526  34.963  1.00  0.00    -0.205 F 
ATOM     88  C   UNL A   1      46.907  26.593  35.733  1.00  0.00     0.022 A 
BRANCH  86  89
ATOM     89  S   UNL A   1      45.658  24.437  36.871  1.00  0.00     0.127 S 
ATOM     90  O   UNL A   1      47.003  24.455  37.445  1.00  0.00    -0.237 OA
ATOM     91  O   UNL A   1      44.593  24.818  37.798  1.00  0.00    -0.237 OA
ATOM     92  O   UNL A   1      45.352  23.282  36.038  1.00  0.00    -0.744 OA
ENDBRANCH  86  89
ENDBRANCH  59  82
ENDBRANCH  33  34
ENDBRANCH  25  28
ENDBRANCH  23  24
ENDBRANCH   1  23
TORSDOF 15
ENDMDL
MODEL 3
REMARK VINA RESULT:     -12.1      7.341     12.383
REMARK SMILES C[C@H]1SCCC[C@]1(Nc1ccc(Cl)cc1)C(=O)NCCCNC(=O)c1ccc(-c2c3nc(c(-c4cccc(S(=O)(=O)[O-])c4F)c4ccc([nH]4)c(-c4cccc(S(=O)(=O)[O-])c4F)c4nc(c(-c5cccc(S(=O)(=O)[O-])c5F)c5ccc2[nH]5)C=C4)C=C3)cc1
REMARK SMILES IDX 20 1 19 2 18 3 16 4 17 5 7 7 1 8 2 9 3 10 4 11 6 12 5 13
REMARK SMILES IDX 8 14 9 16 10 17 15 18 11 19 14 20 12 21 13 22 21 23 22 24
REMARK SMILES IDX 23 25 24 27 25 28 26 29 87 30 27 31 86 32 28 33 29 34 30 35
REMARK SMILES IDX 80 36 31 37 85 38 79 39 81 40 32 41 84 42 78 43 77 44 33 46
REMARK SMILES IDX 65 47 45 48 64 49 46 50 49 51 63 52 82 53 47 54 48 55 62 57
REMARK SMILES IDX 83 58 50 59 34 60 35 61 43 62 36 63 38 64 44 65 37 66 39 67
REMARK SMILES IDX 40 68 41 69 42 70 66 71 67 72 75 73 68 74 70 75 76 76 69 77
REMARK SMILES IDX 71 78 72 79 73 80 74 81 51 82 52 83 60 84 53 85 55 86 61 87
REMARK SMILES IDX 54 88 56 89 57 90 58 91 59 92
REMARK H PARENT 18 6 8 15 22 26 81 45 49 56
REMARK Flexibility Score: inf
ROOT
ATOM      1  C   UNL A   1      37.991  19.655  24.903  1.00  0.00     0.042 C 
ENDROOT
BRANCH   1   2
ATOM      2  C   UNL A   1      37.007  20.782  24.642  1.00  0.00     0.117 C 
BRANCH   2   3
ATOM      3  N   UNL A   1      36.372  21.252  25.861  1.00  0.00    -0.354 N 
ATOM      4  C   UNL A   1      35.073  21.536  26.159  1.00  0.00     0.246 C 
ATOM      5  O   UNL A   1      34.866  21.768  27.361  1.00  0.00    -0.272 OA
ATOM      6  H   UNL A   1      36.995  21.390  26.611  1.00  0.00     0.163 HD
BRANCH   4   7
ATOM      7  C   UNL A   1      33.899  21.606  25.109  1.00  0.00     0.128 C 
ATOM      8  C   UNL A   1      35.328  22.966  23.319  1.00  0.00     0.022 C 
ATOM      9  C   UNL A   1      34.083  22.870  24.188  1.00  0.00     0.078 C 
ATOM     10  S   UNL A   1      32.677  23.075  23.011  1.00  0.00    -0.156 SA
ATOM     11  C   UNL A   1      31.388  23.323  24.243  1.00  0.00     0.070 C 
ATOM     12  C   UNL A   1      32.579  21.817  25.933  1.00  0.00     0.040 C 
ATOM     13  C   UNL A   1      31.298  22.100  25.139  1.00  0.00     0.014 C 
BRANCH   7  14
ATOM     14  N   UNL A   1      33.737  20.363  24.297  1.00  0.00    -0.370 N 
ATOM     15  H   UNL A   1      33.598  20.490  23.330  1.00  0.00     0.161 HD
BRANCH  14  16
ATOM     16  C   UNL A   1      33.757  19.055  24.745  1.00  0.00     0.035 A 
ATOM     17  C   UNL A   1      34.662  18.090  24.287  1.00  0.00     0.027 A 
ATOM     18  C   UNL A   1      32.689  18.614  25.545  1.00  0.00     0.027 A 
ATOM     19  C   UNL A   1      34.462  16.727  24.540  1.00  0.00     0.022 A 
ATOM     20  C   UNL A   1      32.465  17.252  25.780  1.00  0.00     0.022 A 
ATOM     21  C   UNL A   1      33.346  16.312  25.258  1.00  0.00     0.041 A 
ATOM     22  Cl  UNL A   1      33.029  14.633  25.458  1.00  0.00    -0.084 Cl
ENDBRANCH  14  16
ENDBRANCH   7  14
ENDBRANCH   4   7
ENDBRANCH   2   3
ENDBRANCH   1   2
BRANCH   1  23
ATOM     23  C   UNL A   1      38.874  19.925  26.105  1.00  0.00     0.118 C 
BRANCH  23  24
ATOM     24  N   UNL A   1      40.112  19.158  26.060  1.00  0.00    -0.352 N 
ATOM     25  C   UNL A   1      41.415  19.595  26.110  1.00  0.00     0.251 C 
ATOM     26  H   UNL A   1      39.998  18.184  25.984  1.00  0.00     0.163 HD
ATOM     27  O   UNL A   1      42.326  18.827  25.820  1.00  0.00    -0.269 OA
BRANCH  25  28
ATOM     28  C   UNL A   1      41.713  20.996  26.486  1.00  0.00     0.039 A 
ATOM     29  C   UNL A   1      42.257  21.263  27.746  1.00  0.00     0.014 A 
ATOM     30  C   UNL A   1      41.465  22.045  25.600  1.00  0.00     0.014 A 
ATOM     31  C   UNL A   1      42.617  22.572  28.079  1.00  0.00     0.010 A 
ATOM     32  C   UNL A   1      41.939  23.319  25.882  1.00  0.00     0.010 A 
ATOM     33  C   UNL A   1      42.503  23.605  27.132  1.00  0.00    -0.014 A 
BRANCH  33  34
ATOM     34  C   UNL A   1      42.957  24.988  27.430  1.00  0.00     0.031 A 
ATOM     35  C   UNL A   1      42.009  25.979  28.053  1.00  0.00     0.074 A 
ATOM     36  C   UNL A   1      44.192  25.380  27.054  1.00  0.00     0.049 A 
ATOM     37  N   UNL A   1      42.200  27.243  28.327  1.00  0.00    -0.248 NA
ATOM     38  C   UNL A   1      40.654  25.499  28.381  1.00  0.00     0.031 C 
ATOM     39  C   UNL A   1      45.172  24.544  26.356  1.00  0.00     0.029 A 
ATOM     40  N   UNL A   1      44.825  26.592  27.181  1.00  0.00    -0.354 N 
ATOM     41  C   UNL A   1      40.986  27.716  28.813  1.00  0.00     0.074 A 
ATOM     42  C   UNL A   1      40.052  26.615  28.760  1.00  0.00     0.031 C 
ATOM     43  C   UNL A   1      46.282  25.262  26.126  1.00  0.00     0.029 A 
ATOM     44  C   UNL A   1      46.082  26.619  26.623  1.00  0.00     0.049 A 
ATOM     45  H   UNL A   1      44.417  27.369  27.628  1.00  0.00     0.167 HD
ATOM     46  C   UNL A   1      40.683  28.946  29.289  1.00  0.00     0.034 A 
ATOM     47  C   UNL A   1      46.969  27.627  26.511  1.00  0.00     0.034 A 
ATOM     48  C   UNL A   1      41.630  30.021  29.390  1.00  0.00     0.049 A 
ATOM     49  C   UNL A   1      46.625  28.971  27.094  1.00  0.00     0.074 A 
ATOM     50  C   UNL A   1      41.455  31.269  29.962  1.00  0.00     0.029 A 
ATOM     51  N   UNL A   1      42.924  29.985  28.896  1.00  0.00    -0.354 N 
ATOM     52  N   UNL A   1      45.531  29.345  27.711  1.00  0.00    -0.248 NA
ATOM     53  C   UNL A   1      47.649  30.021  26.995  1.00  0.00     0.031 C 
ATOM     54  C   UNL A   1      42.634  32.000  29.780  1.00  0.00     0.029 A 
ATOM     55  C   UNL A   1      43.554  31.195  29.130  1.00  0.00     0.049 A 
ATOM     56  H   UNL A   1      43.336  29.212  28.446  1.00  0.00     0.167 HD
ATOM     57  C   UNL A   1      45.745  30.663  28.099  1.00  0.00     0.074 A 
ATOM     58  C   UNL A   1      47.083  31.012  27.672  1.00  0.00     0.031 C 
ATOM     59  C   UNL A   1      44.902  31.513  28.737  1.00  0.00     0.034 A 
BRANCH  46  60
ATOM     60  C   UNL A   1      39.280  29.183  29.786  1.00  0.00     0.023 A 
ATOM     61  C   UNL A   1      38.939  28.843  31.111  1.00  0.00     0.012 A 
ATOM     62  C   UNL A   1      38.319  29.801  28.963  1.00  0.00     0.148 A 
ATOM     63  C   UNL A   1      37.653  29.080  31.598  1.00  0.00     0.002 A 
ATOM     64  C   UNL A   1      37.055  30.078  29.470  1.00  0.00     0.091 A 
ATOM     65  F   UNL A   1      38.655  30.098  27.700  1.00  0.00    -0.205 F 
ATOM     66  C   UNL A   1      36.717  29.708  30.781  1.00  0.00     0.022 A 
BRANCH  64  67
ATOM     67  S   UNL A   1      35.803  30.957  28.529  1.00  0.00     0.127 S 
ATOM     68  O   UNL A   1      36.570  32.086  28.002  1.00  0.00    -0.237 OA
ATOM     69  O   UNL A   1      35.418  29.963  27.527  1.00  0.00    -0.237 OA
ATOM     70  O   UNL A   1      34.754  31.305  29.477  1.00  0.00    -0.744 OA
ENDBRANCH  64  67
ENDBRANCH  46  60
BRANCH  47  71
ATOM     71  C   UNL A   1      48.289  27.390  25.860  1.00  0.00     0.023 A 
ATOM     72  C   UNL A   1      49.390  26.989  26.643  1.00  0.00     0.012 A 
ATOM     73  C   UNL A   1      48.455  27.534  24.469  1.00  0.00     0.148 A 
ATOM     74  C   UNL A   1      50.639  26.771  26.057  1.00  0.00     0.002 A 
ATOM     75  C   UNL A   1      49.685  27.260  23.884  1.00  0.00     0.091 A 
ATOM     76  F   UNL A   1      47.398  27.927  23.743  1.00  0.00    -0.205 F 
ATOM     77  C   UNL A   1      50.783  26.896  24.678  1.00  0.00     0.022 A 
BRANCH  75  78
ATOM     78  S   UNL A   1      49.925  27.263  22.105  1.00  0.00     0.127 S 
ATOM     79  O   UNL A   1      48.894  26.329  21.662  1.00  0.00    -0.237 OA
ATOM     80  O   UNL A   1      49.674  28.665  21.768  1.00  0.00    -0.237 OA
ATOM     81  O   UNL A   1      51.301  26.834  21.893  1.00  0.00    -0.744 OA
ENDBRANCH  75  78
ENDBRANCH  47  71
BRANCH  59  82
ATOM     82  C   UNL A   1      45.407  32.899  29.040  1.00  0.00     0.023 A 
ATOM     83  C   UNL A   1      46.105  33.144  30.239  1.00  0.00     0.012 A 
ATOM     84  C   UNL A   1      45.256  33.939  28.102  1.00  0.00     0.148 A 
ATOM     85  C   UNL A   1      46.617  34.412  30.514  1.00  0.00     0.002 A 
ATOM     86  C   UNL A   1      45.815  35.185  28.359  1.00  0.00     0.091 A 
ATOM     87  F   UNL A   1      44.575  33.689  26.975  1.00  0.00    -0.205 F 
ATOM     88  C   UNL A   1      46.483  35.427  29.570  1.00  0.00     0.022 A 
BRANCH  86  89
ATOM     89  S   UNL A   1      45.779  36.524  27.162  1.00  0.00     0.127 S 
ATOM     90  O   UNL A   1      44.343  36.772  27.037  1.00  0.00    -0.237 OA
ATOM     91  O   UNL A   1      46.522  37.576  27.854  1.00  0.00    -0.237 OA
ATOM     92  O   UNL A   1      46.429  36.011  25.964  1.00  0.00    -0.744 OA
ENDBRANCH  86  89
ENDBRANCH  59  82
ENDBRANCH  33  34
ENDBRANCH  25  28
ENDBRANCH  23  24
ENDBRANCH   1  23
TORSDOF 15
ENDMDL
