MODEL 1
REMARK VINA RESULT:     -13.3      0.000      0.000
REMARK SMILES O=C(NCCCNC(=O)c1ccc2nc(-c3cc(F)cc(Br)c3)[nH]c2c1)c1ccc(-c2c3nc(c(-c4cccc(S(=O)(=O)[O-])c4F)c4ccc([nH]4)c(-c4cccc(S(=O)(=O)[O-])c4F)c4nc(c(-c5cccc(S(=O)(=O)[O-])c5F)c5ccc2[nH]5)C=C4)C=C3)cc1
REMARK SMILES IDX 4 1 3 2 1 3 2 4 27 6 28 7 89 8 29 9 88 10 30 11 31 12 32 13
REMARK SMILES IDX 82 14 33 15 87 16 81 17 83 18 34 19 86 20 80 21 79 22 35 24
REMARK SMILES IDX 67 25 47 26 66 27 48 28 51 29 65 30 84 31 49 32 50 33 64 35
REMARK SMILES IDX 85 36 52 37 36 38 37 39 45 40 38 41 40 42 46 43 39 44 41 45
REMARK SMILES IDX 42 46 43 47 44 48 68 49 69 50 77 51 70 52 72 53 78 54 71 55
REMARK SMILES IDX 73 56 74 57 75 58 76 59 53 60 54 61 62 62 55 63 57 64 63 65
REMARK SMILES IDX 56 66 58 67 59 68 60 69 61 70 5 71 6 72 7 73 8 74 9 76 10 77
REMARK SMILES IDX 11 78 26 79 12 80 25 81 13 82 24 83 14 84 15 85 16 87 17 88
REMARK SMILES IDX 23 89 18 90 21 91 19 92 20 93 22 94
REMARK H PARENT 3 5 83 23 51 34 7 75 24 86
REMARK Flexibility Score: inf
ROOT
ATOM      1  C   UNL A   1      37.590  21.996  25.227  1.00  0.00     0.118 C 
ENDROOT
BRANCH   1   2
ATOM      2  N   UNL A   1      38.475  20.944  25.711  1.00  0.00    -0.352 N 
ATOM      3  O   UNL A   1      40.351  20.008  26.523  1.00  0.00    -0.269 OA
ATOM      4  C   UNL A   1      39.683  21.027  26.364  1.00  0.00     0.251 C 
ATOM      5  H   UNL A   1      38.157  20.027  25.545  1.00  0.00     0.163 HD
BRANCH   4   6
ATOM      6  C   UNL A   1      40.188  22.333  26.843  1.00  0.00     0.039 A 
ATOM      7  C   UNL A   1      39.774  23.520  26.242  1.00  0.00     0.014 A 
ATOM      8  C   UNL A   1      41.084  22.376  27.917  1.00  0.00     0.014 A 
ATOM      9  C   UNL A   1      40.393  24.718  26.574  1.00  0.00     0.010 A 
ATOM     10  C   UNL A   1      41.618  23.603  28.333  1.00  0.00     0.010 A 
ATOM     11  C   UNL A   1      41.311  24.780  27.637  1.00  0.00    -0.014 A 
BRANCH  11  12
ATOM     12  C   UNL A   1      41.859  26.108  28.024  1.00  0.00     0.031 A 
ATOM     13  C   UNL A   1      43.251  26.533  27.642  1.00  0.00     0.074 A 
ATOM     14  C   UNL A   1      41.054  26.957  28.696  1.00  0.00     0.049 A 
ATOM     15  N   UNL A   1      43.832  27.691  27.831  1.00  0.00    -0.248 NA
ATOM     16  C   UNL A   1      44.105  25.540  26.974  1.00  0.00     0.031 C 
ATOM     17  C   UNL A   1      39.707  26.633  29.175  1.00  0.00     0.029 A 
ATOM     18  N   UNL A   1      41.234  28.262  29.072  1.00  0.00    -0.354 N 
ATOM     19  C   UNL A   1      45.124  27.559  27.336  1.00  0.00     0.074 A 
ATOM     20  C   UNL A   1      45.249  26.201  26.851  1.00  0.00     0.031 C 
ATOM     21  C   UNL A   1      39.165  27.723  29.735  1.00  0.00     0.029 A 
ATOM     22  C   UNL A   1      40.140  28.805  29.707  1.00  0.00     0.049 A 
ATOM     23  H   UNL A   1      42.066  28.763  28.907  1.00  0.00     0.167 HD
ATOM     24  C   UNL A   1      46.107  28.490  27.270  1.00  0.00     0.034 A 
ATOM     25  C   UNL A   1      39.940  30.036  30.214  1.00  0.00     0.034 A 
ATOM     26  C   UNL A   1      45.965  29.850  27.722  1.00  0.00     0.049 A 
ATOM     27  C   UNL A   1      41.027  31.061  30.074  1.00  0.00     0.074 A 
ATOM     28  C   UNL A   1      46.893  30.877  27.669  1.00  0.00     0.029 A 
ATOM     29  N   UNL A   1      44.823  30.378  28.306  1.00  0.00    -0.354 N 
ATOM     30  N   UNL A   1      42.197  30.945  29.497  1.00  0.00    -0.248 NA
ATOM     31  C   UNL A   1      40.756  32.394  30.628  1.00  0.00     0.031 C 
ATOM     32  C   UNL A   1      46.314  32.023  28.224  1.00  0.00     0.029 A 
ATOM     33  C   UNL A   1      45.020  31.715  28.613  1.00  0.00     0.049 A 
ATOM     34  H   UNL A   1      43.994  29.876  28.477  1.00  0.00     0.167 HD
ATOM     35  C   UNL A   1      42.800  32.190  29.609  1.00  0.00     0.074 A 
ATOM     36  C   UNL A   1      41.846  33.058  30.271  1.00  0.00     0.031 C 
ATOM     37  C   UNL A   1      44.043  32.574  29.229  1.00  0.00     0.034 A 
BRANCH  24  38
ATOM     38  C   UNL A   1      47.413  28.092  26.632  1.00  0.00     0.023 A 
ATOM     39  C   UNL A   1      48.520  27.804  27.455  1.00  0.00     0.012 A 
ATOM     40  C   UNL A   1      47.527  27.923  25.237  1.00  0.00     0.148 A 
ATOM     41  C   UNL A   1      49.727  27.376  26.901  1.00  0.00     0.002 A 
ATOM     42  C   UNL A   1      48.721  27.460  24.695  1.00  0.00     0.091 A 
ATOM     43  F   UNL A   1      46.470  28.219  24.468  1.00  0.00    -0.205 F 
ATOM     44  C   UNL A   1      49.824  27.194  25.524  1.00  0.00     0.022 A 
BRANCH  42  45
ATOM     45  S   UNL A   1      48.926  27.125  22.941  1.00  0.00     0.127 S 
ATOM     46  O   UNL A   1      48.264  28.282  22.340  1.00  0.00    -0.237 OA
ATOM     47  O   UNL A   1      50.383  27.114  22.797  1.00  0.00    -0.237 OA
ATOM     48  O   UNL A   1      48.283  25.841  22.701  1.00  0.00    -0.744 OA
ENDBRANCH  42  45
ENDBRANCH  24  38
BRANCH  25  49
ATOM     49  C   UNL A   1      38.636  30.366  30.854  1.00  0.00     0.023 A 
ATOM     50  C   UNL A   1      38.432  30.075  32.216  1.00  0.00     0.012 A 
ATOM     51  C   UNL A   1      37.621  31.023  30.134  1.00  0.00     0.148 A 
ATOM     52  C   UNL A   1      37.232  30.411  32.842  1.00  0.00     0.002 A 
ATOM     53  C   UNL A   1      36.454  31.414  30.780  1.00  0.00     0.091 A 
ATOM     54  F   UNL A   1      37.820  31.275  28.832  1.00  0.00    -0.205 F 
ATOM     55  C   UNL A   1      36.249  31.095  32.130  1.00  0.00     0.022 A 
BRANCH  53  56
ATOM     56  S   UNL A   1      35.228  32.440  29.960  1.00  0.00     0.127 S 
ATOM     57  O   UNL A   1      36.033  33.576  29.520  1.00  0.00    -0.237 OA
ATOM     58  O   UNL A   1      34.755  31.566  28.886  1.00  0.00    -0.237 OA
ATOM     59  O   UNL A   1      34.225  32.717  30.981  1.00  0.00    -0.744 OA
ENDBRANCH  53  56
ENDBRANCH  25  49
BRANCH  37  60
ATOM     60  C   UNL A   1      44.438  33.997  29.517  1.00  0.00     0.023 A 
ATOM     61  C   UNL A   1      44.940  34.332  30.792  1.00  0.00     0.012 A 
ATOM     62  C   UNL A   1      44.354  34.991  28.523  1.00  0.00     0.148 A 
ATOM     63  C   UNL A   1      45.317  35.640  31.083  1.00  0.00     0.002 A 
ATOM     64  C   UNL A   1      44.773  36.285  28.809  1.00  0.00     0.091 A 
ATOM     65  F   UNL A   1      43.851  34.659  27.325  1.00  0.00    -0.205 F 
ATOM     66  C   UNL A   1      45.244  36.615  30.090  1.00  0.00     0.022 A 
BRANCH  64  67
ATOM     67  S   UNL A   1      44.787  37.578  27.562  1.00  0.00     0.127 S 
ATOM     68  O   UNL A   1      45.287  38.722  28.322  1.00  0.00    -0.237 OA
ATOM     69  O   UNL A   1      45.722  37.049  26.568  1.00  0.00    -0.237 OA
ATOM     70  O   UNL A   1      43.412  37.685  27.091  1.00  0.00    -0.744 OA
ENDBRANCH  64  67
ENDBRANCH  37  60
ENDBRANCH  11  12
ENDBRANCH   4   6
ENDBRANCH   1   2
BRANCH   1  71
ATOM     71  C   UNL A   1      36.215  21.480  24.831  1.00  0.00     0.042 C 
BRANCH  71  72
ATOM     72  C   UNL A   1      35.223  21.418  25.983  1.00  0.00     0.118 C 
BRANCH  72  73
ATOM     73  N   UNL A   1      34.227  20.373  25.793  1.00  0.00    -0.352 N 
ATOM     74  C   UNL A   1      32.965  20.455  25.265  1.00  0.00     0.251 C 
ATOM     75  H   UNL A   1      34.501  19.474  26.087  1.00  0.00     0.163 HD
ATOM     76  O   UNL A   1      32.183  19.515  25.380  1.00  0.00    -0.269 OA
BRANCH  74  77
ATOM     77  C   UNL A   1      32.536  21.675  24.550  1.00  0.00     0.042 A 
ATOM     78  C   UNL A   1      33.081  21.984  23.297  1.00  0.00     0.016 A 
ATOM     79  C   UNL A   1      31.530  22.463  25.131  1.00  0.00     0.042 A 
ATOM     80  C   UNL A   1      32.678  23.133  22.608  1.00  0.00     0.031 A 
ATOM     81  C   UNL A   1      31.141  23.595  24.412  1.00  0.00     0.067 A 
ATOM     82  C   UNL A   1      31.685  23.938  23.180  1.00  0.00     0.089 A 
ATOM     83  N   UNL A   1      30.218  24.580  24.657  1.00  0.00    -0.338 N 
ATOM     84  N   UNL A   1      31.098  25.070  22.686  1.00  0.00    -0.229 NA
ATOM     85  C   UNL A   1      30.215  25.449  23.589  1.00  0.00     0.138 A 
ATOM     86  H   UNL A   1      29.653  24.653  25.460  1.00  0.00     0.168 HD
BRANCH  85  87
ATOM     87  C   UNL A   1      29.312  26.584  23.453  1.00  0.00     0.021 A 
ATOM     88  C   UNL A   1      28.003  26.552  23.942  1.00  0.00     0.051 A 
ATOM     89  C   UNL A   1      29.787  27.755  22.841  1.00  0.00     0.027 A 
ATOM     90  C   UNL A   1      27.194  27.679  23.811  1.00  0.00     0.125 A 
ATOM     91  C   UNL A   1      28.957  28.868  22.709  1.00  0.00     0.021 A 
ATOM     92  F   UNL A   1      25.946  27.648  24.294  1.00  0.00    -0.207 F 
ATOM     93  C   UNL A   1      27.655  28.837  23.196  1.00  0.00     0.055 A 
ATOM     94  Br  UNL A   1      29.610  30.426  21.862  1.00  0.00    -0.051 Br
ENDBRANCH  85  87
ENDBRANCH  74  77
ENDBRANCH  72  73
ENDBRANCH  71  72
ENDBRANCH   1  71
TORSDOF 14
ENDMDL
MODEL 2
REMARK VINA RESULT:     -13.2      5.473     10.499
REMARK SMILES O=C(NCCCNC(=O)c1ccc2nc(-c3cc(F)cc(Br)c3)[nH]c2c1)c1ccc(-c2c3nc(c(-c4cccc(S(=O)(=O)[O-])c4F)c4ccc([nH]4)c(-c4cccc(S(=O)(=O)[O-])c4F)c4nc(c(-c5cccc(S(=O)(=O)[O-])c5F)c5ccc2[nH]5)C=C4)C=C3)cc1
REMARK SMILES IDX 4 1 3 2 1 3 2 4 27 6 28 7 89 8 29 9 88 10 30 11 31 12 32 13
REMARK SMILES IDX 82 14 33 15 87 16 81 17 83 18 34 19 86 20 80 21 79 22 35 24
REMARK SMILES IDX 67 25 47 26 66 27 48 28 51 29 65 30 84 31 49 32 50 33 64 35
REMARK SMILES IDX 85 36 52 37 36 38 37 39 45 40 38 41 40 42 46 43 39 44 41 45
REMARK SMILES IDX 42 46 43 47 44 48 68 49 69 50 77 51 70 52 72 53 78 54 71 55
REMARK SMILES IDX 73 56 74 57 75 58 76 59 53 60 54 61 62 62 55 63 57 64 63 65
REMARK SMILES IDX 56 66 58 67 59 68 60 69 61 70 5 71 6 72 7 73 8 74 9 76 10 77
REMARK SMILES IDX 11 78 26 79 12 80 25 81 13 82 24 83 14 84 15 85 16 87 17 88
REMARK SMILES IDX 23 89 18 90 21 91 19 92 20 93 22 94
REMARK H PARENT 3 5 83 23 51 34 7 75 24 86
REMARK Flexibility Score: inf
ROOT
ATOM      1  C   UNL A   1      33.282  29.294  25.030  1.00  0.00     0.118 C 
ENDROOT
BRANCH   1   2
ATOM      2  N   UNL A   1      32.678  30.461  25.662  1.00  0.00    -0.352 N 
ATOM      3  O   UNL A   1      32.294  32.006  27.248  1.00  0.00    -0.269 OA
ATOM      4  C   UNL A   1      33.054  31.158  26.787  1.00  0.00     0.251 C 
ATOM      5  H   UNL A   1      31.872  30.804  25.212  1.00  0.00     0.163 HD
BRANCH   4   6
ATOM      6  C   UNL A   1      34.344  30.870  27.452  1.00  0.00     0.039 A 
ATOM      7  C   UNL A   1      34.647  29.581  27.889  1.00  0.00     0.014 A 
ATOM      8  C   UNL A   1      35.272  31.899  27.636  1.00  0.00     0.014 A 
ATOM      9  C   UNL A   1      35.771  29.362  28.673  1.00  0.00     0.010 A 
ATOM     10  C   UNL A   1      36.467  31.650  28.324  1.00  0.00     0.010 A 
ATOM     11  C   UNL A   1      36.708  30.389  28.887  1.00  0.00    -0.014 A 
BRANCH  11  12
ATOM     12  C   UNL A   1      37.951  30.070  29.639  1.00  0.00     0.031 A 
ATOM     13  C   UNL A   1      38.192  30.591  31.029  1.00  0.00     0.074 A 
ATOM     14  C   UNL A   1      38.853  29.251  29.059  1.00  0.00     0.049 A 
ATOM     15  N   UNL A   1      39.184  30.325  31.841  1.00  0.00    -0.248 NA
ATOM     16  C   UNL A   1      37.208  31.536  31.581  1.00  0.00     0.031 C 
ATOM     17  C   UNL A   1      38.758  28.732  27.691  1.00  0.00     0.029 A 
ATOM     18  N   UNL A   1      40.008  28.694  29.544  1.00  0.00    -0.354 N 
ATOM     19  C   UNL A   1      38.964  31.088  32.982  1.00  0.00     0.074 A 
ATOM     20  C   UNL A   1      37.750  31.841  32.753  1.00  0.00     0.031 C 
ATOM     21  C   UNL A   1      39.779  27.897  27.465  1.00  0.00     0.029 A 
ATOM     22  C   UNL A   1      40.632  27.859  28.645  1.00  0.00     0.049 A 
ATOM     23  H   UNL A   1      40.357  28.874  30.447  1.00  0.00     0.167 HD
ATOM     24  C   UNL A   1      39.692  31.137  34.124  1.00  0.00     0.034 A 
ATOM     25  C   UNL A   1      41.768  27.144  28.754  1.00  0.00     0.034 A 
ATOM     26  C   UNL A   1      40.881  30.358  34.360  1.00  0.00     0.049 A 
ATOM     27  C   UNL A   1      42.521  27.175  30.051  1.00  0.00     0.074 A 
ATOM     28  C   UNL A   1      41.671  30.315  35.497  1.00  0.00     0.029 A 
ATOM     29  N   UNL A   1      41.449  29.481  33.449  1.00  0.00    -0.354 N 
ATOM     30  N   UNL A   1      42.228  27.815  31.157  1.00  0.00    -0.248 NA
ATOM     31  C   UNL A   1      43.744  26.366  30.127  1.00  0.00     0.031 C 
ATOM     32  C   UNL A   1      42.719  29.417  35.271  1.00  0.00     0.029 A 
ATOM     33  C   UNL A   1      42.576  28.889  33.997  1.00  0.00     0.049 A 
ATOM     34  H   UNL A   1      41.104  29.306  32.544  1.00  0.00     0.167 HD
ATOM     35  C   UNL A   1      43.223  27.478  32.064  1.00  0.00     0.074 A 
ATOM     36  C   UNL A   1      44.103  26.543  31.391  1.00  0.00     0.031 C 
ATOM     37  C   UNL A   1      43.413  27.927  33.329  1.00  0.00     0.034 A 
BRANCH  24  38
ATOM     38  C   UNL A   1      39.196  32.022  35.239  1.00  0.00     0.023 A 
ATOM     39  C   UNL A   1      38.214  31.529  36.121  1.00  0.00     0.012 A 
ATOM     40  C   UNL A   1      39.750  33.297  35.466  1.00  0.00     0.148 A 
ATOM     41  C   UNL A   1      37.774  32.298  37.199  1.00  0.00     0.002 A 
ATOM     42  C   UNL A   1      39.334  34.043  36.564  1.00  0.00     0.091 A 
ATOM     43  F   UNL A   1      40.669  33.758  34.606  1.00  0.00    -0.205 F 
ATOM     44  C   UNL A   1      38.341  33.549  37.426  1.00  0.00     0.022 A 
BRANCH  42  45
ATOM     45  S   UNL A   1      40.053  35.636  36.985  1.00  0.00     0.127 S 
ATOM     46  O   UNL A   1      39.652  36.452  35.839  1.00  0.00    -0.237 OA
ATOM     47  O   UNL A   1      39.367  35.964  38.235  1.00  0.00    -0.237 OA
ATOM     48  O   UNL A   1      41.484  35.406  37.121  1.00  0.00    -0.744 OA
ENDBRANCH  42  45
ENDBRANCH  24  38
BRANCH  25  49
ATOM     49  C   UNL A   1      42.221  26.305  27.610  1.00  0.00     0.023 A 
ATOM     50  C   UNL A   1      43.124  26.834  26.669  1.00  0.00     0.012 A 
ATOM     51  C   UNL A   1      41.810  24.964  27.486  1.00  0.00     0.148 A 
ATOM     52  C   UNL A   1      43.590  26.051  25.613  1.00  0.00     0.002 A 
ATOM     53  C   UNL A   1      42.328  24.170  26.470  1.00  0.00     0.091 A 
ATOM     54  F   UNL A   1      40.933  24.479  28.378  1.00  0.00    -0.205 F 
ATOM     55  C   UNL A   1      43.205  24.715  25.521  1.00  0.00     0.022 A 
BRANCH  53  56
ATOM     56  S   UNL A   1      42.000  22.405  26.401  1.00  0.00     0.127 S 
ATOM     57  O   UNL A   1      42.454  21.963  27.717  1.00  0.00    -0.237 OA
ATOM     58  O   UNL A   1      40.551  22.363  26.202  1.00  0.00    -0.237 OA
ATOM     59  O   UNL A   1      42.768  21.924  25.260  1.00  0.00    -0.744 OA
ENDBRANCH  53  56
ENDBRANCH  25  49
BRANCH  37  60
ATOM     60  C   UNL A   1      44.616  27.406  34.067  1.00  0.00     0.023 A 
ATOM     61  C   UNL A   1      45.843  28.091  33.959  1.00  0.00     0.012 A 
ATOM     62  C   UNL A   1      44.526  26.271  34.895  1.00  0.00     0.148 A 
ATOM     63  C   UNL A   1      46.972  27.634  34.636  1.00  0.00     0.002 A 
ATOM     64  C   UNL A   1      45.646  25.846  35.600  1.00  0.00     0.091 A 
ATOM     65  F   UNL A   1      43.357  25.618  34.966  1.00  0.00    -0.205 F 
ATOM     66  C   UNL A   1      46.871  26.518  35.464  1.00  0.00     0.022 A 
BRANCH  64  67
ATOM     67  S   UNL A   1      45.580  24.467  36.750  1.00  0.00     0.127 S 
ATOM     68  O   UNL A   1      45.252  23.353  35.863  1.00  0.00    -0.237 OA
ATOM     69  O   UNL A   1      46.940  24.438  37.288  1.00  0.00    -0.237 OA
ATOM     70  O   UNL A   1      44.558  24.819  37.727  1.00  0.00    -0.744 OA
ENDBRANCH  64  67
ENDBRANCH  37  60
ENDBRANCH  11  12
ENDBRANCH   4   6
ENDBRANCH   1   2
BRANCH   1  71
ATOM     71  C   UNL A   1      32.344  28.098  24.971  1.00  0.00     0.042 C 
BRANCH  71  72
ATOM     72  C   UNL A   1      31.709  27.878  23.606  1.00  0.00     0.118 C 
BRANCH  72  73
ATOM     73  N   UNL A   1      30.284  27.594  23.705  1.00  0.00    -0.352 N 
ATOM     74  C   UNL A   1      29.647  26.434  24.061  1.00  0.00     0.251 C 
ATOM     75  H   UNL A   1      29.690  28.347  23.483  1.00  0.00     0.163 HD
ATOM     76  O   UNL A   1      28.438  26.310  23.881  1.00  0.00    -0.269 OA
BRANCH  74  77
ATOM     77  C   UNL A   1      30.410  25.323  24.667  1.00  0.00     0.042 A 
ATOM     78  C   UNL A   1      30.279  25.043  26.034  1.00  0.00     0.016 A 
ATOM     79  C   UNL A   1      31.204  24.529  23.825  1.00  0.00     0.042 A 
ATOM     80  C   UNL A   1      30.991  23.990  26.617  1.00  0.00     0.031 A 
ATOM     81  C   UNL A   1      31.891  23.478  24.436  1.00  0.00     0.067 A 
ATOM     82  C   UNL A   1      31.799  23.196  25.795  1.00  0.00     0.089 A 
ATOM     83  N   UNL A   1      32.745  22.519  23.952  1.00  0.00    -0.338 N 
ATOM     84  N   UNL A   1      32.546  22.097  26.116  1.00  0.00    -0.229 NA
ATOM     85  C   UNL A   1      33.113  21.699  24.994  1.00  0.00     0.138 A 
ATOM     86  H   UNL A   1      33.043  22.433  23.018  1.00  0.00     0.168 HD
BRANCH  85  87
ATOM     87  C   UNL A   1      33.956  20.519  24.855  1.00  0.00     0.021 A 
ATOM     88  C   UNL A   1      35.348  20.583  24.977  1.00  0.00     0.051 A 
ATOM     89  C   UNL A   1      33.345  19.275  24.625  1.00  0.00     0.027 A 
ATOM     90  C   UNL A   1      36.100  19.416  24.865  1.00  0.00     0.125 A 
ATOM     91  C   UNL A   1      34.118  18.121  24.504  1.00  0.00     0.021 A 
ATOM     92  F   UNL A   1      37.432  19.481  24.997  1.00  0.00    -0.207 F 
ATOM     93  C   UNL A   1      35.502  18.184  24.627  1.00  0.00     0.055 A 
ATOM     94  Br  UNL A   1      33.276  16.462  24.174  1.00  0.00    -0.051 Br
ENDBRANCH  85  87
ENDBRANCH  74  77
ENDBRANCH  72  73
ENDBRANCH  71  72
ENDBRANCH   1  71
TORSDOF 14
ENDMDL
MODEL 3
REMARK VINA RESULT:     -13.2      5.561     10.855
REMARK SMILES O=C(NCCCNC(=O)c1ccc2nc(-c3cc(F)cc(Br)c3)[nH]c2c1)c1ccc(-c2c3nc(c(-c4cccc(S(=O)(=O)[O-])c4F)c4ccc([nH]4)c(-c4cccc(S(=O)(=O)[O-])c4F)c4nc(c(-c5cccc(S(=O)(=O)[O-])c5F)c5ccc2[nH]5)C=C4)C=C3)cc1
REMARK SMILES IDX 4 1 3 2 1 3 2 4 27 6 28 7 89 8 29 9 88 10 30 11 31 12 32 13
REMARK SMILES IDX 82 14 33 15 87 16 81 17 83 18 34 19 86 20 80 21 79 22 35 24
REMARK SMILES IDX 67 25 47 26 66 27 48 28 51 29 65 30 84 31 49 32 50 33 64 35
REMARK SMILES IDX 85 36 52 37 36 38 37 39 45 40 38 41 40 42 46 43 39 44 41 45
REMARK SMILES IDX 42 46 43 47 44 48 68 49 69 50 77 51 70 52 72 53 78 54 71 55
REMARK SMILES IDX 73 56 74 57 75 58 76 59 53 60 54 61 62 62 55 63 57 64 63 65
REMARK SMILES IDX 56 66 58 67 59 68 60 69 61 70 5 71 6 72 7 73 8 74 9 76 10 77
REMARK SMILES IDX 11 78 26 79 12 80 25 81 13 82 24 83 14 84 15 85 16 87 17 88
REMARK SMILES IDX 23 89 18 90 21 91 19 92 20 93 22 94
REMARK H PARENT 3 5 83 23 51 34 7 75 24 86
REMARK Flexibility Score: inf
ROOT
ATOM      1  C   UNL A   1      32.433  31.521  26.878  1.00  0.00     0.118 C 
ENDROOT
BRANCH   1   2
ATOM      2  N   UNL A   1      32.409  32.933  27.239  1.00  0.00    -0.352 N 
ATOM      3  O   UNL A   1      32.925  34.803  28.374  1.00  0.00    -0.269 OA
ATOM      4  C   UNL A   1      33.236  33.654  28.068  1.00  0.00     0.251 C 
ATOM      5  H   UNL A   1      31.684  33.453  26.823  1.00  0.00     0.163 HD
BRANCH   4   6
ATOM      6  C   UNL A   1      34.471  33.045  28.609  1.00  0.00     0.039 A 
ATOM      7  C   UNL A   1      34.406  31.978  29.503  1.00  0.00     0.014 A 
ATOM      8  C   UNL A   1      35.718  33.540  28.213  1.00  0.00     0.014 A 
ATOM      9  C   UNL A   1      35.556  31.540  30.145  1.00  0.00     0.010 A 
ATOM     10  C   UNL A   1      36.890  33.014  28.772  1.00  0.00     0.010 A 
ATOM     11  C   UNL A   1      36.817  32.038  29.776  1.00  0.00    -0.014 A 
BRANCH  11  12
ATOM     12  C   UNL A   1      38.027  31.453  30.414  1.00  0.00     0.031 A 
ATOM     13  C   UNL A   1      38.423  31.794  31.825  1.00  0.00     0.074 A 
ATOM     14  C   UNL A   1      38.748  30.557  29.709  1.00  0.00     0.049 A 
ATOM     15  N   UNL A   1      39.396  31.296  32.544  1.00  0.00    -0.248 NA
ATOM     16  C   UNL A   1      37.640  32.830  32.518  1.00  0.00     0.031 C 
ATOM     17  C   UNL A   1      38.498  30.192  28.311  1.00  0.00     0.029 A 
ATOM     18  N   UNL A   1      39.817  29.777  30.068  1.00  0.00    -0.354 N 
ATOM     19  C   UNL A   1      39.365  31.973  33.758  1.00  0.00     0.074 A 
ATOM     20  C   UNL A   1      38.284  32.931  33.674  1.00  0.00     0.031 C 
ATOM     21  C   UNL A   1      39.353  29.227  27.948  1.00  0.00     0.029 A 
ATOM     22  C   UNL A   1      40.246  28.941  29.063  1.00  0.00     0.049 A 
ATOM     23  H   UNL A   1      40.237  29.812  30.958  1.00  0.00     0.167 HD
ATOM     24  C   UNL A   1      40.149  31.796  34.849  1.00  0.00     0.034 A 
ATOM     25  C   UNL A   1      41.250  28.045  29.035  1.00  0.00     0.034 A 
ATOM     26  C   UNL A   1      41.201  30.816  34.940  1.00  0.00     0.049 A 
ATOM     27  C   UNL A   1      42.063  27.831  30.278  1.00  0.00     0.074 A 
ATOM     28  C   UNL A   1      42.030  30.539  36.014  1.00  0.00     0.029 A 
ATOM     29  N   UNL A   1      41.567  29.949  33.922  1.00  0.00    -0.354 N 
ATOM     30  N   UNL A   1      41.938  28.402  31.451  1.00  0.00    -0.248 NA
ATOM     31  C   UNL A   1      43.136  26.830  30.204  1.00  0.00     0.031 C 
ATOM     32  C   UNL A   1      42.899  29.507  35.644  1.00  0.00     0.029 A 
ATOM     33  C   UNL A   1      42.605  29.133  34.343  1.00  0.00     0.049 A 
ATOM     34  H   UNL A   1      41.152  29.917  33.030  1.00  0.00     0.167 HD
ATOM     35  C   UNL A   1      42.909  27.825  32.258  1.00  0.00     0.074 A 
ATOM     36  C   UNL A   1      43.584  26.827  31.452  1.00  0.00     0.031 C 
ATOM     37  C   UNL A   1      43.234  28.115  33.542  1.00  0.00     0.034 A 
BRANCH  24  38
ATOM     38  C   UNL A   1      39.865  32.639  36.065  1.00  0.00     0.023 A 
ATOM     39  C   UNL A   1      40.498  33.892  36.195  1.00  0.00     0.012 A 
ATOM     40  C   UNL A   1      38.920  32.240  37.032  1.00  0.00     0.148 A 
ATOM     41  C   UNL A   1      40.214  34.725  37.278  1.00  0.00     0.002 A 
ATOM     42  C   UNL A   1      38.614  33.091  38.089  1.00  0.00     0.091 A 
ATOM     43  F   UNL A   1      38.342  31.038  36.902  1.00  0.00    -0.205 F 
ATOM     44  C   UNL A   1      39.266  34.329  38.218  1.00  0.00     0.022 A 
BRANCH  42  45
ATOM     45  S   UNL A   1      37.356  32.706  39.313  1.00  0.00     0.127 S 
ATOM     46  O   UNL A   1      36.142  32.703  38.497  1.00  0.00    -0.237 OA
ATOM     47  O   UNL A   1      37.776  31.386  39.784  1.00  0.00    -0.237 OA
ATOM     48  O   UNL A   1      37.436  33.761  40.314  1.00  0.00    -0.744 OA
ENDBRANCH  42  45
ENDBRANCH  24  38
BRANCH  25  49
ATOM     49  C   UNL A   1      41.498  27.255  27.797  1.00  0.00     0.023 A 
ATOM     50  C   UNL A   1      42.105  27.869  26.685  1.00  0.00     0.012 A 
ATOM     51  C   UNL A   1      41.193  25.882  27.739  1.00  0.00     0.148 A 
ATOM     52  C   UNL A   1      42.379  27.136  25.531  1.00  0.00     0.002 A 
ATOM     53  C   UNL A   1      41.529  25.143  26.611  1.00  0.00     0.091 A 
ATOM     54  F   UNL A   1      40.596  25.314  28.798  1.00  0.00    -0.205 F 
ATOM     55  C   UNL A   1      42.107  25.770  25.498  1.00  0.00     0.022 A 
BRANCH  53  56
ATOM     56  S   UNL A   1      41.355  23.355  26.577  1.00  0.00     0.127 S 
ATOM     57  O   UNL A   1      41.956  22.970  27.851  1.00  0.00    -0.237 OA
ATOM     58  O   UNL A   1      39.904  23.182  26.501  1.00  0.00    -0.237 OA
ATOM     59  O   UNL A   1      42.065  22.931  25.377  1.00  0.00    -0.744 OA
ENDBRANCH  53  56
ENDBRANCH  25  49
BRANCH  37  60
ATOM     60  C   UNL A   1      44.370  27.339  34.152  1.00  0.00     0.023 A 
ATOM     61  C   UNL A   1      45.679  27.857  34.079  1.00  0.00     0.012 A 
ATOM     62  C   UNL A   1      44.141  26.127  34.829  1.00  0.00     0.148 A 
ATOM     63  C   UNL A   1      46.748  27.161  34.640  1.00  0.00     0.002 A 
ATOM     64  C   UNL A   1      45.206  25.460  35.424  1.00  0.00     0.091 A 
ATOM     65  F   UNL A   1      42.893  25.638  34.867  1.00  0.00    -0.205 F 
ATOM     66  C   UNL A   1      46.511  25.969  35.321  1.00  0.00     0.022 A 
BRANCH  64  67
ATOM     67  S   UNL A   1      44.974  23.962  36.387  1.00  0.00     0.127 S 
ATOM     68  O   UNL A   1      46.354  23.552  36.641  1.00  0.00    -0.237 OA
ATOM     69  O   UNL A   1      44.257  24.453  37.566  1.00  0.00    -0.237 OA
ATOM     70  O   UNL A   1      44.193  23.068  35.542  1.00  0.00    -0.744 OA
ENDBRANCH  64  67
ENDBRANCH  37  60
ENDBRANCH  11  12
ENDBRANCH   4   6
ENDBRANCH   1   2
BRANCH   1  71
ATOM     71  C   UNL A   1      31.311  31.132  25.927  1.00  0.00     0.042 C 
BRANCH  71  72
ATOM     72  C   UNL A   1      31.571  29.845  25.159  1.00  0.00     0.118 C 
BRANCH  72  73
ATOM     73  N   UNL A   1      30.912  29.839  23.860  1.00  0.00    -0.352 N 
ATOM     74  C   UNL A   1      30.573  28.782  23.057  1.00  0.00     0.251 C 
ATOM     75  H   UNL A   1      30.674  30.726  23.507  1.00  0.00     0.163 HD
ATOM     76  O   UNL A   1      30.217  28.973  21.898  1.00  0.00    -0.269 OA
BRANCH  74  77
ATOM     77  C   UNL A   1      30.630  27.401  23.583  1.00  0.00     0.042 A 
ATOM     78  C   UNL A   1      29.526  26.857  24.251  1.00  0.00     0.016 A 
ATOM     79  C   UNL A   1      31.786  26.646  23.331  1.00  0.00     0.042 A 
ATOM     80  C   UNL A   1      29.567  25.549  24.747  1.00  0.00     0.031 A 
ATOM     81  C   UNL A   1      31.789  25.340  23.827  1.00  0.00     0.067 A 
ATOM     82  C   UNL A   1      30.718  24.785  24.517  1.00  0.00     0.089 A 
ATOM     83  N   UNL A   1      32.719  24.331  23.785  1.00  0.00    -0.338 N 
ATOM     84  N   UNL A   1      30.976  23.486  24.856  1.00  0.00    -0.229 NA
ATOM     85  C   UNL A   1      32.189  23.225  24.409  1.00  0.00     0.138 A 
ATOM     86  H   UNL A   1      33.612  24.390  23.376  1.00  0.00     0.168 HD
BRANCH  85  87
ATOM     87  C   UNL A   1      32.854  21.932  24.498  1.00  0.00     0.021 A 
ATOM     88  C   UNL A   1      32.153  20.728  24.382  1.00  0.00     0.051 A 
ATOM     89  C   UNL A   1      34.247  21.900  24.672  1.00  0.00     0.027 A 
ATOM     90  C   UNL A   1      32.847  19.522  24.444  1.00  0.00     0.125 A 
ATOM     91  C   UNL A   1      34.921  20.681  24.744  1.00  0.00     0.021 A 
ATOM     92  F   UNL A   1      32.172  18.372  24.317  1.00  0.00    -0.207 F 
ATOM     93  C   UNL A   1      34.224  19.484  24.627  1.00  0.00     0.055 A 
ATOM     94  Br  UNL A   1      36.793  20.660  25.001  1.00  0.00    -0.051 Br
ENDBRANCH  85  87
ENDBRANCH  74  77
ENDBRANCH  72  73
ENDBRANCH  71  72
ENDBRANCH   1  71
TORSDOF 14
ENDMDL
