MODEL 1
REMARK VINA RESULT:     -13.8      0.000      0.000
REMARK SMILES O=C(NCCCNC(=O)c1ccc(-c2c3nc(c(-c4cccc(S(=O)(=O)[O-])c4F)c4ccc([nH]4)c(-c4cccc(S(=O)(=O)[O-])c4F)c4nc(c(-c5cccc(S(=O)(=O)[O-])c5F)c5ccc2[nH]5)C=C4)C=C3)cc1)C1=Cc2cc(S(F)(F)(F)(F)F)cc(Br)c2O[C@@H]1C(F)(F)F
REMARK SMILES IDX 6 1 5 2 4 3 3 4 1 5 2 6 73 8 74 9 89 10 75 11 88 12 76 13
REMARK SMILES IDX 87 14 77 15 85 16 84 17 86 18 90 19 91 20 92 21 93 22 78 23
REMARK SMILES IDX 79 24 80 25 81 26 82 27 83 28 7 29 8 30 9 32 10 33 11 34
REMARK SMILES IDX 72 35 12 36 71 37 13 38 14 39 15 40 65 41 16 42 70 43 64 44
REMARK SMILES IDX 66 45 17 46 69 47 63 48 62 49 18 51 50 52 30 53 49 54 31 55
REMARK SMILES IDX 34 56 48 57 67 58 32 59 33 60 47 62 68 63 35 64 19 65 20 66
REMARK SMILES IDX 28 67 21 68 23 69 29 70 22 71 24 72 25 73 26 74 27 75 51 76
REMARK SMILES IDX 52 77 60 78 53 79 55 80 61 81 54 82 56 83 57 84 58 85 59 86
REMARK SMILES IDX 36 87 37 88 45 89 38 90 40 91 46 92 39 93 41 94 42 95 43 96
REMARK SMILES IDX 44 97
REMARK H PARENT 3 7 7 31 66 50 34 61
REMARK Flexibility Score: inf
ROOT
ATOM      1  C   UNL A   1      33.564  29.041  24.835  1.00  0.00     0.118 C 
ENDROOT
BRANCH   1   2
ATOM      2  C   UNL A   1      32.829  27.903  24.146  1.00  0.00     0.042 C 
BRANCH   2   3
ATOM      3  C   UNL A   1      33.285  26.577  24.731  1.00  0.00     0.118 C 
BRANCH   3   4
ATOM      4  N   UNL A   1      33.692  25.676  23.644  1.00  0.00    -0.352 N 
ATOM      5  O   UNL A   1      33.300  23.652  22.462  1.00  0.00    -0.270 OA
ATOM      6  C   UNL A   1      32.948  24.431  23.403  1.00  0.00     0.251 C 
ATOM      7  H   UNL A   1      34.463  25.906  23.076  1.00  0.00     0.163 HD
BRANCH   6   8
ATOM      8  C   UNL A   1      31.758  24.075  24.280  1.00  0.00     0.067 C 
ATOM      9  C   UNL A   1      31.692  22.852  24.872  1.00  0.00     0.025 C 
ATOM     10  C   UNL A   1      30.644  25.085  24.495  1.00  0.00     0.314 C 
ATOM     11  C   UNL A   1      32.807  21.842  24.657  1.00  0.00     0.020 A 
ATOM     12  O   UNL A   1      34.347  23.646  24.804  1.00  0.00    -0.474 OA
ATOM     13  C   UNL A   1      32.502  20.507  24.439  1.00  0.00     0.036 A 
ATOM     14  C   UNL A   1      34.066  22.254  24.743  1.00  0.00     0.142 A 
ATOM     15  C   UNL A   1      33.600  19.632  24.617  1.00  0.00     0.109 A 
ATOM     16  C   UNL A   1      35.099  21.349  24.775  1.00  0.00     0.062 A 
ATOM     17  C   UNL A   1      34.866  20.011  24.626  1.00  0.00     0.044 A 
ATOM     18  Br  UNL A   1      36.934  21.986  25.036  1.00  0.00    -0.047 Br
BRANCH  10  19
ATOM     19  C   UNL A   1      30.525  25.401  25.977  1.00  0.00     0.429 C 
ATOM     20  F   UNL A   1      29.513  24.712  26.497  1.00  0.00    -0.167 F 
ATOM     21  F   UNL A   1      31.653  25.065  26.594  1.00  0.00    -0.167 F 
ATOM     22  F   UNL A   1      30.303  26.703  26.136  1.00  0.00    -0.167 F 
ENDBRANCH  10  19
BRANCH  15  23
ATOM     23  S   UNL A   1      33.244  17.873  24.848  1.00  0.00     0.310 S 
ATOM     24  F   UNL A   1      31.781  18.027  24.256  1.00  0.00    -0.094 F 
ATOM     25  F   UNL A   1      32.635  18.213  26.260  1.00  0.00    -0.094 F 
ATOM     26  F   UNL A   1      32.937  16.362  25.049  1.00  0.00    -0.094 F 
ATOM     27  F   UNL A   1      33.729  17.571  23.376  1.00  0.00    -0.094 F 
ATOM     28  F   UNL A   1      33.458  19.417  24.585  1.00  0.00    -0.094 F 
ENDBRANCH  15  23
ENDBRANCH   6   8
ENDBRANCH   3   4
ENDBRANCH   2   3
ENDBRANCH   1   2
BRANCH   1  29
ATOM     29  N   UNL A   1      32.596  30.057  25.273  1.00  0.00    -0.352 N 
ATOM     30  C   UNL A   1      32.844  30.828  26.500  1.00  0.00     0.251 C 
ATOM     31  H   UNL A   1      31.781  30.221  24.745  1.00  0.00     0.163 HD
ATOM     32  O   UNL A   1      32.007  31.705  26.879  1.00  0.00    -0.269 OA
BRANCH  30  33
ATOM     33  C   UNL A   1      34.102  30.574  27.315  1.00  0.00     0.039 A 
ATOM     34  C   UNL A   1      34.913  31.653  27.626  1.00  0.00     0.014 A 
ATOM     35  C   UNL A   1      34.400  29.347  27.726  1.00  0.00     0.014 A 
ATOM     36  C   UNL A   1      36.181  31.288  28.136  1.00  0.00     0.010 A 
ATOM     37  C   UNL A   1      35.602  29.088  28.339  1.00  0.00     0.010 A 
ATOM     38  C   UNL A   1      36.478  30.097  28.624  1.00  0.00    -0.014 A 
BRANCH  38  39
ATOM     39  C   UNL A   1      37.727  29.861  29.459  1.00  0.00     0.031 A 
ATOM     40  C   UNL A   1      37.825  30.514  30.688  1.00  0.00     0.074 A 
ATOM     41  C   UNL A   1      38.696  29.012  28.953  1.00  0.00     0.049 A 
ATOM     42  N   UNL A   1      38.809  30.420  31.583  1.00  0.00    -0.248 NA
ATOM     43  C   UNL A   1      36.812  31.443  31.211  1.00  0.00     0.031 C 
ATOM     44  C   UNL A   1      38.600  28.343  27.718  1.00  0.00     0.029 A 
ATOM     45  N   UNL A   1      39.897  28.665  29.529  1.00  0.00    -0.354 N 
ATOM     46  C   UNL A   1      38.540  31.180  32.648  1.00  0.00     0.074 A 
ATOM     47  C   UNL A   1      37.253  31.852  32.421  1.00  0.00     0.031 C 
ATOM     48  C   UNL A   1      39.733  27.612  27.546  1.00  0.00     0.029 A 
ATOM     49  C   UNL A   1      40.555  27.811  28.671  1.00  0.00     0.049 A 
ATOM     50  H   UNL A   1      40.230  28.973  30.404  1.00  0.00     0.167 HD
ATOM     51  C   UNL A   1      39.314  31.335  33.798  1.00  0.00     0.034 A 
ATOM     52  C   UNL A   1      41.802  27.231  28.841  1.00  0.00     0.034 A 
ATOM     53  C   UNL A   1      40.541  30.720  33.986  1.00  0.00     0.049 A 
ATOM     54  C   UNL A   1      42.604  27.432  29.967  1.00  0.00     0.074 A 
ATOM     55  C   UNL A   1      41.332  30.861  35.143  1.00  0.00     0.029 A 
ATOM     56  N   UNL A   1      41.210  29.887  33.118  1.00  0.00    -0.354 N 
ATOM     57  N   UNL A   1      42.316  28.159  31.048  1.00  0.00    -0.248 NA
ATOM     58  C   UNL A   1      43.940  26.848  30.144  1.00  0.00     0.031 C 
ATOM     59  C   UNL A   1      42.465  30.129  34.971  1.00  0.00     0.029 A 
ATOM     60  C   UNL A   1      42.402  29.520  33.703  1.00  0.00     0.049 A 
ATOM     61  H   UNL A   1      40.891  29.601  32.231  1.00  0.00     0.167 HD
ATOM     62  C   UNL A   1      43.321  28.099  31.923  1.00  0.00     0.074 A 
ATOM     63  C   UNL A   1      44.383  27.260  31.352  1.00  0.00     0.031 C 
ATOM     64  C   UNL A   1      43.392  28.705  33.179  1.00  0.00     0.034 A 
BRANCH  51  65
ATOM     65  C   UNL A   1      38.782  32.229  34.906  1.00  0.00     0.023 A 
ATOM     66  C   UNL A   1      38.936  33.601  34.799  1.00  0.00     0.012 A 
ATOM     67  C   UNL A   1      38.197  31.682  35.965  1.00  0.00     0.148 A 
ATOM     68  C   UNL A   1      38.696  34.301  36.006  1.00  0.00     0.002 A 
ATOM     69  C   UNL A   1      37.867  32.448  37.056  1.00  0.00     0.091 A 
ATOM     70  F   UNL A   1      37.929  30.379  35.969  1.00  0.00    -0.205 F 
ATOM     71  C   UNL A   1      38.047  33.804  37.043  1.00  0.00     0.022 A 
BRANCH  69  72
ATOM     72  S   UNL A   1      37.184  31.654  38.531  1.00  0.00     0.127 S 
ATOM     73  O   UNL A   1      37.028  30.152  38.276  1.00  0.00    -0.237 OA
ATOM     74  O   UNL A   1      38.129  31.875  39.713  1.00  0.00    -0.237 OA
ATOM     75  O   UNL A   1      35.656  32.332  38.887  1.00  0.00    -0.744 OA
ENDBRANCH  69  72
ENDBRANCH  51  65
BRANCH  52  76
ATOM     76  C   UNL A   1      42.326  26.323  27.739  1.00  0.00     0.023 A 
ATOM     77  C   UNL A   1      43.138  26.860  26.754  1.00  0.00     0.012 A 
ATOM     78  C   UNL A   1      42.017  25.032  27.749  1.00  0.00     0.148 A 
ATOM     79  C   UNL A   1      43.344  26.001  25.649  1.00  0.00     0.002 A 
ATOM     80  C   UNL A   1      42.367  24.221  26.697  1.00  0.00     0.091 A 
ATOM     81  F   UNL A   1      41.362  24.520  28.787  1.00  0.00    -0.205 F 
ATOM     82  C   UNL A   1      43.118  24.700  25.660  1.00  0.00     0.022 A 
BRANCH  80  83
ATOM     83  S   UNL A   1      41.824  22.495  26.682  1.00  0.00     0.127 S 
ATOM     84  O   UNL A   1      42.266  21.831  25.376  1.00  0.00    -0.237 OA
ATOM     85  O   UNL A   1      42.448  21.754  27.867  1.00  0.00    -0.237 OA
ATOM     86  O   UNL A   1      40.120  22.432  26.804  1.00  0.00    -0.744 OA
ENDBRANCH  80  83
ENDBRANCH  52  76
BRANCH  64  87
ATOM     87  C   UNL A   1      44.633  28.456  34.021  1.00  0.00     0.023 A 
ATOM     88  C   UNL A   1      45.700  29.330  33.897  1.00  0.00     0.012 A 
ATOM     89  C   UNL A   1      44.677  27.429  34.863  1.00  0.00     0.148 A 
ATOM     90  C   UNL A   1      46.894  28.865  34.498  1.00  0.00     0.002 A 
ATOM     91  C   UNL A   1      45.841  27.114  35.521  1.00  0.00     0.091 A 
ATOM     92  F   UNL A   1      43.585  26.699  35.071  1.00  0.00    -0.205 F 
ATOM     93  C   UNL A   1      46.954  27.900  35.398  1.00  0.00     0.022 A 
BRANCH  91  94
ATOM     94  S   UNL A   1      45.903  25.638  36.566  1.00  0.00     0.127 S 
ATOM     95  O   UNL A   1      45.606  24.399  35.718  1.00  0.00    -0.237 OA
ATOM     96  O   UNL A   1      47.298  25.510  37.185  1.00  0.00    -0.237 OA
ATOM     97  O   UNL A   1      44.737  25.770  37.810  1.00  0.00    -0.744 OA
ENDBRANCH  91  94
ENDBRANCH  64  87
ENDBRANCH  38  39
ENDBRANCH  30  33
ENDBRANCH   1  29
TORSDOF 15
ENDMDL
MODEL 2
REMARK VINA RESULT:     -13.7      0.324      7.238
REMARK SMILES O=C(NCCCNC(=O)c1ccc(-c2c3nc(c(-c4cccc(S(=O)(=O)[O-])c4F)c4ccc([nH]4)c(-c4cccc(S(=O)(=O)[O-])c4F)c4nc(c(-c5cccc(S(=O)(=O)[O-])c5F)c5ccc2[nH]5)C=C4)C=C3)cc1)C1=Cc2cc(S(F)(F)(F)(F)F)cc(Br)c2O[C@@H]1C(F)(F)F
REMARK SMILES IDX 6 1 5 2 4 3 3 4 1 5 2 6 73 8 74 9 89 10 75 11 88 12 76 13
REMARK SMILES IDX 87 14 77 15 85 16 84 17 86 18 90 19 91 20 92 21 93 22 78 23
REMARK SMILES IDX 79 24 80 25 81 26 82 27 83 28 7 29 8 30 9 32 10 33 11 34
REMARK SMILES IDX 72 35 12 36 71 37 13 38 14 39 15 40 65 41 16 42 70 43 64 44
REMARK SMILES IDX 66 45 17 46 69 47 63 48 62 49 18 51 50 52 30 53 49 54 31 55
REMARK SMILES IDX 34 56 48 57 67 58 32 59 33 60 47 62 68 63 35 64 19 65 20 66
REMARK SMILES IDX 28 67 21 68 23 69 29 70 22 71 24 72 25 73 26 74 27 75 51 76
REMARK SMILES IDX 52 77 60 78 53 79 55 80 61 81 54 82 56 83 57 84 58 85 59 86
REMARK SMILES IDX 36 87 37 88 45 89 38 90 40 91 46 92 39 93 41 94 42 95 43 96
REMARK SMILES IDX 44 97
REMARK H PARENT 3 7 7 31 66 50 34 61
REMARK Flexibility Score: inf
ROOT
ATOM      1  C   UNL A   1      33.653  28.995  25.039  1.00  0.00     0.118 C 
ENDROOT
BRANCH   1   2
ATOM      2  C   UNL A   1      32.892  27.910  24.296  1.00  0.00     0.042 C 
BRANCH   2   3
ATOM      3  C   UNL A   1      33.275  26.549  24.853  1.00  0.00     0.118 C 
BRANCH   3   4
ATOM      4  N   UNL A   1      33.701  25.672  23.754  1.00  0.00    -0.352 N 
ATOM      5  O   UNL A   1      33.329  23.676  22.520  1.00  0.00    -0.270 OA
ATOM      6  C   UNL A   1      32.960  24.434  23.471  1.00  0.00     0.251 C 
ATOM      7  H   UNL A   1      34.483  25.913  23.206  1.00  0.00     0.163 HD
BRANCH   6   8
ATOM      8  C   UNL A   1      31.754  24.060  24.317  1.00  0.00     0.067 C 
ATOM      9  C   UNL A   1      31.674  22.825  24.880  1.00  0.00     0.025 C 
ATOM     10  C   UNL A   1      30.637  25.068  24.533  1.00  0.00     0.314 C 
ATOM     11  C   UNL A   1      32.792  21.818  24.664  1.00  0.00     0.020 A 
ATOM     12  O   UNL A   1      34.332  23.615  24.881  1.00  0.00    -0.474 OA
ATOM     13  C   UNL A   1      32.490  20.489  24.411  1.00  0.00     0.036 A 
ATOM     14  C   UNL A   1      34.050  22.226  24.783  1.00  0.00     0.142 A 
ATOM     15  C   UNL A   1      33.583  19.609  24.590  1.00  0.00     0.109 A 
ATOM     16  C   UNL A   1      35.080  21.319  24.815  1.00  0.00     0.062 A 
ATOM     17  C   UNL A   1      34.848  19.984  24.632  1.00  0.00     0.044 A 
ATOM     18  Br  UNL A   1      36.911  21.947  25.125  1.00  0.00    -0.047 Br
BRANCH  10  19
ATOM     19  C   UNL A   1      30.490  25.351  26.020  1.00  0.00     0.429 C 
ATOM     20  F   UNL A   1      30.290  26.652  26.205  1.00  0.00    -0.167 F 
ATOM     21  F   UNL A   1      29.454  24.670  26.500  1.00  0.00    -0.167 F 
ATOM     22  F   UNL A   1      31.599  24.978  26.653  1.00  0.00    -0.167 F 
ENDBRANCH  10  19
BRANCH  15  23
ATOM     23  S   UNL A   1      33.220  17.845  24.775  1.00  0.00     0.310 S 
ATOM     24  F   UNL A   1      31.781  18.009  24.128  1.00  0.00    -0.094 F 
ATOM     25  F   UNL A   1      32.555  18.159  26.167  1.00  0.00    -0.094 F 
ATOM     26  F   UNL A   1      32.908  16.331  24.936  1.00  0.00    -0.094 F 
ATOM     27  F   UNL A   1      33.764  17.570  23.318  1.00  0.00    -0.094 F 
ATOM     28  F   UNL A   1      33.442  19.394  24.549  1.00  0.00    -0.094 F 
ENDBRANCH  15  23
ENDBRANCH   6   8
ENDBRANCH   3   4
ENDBRANCH   2   3
ENDBRANCH   1   2
BRANCH   1  29
ATOM     29  N   UNL A   1      32.722  30.057  25.448  1.00  0.00    -0.352 N 
ATOM     30  C   UNL A   1      33.008  30.866  26.642  1.00  0.00     0.251 C 
ATOM     31  H   UNL A   1      31.906  30.225  24.922  1.00  0.00     0.163 HD
ATOM     32  O   UNL A   1      32.202  31.782  26.995  1.00  0.00    -0.269 OA
BRANCH  30  33
ATOM     33  C   UNL A   1      34.266  30.605  27.453  1.00  0.00     0.039 A 
ATOM     34  C   UNL A   1      34.453  29.342  27.989  1.00  0.00     0.014 A 
ATOM     35  C   UNL A   1      35.165  31.567  27.626  1.00  0.00     0.014 A 
ATOM     36  C   UNL A   1      35.493  29.273  28.945  1.00  0.00     0.010 A 
ATOM     37  C   UNL A   1      36.232  31.382  28.472  1.00  0.00     0.010 A 
ATOM     38  C   UNL A   1      36.446  30.179  29.082  1.00  0.00    -0.014 A 
BRANCH  38  39
ATOM     39  C   UNL A   1      37.711  29.897  29.876  1.00  0.00     0.031 A 
ATOM     40  C   UNL A   1      38.670  29.060  29.304  1.00  0.00     0.074 A 
ATOM     41  C   UNL A   1      37.842  30.487  31.122  1.00  0.00     0.049 A 
ATOM     42  N   UNL A   1      39.854  28.714  29.810  1.00  0.00    -0.248 NA
ATOM     43  C   UNL A   1      38.517  28.405  27.996  1.00  0.00     0.031 C 
ATOM     44  C   UNL A   1      36.884  31.340  31.702  1.00  0.00     0.029 A 
ATOM     45  N   UNL A   1      38.890  30.365  32.007  1.00  0.00    -0.354 N 
ATOM     46  C   UNL A   1      40.503  27.912  28.962  1.00  0.00     0.074 A 
ATOM     47  C   UNL A   1      39.649  27.698  27.785  1.00  0.00     0.031 C 
ATOM     48  C   UNL A   1      37.341  31.717  32.926  1.00  0.00     0.029 A 
ATOM     49  C   UNL A   1      38.593  31.108  33.129  1.00  0.00     0.049 A 
ATOM     50  H   UNL A   1      39.710  29.838  31.864  1.00  0.00     0.167 HD
ATOM     51  C   UNL A   1      41.771  27.354  29.122  1.00  0.00     0.034 A 
ATOM     52  C   UNL A   1      39.357  31.255  34.276  1.00  0.00     0.034 A 
ATOM     53  C   UNL A   1      42.554  27.537  30.251  1.00  0.00     0.049 A 
ATOM     54  C   UNL A   1      40.602  30.650  34.462  1.00  0.00     0.074 A 
ATOM     55  C   UNL A   1      43.838  26.988  30.426  1.00  0.00     0.029 A 
ATOM     56  N   UNL A   1      42.247  28.259  31.383  1.00  0.00    -0.354 N 
ATOM     57  N   UNL A   1      41.267  29.880  33.597  1.00  0.00    -0.248 NA
ATOM     58  C   UNL A   1      41.406  30.773  35.685  1.00  0.00     0.031 C 
ATOM     59  C   UNL A   1      44.296  27.366  31.650  1.00  0.00     0.029 A 
ATOM     60  C   UNL A   1      43.304  28.157  32.260  1.00  0.00     0.049 A 
ATOM     61  H   UNL A   1      41.415  28.762  31.538  1.00  0.00     0.167 HD
ATOM     62  C   UNL A   1      42.433  29.500  34.122  1.00  0.00     0.074 A 
ATOM     63  C   UNL A   1      42.537  30.063  35.475  1.00  0.00     0.031 C 
ATOM     64  C   UNL A   1      43.417  28.711  33.525  1.00  0.00     0.034 A 
BRANCH  51  65
ATOM     65  C   UNL A   1      42.326  26.497  27.996  1.00  0.00     0.023 A 
ATOM     66  C   UNL A   1      43.147  27.079  27.046  1.00  0.00     0.012 A 
ATOM     67  C   UNL A   1      41.999  25.211  27.930  1.00  0.00     0.148 A 
ATOM     68  C   UNL A   1      43.342  26.284  25.892  1.00  0.00     0.002 A 
ATOM     69  C   UNL A   1      42.340  24.459  26.833  1.00  0.00     0.091 A 
ATOM     70  F   UNL A   1      41.336  24.648  28.935  1.00  0.00    -0.205 F 
ATOM     71  C   UNL A   1      43.100  24.987  25.826  1.00  0.00     0.022 A 
BRANCH  69  72
ATOM     72  S   UNL A   1      41.774  22.743  26.717  1.00  0.00     0.127 S 
ATOM     73  O   UNL A   1      42.232  22.144  25.384  1.00  0.00    -0.237 OA
ATOM     74  O   UNL A   1      42.366  21.932  27.871  1.00  0.00    -0.237 OA
ATOM     75  O   UNL A   1      40.068  22.699  26.805  1.00  0.00    -0.744 OA
ENDBRANCH  69  72
ENDBRANCH  51  65
BRANCH  52  76
ATOM     76  C   UNL A   1      38.809  32.126  35.395  1.00  0.00     0.023 A 
ATOM     77  C   UNL A   1      38.978  33.499  35.324  1.00  0.00     0.012 A 
ATOM     78  C   UNL A   1      38.164  31.563  36.410  1.00  0.00     0.148 A 
ATOM     79  C   UNL A   1      38.675  34.178  36.528  1.00  0.00     0.002 A 
ATOM     80  C   UNL A   1      37.778  32.312  37.495  1.00  0.00     0.091 A 
ATOM     81  F   UNL A   1      37.889  30.263  36.375  1.00  0.00    -0.205 F 
ATOM     82  C   UNL A   1      37.966  33.666  37.518  1.00  0.00     0.022 A 
BRANCH  80  83
ATOM     83  S   UNL A   1      37.011  31.494  38.915  1.00  0.00     0.127 S 
ATOM     84  O   UNL A   1      35.690  32.190  39.253  1.00  0.00    -0.237 OA
ATOM     85  O   UNL A   1      36.740  30.027  38.573  1.00  0.00    -0.237 OA
ATOM     86  O   UNL A   1      38.062  31.582  40.260  1.00  0.00    -0.744 OA
ENDBRANCH  80  83
ENDBRANCH  52  76
BRANCH  64  87
ATOM     87  C   UNL A   1      44.690  28.443  34.311  1.00  0.00     0.023 A 
ATOM     88  C   UNL A   1      45.748  29.328  34.173  1.00  0.00     0.012 A 
ATOM     89  C   UNL A   1      44.772  27.392  35.118  1.00  0.00     0.148 A 
ATOM     90  C   UNL A   1      46.967  28.852  34.712  1.00  0.00     0.002 A 
ATOM     91  C   UNL A   1      45.963  27.064  35.720  1.00  0.00     0.091 A 
ATOM     92  F   UNL A   1      43.693  26.649  35.344  1.00  0.00    -0.205 F 
ATOM     93  C   UNL A   1      47.066  27.860  35.579  1.00  0.00     0.022 A 
BRANCH  91  94
ATOM     94  S   UNL A   1      46.073  25.556  36.715  1.00  0.00     0.127 S 
ATOM     95  O   UNL A   1      45.972  24.332  35.801  1.00  0.00    -0.237 OA
ATOM     96  O   UNL A   1      47.413  25.531  37.456  1.00  0.00    -0.237 OA
ATOM     97  O   UNL A   1      44.794  25.527  37.850  1.00  0.00    -0.744 OA
ENDBRANCH  91  94
ENDBRANCH  64  87
ENDBRANCH  38  39
ENDBRANCH  30  33
ENDBRANCH   1  29
TORSDOF 15
ENDMDL
MODEL 3
REMARK VINA RESULT:     -13.5      1.361      1.709
REMARK SMILES O=C(NCCCNC(=O)c1ccc(-c2c3nc(c(-c4cccc(S(=O)(=O)[O-])c4F)c4ccc([nH]4)c(-c4cccc(S(=O)(=O)[O-])c4F)c4nc(c(-c5cccc(S(=O)(=O)[O-])c5F)c5ccc2[nH]5)C=C4)C=C3)cc1)C1=Cc2cc(S(F)(F)(F)(F)F)cc(Br)c2O[C@@H]1C(F)(F)F
REMARK SMILES IDX 6 1 5 2 4 3 3 4 1 5 2 6 73 8 74 9 89 10 75 11 88 12 76 13
REMARK SMILES IDX 87 14 77 15 85 16 84 17 86 18 90 19 91 20 92 21 93 22 78 23
REMARK SMILES IDX 79 24 80 25 81 26 82 27 83 28 7 29 8 30 9 32 10 33 11 34
REMARK SMILES IDX 72 35 12 36 71 37 13 38 14 39 15 40 65 41 16 42 70 43 64 44
REMARK SMILES IDX 66 45 17 46 69 47 63 48 62 49 18 51 50 52 30 53 49 54 31 55
REMARK SMILES IDX 34 56 48 57 67 58 32 59 33 60 47 62 68 63 35 64 19 65 20 66
REMARK SMILES IDX 28 67 21 68 23 69 29 70 22 71 24 72 25 73 26 74 27 75 51 76
REMARK SMILES IDX 52 77 60 78 53 79 55 80 61 81 54 82 56 83 57 84 58 85 59 86
REMARK SMILES IDX 36 87 37 88 45 89 38 90 40 91 46 92 39 93 41 94 42 95 43 96
REMARK SMILES IDX 44 97
REMARK H PARENT 3 7 7 31 66 50 34 61
REMARK Flexibility Score: inf
ROOT
ATOM      1  C   UNL A   1      33.884  28.938  25.280  1.00  0.00     0.118 C 
ENDROOT
BRANCH   1   2
ATOM      2  C   UNL A   1      33.054  27.894  24.552  1.00  0.00     0.042 C 
BRANCH   2   3
ATOM      3  C   UNL A   1      33.430  26.509  25.052  1.00  0.00     0.118 C 
BRANCH   3   4
ATOM      4  N   UNL A   1      33.850  25.676  23.916  1.00  0.00    -0.352 N 
ATOM      5  O   UNL A   1      33.442  23.756  22.577  1.00  0.00    -0.270 OA
ATOM      6  C   UNL A   1      33.079  24.476  23.560  1.00  0.00     0.251 C 
ATOM      7  H   UNL A   1      34.647  25.921  23.393  1.00  0.00     0.163 HD
BRANCH   6   8
ATOM      8  C   UNL A   1      31.848  24.096  24.366  1.00  0.00     0.067 C 
ATOM      9  C   UNL A   1      31.741  22.848  24.897  1.00  0.00     0.025 C 
ATOM     10  C   UNL A   1      30.737  25.110  24.580  1.00  0.00     0.314 C 
ATOM     11  C   UNL A   1      32.853  21.833  24.682  1.00  0.00     0.020 A 
ATOM     12  O   UNL A   1      34.406  23.607  24.981  1.00  0.00    -0.474 OA
ATOM     13  C   UNL A   1      32.542  20.515  24.390  1.00  0.00     0.036 A 
ATOM     14  C   UNL A   1      34.112  22.224  24.843  1.00  0.00     0.142 A 
ATOM     15  C   UNL A   1      33.621  19.618  24.573  1.00  0.00     0.109 A 
ATOM     16  C   UNL A   1      35.131  21.304  24.876  1.00  0.00     0.062 A 
ATOM     17  C   UNL A   1      34.889  19.978  24.655  1.00  0.00     0.044 A 
ATOM     18  Br  UNL A   1      36.961  21.903  25.246  1.00  0.00    -0.047 Br
BRANCH  10  19
ATOM     19  C   UNL A   1      30.557  25.358  26.070  1.00  0.00     0.429 C 
ATOM     20  F   UNL A   1      31.626  24.915  26.725  1.00  0.00    -0.167 F 
ATOM     21  F   UNL A   1      30.413  26.661  26.287  1.00  0.00    -0.167 F 
ATOM     22  F   UNL A   1      29.475  24.714  26.499  1.00  0.00    -0.167 F 
ENDBRANCH  10  19
BRANCH  15  23
ATOM     23  S   UNL A   1      33.235  17.854  24.705  1.00  0.00     0.310 S 
ATOM     24  F   UNL A   1      31.781  18.064  24.109  1.00  0.00    -0.094 F 
ATOM     25  F   UNL A   1      32.616  18.128  26.128  1.00  0.00    -0.094 F 
ATOM     26  F   UNL A   1      32.902  16.340  24.821  1.00  0.00    -0.094 F 
ATOM     27  F   UNL A   1      33.731  17.624  23.224  1.00  0.00    -0.094 F 
ATOM     28  F   UNL A   1      33.476  19.407  24.528  1.00  0.00    -0.094 F 
ENDBRANCH  15  23
ENDBRANCH   6   8
ENDBRANCH   3   4
ENDBRANCH   2   3
ENDBRANCH   1   2
BRANCH   1  29
ATOM     29  N   UNL A   1      33.026  30.069  25.663  1.00  0.00    -0.352 N 
ATOM     30  C   UNL A   1      33.385  30.907  26.816  1.00  0.00     0.251 C 
ATOM     31  H   UNL A   1      32.211  30.265  25.146  1.00  0.00     0.163 HD
ATOM     32  O   UNL A   1      32.643  31.884  27.147  1.00  0.00    -0.269 OA
BRANCH  30  33
ATOM     33  C   UNL A   1      34.644  30.604  27.612  1.00  0.00     0.039 A 
ATOM     34  C   UNL A   1      34.747  29.372  28.236  1.00  0.00     0.014 A 
ATOM     35  C   UNL A   1      35.620  31.501  27.692  1.00  0.00     0.014 A 
ATOM     36  C   UNL A   1      35.807  29.289  29.169  1.00  0.00     0.010 A 
ATOM     37  C   UNL A   1      36.695  31.292  28.522  1.00  0.00     0.010 A 
ATOM     38  C   UNL A   1      36.832  30.122  29.215  1.00  0.00    -0.014 A 
BRANCH  38  39
ATOM     39  C   UNL A   1      38.095  29.796  29.995  1.00  0.00     0.031 A 
ATOM     40  C   UNL A   1      38.252  30.374  31.256  1.00  0.00     0.074 A 
ATOM     41  C   UNL A   1      39.018  28.945  29.413  1.00  0.00     0.049 A 
ATOM     42  N   UNL A   1      39.258  30.196  32.113  1.00  0.00    -0.248 NA
ATOM     43  C   UNL A   1      37.289  31.306  31.862  1.00  0.00     0.031 C 
ATOM     44  C   UNL A   1      38.863  28.351  28.145  1.00  0.00     0.029 A 
ATOM     45  N   UNL A   1      40.223  28.524  29.931  1.00  0.00    -0.354 N 
ATOM     46  C   UNL A   1      39.046  30.902  33.227  1.00  0.00     0.074 A 
ATOM     47  C   UNL A   1      37.779  31.630  33.078  1.00  0.00     0.031 C 
ATOM     48  C   UNL A   1      39.964  27.593  27.898  1.00  0.00     0.029 A 
ATOM     49  C   UNL A   1      40.824  27.699  29.006  1.00  0.00     0.049 A 
ATOM     50  H   UNL A   1      40.591  28.770  30.811  1.00  0.00     0.167 HD
ATOM     51  C   UNL A   1      39.859  30.964  34.360  1.00  0.00     0.034 A 
ATOM     52  C   UNL A   1      42.054  27.068  29.105  1.00  0.00     0.034 A 
ATOM     53  C   UNL A   1      41.068  30.298  34.475  1.00  0.00     0.049 A 
ATOM     54  C   UNL A   1      42.895  27.177  30.215  1.00  0.00     0.074 A 
ATOM     55  C   UNL A   1      41.897  30.345  35.613  1.00  0.00     0.029 A 
ATOM     56  N   UNL A   1      41.681  29.493  33.541  1.00  0.00    -0.354 N 
ATOM     57  N   UNL A   1      42.665  27.851  31.343  1.00  0.00    -0.248 NA
ATOM     58  C   UNL A   1      44.214  26.538  30.317  1.00  0.00     0.031 C 
ATOM     59  C   UNL A   1      42.998  29.586  35.365  1.00  0.00     0.029 A 
ATOM     60  C   UNL A   1      42.876  29.053  34.067  1.00  0.00     0.049 A 
ATOM     61  H   UNL A   1      41.327  29.270  32.650  1.00  0.00     0.167 HD
ATOM     62  C   UNL A   1      43.691  27.706  32.183  1.00  0.00     0.074 A 
ATOM     63  C   UNL A   1      44.706  26.866  31.533  1.00  0.00     0.031 C 
ATOM     64  C   UNL A   1      43.821  28.236  33.468  1.00  0.00     0.034 A 
BRANCH  51  65
ATOM     65  C   UNL A   1      39.391  31.811  35.532  1.00  0.00     0.023 A 
ATOM     66  C   UNL A   1      38.429  31.305  36.389  1.00  0.00     0.012 A 
ATOM     67  C   UNL A   1      39.897  33.027  35.703  1.00  0.00     0.148 A 
ATOM     68  C   UNL A   1      37.848  32.277  37.237  1.00  0.00     0.002 A 
ATOM     69  C   UNL A   1      39.368  33.877  36.644  1.00  0.00     0.091 A 
ATOM     70  F   UNL A   1      40.923  33.425  34.958  1.00  0.00    -0.205 F 
ATOM     71  C   UNL A   1      38.373  33.463  37.486  1.00  0.00     0.022 A 
BRANCH  69  72
ATOM     72  S   UNL A   1      39.997  35.570  36.771  1.00  0.00     0.127 S 
ATOM     73  O   UNL A   1      41.517  35.537  36.954  1.00  0.00    -0.237 OA
ATOM     74  O   UNL A   1      39.653  36.339  35.494  1.00  0.00    -0.237 OA
ATOM     75  O   UNL A   1      39.278  36.345  38.114  1.00  0.00    -0.744 OA
ENDBRANCH  69  72
ENDBRANCH  51  65
BRANCH  52  76
ATOM     76  C   UNL A   1      42.514  26.208  27.938  1.00  0.00     0.023 A 
ATOM     77  C   UNL A   1      43.312  26.773  26.958  1.00  0.00     0.012 A 
ATOM     78  C   UNL A   1      42.161  24.928  27.887  1.00  0.00     0.148 A 
ATOM     79  C   UNL A   1      43.455  25.972  25.801  1.00  0.00     0.002 A 
ATOM     80  C   UNL A   1      42.452  24.168  26.781  1.00  0.00     0.091 A 
ATOM     81  F   UNL A   1      41.522  24.380  28.915  1.00  0.00    -0.205 F 
ATOM     82  C   UNL A   1      43.186  24.680  25.748  1.00  0.00     0.022 A 
BRANCH  80  83
ATOM     83  S   UNL A   1      41.851  22.463  26.688  1.00  0.00     0.127 S 
ATOM     84  O   UNL A   1      42.316  21.828  25.376  1.00  0.00    -0.237 OA
ATOM     85  O   UNL A   1      42.408  21.662  27.867  1.00  0.00    -0.237 OA
ATOM     86  O   UNL A   1      40.142  22.456  26.750  1.00  0.00    -0.744 OA
ENDBRANCH  80  83
ENDBRANCH  52  76
BRANCH  64  87
ATOM     87  C   UNL A   1      45.075  27.897  34.256  1.00  0.00     0.023 A 
ATOM     88  C   UNL A   1      46.159  28.756  34.172  1.00  0.00     0.012 A 
ATOM     89  C   UNL A   1      45.117  26.808  35.015  1.00  0.00     0.148 A 
ATOM     90  C   UNL A   1      47.357  28.222  34.704  1.00  0.00     0.002 A 
ATOM     91  C   UNL A   1      46.290  26.419  35.616  1.00  0.00     0.091 A 
ATOM     92  F   UNL A   1      44.014  26.086  35.194  1.00  0.00    -0.205 F 
ATOM     93  C   UNL A   1      47.416  27.189  35.525  1.00  0.00     0.022 A 
BRANCH  91  94
ATOM     94  S   UNL A   1      46.344  24.865  36.543  1.00  0.00     0.127 S 
ATOM     95  O   UNL A   1      45.365  24.936  37.717  1.00  0.00    -0.237 OA
ATOM     96  O   UNL A   1      45.951  23.708  35.620  1.00  0.00    -0.237 OA
ATOM     97  O   UNL A   1      47.927  24.609  37.135  1.00  0.00    -0.744 OA
ENDBRANCH  91  94
ENDBRANCH  64  87
ENDBRANCH  38  39
ENDBRANCH  30  33
ENDBRANCH   1  29
TORSDOF 15
ENDMDL
