MODEL 1
REMARK VINA RESULT:     -12.3      0.000      0.000
REMARK SMILES CC1(C)[C@H](C(=O)NCCCNC(=O)c2ccc(-c3c4nc(c(-c5cccc(S(=O)(=O)[O-])c5F)c5ccc([nH]5)c(-c5cccc(S(=O)(=O)[O-])c5F)c5nc(c(-c6cccc(S(=O)(=O)[O-])c6F)c6ccc3[nH]6)C=C5)C=C4)cc2)[C@H]1C(=O)Nc1ccccc1C(=O)Nc1nccs1
REMARK SMILES IDX 8 1 7 2 5 3 6 4 4 6 1 7 2 8 3 9 77 10 78 11 79 12 80 13
REMARK SMILES IDX 81 15 82 16 86 17 83 18 85 19 84 20 87 21 88 22 89 23 90 25
REMARK SMILES IDX 91 26 94 27 92 28 93 29 9 30 10 31 11 32 12 33 13 35 14 36
REMARK SMILES IDX 15 37 76 38 16 39 75 40 17 41 18 42 19 43 69 44 20 45 74 46
REMARK SMILES IDX 68 47 70 48 21 49 73 50 67 51 66 52 22 54 54 55 34 56 53 57
REMARK SMILES IDX 35 58 38 59 52 60 71 61 36 62 37 63 51 65 72 66 39 67 23 68
REMARK SMILES IDX 24 69 32 70 25 71 27 72 33 73 26 74 28 75 29 76 30 77 31 78
REMARK SMILES IDX 55 79 56 80 64 81 57 82 59 83 65 84 58 85 60 86 61 87 62 88
REMARK SMILES IDX 63 89 40 90 41 91 49 92 42 93 44 94 50 95 43 96 45 97 46 98
REMARK SMILES IDX 47 99 48 100
REMARK H PARENT 7 5 80 14 89 24 11 34 70 53 38 64
REMARK Flexibility Score: inf
ROOT
ATOM      1  C   UNL A   1      31.308  28.418  24.574  1.00  0.00     0.117 C 
ENDROOT
BRANCH   1   2
ATOM      2  N   UNL A   1      31.031  27.586  23.437  1.00  0.00    -0.356 N 
ATOM      3  C   UNL A   1      31.628  26.454  22.966  1.00  0.00     0.224 C 
ATOM      4  O   UNL A   1      31.398  26.158  21.805  1.00  0.00    -0.275 OA
ATOM      5  H   UNL A   1      30.265  27.889  22.897  1.00  0.00     0.163 HD
BRANCH   3   6
ATOM      6  C   UNL A   1      32.406  25.501  23.769  1.00  0.00     0.098 C 
ATOM      7  C   UNL A   1      34.211  25.574  25.487  1.00  0.00     0.013 C 
ATOM      8  C   UNL A   1      32.735  25.395  25.219  1.00  0.00    -0.011 C 
ATOM      9  C   UNL A   1      31.941  25.999  26.366  1.00  0.00     0.013 C 
ATOM     10  C   UNL A   1      31.962  24.259  24.515  1.00  0.00     0.098 C 
BRANCH  10  11
ATOM     11  C   UNL A   1      32.056  23.112  23.587  1.00  0.00     0.228 C 
ATOM     12  O   UNL A   1      31.069  22.880  22.885  1.00  0.00    -0.274 OA
ATOM     13  N   UNL A   1      33.162  22.358  23.369  1.00  0.00    -0.325 N 
ATOM     14  H   UNL A   1      33.078  21.752  22.598  1.00  0.00     0.169 HD
BRANCH  13  15
ATOM     15  C   UNL A   1      34.393  22.267  24.014  1.00  0.00     0.054 A 
ATOM     16  C   UNL A   1      35.435  22.837  23.258  1.00  0.00     0.027 A 
ATOM     17  C   UNL A   1      34.659  21.727  25.280  1.00  0.00     0.063 A 
ATOM     18  C   UNL A   1      36.685  23.070  23.817  1.00  0.00     0.002 A 
ATOM     19  C   UNL A   1      35.932  21.991  25.835  1.00  0.00     0.016 A 
ATOM     20  C   UNL A   1      36.920  22.685  25.126  1.00  0.00     0.001 A 
BRANCH  17  21
ATOM     21  C   UNL A   1      33.732  20.951  26.169  1.00  0.00     0.259 C 
ATOM     22  O   UNL A   1      33.738  21.197  27.380  1.00  0.00    -0.269 OA
ATOM     23  N   UNL A   1      32.822  20.023  25.745  1.00  0.00    -0.298 N 
ATOM     24  H   UNL A   1      32.041  19.888  26.330  1.00  0.00     0.172 HD
BRANCH  23  25
ATOM     25  C   UNL A   1      32.858  19.262  24.620  1.00  0.00     0.189 A 
ATOM     26  N   UNL A   1      32.154  19.364  23.523  1.00  0.00    -0.229 NA
ATOM     27  S   UNL A   1      33.986  17.982  24.699  1.00  0.00    -0.105 S 
ATOM     28  C   UNL A   1      32.455  18.289  22.706  1.00  0.00     0.125 A 
ATOM     29  C   UNL A   1      33.384  17.400  23.203  1.00  0.00     0.088 A 
ENDBRANCH  23  25
ENDBRANCH  17  21
ENDBRANCH  13  15
ENDBRANCH  10  11
ENDBRANCH   3   6
ENDBRANCH   1   2
BRANCH   1  30
ATOM     30  C   UNL A   1      32.648  29.119  24.395  1.00  0.00     0.042 C 
BRANCH  30  31
ATOM     31  C   UNL A   1      33.312  29.488  25.710  1.00  0.00     0.118 C 
BRANCH  31  32
ATOM     32  N   UNL A   1      32.980  30.840  26.124  1.00  0.00    -0.352 N 
ATOM     33  C   UNL A   1      33.490  31.581  27.161  1.00  0.00     0.251 C 
ATOM     34  H   UNL A   1      32.291  31.291  25.583  1.00  0.00     0.163 HD
ATOM     35  O   UNL A   1      32.915  32.605  27.518  1.00  0.00    -0.269 OA
BRANCH  33  36
ATOM     36  C   UNL A   1      34.721  31.134  27.848  1.00  0.00     0.039 A 
ATOM     37  C   UNL A   1      35.790  32.024  27.972  1.00  0.00     0.014 A 
ATOM     38  C   UNL A   1      34.827  29.836  28.355  1.00  0.00     0.014 A 
ATOM     39  C   UNL A   1      36.947  31.624  28.644  1.00  0.00     0.010 A 
ATOM     40  C   UNL A   1      35.935  29.475  29.110  1.00  0.00     0.010 A 
ATOM     41  C   UNL A   1      37.019  30.355  29.242  1.00  0.00    -0.014 A 
BRANCH  41  42
ATOM     42  C   UNL A   1      38.225  29.908  29.981  1.00  0.00     0.031 A 
ATOM     43  C   UNL A   1      38.525  30.489  31.339  1.00  0.00     0.074 A 
ATOM     44  C   UNL A   1      39.087  29.050  29.402  1.00  0.00     0.049 A 
ATOM     45  N   UNL A   1      39.570  30.304  32.103  1.00  0.00    -0.248 NA
ATOM     46  C   UNL A   1      37.536  31.426  31.900  1.00  0.00     0.031 C 
ATOM     47  C   UNL A   1      38.940  28.472  28.063  1.00  0.00     0.029 A 
ATOM     48  N   UNL A   1      40.275  28.534  29.855  1.00  0.00    -0.354 N 
ATOM     49  C   UNL A   1      39.382  31.125  33.209  1.00  0.00     0.074 A 
ATOM     50  C   UNL A   1      38.144  31.842  33.000  1.00  0.00     0.031 C 
ATOM     51  C   UNL A   1      39.993  27.679  27.808  1.00  0.00     0.029 A 
ATOM     52  C   UNL A   1      40.906  27.718  28.944  1.00  0.00     0.049 A 
ATOM     53  H   UNL A   1      40.642  28.730  30.747  1.00  0.00     0.167 HD
ATOM     54  C   UNL A   1      40.150  31.244  34.317  1.00  0.00     0.034 A 
ATOM     55  C   UNL A   1      42.092  27.082  29.016  1.00  0.00     0.034 A 
ATOM     56  C   UNL A   1      41.352  30.490  34.542  1.00  0.00     0.049 A 
ATOM     57  C   UNL A   1      42.912  27.212  30.273  1.00  0.00     0.074 A 
ATOM     58  C   UNL A   1      42.167  30.484  35.661  1.00  0.00     0.029 A 
ATOM     59  N   UNL A   1      41.910  29.605  33.635  1.00  0.00    -0.354 N 
ATOM     60  N   UNL A   1      42.646  27.886  31.366  1.00  0.00    -0.248 NA
ATOM     61  C   UNL A   1      44.176  26.463  30.323  1.00  0.00     0.031 C 
ATOM     62  C   UNL A   1      43.228  29.607  35.422  1.00  0.00     0.029 A 
ATOM     63  C   UNL A   1      43.058  29.045  34.166  1.00  0.00     0.049 A 
ATOM     64  H   UNL A   1      41.544  29.403  32.743  1.00  0.00     0.167 HD
ATOM     65  C   UNL A   1      43.684  27.607  32.247  1.00  0.00     0.074 A 
ATOM     66  C   UNL A   1      44.574  26.688  31.567  1.00  0.00     0.031 C 
ATOM     67  C   UNL A   1      43.891  28.078  33.501  1.00  0.00     0.034 A 
BRANCH  54  68
ATOM     68  C   UNL A   1      39.681  32.178  35.402  1.00  0.00     0.023 A 
ATOM     69  C   UNL A   1      38.853  31.683  36.432  1.00  0.00     0.012 A 
ATOM     70  C   UNL A   1      40.111  33.518  35.446  1.00  0.00     0.148 A 
ATOM     71  C   UNL A   1      38.435  32.513  37.469  1.00  0.00     0.002 A 
ATOM     72  C   UNL A   1      39.727  34.327  36.510  1.00  0.00     0.091 A 
ATOM     73  F   UNL A   1      40.882  33.976  34.450  1.00  0.00    -0.205 F 
ATOM     74  C   UNL A   1      38.881  33.830  37.515  1.00  0.00     0.022 A 
BRANCH  72  75
ATOM     75  S   UNL A   1      40.311  36.015  36.709  1.00  0.00     0.127 S 
ATOM     76  O   UNL A   1      39.818  36.643  35.483  1.00  0.00    -0.237 OA
ATOM     77  O   UNL A   1      39.622  36.436  37.929  1.00  0.00    -0.237 OA
ATOM     78  O   UNL A   1      41.760  35.930  36.823  1.00  0.00    -0.744 OA
ENDBRANCH  72  75
ENDBRANCH  54  68
BRANCH  55  79
ATOM     79  C   UNL A   1      42.553  26.216  27.894  1.00  0.00     0.023 A 
ATOM     80  C   UNL A   1      43.487  26.723  26.968  1.00  0.00     0.012 A 
ATOM     81  C   UNL A   1      42.077  24.900  27.736  1.00  0.00     0.148 A 
ATOM     82  C   UNL A   1      43.902  25.954  25.881  1.00  0.00     0.002 A 
ATOM     83  C   UNL A   1      42.539  24.119  26.682  1.00  0.00     0.091 A 
ATOM     84  F   UNL A   1      41.182  24.437  28.618  1.00  0.00    -0.205 F 
ATOM     85  C   UNL A   1      43.436  24.650  25.742  1.00  0.00     0.022 A 
BRANCH  83  86
ATOM     86  S   UNL A   1      42.091  22.389  26.503  1.00  0.00     0.127 S 
ATOM     87  O   UNL A   1      40.642  22.470  26.341  1.00  0.00    -0.237 OA
ATOM     88  O   UNL A   1      42.826  22.008  25.296  1.00  0.00    -0.237 OA
ATOM     89  O   UNL A   1      42.562  21.738  27.718  1.00  0.00    -0.744 OA
ENDBRANCH  83  86
ENDBRANCH  55  79
BRANCH  67  90
ATOM     90  C   UNL A   1      45.091  27.568  34.252  1.00  0.00     0.023 A 
ATOM     91  C   UNL A   1      46.302  28.287  34.219  1.00  0.00     0.012 A 
ATOM     92  C   UNL A   1      44.989  26.419  35.063  1.00  0.00     0.148 A 
ATOM     93  C   UNL A   1      47.403  27.853  34.957  1.00  0.00     0.002 A 
ATOM     94  C   UNL A   1      46.073  26.023  35.835  1.00  0.00     0.091 A 
ATOM     95  F   UNL A   1      43.833  25.740  35.066  1.00  0.00    -0.205 F 
ATOM     96  C   UNL A   1      47.285  26.732  35.774  1.00  0.00     0.022 A 
BRANCH  94  97
ATOM     97  S   UNL A   1      45.983  24.651  36.990  1.00  0.00     0.127 S 
ATOM     98  O   UNL A   1      45.827  23.512  36.088  1.00  0.00    -0.237 OA
ATOM     99  O   UNL A   1      47.282  24.726  37.661  1.00  0.00    -0.237 OA
ATOM    100  O   UNL A   1      44.841  24.925  37.852  1.00  0.00    -0.744 OA
ENDBRANCH  94  97
ENDBRANCH  67  90
ENDBRANCH  41  42
ENDBRANCH  33  36
ENDBRANCH  31  32
ENDBRANCH  30  31
ENDBRANCH   1  30
TORSDOF 17
ENDMDL
MODEL 2
REMARK VINA RESULT:     -12.2      1.960      2.703
REMARK SMILES CC1(C)[C@H](C(=O)NCCCNC(=O)c2ccc(-c3c4nc(c(-c5cccc(S(=O)(=O)[O-])c5F)c5ccc([nH]5)c(-c5cccc(S(=O)(=O)[O-])c5F)c5nc(c(-c6cccc(S(=O)(=O)[O-])c6F)c6ccc3[nH]6)C=C5)C=C4)cc2)[C@H]1C(=O)Nc1ccccc1C(=O)Nc1nccs1
REMARK SMILES IDX 8 1 7 2 5 3 6 4 4 6 1 7 2 8 3 9 77 10 78 11 79 12 80 13
REMARK SMILES IDX 81 15 82 16 86 17 83 18 85 19 84 20 87 21 88 22 89 23 90 25
REMARK SMILES IDX 91 26 94 27 92 28 93 29 9 30 10 31 11 32 12 33 13 35 14 36
REMARK SMILES IDX 15 37 76 38 16 39 75 40 17 41 18 42 19 43 69 44 20 45 74 46
REMARK SMILES IDX 68 47 70 48 21 49 73 50 67 51 66 52 22 54 54 55 34 56 53 57
REMARK SMILES IDX 35 58 38 59 52 60 71 61 36 62 37 63 51 65 72 66 39 67 23 68
REMARK SMILES IDX 24 69 32 70 25 71 27 72 33 73 26 74 28 75 29 76 30 77 31 78
REMARK SMILES IDX 55 79 56 80 64 81 57 82 59 83 65 84 58 85 60 86 61 87 62 88
REMARK SMILES IDX 63 89 40 90 41 91 49 92 42 93 44 94 50 95 43 96 45 97 46 98
REMARK SMILES IDX 47 99 48 100
REMARK H PARENT 7 5 80 14 89 24 11 34 70 53 38 64
REMARK Flexibility Score: inf
ROOT
ATOM      1  C   UNL A   1      31.791  28.526  25.460  1.00  0.00     0.117 C 
ENDROOT
BRANCH   1   2
ATOM      2  N   UNL A   1      32.302  28.368  24.127  1.00  0.00    -0.356 N 
ATOM      3  C   UNL A   1      32.887  27.313  23.492  1.00  0.00     0.224 C 
ATOM      4  O   UNL A   1      33.523  27.568  22.482  1.00  0.00    -0.275 OA
ATOM      5  H   UNL A   1      32.212  29.173  23.567  1.00  0.00     0.163 HD
BRANCH   3   6
ATOM      6  C   UNL A   1      32.705  25.898  23.841  1.00  0.00     0.098 C 
ATOM      7  C   UNL A   1      32.020  24.559  25.830  1.00  0.00     0.013 C 
ATOM      8  C   UNL A   1      31.609  25.124  24.490  1.00  0.00    -0.011 C 
ATOM      9  C   UNL A   1      30.141  25.518  24.543  1.00  0.00     0.013 C 
ATOM     10  C   UNL A   1      32.063  24.771  23.058  1.00  0.00     0.098 C 
BRANCH  10  11
ATOM     11  C   UNL A   1      33.110  24.136  22.232  1.00  0.00     0.228 C 
ATOM     12  O   UNL A   1      33.287  24.597  21.102  1.00  0.00    -0.274 OA
ATOM     13  N   UNL A   1      33.958  23.159  22.641  1.00  0.00    -0.325 N 
ATOM     14  H   UNL A   1      34.690  22.984  22.007  1.00  0.00     0.169 HD
BRANCH  13  15
ATOM     15  C   UNL A   1      34.004  22.355  23.777  1.00  0.00     0.054 A 
ATOM     16  C   UNL A   1      34.921  22.833  24.733  1.00  0.00     0.027 A 
ATOM     17  C   UNL A   1      33.242  21.210  24.048  1.00  0.00     0.063 A 
ATOM     18  C   UNL A   1      34.943  22.324  26.025  1.00  0.00     0.002 A 
ATOM     19  C   UNL A   1      33.268  20.721  25.374  1.00  0.00     0.016 A 
ATOM     20  C   UNL A   1      34.081  21.293  26.359  1.00  0.00     0.001 A 
BRANCH  17  21
ATOM     21  C   UNL A   1      32.332  20.463  23.117  1.00  0.00     0.259 C 
ATOM     22  O   UNL A   1      31.603  21.114  22.361  1.00  0.00    -0.269 OA
ATOM     23  N   UNL A   1      32.278  19.103  22.986  1.00  0.00    -0.298 N 
ATOM     24  H   UNL A   1      31.961  18.768  22.115  1.00  0.00     0.172 HD
BRANCH  23  25
ATOM     25  C   UNL A   1      32.606  18.156  23.902  1.00  0.00     0.189 A 
ATOM     26  N   UNL A   1      31.999  17.823  25.011  1.00  0.00    -0.229 NA
ATOM     27  S   UNL A   1      34.041  17.309  23.523  1.00  0.00    -0.105 S 
ATOM     28  C   UNL A   1      32.773  16.889  25.674  1.00  0.00     0.125 A 
ATOM     29  C   UNL A   1      33.949  16.532  25.048  1.00  0.00     0.088 A 
ENDBRANCH  23  25
ENDBRANCH  17  21
ENDBRANCH  13  15
ENDBRANCH  10  11
ENDBRANCH   3   6
ENDBRANCH   1   2
BRANCH   1  30
ATOM     30  C   UNL A   1      32.856  28.138  26.477  1.00  0.00     0.042 C 
BRANCH  30  31
ATOM     31  C   UNL A   1      34.154  28.907  26.307  1.00  0.00     0.118 C 
BRANCH  31  32
ATOM     32  N   UNL A   1      34.017  30.297  26.707  1.00  0.00    -0.352 N 
ATOM     33  C   UNL A   1      34.711  30.999  27.661  1.00  0.00     0.251 C 
ATOM     34  H   UNL A   1      33.328  30.809  26.225  1.00  0.00     0.163 HD
ATOM     35  O   UNL A   1      34.291  32.088  28.040  1.00  0.00    -0.269 OA
BRANCH  33  36
ATOM     36  C   UNL A   1      35.951  30.433  28.233  1.00  0.00     0.039 A 
ATOM     37  C   UNL A   1      35.881  29.714  29.429  1.00  0.00     0.014 A 
ATOM     38  C   UNL A   1      37.183  30.626  27.603  1.00  0.00     0.014 A 
ATOM     39  C   UNL A   1      37.041  29.151  29.965  1.00  0.00     0.010 A 
ATOM     40  C   UNL A   1      38.316  29.980  28.082  1.00  0.00     0.010 A 
ATOM     41  C   UNL A   1      38.263  29.256  29.282  1.00  0.00    -0.014 A 
BRANCH  41  42
ATOM     42  C   UNL A   1      39.509  28.651  29.814  1.00  0.00     0.031 A 
ATOM     43  C   UNL A   1      40.166  29.246  31.033  1.00  0.00     0.074 A 
ATOM     44  C   UNL A   1      40.089  27.626  29.160  1.00  0.00     0.049 A 
ATOM     45  N   UNL A   1      41.302  28.927  31.597  1.00  0.00    -0.248 NA
ATOM     46  C   UNL A   1      39.471  30.369  31.686  1.00  0.00     0.031 C 
ATOM     47  C   UNL A   1      39.585  27.008  27.931  1.00  0.00     0.029 A 
ATOM     48  N   UNL A   1      41.249  26.939  29.422  1.00  0.00    -0.354 N 
ATOM     49  C   UNL A   1      41.473  29.829  32.641  1.00  0.00     0.074 A 
ATOM     50  C   UNL A   1      40.347  30.735  32.609  1.00  0.00     0.031 C 
ATOM     51  C   UNL A   1      40.426  26.032  27.551  1.00  0.00     0.029 A 
ATOM     52  C   UNL A   1      41.546  25.977  28.484  1.00  0.00     0.049 A 
ATOM     53  H   UNL A   1      41.814  27.119  30.207  1.00  0.00     0.167 HD
ATOM     54  C   UNL A   1      42.459  29.877  33.567  1.00  0.00     0.034 A 
ATOM     55  C   UNL A   1      42.606  25.152  28.385  1.00  0.00     0.034 A 
ATOM     56  C   UNL A   1      43.548  28.941  33.625  1.00  0.00     0.049 A 
ATOM     57  C   UNL A   1      43.673  25.210  29.446  1.00  0.00     0.074 A 
ATOM     58  C   UNL A   1      44.561  28.858  34.564  1.00  0.00     0.029 A 
ATOM     59  N   UNL A   1      43.764  27.923  32.710  1.00  0.00    -0.354 N 
ATOM     60  N   UNL A   1      43.745  25.980  30.505  1.00  0.00    -0.248 NA
ATOM     61  C   UNL A   1      44.787  24.259  29.320  1.00  0.00     0.031 C 
ATOM     62  C   UNL A   1      45.400  27.799  34.207  1.00  0.00     0.029 A 
ATOM     63  C   UNL A   1      44.893  27.205  33.061  1.00  0.00     0.049 A 
ATOM     64  H   UNL A   1      43.197  27.738  31.926  1.00  0.00     0.167 HD
ATOM     65  C   UNL A   1      44.882  25.576  31.194  1.00  0.00     0.074 A 
ATOM     66  C   UNL A   1      45.460  24.482  30.440  1.00  0.00     0.031 C 
ATOM     67  C   UNL A   1      45.411  26.074  32.338  1.00  0.00     0.034 A 
BRANCH  54  68
ATOM     68  C   UNL A   1      42.372  30.937  34.634  1.00  0.00     0.023 A 
ATOM     69  C   UNL A   1      41.767  30.626  35.870  1.00  0.00     0.012 A 
ATOM     70  C   UNL A   1      42.947  32.208  34.446  1.00  0.00     0.148 A 
ATOM     71  C   UNL A   1      41.707  31.574  36.890  1.00  0.00     0.002 A 
ATOM     72  C   UNL A   1      42.924  33.132  35.486  1.00  0.00     0.091 A 
ATOM     73  F   UNL A   1      43.501  32.491  33.259  1.00  0.00    -0.205 F 
ATOM     74  C   UNL A   1      42.295  32.821  36.702  1.00  0.00     0.022 A 
BRANCH  72  75
ATOM     75  S   UNL A   1      43.723  34.738  35.377  1.00  0.00     0.127 S 
ATOM     76  O   UNL A   1      45.117  34.358  35.145  1.00  0.00    -0.237 OA
ATOM     77  O   UNL A   1      43.054  35.336  34.222  1.00  0.00    -0.237 OA
ATOM     78  O   UNL A   1      43.464  35.404  36.646  1.00  0.00    -0.744 OA
ENDBRANCH  72  75
ENDBRANCH  54  68
BRANCH  55  79
ATOM     79  C   UNL A   1      42.688  24.158  27.277  1.00  0.00     0.023 A 
ATOM     80  C   UNL A   1      43.380  24.495  26.096  1.00  0.00     0.012 A 
ATOM     81  C   UNL A   1      42.089  22.888  27.381  1.00  0.00     0.148 A 
ATOM     82  C   UNL A   1      43.434  23.604  25.024  1.00  0.00     0.002 A 
ATOM     83  C   UNL A   1      42.196  21.984  26.331  1.00  0.00     0.091 A 
ATOM     84  F   UNL A   1      41.425  22.588  28.506  1.00  0.00    -0.205 F 
ATOM     85  C   UNL A   1      42.851  22.346  25.144  1.00  0.00     0.022 A 
BRANCH  83  86
ATOM     86  S   UNL A   1      41.587  20.298  26.450  1.00  0.00     0.127 S 
ATOM     87  O   UNL A   1      41.988  19.930  27.806  1.00  0.00    -0.237 OA
ATOM     88  O   UNL A   1      40.147  20.480  26.261  1.00  0.00    -0.237 OA
ATOM     89  O   UNL A   1      42.244  19.571  25.372  1.00  0.00    -0.744 OA
ENDBRANCH  83  86
ENDBRANCH  55  79
BRANCH  67  90
ATOM     90  C   UNL A   1      46.643  25.408  32.889  1.00  0.00     0.023 A 
ATOM     91  C   UNL A   1      47.920  25.897  32.550  1.00  0.00     0.012 A 
ATOM     92  C   UNL A   1      46.528  24.351  33.814  1.00  0.00     0.148 A 
ATOM     93  C   UNL A   1      49.065  25.323  33.099  1.00  0.00     0.002 A 
ATOM     94  C   UNL A   1      47.671  23.819  34.397  1.00  0.00     0.091 A 
ATOM     95  F   UNL A   1      45.303  23.890  34.109  1.00  0.00    -0.205 F 
ATOM     96  C   UNL A   1      48.941  24.295  34.031  1.00  0.00     0.022 A 
BRANCH  94  97
ATOM     97  S   UNL A   1      47.604  22.563  35.679  1.00  0.00     0.127 S 
ATOM     98  O   UNL A   1      49.021  22.372  35.983  1.00  0.00    -0.237 OA
ATOM     99  O   UNL A   1      46.838  23.235  36.729  1.00  0.00    -0.237 OA
ATOM    100  O   UNL A   1      46.935  21.415  35.083  1.00  0.00    -0.744 OA
ENDBRANCH  94  97
ENDBRANCH  67  90
ENDBRANCH  41  42
ENDBRANCH  33  36
ENDBRANCH  31  32
ENDBRANCH  30  31
ENDBRANCH   1  30
TORSDOF 17
ENDMDL
MODEL 3
REMARK VINA RESULT:     -12.2      5.425      8.795
REMARK SMILES CC1(C)[C@H](C(=O)NCCCNC(=O)c2ccc(-c3c4nc(c(-c5cccc(S(=O)(=O)[O-])c5F)c5ccc([nH]5)c(-c5cccc(S(=O)(=O)[O-])c5F)c5nc(c(-c6cccc(S(=O)(=O)[O-])c6F)c6ccc3[nH]6)C=C5)C=C4)cc2)[C@H]1C(=O)Nc1ccccc1C(=O)Nc1nccs1
REMARK SMILES IDX 8 1 7 2 5 3 6 4 4 6 1 7 2 8 3 9 77 10 78 11 79 12 80 13
REMARK SMILES IDX 81 15 82 16 86 17 83 18 85 19 84 20 87 21 88 22 89 23 90 25
REMARK SMILES IDX 91 26 94 27 92 28 93 29 9 30 10 31 11 32 12 33 13 35 14 36
REMARK SMILES IDX 15 37 76 38 16 39 75 40 17 41 18 42 19 43 69 44 20 45 74 46
REMARK SMILES IDX 68 47 70 48 21 49 73 50 67 51 66 52 22 54 54 55 34 56 53 57
REMARK SMILES IDX 35 58 38 59 52 60 71 61 36 62 37 63 51 65 72 66 39 67 23 68
REMARK SMILES IDX 24 69 32 70 25 71 27 72 33 73 26 74 28 75 29 76 30 77 31 78
REMARK SMILES IDX 55 79 56 80 64 81 57 82 59 83 65 84 58 85 60 86 61 87 62 88
REMARK SMILES IDX 63 89 40 90 41 91 49 92 42 93 44 94 50 95 43 96 45 97 46 98
REMARK SMILES IDX 47 99 48 100
REMARK H PARENT 7 5 80 14 89 24 11 34 70 53 38 64
REMARK Flexibility Score: inf
ROOT
ATOM      1  C   UNL A   1      36.950  20.741  24.611  1.00  0.00     0.117 C 
ENDROOT
BRANCH   1   2
ATOM      2  N   UNL A   1      35.905  20.825  25.593  1.00  0.00    -0.356 N 
ATOM      3  C   UNL A   1      34.556  20.648  25.508  1.00  0.00     0.224 C 
ATOM      4  O   UNL A   1      33.885  21.112  26.416  1.00  0.00    -0.275 OA
ATOM      5  H   UNL A   1      36.223  21.053  26.497  1.00  0.00     0.163 HD
BRANCH   3   6
ATOM      6  C   UNL A   1      33.863  19.838  24.498  1.00  0.00     0.098 C 
ATOM      7  C   UNL A   1      33.861  17.473  23.707  1.00  0.00     0.013 C 
ATOM      8  C   UNL A   1      33.155  18.526  24.529  1.00  0.00    -0.011 C 
ATOM      9  C   UNL A   1      32.531  17.872  25.751  1.00  0.00     0.013 C 
ATOM     10  C   UNL A   1      32.399  19.804  24.106  1.00  0.00     0.098 C 
BRANCH  10  11
ATOM     11  C   UNL A   1      32.191  20.800  23.035  1.00  0.00     0.228 C 
ATOM     12  O   UNL A   1      32.152  20.377  21.878  1.00  0.00    -0.274 OA
ATOM     13  N   UNL A   1      31.940  22.121  23.219  1.00  0.00    -0.325 N 
ATOM     14  H   UNL A   1      31.665  22.586  22.397  1.00  0.00     0.169 HD
BRANCH  13  15
ATOM     15  C   UNL A   1      31.991  22.951  24.336  1.00  0.00     0.054 A 
ATOM     16  C   UNL A   1      30.956  22.679  25.252  1.00  0.00     0.027 A 
ATOM     17  C   UNL A   1      32.940  23.941  24.625  1.00  0.00     0.063 A 
ATOM     18  C   UNL A   1      30.967  23.220  26.531  1.00  0.00     0.002 A 
ATOM     19  C   UNL A   1      32.943  24.464  25.938  1.00  0.00     0.016 A 
ATOM     20  C   UNL A   1      31.990  24.082  26.890  1.00  0.00     0.001 A 
BRANCH  17  21
ATOM     21  C   UNL A   1      34.018  24.480  23.729  1.00  0.00     0.259 C 
ATOM     22  O   UNL A   1      35.108  23.898  23.709  1.00  0.00    -0.269 OA
ATOM     23  N   UNL A   1      33.880  25.537  22.874  1.00  0.00    -0.298 N 
ATOM     24  H   UNL A   1      34.483  25.540  22.095  1.00  0.00     0.172 HD
BRANCH  23  25
ATOM     25  C   UNL A   1      33.020  26.584  22.962  1.00  0.00     0.189 A 
ATOM     26  N   UNL A   1      31.816  26.718  22.468  1.00  0.00    -0.229 NA
ATOM     27  S   UNL A   1      33.647  27.910  23.837  1.00  0.00    -0.105 S 
ATOM     28  C   UNL A   1      31.380  28.007  22.713  1.00  0.00     0.125 A 
ATOM     29  C   UNL A   1      32.264  28.820  23.392  1.00  0.00     0.088 A 
ENDBRANCH  23  25
ENDBRANCH  17  21
ENDBRANCH  13  15
ENDBRANCH  10  11
ENDBRANCH   3   6
ENDBRANCH   1   2
BRANCH   1  30
ATOM     30  C   UNL A   1      37.950  19.662  25.002  1.00  0.00     0.042 C 
BRANCH  30  31
ATOM     31  C   UNL A   1      39.048  20.168  25.921  1.00  0.00     0.118 C 
BRANCH  31  32
ATOM     32  N   UNL A   1      40.126  19.203  26.059  1.00  0.00    -0.352 N 
ATOM     33  C   UNL A   1      41.477  19.420  26.163  1.00  0.00     0.251 C 
ATOM     34  H   UNL A   1      39.848  18.259  26.079  1.00  0.00     0.163 HD
ATOM     35  O   UNL A   1      42.257  18.483  26.015  1.00  0.00    -0.269 OA
BRANCH  33  36
ATOM     36  C   UNL A   1      41.985  20.781  26.440  1.00  0.00     0.039 A 
ATOM     37  C   UNL A   1      42.187  21.660  25.373  1.00  0.00     0.014 A 
ATOM     38  C   UNL A   1      42.277  21.184  27.745  1.00  0.00     0.014 A 
ATOM     39  C   UNL A   1      42.639  22.957  25.625  1.00  0.00     0.010 A 
ATOM     40  C   UNL A   1      42.628  22.503  28.002  1.00  0.00     0.010 A 
ATOM     41  C   UNL A   1      42.837  23.398  26.943  1.00  0.00    -0.014 A 
BRANCH  41  42
ATOM     42  C   UNL A   1      43.296  24.777  27.244  1.00  0.00     0.031 A 
ATOM     43  C   UNL A   1      42.338  25.764  27.858  1.00  0.00     0.074 A 
ATOM     44  C   UNL A   1      44.539  25.161  26.893  1.00  0.00     0.049 A 
ATOM     45  N   UNL A   1      42.512  27.036  28.110  1.00  0.00    -0.248 NA
ATOM     46  C   UNL A   1      40.995  25.266  28.207  1.00  0.00     0.031 C 
ATOM     47  C   UNL A   1      45.535  24.315  26.231  1.00  0.00     0.029 A 
ATOM     48  N   UNL A   1      45.169  26.374  27.019  1.00  0.00    -0.354 N 
ATOM     49  C   UNL A   1      41.297  27.494  28.607  1.00  0.00     0.074 A 
ATOM     50  C   UNL A   1      40.380  26.376  28.584  1.00  0.00     0.031 C 
ATOM     51  C   UNL A   1      46.649  25.032  26.015  1.00  0.00     0.029 A 
ATOM     52  C   UNL A   1      46.438  26.396  26.488  1.00  0.00     0.049 A 
ATOM     53  H   UNL A   1      44.751  27.155  27.449  1.00  0.00     0.167 HD
ATOM     54  C   UNL A   1      40.983  28.723  29.077  1.00  0.00     0.034 A 
ATOM     55  C   UNL A   1      47.325  27.405  26.387  1.00  0.00     0.034 A 
ATOM     56  C   UNL A   1      41.914  29.816  29.146  1.00  0.00     0.049 A 
ATOM     57  C   UNL A   1      46.957  28.755  26.944  1.00  0.00     0.074 A 
ATOM     58  C   UNL A   1      41.717  31.081  29.670  1.00  0.00     0.029 A 
ATOM     59  N   UNL A   1      43.219  29.771  28.683  1.00  0.00    -0.354 N 
ATOM     60  N   UNL A   1      45.849  29.130  27.538  1.00  0.00    -0.248 NA
ATOM     61  C   UNL A   1      47.974  29.812  26.852  1.00  0.00     0.031 C 
ATOM     62  C   UNL A   1      42.899  31.808  29.506  1.00  0.00     0.029 A 
ATOM     63  C   UNL A   1      43.841  30.986  28.908  1.00  0.00     0.049 A 
ATOM     64  H   UNL A   1      43.641  28.990  28.256  1.00  0.00     0.167 HD
ATOM     65  C   UNL A   1      46.054  30.447  27.930  1.00  0.00     0.074 A 
ATOM     66  C   UNL A   1      47.398  30.801  27.521  1.00  0.00     0.031 C 
ATOM     67  C   UNL A   1      45.203  31.294  28.558  1.00  0.00     0.034 A 
BRANCH  54  68
ATOM     68  C   UNL A   1      39.592  28.937  29.615  1.00  0.00     0.023 A 
ATOM     69  C   UNL A   1      39.293  28.545  30.937  1.00  0.00     0.012 A 
ATOM     70  C   UNL A   1      38.606  29.585  28.848  1.00  0.00     0.148 A 
ATOM     71  C   UNL A   1      38.027  28.766  31.475  1.00  0.00     0.002 A 
ATOM     72  C   UNL A   1      37.359  29.844  29.408  1.00  0.00     0.091 A 
ATOM     73  F   UNL A   1      38.902  29.935  27.588  1.00  0.00    -0.205 F 
ATOM     74  C   UNL A   1      37.065  29.425  30.715  1.00  0.00     0.022 A 
BRANCH  72  75
ATOM     75  S   UNL A   1      36.075  30.758  28.545  1.00  0.00     0.127 S 
ATOM     76  O   UNL A   1      35.636  29.780  27.549  1.00  0.00    -0.237 OA
ATOM     77  O   UNL A   1      35.111  31.015  29.614  1.00  0.00    -0.237 OA
ATOM     78  O   UNL A   1      36.720  31.947  28.005  1.00  0.00    -0.744 OA
ENDBRANCH  72  75
ENDBRANCH  54  68
BRANCH  55  79
ATOM     79  C   UNL A   1      48.671  27.170  25.790  1.00  0.00     0.023 A 
ATOM     80  C   UNL A   1      49.704  26.653  26.597  1.00  0.00     0.012 A 
ATOM     81  C   UNL A   1      48.935  27.452  24.436  1.00  0.00     0.148 A 
ATOM     82  C   UNL A   1      50.985  26.466  26.080  1.00  0.00     0.002 A 
ATOM     83  C   UNL A   1      50.200  27.210  23.913  1.00  0.00     0.091 A 
ATOM     84  F   UNL A   1      47.945  27.954  23.685  1.00  0.00    -0.205 F 
ATOM     85  C   UNL A   1      51.232  26.735  24.737  1.00  0.00     0.022 A 
BRANCH  83  86
ATOM     86  S   UNL A   1      50.570  27.405  22.166  1.00  0.00     0.127 S 
ATOM     87  O   UNL A   1      50.471  28.854  22.000  1.00  0.00    -0.237 OA
ATOM     88  O   UNL A   1      51.927  26.866  22.079  1.00  0.00    -0.237 OA
ATOM     89  O   UNL A   1      49.566  26.614  21.466  1.00  0.00    -0.744 OA
ENDBRANCH  83  86
ENDBRANCH  55  79
BRANCH  67  90
ATOM     90  C   UNL A   1      45.709  32.669  28.903  1.00  0.00     0.023 A 
ATOM     91  C   UNL A   1      46.437  32.874  30.092  1.00  0.00     0.012 A 
ATOM     92  C   UNL A   1      45.538  33.739  28.002  1.00  0.00     0.148 A 
ATOM     93  C   UNL A   1      46.959  34.131  30.393  1.00  0.00     0.002 A 
ATOM     94  C   UNL A   1      46.105  34.974  28.285  1.00  0.00     0.091 A 
ATOM     95  F   UNL A   1      44.827  33.526  26.884  1.00  0.00    -0.205 F 
ATOM     96  C   UNL A   1      46.805  35.175  29.485  1.00  0.00     0.022 A 
BRANCH  94  97
ATOM     97  S   UNL A   1      46.044  36.349  27.130  1.00  0.00     0.127 S 
ATOM     98  O   UNL A   1      46.696  35.778  25.953  1.00  0.00    -0.237 OA
ATOM     99  O   UNL A   1      44.605  36.568  26.986  1.00  0.00    -0.237 OA
ATOM    100  O   UNL A   1      46.761  37.444  27.770  1.00  0.00    -0.744 OA
ENDBRANCH  94  97
ENDBRANCH  67  90
ENDBRANCH  41  42
ENDBRANCH  33  36
ENDBRANCH  31  32
ENDBRANCH  30  31
ENDBRANCH   1  30
TORSDOF 17
ENDMDL
