MODEL 1
REMARK VINA RESULT:     -12.7      0.000      0.000
REMARK SMILES C[C@@]1(Oc2c[nH]c3ccc(Br)c(Cl)c23)O[C@@H](C(=O)NCCCNC(=O)c2ccc(-c3c4nc(c(-c5cccc(S(=O)(=O)[O-])c5F)c5ccc([nH]5)c(-c5cccc(S(=O)(=O)[O-])c5F)c5nc(c(-c6cccc(S(=O)(=O)[O-])c6F)c6ccc3[nH]6)C=C5)C=C4)cc2)[C@@](C)(O)[C@@](C)(O)[C@@]1(C)O
REMARK SMILES IDX 21 1 20 2 19 3 17 4 18 5 16 7 1 8 2 9 15 10 95 11 92 12
REMARK SMILES IDX 96 13 89 14 93 15 90 16 3 17 4 18 5 19 14 20 6 21 7 22 12 23
REMARK SMILES IDX 8 25 10 26 13 27 9 28 11 29 97 30 94 32 91 34 22 36 23 37
REMARK SMILES IDX 24 38 25 40 26 41 27 42 88 43 28 44 87 45 29 46 30 47 31 48
REMARK SMILES IDX 81 49 32 50 86 51 80 52 82 53 33 54 85 55 79 56 78 57 34 59
REMARK SMILES IDX 66 60 46 61 65 62 47 63 50 64 64 65 83 66 48 67 49 68 63 70
REMARK SMILES IDX 84 71 51 72 35 73 36 74 44 75 37 76 39 77 45 78 38 79 40 80
REMARK SMILES IDX 41 81 42 82 43 83 67 84 68 85 76 86 69 87 71 88 77 89 70 90
REMARK SMILES IDX 72 91 73 92 74 93 75 94 52 95 53 96 61 97 54 98 56 99 62 100
REMARK SMILES IDX 55 101 57 102 58 103 59 104 60 105
REMARK H PARENT 19 6 6 24 97 31 94 33 91 35 23 39 82 58 50 69
REMARK Flexibility Score: inf
ROOT
ATOM      1  C   UNL A   1      38.225  21.219  25.008  1.00  0.00     0.042 C 
ENDROOT
BRANCH   1   2
ATOM      2  C   UNL A   1      36.843  20.560  25.155  1.00  0.00     0.117 C 
BRANCH   2   3
ATOM      3  N   UNL A   1      35.855  21.170  26.109  1.00  0.00    -0.354 N 
ATOM      4  C   UNL A   1      34.487  21.397  26.103  1.00  0.00     0.252 C 
ATOM      5  O   UNL A   1      33.913  21.096  27.162  1.00  0.00    -0.272 OA
ATOM      6  H   UNL A   1      36.282  21.484  26.939  1.00  0.00     0.163 HD
BRANCH   4   7
ATOM      7  C   UNL A   1      33.591  22.101  24.937  1.00  0.00     0.246 C 
ATOM      8  C   UNL A   1      35.380  24.289  25.709  1.00  0.00     0.094 C 
ATOM      9  C   UNL A   1      33.938  24.440  25.146  1.00  0.00     0.240 C 
ATOM     10  O   UNL A   1      33.869  23.342  24.234  1.00  0.00    -0.322 OA
ATOM     11  C   UNL A   1      32.468  24.477  25.907  1.00  0.00     0.158 C 
ATOM     12  C   UNL A   1      31.721  23.090  26.287  1.00  0.00     0.128 C 
ATOM     13  C   UNL A   1      31.445  25.153  24.939  1.00  0.00     0.053 C 
ATOM     14  C   UNL A   1      32.065  21.982  25.262  1.00  0.00     0.129 C 
ATOM     15  C   UNL A   1      30.203  23.248  26.623  1.00  0.00     0.049 C 
ATOM     16  C   UNL A   1      31.213  22.008  23.981  1.00  0.00     0.049 C 
BRANCH   9  17
ATOM     17  O   UNL A   1      34.270  25.821  24.731  1.00  0.00    -0.457 OA
BRANCH  17  18
ATOM     18  C   UNL A   1      33.634  26.455  23.747  1.00  0.00     0.150 A 
ATOM     19  C   UNL A   1      33.468  26.007  22.466  1.00  0.00     0.130 A 
ATOM     20  C   UNL A   1      33.077  27.760  23.869  1.00  0.00     0.061 A 
ATOM     21  N   UNL A   1      32.659  26.924  21.843  1.00  0.00    -0.358 N 
ATOM     22  C   UNL A   1      32.269  27.901  22.741  1.00  0.00     0.051 A 
ATOM     23  C   UNL A   1      32.992  28.733  24.893  1.00  0.00     0.068 A 
ATOM     24  H   UNL A   1      32.393  26.890  20.897  1.00  0.00     0.166 HD
ATOM     25  C   UNL A   1      31.264  28.870  22.666  1.00  0.00     0.028 A 
ATOM     26  C   UNL A   1      31.933  29.642  24.883  1.00  0.00     0.037 A 
ATOM     27  Cl  UNL A   1      34.140  28.598  26.161  1.00  0.00    -0.082 Cl
ATOM     28  C   UNL A   1      31.066  29.685  23.790  1.00  0.00     0.019 A 
ATOM     29  Br  UNL A   1      31.536  30.742  26.380  1.00  0.00    -0.049 Br
ENDBRANCH  17  18
ENDBRANCH   9  17
BRANCH  11  30
ATOM     30  O   UNL A   1      32.554  25.319  27.068  1.00  0.00    -0.380 OA
ATOM     31  H   UNL A   1      31.691  25.729  27.235  1.00  0.00     0.211 HD
ENDBRANCH  11  30
BRANCH  12  32
ATOM     32  O   UNL A   1      32.102  22.580  27.557  1.00  0.00    -0.384 OA
ATOM     33  H   UNL A   1      32.533  21.718  27.443  1.00  0.00     0.211 HD
ENDBRANCH  12  32
BRANCH  14  34
ATOM     34  O   UNL A   1      31.801  20.687  25.846  1.00  0.00    -0.384 OA
ATOM     35  H   UNL A   1      32.071  20.691  26.778  1.00  0.00     0.211 HD
ENDBRANCH  14  34
ENDBRANCH   4   7
ENDBRANCH   2   3
ENDBRANCH   1   2
BRANCH   1  36
ATOM     36  C   UNL A   1      39.240  20.883  26.076  1.00  0.00     0.118 C 
BRANCH  36  37
ATOM     37  N   UNL A   1      40.040  19.685  25.825  1.00  0.00    -0.352 N 
ATOM     38  C   UNL A   1      41.426  19.610  25.866  1.00  0.00     0.251 C 
ATOM     39  H   UNL A   1      39.552  18.859  25.608  1.00  0.00     0.163 HD
ATOM     40  O   UNL A   1      42.045  18.689  25.379  1.00  0.00    -0.269 OA
BRANCH  38  41
ATOM     41  C   UNL A   1      42.119  20.750  26.503  1.00  0.00     0.039 A 
ATOM     42  C   UNL A   1      42.331  21.914  25.764  1.00  0.00     0.014 A 
ATOM     43  C   UNL A   1      42.260  20.729  27.891  1.00  0.00     0.014 A 
ATOM     44  C   UNL A   1      42.550  23.103  26.450  1.00  0.00     0.010 A 
ATOM     45  C   UNL A   1      42.353  21.931  28.567  1.00  0.00     0.010 A 
ATOM     46  C   UNL A   1      42.494  23.125  27.857  1.00  0.00    -0.014 A 
BRANCH  46  47
ATOM     47  C   UNL A   1      42.437  24.422  28.541  1.00  0.00     0.031 A 
ATOM     48  C   UNL A   1      41.230  25.256  28.260  1.00  0.00     0.074 A 
ATOM     49  C   UNL A   1      43.298  24.835  29.495  1.00  0.00     0.049 A 
ATOM     50  N   UNL A   1      41.165  26.320  27.528  1.00  0.00    -0.248 NA
ATOM     51  C   UNL A   1      39.926  24.810  28.780  1.00  0.00     0.031 C 
ATOM     52  C   UNL A   1      44.328  24.043  30.176  1.00  0.00     0.029 A 
ATOM     53  N   UNL A   1      43.358  26.037  30.144  1.00  0.00    -0.354 N 
ATOM     54  C   UNL A   1      39.877  26.820  27.709  1.00  0.00     0.074 A 
ATOM     55  C   UNL A   1      39.112  25.766  28.323  1.00  0.00     0.031 C 
ATOM     56  C   UNL A   1      44.729  24.691  31.289  1.00  0.00     0.029 A 
ATOM     57  C   UNL A   1      44.148  26.018  31.286  1.00  0.00     0.049 A 
ATOM     58  H   UNL A   1      42.885  26.842  29.831  1.00  0.00     0.167 HD
ATOM     59  C   UNL A   1      39.619  28.154  27.614  1.00  0.00     0.034 A 
ATOM     60  C   UNL A   1      44.333  27.021  32.172  1.00  0.00     0.034 A 
ATOM     61  C   UNL A   1      40.741  28.882  27.092  1.00  0.00     0.049 A 
ATOM     62  C   UNL A   1      44.096  28.294  31.457  1.00  0.00     0.074 A 
ATOM     63  C   UNL A   1      41.318  29.145  25.871  1.00  0.00     0.029 A 
ATOM     64  N   UNL A   1      41.635  29.241  28.059  1.00  0.00    -0.354 N 
ATOM     65  N   UNL A   1      44.836  28.722  30.470  1.00  0.00    -0.248 NA
ATOM     66  C   UNL A   1      42.860  29.034  31.686  1.00  0.00     0.031 C 
ATOM     67  C   UNL A   1      42.659  29.554  26.144  1.00  0.00     0.029 A 
ATOM     68  C   UNL A   1      42.857  29.537  27.522  1.00  0.00     0.049 A 
ATOM     69  H   UNL A   1      41.427  29.282  29.021  1.00  0.00     0.167 HD
ATOM     70  C   UNL A   1      43.974  29.491  29.717  1.00  0.00     0.074 A 
ATOM     71  C   UNL A   1      42.857  29.803  30.595  1.00  0.00     0.031 C 
ATOM     72  C   UNL A   1      44.038  29.504  28.358  1.00  0.00     0.034 A 
BRANCH  59  73
ATOM     73  C   UNL A   1      38.567  28.903  28.403  1.00  0.00     0.023 A 
ATOM     74  C   UNL A   1      37.743  29.814  27.703  1.00  0.00     0.012 A 
ATOM     75  C   UNL A   1      38.549  28.981  29.813  1.00  0.00     0.148 A 
ATOM     76  C   UNL A   1      36.948  30.754  28.372  1.00  0.00     0.002 A 
ATOM     77  C   UNL A   1      37.693  29.858  30.473  1.00  0.00     0.091 A 
ATOM     78  F   UNL A   1      39.467  28.319  30.526  1.00  0.00    -0.205 F 
ATOM     79  C   UNL A   1      36.908  30.764  29.759  1.00  0.00     0.022 A 
BRANCH  77  80
ATOM     80  S   UNL A   1      37.568  29.857  32.265  1.00  0.00     0.127 S 
ATOM     81  O   UNL A   1      38.868  30.394  32.652  1.00  0.00    -0.237 OA
ATOM     82  O   UNL A   1      36.432  30.754  32.489  1.00  0.00    -0.237 OA
ATOM     83  O   UNL A   1      37.305  28.469  32.623  1.00  0.00    -0.744 OA
ENDBRANCH  77  80
ENDBRANCH  59  73
BRANCH  60  84
ATOM     84  C   UNL A   1      44.633  26.982  33.621  1.00  0.00     0.023 A 
ATOM     85  C   UNL A   1      45.784  27.643  34.099  1.00  0.00     0.012 A 
ATOM     86  C   UNL A   1      43.674  26.554  34.566  1.00  0.00     0.148 A 
ATOM     87  C   UNL A   1      45.941  27.933  35.458  1.00  0.00     0.002 A 
ATOM     88  C   UNL A   1      43.844  26.829  35.920  1.00  0.00     0.091 A 
ATOM     89  F   UNL A   1      42.551  25.964  34.132  1.00  0.00    -0.205 F 
ATOM     90  C   UNL A   1      44.966  27.537  36.367  1.00  0.00     0.022 A 
BRANCH  88  91
ATOM     91  S   UNL A   1      42.627  26.331  37.147  1.00  0.00     0.127 S 
ATOM     92  O   UNL A   1      41.485  27.186  36.817  1.00  0.00    -0.237 OA
ATOM     93  O   UNL A   1      42.440  24.918  36.837  1.00  0.00    -0.237 OA
ATOM     94  O   UNL A   1      43.237  26.631  38.437  1.00  0.00    -0.744 OA
ENDBRANCH  88  91
ENDBRANCH  60  84
BRANCH  72  95
ATOM     95  C   UNL A   1      45.352  29.247  27.693  1.00  0.00     0.023 A 
ATOM     96  C   UNL A   1      46.361  30.221  27.588  1.00  0.00     0.012 A 
ATOM     97  C   UNL A   1      45.621  27.926  27.293  1.00  0.00     0.148 A 
ATOM     98  C   UNL A   1      47.623  29.876  27.092  1.00  0.00     0.002 A 
ATOM     99  C   UNL A   1      46.885  27.579  26.842  1.00  0.00     0.091 A 
ATOM    100  F   UNL A   1      44.634  27.023  27.397  1.00  0.00    -0.205 F 
ATOM    101  C   UNL A   1      47.889  28.553  26.734  1.00  0.00     0.022 A 
BRANCH  99 102
ATOM    102  S   UNL A   1      47.322  25.877  26.481  1.00  0.00     0.127 S 
ATOM    103  O   UNL A   1      46.317  25.505  25.488  1.00  0.00    -0.237 OA
ATOM    104  O   UNL A   1      48.682  26.010  25.957  1.00  0.00    -0.237 OA
ATOM    105  O   UNL A   1      47.239  25.161  27.748  1.00  0.00    -0.744 OA
ENDBRANCH  99 102
ENDBRANCH  72  95
ENDBRANCH  46  47
ENDBRANCH  38  41
ENDBRANCH  36  37
ENDBRANCH   1  36
TORSDOF 18
ENDMDL
MODEL 2
REMARK VINA RESULT:     -12.5      2.947      7.964
REMARK SMILES C[C@@]1(Oc2c[nH]c3ccc(Br)c(Cl)c23)O[C@@H](C(=O)NCCCNC(=O)c2ccc(-c3c4nc(c(-c5cccc(S(=O)(=O)[O-])c5F)c5ccc([nH]5)c(-c5cccc(S(=O)(=O)[O-])c5F)c5nc(c(-c6cccc(S(=O)(=O)[O-])c6F)c6ccc3[nH]6)C=C5)C=C4)cc2)[C@@](C)(O)[C@@](C)(O)[C@@]1(C)O
REMARK SMILES IDX 21 1 20 2 19 3 17 4 18 5 16 7 1 8 2 9 15 10 95 11 92 12
REMARK SMILES IDX 96 13 89 14 93 15 90 16 3 17 4 18 5 19 14 20 6 21 7 22 12 23
REMARK SMILES IDX 8 25 10 26 13 27 9 28 11 29 97 30 94 32 91 34 22 36 23 37
REMARK SMILES IDX 24 38 25 40 26 41 27 42 88 43 28 44 87 45 29 46 30 47 31 48
REMARK SMILES IDX 81 49 32 50 86 51 80 52 82 53 33 54 85 55 79 56 78 57 34 59
REMARK SMILES IDX 66 60 46 61 65 62 47 63 50 64 64 65 83 66 48 67 49 68 63 70
REMARK SMILES IDX 84 71 51 72 35 73 36 74 44 75 37 76 39 77 45 78 38 79 40 80
REMARK SMILES IDX 41 81 42 82 43 83 67 84 68 85 76 86 69 87 71 88 77 89 70 90
REMARK SMILES IDX 72 91 73 92 74 93 75 94 52 95 53 96 61 97 54 98 56 99 62 100
REMARK SMILES IDX 55 101 57 102 58 103 59 104 60 105
REMARK H PARENT 19 6 6 24 97 31 94 33 91 35 23 39 82 58 50 69
REMARK Flexibility Score: inf
ROOT
ATOM      1  C   UNL A   1      32.703  31.388  27.258  1.00  0.00     0.042 C 
ENDROOT
BRANCH   1   2
ATOM      2  C   UNL A   1      32.264  30.189  26.401  1.00  0.00     0.117 C 
BRANCH   2   3
ATOM      3  N   UNL A   1      31.448  30.449  25.166  1.00  0.00    -0.354 N 
ATOM      4  C   UNL A   1      30.566  29.711  24.392  1.00  0.00     0.252 C 
ATOM      5  O   UNL A   1      29.531  30.320  24.073  1.00  0.00    -0.272 OA
ATOM      6  H   UNL A   1      31.571  31.365  24.824  1.00  0.00     0.163 HD
BRANCH   4   7
ATOM      7  C   UNL A   1      30.779  28.218  23.772  1.00  0.00     0.246 C 
ATOM      8  C   UNL A   1      31.386  27.774  26.604  1.00  0.00     0.094 C 
ATOM      9  C   UNL A   1      31.978  26.980  25.405  1.00  0.00     0.240 C 
ATOM     10  O   UNL A   1      30.874  26.963  24.498  1.00  0.00    -0.322 OA
ATOM     11  C   UNL A   1      33.316  27.254  24.468  1.00  0.00     0.158 C 
ATOM     12  C   UNL A   1      33.224  28.267  23.207  1.00  0.00     0.128 C 
ATOM     13  C   UNL A   1      33.706  25.905  23.786  1.00  0.00     0.053 C 
ATOM     14  C   UNL A   1      31.804  28.249  22.591  1.00  0.00     0.129 C 
ATOM     15  C   UNL A   1      34.401  28.134  22.189  1.00  0.00     0.049 C 
ATOM     16  C   UNL A   1      31.552  27.101  21.597  1.00  0.00     0.049 C 
BRANCH   9  17
ATOM     17  O   UNL A   1      32.289  25.866  26.328  1.00  0.00    -0.457 OA
BRANCH  17  18
ATOM     18  C   UNL A   1      31.711  24.669  26.239  1.00  0.00     0.150 A 
ATOM     19  C   UNL A   1      30.376  24.400  26.367  1.00  0.00     0.130 A 
ATOM     20  C   UNL A   1      32.426  23.449  26.063  1.00  0.00     0.061 A 
ATOM     21  N   UNL A   1      30.228  23.065  26.087  1.00  0.00    -0.358 N 
ATOM     22  C   UNL A   1      31.445  22.517  25.726  1.00  0.00     0.051 A 
ATOM     23  C   UNL A   1      33.787  23.084  25.937  1.00  0.00     0.068 A 
ATOM     24  H   UNL A   1      29.379  22.569  26.135  1.00  0.00     0.166 HD
ATOM     25  C   UNL A   1      31.760  21.301  25.110  1.00  0.00     0.028 A 
ATOM     26  C   UNL A   1      34.117  21.923  25.235  1.00  0.00     0.037 A 
ATOM     27  Cl  UNL A   1      34.932  24.210  26.540  1.00  0.00    -0.082 Cl
ATOM     28  C   UNL A   1      33.108  21.060  24.806  1.00  0.00     0.019 A 
ATOM     29  Br  UNL A   1      35.902  21.537  24.713  1.00  0.00    -0.049 Br
ENDBRANCH  17  18
ENDBRANCH   9  17
BRANCH  11  30
ATOM     30  O   UNL A   1      34.419  27.623  25.312  1.00  0.00    -0.380 OA
ATOM     31  H   UNL A   1      35.140  26.983  25.200  1.00  0.00     0.211 HD
ENDBRANCH  11  30
BRANCH  12  32
ATOM     32  O   UNL A   1      33.481  29.620  23.557  1.00  0.00    -0.384 OA
ATOM     33  H   UNL A   1      33.124  30.205  22.869  1.00  0.00     0.211 HD
ENDBRANCH  12  32
BRANCH  14  34
ATOM     34  O   UNL A   1      31.601  29.451  21.814  1.00  0.00    -0.384 OA
ATOM     35  H   UNL A   1      30.650  29.603  21.697  1.00  0.00     0.211 HD
ENDBRANCH  14  34
ENDBRANCH   4   7
ENDBRANCH   2   3
ENDBRANCH   1   2
BRANCH   1  36
ATOM     36  C   UNL A   1      34.159  31.422  27.660  1.00  0.00     0.118 C 
BRANCH  36  37
ATOM     37  N   UNL A   1      34.472  32.271  28.808  1.00  0.00    -0.352 N 
ATOM     38  C   UNL A   1      35.451  32.020  29.762  1.00  0.00     0.251 C 
ATOM     39  H   UNL A   1      33.942  33.093  28.915  1.00  0.00     0.163 HD
ATOM     40  O   UNL A   1      35.481  32.588  30.832  1.00  0.00    -0.269 OA
BRANCH  38  41
ATOM     41  C   UNL A   1      36.440  30.977  29.417  1.00  0.00     0.039 A 
ATOM     42  C   UNL A   1      37.631  31.351  28.795  1.00  0.00     0.014 A 
ATOM     43  C   UNL A   1      36.280  29.716  29.994  1.00  0.00     0.014 A 
ATOM     44  C   UNL A   1      38.721  30.492  28.881  1.00  0.00     0.010 A 
ATOM     45  C   UNL A   1      37.399  28.926  30.182  1.00  0.00     0.010 A 
ATOM     46  C   UNL A   1      38.626  29.306  29.634  1.00  0.00    -0.014 A 
BRANCH  46  47
ATOM     47  C   UNL A   1      39.854  28.569  29.951  1.00  0.00     0.031 A 
ATOM     48  C   UNL A   1      40.309  28.640  31.372  1.00  0.00     0.074 A 
ATOM     49  C   UNL A   1      40.498  27.734  29.108  1.00  0.00     0.049 A 
ATOM     50  N   UNL A   1      41.309  29.312  31.842  1.00  0.00    -0.248 NA
ATOM     51  C   UNL A   1      39.513  27.956  32.404  1.00  0.00     0.031 C 
ATOM     52  C   UNL A   1      40.034  27.241  27.808  1.00  0.00     0.029 A 
ATOM     53  N   UNL A   1      41.669  27.053  29.293  1.00  0.00    -0.354 N 
ATOM     54  C   UNL A   1      41.423  28.928  33.177  1.00  0.00     0.074 A 
ATOM     55  C   UNL A   1      40.197  28.252  33.514  1.00  0.00     0.031 C 
ATOM     56  C   UNL A   1      40.772  26.173  27.443  1.00  0.00     0.029 A 
ATOM     57  C   UNL A   1      41.879  26.038  28.368  1.00  0.00     0.049 A 
ATOM     58  H   UNL A   1      42.306  27.263  30.015  1.00  0.00     0.167 HD
ATOM     59  C   UNL A   1      42.628  28.931  33.811  1.00  0.00     0.034 A 
ATOM     60  C   UNL A   1      42.896  25.149  28.343  1.00  0.00     0.034 A 
ATOM     61  C   UNL A   1      43.644  29.581  33.031  1.00  0.00     0.049 A 
ATOM     62  C   UNL A   1      44.047  25.771  29.033  1.00  0.00     0.074 A 
ATOM     63  C   UNL A   1      44.056  30.860  32.740  1.00  0.00     0.029 A 
ATOM     64  N   UNL A   1      44.246  28.739  32.140  1.00  0.00    -0.354 N 
ATOM     65  N   UNL A   1      44.665  26.837  28.599  1.00  0.00    -0.248 NA
ATOM     66  C   UNL A   1      44.405  25.338  30.379  1.00  0.00     0.031 C 
ATOM     67  C   UNL A   1      44.830  30.767  31.544  1.00  0.00     0.029 A 
ATOM     68  C   UNL A   1      44.875  29.434  31.145  1.00  0.00     0.049 A 
ATOM     69  H   UNL A   1      44.228  27.756  32.205  1.00  0.00     0.167 HD
ATOM     70  C   UNL A   1      45.154  27.426  29.746  1.00  0.00     0.074 A 
ATOM     71  C   UNL A   1      45.139  26.386  30.761  1.00  0.00     0.031 C 
ATOM     72  C   UNL A   1      45.181  28.779  29.892  1.00  0.00     0.034 A 
BRANCH  59  73
ATOM     73  C   UNL A   1      43.050  27.969  34.902  1.00  0.00     0.023 A 
ATOM     74  C   UNL A   1      43.476  28.517  36.134  1.00  0.00     0.012 A 
ATOM     75  C   UNL A   1      43.330  26.603  34.680  1.00  0.00     0.148 A 
ATOM     76  C   UNL A   1      44.148  27.745  37.090  1.00  0.00     0.002 A 
ATOM     77  C   UNL A   1      43.920  25.821  35.667  1.00  0.00     0.091 A 
ATOM     78  F   UNL A   1      43.168  26.083  33.458  1.00  0.00    -0.205 F 
ATOM     79  C   UNL A   1      44.354  26.391  36.866  1.00  0.00     0.022 A 
BRANCH  77  80
ATOM     80  S   UNL A   1      44.146  24.054  35.439  1.00  0.00     0.127 S 
ATOM     81  O   UNL A   1      45.064  24.018  34.305  1.00  0.00    -0.237 OA
ATOM     82  O   UNL A   1      44.728  23.655  36.722  1.00  0.00    -0.237 OA
ATOM     83  O   UNL A   1      42.806  23.530  35.208  1.00  0.00    -0.744 OA
ENDBRANCH  77  80
ENDBRANCH  59  73
BRANCH  60  84
ATOM     84  C   UNL A   1      42.948  23.761  27.830  1.00  0.00     0.023 A 
ATOM     85  C   UNL A   1      41.894  22.877  28.144  1.00  0.00     0.012 A 
ATOM     86  C   UNL A   1      43.857  23.377  26.820  1.00  0.00     0.148 A 
ATOM     87  C   UNL A   1      41.709  21.689  27.431  1.00  0.00     0.002 A 
ATOM     88  C   UNL A   1      43.678  22.184  26.124  1.00  0.00     0.091 A 
ATOM     89  F   UNL A   1      44.839  24.221  26.472  1.00  0.00    -0.205 F 
ATOM     90  C   UNL A   1      42.593  21.348  26.413  1.00  0.00     0.022 A 
BRANCH  88  91
ATOM     91  S   UNL A   1      44.794  21.680  24.807  1.00  0.00     0.127 S 
ATOM     92  O   UNL A   1      46.091  21.664  25.488  1.00  0.00    -0.237 OA
ATOM     93  O   UNL A   1      44.275  20.363  24.454  1.00  0.00    -0.237 OA
ATOM     94  O   UNL A   1      44.674  22.713  23.786  1.00  0.00    -0.744 OA
ENDBRANCH  88  91
ENDBRANCH  60  84
BRANCH  72  95
ATOM     95  C   UNL A   1      45.307  29.636  28.673  1.00  0.00     0.023 A 
ATOM     96  C   UNL A   1      44.199  30.066  27.922  1.00  0.00     0.012 A 
ATOM     97  C   UNL A   1      46.585  30.138  28.371  1.00  0.00     0.148 A 
ATOM     98  C   UNL A   1      44.367  30.989  26.884  1.00  0.00     0.002 A 
ATOM     99  C   UNL A   1      46.742  31.084  27.370  1.00  0.00     0.091 A 
ATOM    100  F   UNL A   1      47.623  29.700  29.100  1.00  0.00    -0.205 F 
ATOM    101  C   UNL A   1      45.636  31.509  26.619  1.00  0.00     0.022 A 
BRANCH  99 102
ATOM    102  S   UNL A   1      48.322  31.877  27.062  1.00  0.00     0.127 S 
ATOM    103  O   UNL A   1      49.115  30.778  26.514  1.00  0.00    -0.237 OA
ATOM    104  O   UNL A   1      47.964  32.916  26.097  1.00  0.00    -0.237 OA
ATOM    105  O   UNL A   1      48.776  32.388  28.350  1.00  0.00    -0.744 OA
ENDBRANCH  99 102
ENDBRANCH  72  95
ENDBRANCH  46  47
ENDBRANCH  38  41
ENDBRANCH  36  37
ENDBRANCH   1  36
TORSDOF 18
ENDMDL
MODEL 3
REMARK VINA RESULT:     -12.2      3.162      7.901
REMARK SMILES C[C@@]1(Oc2c[nH]c3ccc(Br)c(Cl)c23)O[C@@H](C(=O)NCCCNC(=O)c2ccc(-c3c4nc(c(-c5cccc(S(=O)(=O)[O-])c5F)c5ccc([nH]5)c(-c5cccc(S(=O)(=O)[O-])c5F)c5nc(c(-c6cccc(S(=O)(=O)[O-])c6F)c6ccc3[nH]6)C=C5)C=C4)cc2)[C@@](C)(O)[C@@](C)(O)[C@@]1(C)O
REMARK SMILES IDX 21 1 20 2 19 3 17 4 18 5 16 7 1 8 2 9 15 10 95 11 92 12
REMARK SMILES IDX 96 13 89 14 93 15 90 16 3 17 4 18 5 19 14 20 6 21 7 22 12 23
REMARK SMILES IDX 8 25 10 26 13 27 9 28 11 29 97 30 94 32 91 34 22 36 23 37
REMARK SMILES IDX 24 38 25 40 26 41 27 42 88 43 28 44 87 45 29 46 30 47 31 48
REMARK SMILES IDX 81 49 32 50 86 51 80 52 82 53 33 54 85 55 79 56 78 57 34 59
REMARK SMILES IDX 66 60 46 61 65 62 47 63 50 64 64 65 83 66 48 67 49 68 63 70
REMARK SMILES IDX 84 71 51 72 35 73 36 74 44 75 37 76 39 77 45 78 38 79 40 80
REMARK SMILES IDX 41 81 42 82 43 83 67 84 68 85 76 86 69 87 71 88 77 89 70 90
REMARK SMILES IDX 72 91 73 92 74 93 75 94 52 95 53 96 61 97 54 98 56 99 62 100
REMARK SMILES IDX 55 101 57 102 58 103 59 104 60 105
REMARK H PARENT 19 6 6 24 97 31 94 33 91 35 23 39 82 58 50 69
REMARK Flexibility Score: inf
ROOT
ATOM      1  C   UNL A   1      32.716  31.536  27.025  1.00  0.00     0.042 C 
ENDROOT
BRANCH   1   2
ATOM      2  C   UNL A   1      32.105  30.307  26.330  1.00  0.00     0.117 C 
BRANCH   2   3
ATOM      3  N   UNL A   1      32.796  29.751  25.116  1.00  0.00    -0.354 N 
ATOM      4  C   UNL A   1      32.430  28.929  24.062  1.00  0.00     0.252 C 
ATOM      5  O   UNL A   1      32.810  29.324  22.947  1.00  0.00    -0.272 OA
ATOM      6  H   UNL A   1      33.735  30.041  25.056  1.00  0.00     0.163 HD
BRANCH   4   7
ATOM      7  C   UNL A   1      31.678  27.484  24.129  1.00  0.00     0.246 C 
ATOM      8  C   UNL A   1      34.048  26.993  25.779  1.00  0.00     0.094 C 
ATOM      9  C   UNL A   1      33.280  25.932  24.941  1.00  0.00     0.240 C 
ATOM     10  O   UNL A   1      31.933  26.395  25.056  1.00  0.00    -0.322 OA
ATOM     11  C   UNL A   1      33.451  25.453  23.365  1.00  0.00     0.158 C 
ATOM     12  C   UNL A   1      32.727  26.295  22.184  1.00  0.00     0.128 C 
ATOM     13  C   UNL A   1      32.797  24.043  23.219  1.00  0.00     0.053 C 
ATOM     14  C   UNL A   1      31.410  26.930  22.690  1.00  0.00     0.129 C 
ATOM     15  C   UNL A   1      32.628  25.536  20.822  1.00  0.00     0.049 C 
ATOM     16  C   UNL A   1      30.194  25.988  22.668  1.00  0.00     0.049 C 
BRANCH   9  17
ATOM     17  O   UNL A   1      33.853  24.873  25.802  1.00  0.00    -0.457 OA
BRANCH  17  18
ATOM     18  C   UNL A   1      33.260  23.695  25.991  1.00  0.00     0.150 A 
ATOM     19  C   UNL A   1      31.942  23.486  26.289  1.00  0.00     0.130 A 
ATOM     20  C   UNL A   1      33.946  22.446  25.980  1.00  0.00     0.061 A 
ATOM     21  N   UNL A   1      31.759  22.127  26.278  1.00  0.00    -0.358 N 
ATOM     22  C   UNL A   1      32.932  21.492  25.914  1.00  0.00     0.051 A 
ATOM     23  C   UNL A   1      35.286  22.030  25.799  1.00  0.00     0.068 A 
ATOM     24  H   UNL A   1      30.914  21.670  26.495  1.00  0.00     0.166 HD
ATOM     25  C   UNL A   1      33.177  20.176  25.509  1.00  0.00     0.028 A 
ATOM     26  C   UNL A   1      35.541  20.752  25.298  1.00  0.00     0.037 A 
ATOM     27  Cl  UNL A   1      36.492  23.220  26.073  1.00  0.00    -0.082 Cl
ATOM     28  C   UNL A   1      34.489  19.849  25.132  1.00  0.00     0.019 A 
ATOM     29  Br  UNL A   1      37.265  20.232  24.695  1.00  0.00    -0.049 Br
ENDBRANCH  17  18
ENDBRANCH   9  17
BRANCH  11  30
ATOM     30  O   UNL A   1      34.847  25.294  23.064  1.00  0.00    -0.380 OA
ATOM     31  H   UNL A   1      35.231  26.157  22.843  1.00  0.00     0.211 HD
ENDBRANCH  11  30
BRANCH  12  32
ATOM     32  O   UNL A   1      33.518  27.370  21.698  1.00  0.00    -0.384 OA
ATOM     33  H   UNL A   1      33.154  27.684  20.855  1.00  0.00     0.211 HD
ENDBRANCH  12  32
BRANCH  14  34
ATOM     34  O   UNL A   1      31.036  28.023  21.821  1.00  0.00    -0.384 OA
ATOM     35  H   UNL A   1      30.120  28.283  22.003  1.00  0.00     0.211 HD
ENDBRANCH  14  34
ENDBRANCH   4   7
ENDBRANCH   2   3
ENDBRANCH   1   2
BRANCH   1  36
ATOM     36  C   UNL A   1      34.046  31.321  27.709  1.00  0.00     0.118 C 
BRANCH  36  37
ATOM     37  N   UNL A   1      34.159  31.890  29.051  1.00  0.00    -0.352 N 
ATOM     38  C   UNL A   1      35.246  31.751  29.904  1.00  0.00     0.251 C 
ATOM     39  H   UNL A   1      33.396  32.418  29.379  1.00  0.00     0.163 HD
ATOM     40  O   UNL A   1      35.180  31.990  31.090  1.00  0.00    -0.269 OA
BRANCH  38  41
ATOM     41  C   UNL A   1      36.492  31.246  29.290  1.00  0.00     0.039 A 
ATOM     42  C   UNL A   1      37.679  31.954  29.481  1.00  0.00     0.014 A 
ATOM     43  C   UNL A   1      36.491  29.938  28.804  1.00  0.00     0.014 A 
ATOM     44  C   UNL A   1      38.885  31.283  29.314  1.00  0.00     0.010 A 
ATOM     45  C   UNL A   1      37.687  29.245  28.761  1.00  0.00     0.010 A 
ATOM     46  C   UNL A   1      38.890  29.906  29.018  1.00  0.00    -0.014 A 
BRANCH  46  47
ATOM     47  C   UNL A   1      40.150  29.163  29.133  1.00  0.00     0.031 A 
ATOM     48  C   UNL A   1      40.662  28.958  30.521  1.00  0.00     0.074 A 
ATOM     49  C   UNL A   1      40.779  28.540  28.115  1.00  0.00     0.049 A 
ATOM     50  N   UNL A   1      41.663  29.554  31.083  1.00  0.00    -0.248 NA
ATOM     51  C   UNL A   1      39.929  28.050  31.419  1.00  0.00     0.031 C 
ATOM     52  C   UNL A   1      40.273  28.307  26.758  1.00  0.00     0.029 A 
ATOM     53  N   UNL A   1      41.975  27.876  28.113  1.00  0.00    -0.354 N 
ATOM     54  C   UNL A   1      41.843  28.909  32.306  1.00  0.00     0.074 A 
ATOM     55  C   UNL A   1      40.650  28.137  32.540  1.00  0.00     0.031 C 
ATOM     56  C   UNL A   1      41.024  27.362  26.156  1.00  0.00     0.029 A 
ATOM     57  C   UNL A   1      42.172  27.080  26.993  1.00  0.00     0.049 A 
ATOM     58  H   UNL A   1      42.635  27.956  28.840  1.00  0.00     0.167 HD
ATOM     59  C   UNL A   1      43.073  28.825  32.884  1.00  0.00     0.034 A 
ATOM     60  C   UNL A   1      43.210  26.250  26.749  1.00  0.00     0.034 A 
ATOM     61  C   UNL A   1      44.038  29.654  32.218  1.00  0.00     0.049 A 
ATOM     62  C   UNL A   1      44.372  26.757  27.511  1.00  0.00     0.074 A 
ATOM     63  C   UNL A   1      44.403  30.980  32.181  1.00  0.00     0.029 A 
ATOM     64  N   UNL A   1      44.623  29.033  31.152  1.00  0.00    -0.354 N 
ATOM     65  N   UNL A   1      44.943  27.910  27.283  1.00  0.00    -0.248 NA
ATOM     66  C   UNL A   1      44.798  26.071  28.725  1.00  0.00     0.031 C 
ATOM     67  C   UNL A   1      45.129  31.159  30.964  1.00  0.00     0.029 A 
ATOM     68  C   UNL A   1      45.192  29.938  30.299  1.00  0.00     0.049 A 
ATOM     69  H   UNL A   1      44.634  28.058  31.014  1.00  0.00     0.167 HD
ATOM     70  C   UNL A   1      45.465  28.269  28.508  1.00  0.00     0.074 A 
ATOM     71  C   UNL A   1      45.519  27.043  29.288  1.00  0.00     0.031 C 
ATOM     72  C   UNL A   1      45.462  29.564  28.928  1.00  0.00     0.034 A 
BRANCH  59  73
ATOM     73  C   UNL A   1      43.565  27.676  33.738  1.00  0.00     0.023 A 
ATOM     74  C   UNL A   1      44.017  26.510  33.076  1.00  0.00     0.012 A 
ATOM     75  C   UNL A   1      43.327  27.570  35.126  1.00  0.00     0.148 A 
ATOM     76  C   UNL A   1      44.217  25.304  33.761  1.00  0.00     0.002 A 
ATOM     77  C   UNL A   1      43.609  26.395  35.815  1.00  0.00     0.091 A 
ATOM     78  F   UNL A   1      42.683  28.553  35.765  1.00  0.00    -0.205 F 
ATOM     79  C   UNL A   1      44.032  25.251  35.136  1.00  0.00     0.022 A 
BRANCH  77  80
ATOM     80  S   UNL A   1      43.442  26.305  37.602  1.00  0.00     0.127 S 
ATOM     81  O   UNL A   1      44.121  27.525  38.023  1.00  0.00    -0.237 OA
ATOM     82  O   UNL A   1      41.987  26.314  37.770  1.00  0.00    -0.237 OA
ATOM     83  O   UNL A   1      44.073  25.046  37.975  1.00  0.00    -0.744 OA
ENDBRANCH  77  80
ENDBRANCH  59  73
BRANCH  60  84
ATOM     84  C   UNL A   1      43.277  24.999  25.961  1.00  0.00     0.023 A 
ATOM     85  C   UNL A   1      44.308  24.843  25.012  1.00  0.00     0.012 A 
ATOM     86  C   UNL A   1      42.527  23.856  26.320  1.00  0.00     0.148 A 
ATOM     87  C   UNL A   1      44.630  23.586  24.491  1.00  0.00     0.002 A 
ATOM     88  C   UNL A   1      42.841  22.609  25.784  1.00  0.00     0.091 A 
ATOM     89  F   UNL A   1      41.572  23.970  27.254  1.00  0.00    -0.205 F 
ATOM     90  C   UNL A   1      43.905  22.467  24.887  1.00  0.00     0.022 A 
BRANCH  88  91
ATOM     91  S   UNL A   1      41.931  21.127  26.244  1.00  0.00     0.127 S 
ATOM     92  O   UNL A   1      42.239  21.003  27.671  1.00  0.00    -0.237 OA
ATOM     93  O   UNL A   1      40.554  21.508  25.949  1.00  0.00    -0.237 OA
ATOM     94  O   UNL A   1      42.493  20.061  25.423  1.00  0.00    -0.744 OA
ENDBRANCH  88  91
ENDBRANCH  60  84
BRANCH  72  95
ATOM     95  C   UNL A   1      45.513  30.655  27.908  1.00  0.00     0.023 A 
ATOM     96  C   UNL A   1      44.362  31.209  27.319  1.00  0.00     0.012 A 
ATOM     97  C   UNL A   1      46.769  31.234  27.650  1.00  0.00     0.148 A 
ATOM     98  C   UNL A   1      44.466  32.328  26.487  1.00  0.00     0.002 A 
ATOM     99  C   UNL A   1      46.863  32.368  26.859  1.00  0.00     0.091 A 
ATOM    100  F   UNL A   1      47.848  30.676  28.218  1.00  0.00    -0.205 F 
ATOM    101  C   UNL A   1      45.713  32.917  26.269  1.00  0.00     0.022 A 
BRANCH  99 102
ATOM    102  S   UNL A   1      48.417  33.238  26.640  1.00  0.00     0.127 S 
ATOM    103  O   UNL A   1      48.087  34.193  25.583  1.00  0.00    -0.237 OA
ATOM    104  O   UNL A   1      48.628  33.833  27.960  1.00  0.00    -0.237 OA
ATOM    105  O   UNL A   1      49.400  32.225  26.277  1.00  0.00    -0.744 OA
ENDBRANCH  99 102
ENDBRANCH  72  95
ENDBRANCH  46  47
ENDBRANCH  38  41
ENDBRANCH  36  37
ENDBRANCH   1  36
TORSDOF 18
ENDMDL
