MODEL 1
REMARK VINA RESULT:     -11.5      0.000      0.000
REMARK SMILES C[C@H](/N=C(\Cc1ccccc1)C(=O)OC(C)(C)C)C(=O)NCCCNC(=O)c1ccc(-c2c3nc(c(-c4cccc(S(=O)(=O)[O-])c4F)c4ccc([nH]4)c(-c4cccc(S(=O)(=O)[O-])c4F)c4nc(c(-c5cccc(S(=O)(=O)[O-])c5F)c5ccc2[nH]5)C=C4)C=C3)cc1
REMARK SMILES IDX 22 1 21 2 19 3 20 4 2 6 1 7 3 8 4 9 5 10 6 11 7 12 11 13
REMARK SMILES IDX 8 14 10 15 9 16 12 17 13 18 14 19 15 20 16 21 17 22 18 23
REMARK SMILES IDX 23 24 24 25 25 26 26 27 27 29 28 30 29 31 90 32 30 33 89 34
REMARK SMILES IDX 31 35 32 36 33 37 83 38 34 39 88 40 82 41 84 42 35 43 87 44
REMARK SMILES IDX 81 45 80 46 36 48 68 49 48 50 67 51 49 52 52 53 66 54 85 55
REMARK SMILES IDX 50 56 51 57 65 59 86 60 53 61 37 62 38 63 46 64 39 65 41 66
REMARK SMILES IDX 47 67 40 68 42 69 43 70 44 71 45 72 69 73 70 74 78 75 71 76
REMARK SMILES IDX 73 77 79 78 72 79 74 80 75 81 76 82 77 83 54 84 55 85 63 86
REMARK SMILES IDX 56 87 58 88 64 89 57 90 59 91 60 92 61 93 62 94
REMARK H PARENT 21 5 25 28 84 47 52 58
REMARK Flexibility Score: inf
ROOT
ATOM      1  C   UNL A   1      35.300  22.936  23.996  1.00  0.00     0.117 C 
ENDROOT
BRANCH   1   2
ATOM      2  N   UNL A   1      34.032  22.273  24.189  1.00  0.00    -0.354 N 
ATOM      3  C   UNL A   1      33.149  22.294  25.222  1.00  0.00     0.244 C 
ATOM      4  O   UNL A   1      32.147  21.580  25.087  1.00  0.00    -0.273 OA
ATOM      5  H   UNL A   1      33.757  21.703  23.435  1.00  0.00     0.163 HD
BRANCH   3   6
ATOM      6  C   UNL A   1      33.293  23.210  26.448  1.00  0.00     0.191 C 
ATOM      7  C   UNL A   1      33.616  22.477  27.731  1.00  0.00     0.044 C 
BRANCH   6   8
ATOM      8  N   UNL A   1      32.305  24.281  26.508  1.00  0.00    -0.269 NA
ATOM      9  C   UNL A   1      32.297  25.538  26.256  1.00  0.00     0.125 C 
BRANCH   9  10
ATOM     10  C   UNL A   1      33.471  26.438  25.965  1.00  0.00     0.099 C 
BRANCH  10  11
ATOM     11  C   UNL A   1      33.777  26.892  24.557  1.00  0.00    -0.042 A 
ATOM     12  C   UNL A   1      34.053  28.248  24.315  1.00  0.00     0.004 A 
ATOM     13  C   UNL A   1      33.566  26.053  23.456  1.00  0.00     0.004 A 
ATOM     14  C   UNL A   1      34.076  28.751  23.012  1.00  0.00     0.000 A 
ATOM     15  C   UNL A   1      33.603  26.553  22.154  1.00  0.00     0.000 A 
ATOM     16  C   UNL A   1      33.843  27.905  21.932  1.00  0.00     0.000 A 
ENDBRANCH  10  11
ENDBRANCH   9  10
BRANCH   9  17
ATOM     17  C   UNL A   1      30.913  26.204  26.366  1.00  0.00     0.353 C 
ATOM     18  O   UNL A   1      30.732  27.153  27.090  1.00  0.00    -0.245 OA
BRANCH  17  19
ATOM     19  O   UNL A   1      30.050  25.597  25.525  1.00  0.00    -0.455 OA
BRANCH  19  20
ATOM     20  C   UNL A   1      29.638  26.234  24.275  1.00  0.00     0.104 C 
ATOM     21  C   UNL A   1      28.122  26.437  24.143  1.00  0.00     0.056 C 
ATOM     22  C   UNL A   1      30.394  27.554  24.121  1.00  0.00     0.056 C 
ATOM     23  C   UNL A   1      30.089  25.260  23.174  1.00  0.00     0.056 C 
ENDBRANCH  19  20
ENDBRANCH  17  19
ENDBRANCH   9  17
ENDBRANCH   6   8
ENDBRANCH   3   6
ENDBRANCH   1   2
BRANCH   1  24
ATOM     24  C   UNL A   1      36.465  21.965  24.129  1.00  0.00     0.042 C 
BRANCH  24  25
ATOM     25  C   UNL A   1      36.823  21.636  25.570  1.00  0.00     0.118 C 
BRANCH  25  26
ATOM     26  N   UNL A   1      37.959  20.729  25.702  1.00  0.00    -0.352 N 
ATOM     27  C   UNL A   1      39.252  20.972  26.107  1.00  0.00     0.251 C 
ATOM     28  H   UNL A   1      37.769  19.793  25.464  1.00  0.00     0.163 HD
ATOM     29  O   UNL A   1      40.069  20.054  26.075  1.00  0.00    -0.269 OA
BRANCH  27  30
ATOM     30  C   UNL A   1      39.678  22.324  26.541  1.00  0.00     0.039 A 
ATOM     31  C   UNL A   1      40.769  22.446  27.410  1.00  0.00     0.014 A 
ATOM     32  C   UNL A   1      39.019  23.471  26.101  1.00  0.00     0.014 A 
ATOM     33  C   UNL A   1      41.250  23.714  27.758  1.00  0.00     0.010 A 
ATOM     34  C   UNL A   1      39.561  24.725  26.359  1.00  0.00     0.010 A 
ATOM     35  C   UNL A   1      40.681  24.864  27.192  1.00  0.00    -0.014 A 
BRANCH  35  36
ATOM     36  C   UNL A   1      41.209  26.233  27.439  1.00  0.00     0.031 A 
ATOM     37  C   UNL A   1      42.612  26.574  27.008  1.00  0.00     0.074 A 
ATOM     38  C   UNL A   1      40.502  27.107  28.181  1.00  0.00     0.049 A 
ATOM     39  N   UNL A   1      43.356  27.593  27.346  1.00  0.00    -0.248 NA
ATOM     40  C   UNL A   1      43.284  25.609  26.120  1.00  0.00     0.031 C 
ATOM     41  C   UNL A   1      39.160  26.875  28.720  1.00  0.00     0.029 A 
ATOM     42  N   UNL A   1      40.833  28.356  28.649  1.00  0.00    -0.354 N 
ATOM     43  C   UNL A   1      44.605  27.351  26.785  1.00  0.00     0.074 A 
ATOM     44  C   UNL A   1      44.520  26.084  26.093  1.00  0.00     0.031 C 
ATOM     45  C   UNL A   1      38.783  27.943  29.441  1.00  0.00     0.029 A 
ATOM     46  C   UNL A   1      39.870  28.917  29.455  1.00  0.00     0.049 A 
ATOM     47  H   UNL A   1      41.680  28.806  28.427  1.00  0.00     0.167 HD
ATOM     48  C   UNL A   1      45.715  28.124  26.822  1.00  0.00     0.034 A 
ATOM     49  C   UNL A   1      39.867  30.079  30.140  1.00  0.00     0.034 A 
ATOM     50  C   UNL A   1      45.762  29.432  27.414  1.00  0.00     0.049 A 
ATOM     51  C   UNL A   1      41.072  30.978  30.059  1.00  0.00     0.074 A 
ATOM     52  C   UNL A   1      46.808  30.338  27.422  1.00  0.00     0.029 A 
ATOM     53  N   UNL A   1      44.704  30.033  28.080  1.00  0.00    -0.354 N 
ATOM     54  N   UNL A   1      42.204  30.782  29.428  1.00  0.00    -0.248 NA
ATOM     55  C   UNL A   1      40.990  32.271  30.755  1.00  0.00     0.031 C 
ATOM     56  C   UNL A   1      46.375  31.496  28.076  1.00  0.00     0.029 A 
ATOM     57  C   UNL A   1      45.063  31.308  28.480  1.00  0.00     0.049 A 
ATOM     58  H   UNL A   1      43.829  29.615  28.243  1.00  0.00     0.167 HD
ATOM     59  C   UNL A   1      42.952  31.937  29.617  1.00  0.00     0.074 A 
ATOM     60  C   UNL A   1      42.139  32.837  30.411  1.00  0.00     0.031 C 
ATOM     61  C   UNL A   1      44.207  32.220  29.191  1.00  0.00     0.034 A 
BRANCH  48  62
ATOM     62  C   UNL A   1      46.951  27.608  26.136  1.00  0.00     0.023 A 
ATOM     63  C   UNL A   1      47.857  26.804  26.856  1.00  0.00     0.012 A 
ATOM     64  C   UNL A   1      47.195  27.875  24.774  1.00  0.00     0.148 A 
ATOM     65  C   UNL A   1      49.004  26.303  26.244  1.00  0.00     0.002 A 
ATOM     66  C   UNL A   1      48.321  27.338  24.159  1.00  0.00     0.091 A 
ATOM     67  F   UNL A   1      46.338  28.663  24.110  1.00  0.00    -0.205 F 
ATOM     68  C   UNL A   1      49.231  26.560  24.894  1.00  0.00     0.022 A 
BRANCH  66  69
ATOM     69  S   UNL A   1      48.651  27.557  22.407  1.00  0.00     0.127 S 
ATOM     70  O   UNL A   1      47.496  28.346  21.985  1.00  0.00    -0.237 OA
ATOM     71  O   UNL A   1      49.919  28.289  22.414  1.00  0.00    -0.237 OA
ATOM     72  O   UNL A   1      48.739  26.213  21.853  1.00  0.00    -0.744 OA
ENDBRANCH  66  69
ENDBRANCH  48  62
BRANCH  49  73
ATOM     73  C   UNL A   1      38.646  30.493  30.886  1.00  0.00     0.023 A 
ATOM     74  C   UNL A   1      38.588  30.275  32.276  1.00  0.00     0.012 A 
ATOM     75  C   UNL A   1      37.576  31.152  30.252  1.00  0.00     0.148 A 
ATOM     76  C   UNL A   1      37.478  30.683  33.018  1.00  0.00     0.002 A 
ATOM     77  C   UNL A   1      36.501  31.611  31.007  1.00  0.00     0.091 A 
ATOM     78  F   UNL A   1      37.634  31.340  28.925  1.00  0.00    -0.205 F 
ATOM     79  C   UNL A   1      36.441  31.363  32.386  1.00  0.00     0.022 A 
BRANCH  77  80
ATOM     80  S   UNL A   1      35.220  32.641  30.279  1.00  0.00     0.127 S 
ATOM     81  O   UNL A   1      34.315  32.839  31.406  1.00  0.00    -0.237 OA
ATOM     82  O   UNL A   1      35.968  33.830  29.870  1.00  0.00    -0.237 OA
ATOM     83  O   UNL A   1      34.704  31.858  29.162  1.00  0.00    -0.744 OA
ENDBRANCH  77  80
ENDBRANCH  49  73
BRANCH  61  84
ATOM     84  C   UNL A   1      44.773  33.573  29.521  1.00  0.00     0.023 A 
ATOM     85  C   UNL A   1      45.525  33.742  30.699  1.00  0.00     0.012 A 
ATOM     86  C   UNL A   1      44.651  34.643  28.613  1.00  0.00     0.148 A 
ATOM     87  C   UNL A   1      46.138  34.963  30.975  1.00  0.00     0.002 A 
ATOM     88  C   UNL A   1      45.295  35.846  28.878  1.00  0.00     0.091 A 
ATOM     89  F   UNL A   1      43.910  34.465  27.509  1.00  0.00    -0.205 F 
ATOM     90  C   UNL A   1      46.034  36.009  30.061  1.00  0.00     0.022 A 
BRANCH  88  91
ATOM     91  S   UNL A   1      45.282  37.211  27.710  1.00  0.00     0.127 S 
ATOM     92  O   UNL A   1      46.087  36.672  26.615  1.00  0.00    -0.237 OA
ATOM     93  O   UNL A   1      43.857  37.354  27.406  1.00  0.00    -0.237 OA
ATOM     94  O   UNL A   1      45.859  38.344  28.419  1.00  0.00    -0.744 OA
ENDBRANCH  88  91
ENDBRANCH  61  84
ENDBRANCH  35  36
ENDBRANCH  27  30
ENDBRANCH  25  26
ENDBRANCH  24  25
ENDBRANCH   1  24
TORSDOF 19
ENDMDL
MODEL 2
REMARK VINA RESULT:     -11.3      1.259      7.786
REMARK SMILES C[C@H](/N=C(\Cc1ccccc1)C(=O)OC(C)(C)C)C(=O)NCCCNC(=O)c1ccc(-c2c3nc(c(-c4cccc(S(=O)(=O)[O-])c4F)c4ccc([nH]4)c(-c4cccc(S(=O)(=O)[O-])c4F)c4nc(c(-c5cccc(S(=O)(=O)[O-])c5F)c5ccc2[nH]5)C=C4)C=C3)cc1
REMARK SMILES IDX 22 1 21 2 19 3 20 4 2 6 1 7 3 8 4 9 5 10 6 11 7 12 11 13
REMARK SMILES IDX 8 14 10 15 9 16 12 17 13 18 14 19 15 20 16 21 17 22 18 23
REMARK SMILES IDX 23 24 24 25 25 26 26 27 27 29 28 30 29 31 90 32 30 33 89 34
REMARK SMILES IDX 31 35 32 36 33 37 83 38 34 39 88 40 82 41 84 42 35 43 87 44
REMARK SMILES IDX 81 45 80 46 36 48 68 49 48 50 67 51 49 52 52 53 66 54 85 55
REMARK SMILES IDX 50 56 51 57 65 59 86 60 53 61 37 62 38 63 46 64 39 65 41 66
REMARK SMILES IDX 47 67 40 68 42 69 43 70 44 71 45 72 69 73 70 74 78 75 71 76
REMARK SMILES IDX 73 77 79 78 72 79 74 80 75 81 76 82 77 83 54 84 55 85 63 86
REMARK SMILES IDX 56 87 58 88 64 89 57 90 59 91 60 92 61 93 62 94
REMARK H PARENT 21 5 25 28 84 47 52 58
REMARK Flexibility Score: inf
ROOT
ATOM      1  C   UNL A   1      35.009  23.693  23.577  1.00  0.00     0.117 C 
ENDROOT
BRANCH   1   2
ATOM      2  N   UNL A   1      33.933  22.809  23.194  1.00  0.00    -0.354 N 
ATOM      3  C   UNL A   1      32.675  23.059  22.744  1.00  0.00     0.244 C 
ATOM      4  O   UNL A   1      31.975  22.062  22.526  1.00  0.00    -0.273 OA
ATOM      5  H   UNL A   1      34.150  21.852  23.274  1.00  0.00     0.163 HD
BRANCH   3   6
ATOM      6  C   UNL A   1      32.152  24.465  22.411  1.00  0.00     0.191 C 
ATOM      7  C   UNL A   1      32.914  25.162  21.305  1.00  0.00     0.044 C 
BRANCH   6   8
ATOM      8  N   UNL A   1      31.782  25.253  23.580  1.00  0.00    -0.269 NA
ATOM      9  C   UNL A   1      31.343  26.439  23.788  1.00  0.00     0.125 C 
BRANCH   9  10
ATOM     10  C   UNL A   1      31.234  27.578  22.805  1.00  0.00     0.099 C 
BRANCH  10  11
ATOM     11  C   UNL A   1      29.948  28.354  22.649  1.00  0.00    -0.042 A 
ATOM     12  C   UNL A   1      30.002  29.723  22.340  1.00  0.00     0.004 A 
ATOM     13  C   UNL A   1      28.715  27.811  23.031  1.00  0.00     0.004 A 
ATOM     14  C   UNL A   1      28.865  30.527  22.448  1.00  0.00     0.000 A 
ATOM     15  C   UNL A   1      27.575  28.612  23.126  1.00  0.00     0.000 A 
ATOM     16  C   UNL A   1      27.653  29.972  22.849  1.00  0.00     0.000 A 
ENDBRANCH  10  11
ENDBRANCH   9  10
BRANCH   9  17
ATOM     17  C   UNL A   1      30.979  26.741  25.253  1.00  0.00     0.353 C 
ATOM     18  O   UNL A   1      30.704  25.853  26.024  1.00  0.00    -0.245 OA
BRANCH  17  19
ATOM     19  O   UNL A   1      31.075  28.067  25.481  1.00  0.00    -0.455 OA
BRANCH  19  20
ATOM     20  C   UNL A   1      32.214  28.629  26.204  1.00  0.00     0.104 C 
ATOM     21  C   UNL A   1      33.510  27.818  26.065  1.00  0.00     0.056 C 
ATOM     22  C   UNL A   1      32.413  30.079  25.761  1.00  0.00     0.056 C 
ATOM     23  C   UNL A   1      31.788  28.604  27.681  1.00  0.00     0.056 C 
ENDBRANCH  19  20
ENDBRANCH  17  19
ENDBRANCH   9  17
ENDBRANCH   6   8
ENDBRANCH   3   6
ENDBRANCH   1   2
BRANCH   1  24
ATOM     24  C   UNL A   1      36.303  22.927  23.819  1.00  0.00     0.042 C 
BRANCH  24  25
ATOM     25  C   UNL A   1      36.417  22.353  25.223  1.00  0.00     0.118 C 
BRANCH  25  26
ATOM     26  N   UNL A   1      37.338  21.225  25.324  1.00  0.00    -0.352 N 
ATOM     27  C   UNL A   1      38.619  21.162  25.823  1.00  0.00     0.251 C 
ATOM     28  H   UNL A   1      36.986  20.372  24.981  1.00  0.00     0.163 HD
ATOM     29  O   UNL A   1      39.239  20.104  25.742  1.00  0.00    -0.269 OA
BRANCH  27  30
ATOM     30  C   UNL A   1      39.269  22.355  26.417  1.00  0.00     0.039 A 
ATOM     31  C   UNL A   1      40.341  22.174  27.300  1.00  0.00     0.014 A 
ATOM     32  C   UNL A   1      38.841  23.646  26.111  1.00  0.00     0.014 A 
ATOM     33  C   UNL A   1      41.033  23.285  27.799  1.00  0.00     0.010 A 
ATOM     34  C   UNL A   1      39.593  24.741  26.519  1.00  0.00     0.010 A 
ATOM     35  C   UNL A   1      40.696  24.577  27.370  1.00  0.00    -0.014 A 
BRANCH  35  36
ATOM     36  C   UNL A   1      41.456  25.788  27.780  1.00  0.00     0.031 A 
ATOM     37  C   UNL A   1      40.759  26.869  28.564  1.00  0.00     0.074 A 
ATOM     38  C   UNL A   1      42.707  25.990  27.320  1.00  0.00     0.049 A 
ATOM     39  N   UNL A   1      41.138  28.097  28.798  1.00  0.00    -0.248 NA
ATOM     40  C   UNL A   1      39.433  26.537  29.114  1.00  0.00     0.031 C 
ATOM     41  C   UNL A   1      43.470  25.054  26.493  1.00  0.00     0.029 A 
ATOM     42  N   UNL A   1      43.542  27.073  27.449  1.00  0.00    -0.354 N 
ATOM     43  C   UNL A   1      40.068  28.707  29.442  1.00  0.00     0.074 A 
ATOM     44  C   UNL A   1      39.021  27.716  29.555  1.00  0.00     0.031 C 
ATOM     45  C   UNL A   1      44.658  25.601  26.190  1.00  0.00     0.029 A 
ATOM     46  C   UNL A   1      44.727  26.942  26.761  1.00  0.00     0.049 A 
ATOM     47  H   UNL A   1      43.314  27.868  27.984  1.00  0.00     0.167 HD
ATOM     48  C   UNL A   1      39.973  29.970  29.918  1.00  0.00     0.034 A 
ATOM     49  C   UNL A   1      45.746  27.809  26.597  1.00  0.00     0.034 A 
ATOM     50  C   UNL A   1      41.055  30.916  29.904  1.00  0.00     0.049 A 
ATOM     51  C   UNL A   1      45.665  29.165  27.247  1.00  0.00     0.074 A 
ATOM     52  C   UNL A   1      41.095  32.188  30.447  1.00  0.00     0.029 A 
ATOM     53  N   UNL A   1      42.299  30.679  29.341  1.00  0.00    -0.354 N 
ATOM     54  N   UNL A   1      44.688  29.682  27.950  1.00  0.00    -0.248 NA
ATOM     55  C   UNL A   1      46.836  30.044  27.109  1.00  0.00     0.031 C 
ATOM     56  C   UNL A   1      42.372  32.713  30.229  1.00  0.00     0.029 A 
ATOM     57  C   UNL A   1      43.124  31.771  29.546  1.00  0.00     0.049 A 
ATOM     58  H   UNL A   1      42.558  29.856  28.867  1.00  0.00     0.167 HD
ATOM     59  C   UNL A   1      45.138  30.928  28.371  1.00  0.00     0.074 A 
ATOM     60  C   UNL A   1      46.484  31.083  27.855  1.00  0.00     0.031 C 
ATOM     61  C   UNL A   1      44.489  31.867  29.101  1.00  0.00     0.034 A 
BRANCH  48  62
ATOM     62  C   UNL A   1      38.678  30.379  30.567  1.00  0.00     0.023 A 
ATOM     63  C   UNL A   1      38.471  30.100  31.933  1.00  0.00     0.012 A 
ATOM     64  C   UNL A   1      37.688  31.074  29.845  1.00  0.00     0.148 A 
ATOM     65  C   UNL A   1      37.286  30.475  32.562  1.00  0.00     0.002 A 
ATOM     66  C   UNL A   1      36.525  31.481  30.491  1.00  0.00     0.091 A 
ATOM     67  F   UNL A   1      37.888  31.307  28.540  1.00  0.00    -0.205 F 
ATOM     68  C   UNL A   1      36.318  31.175  31.846  1.00  0.00     0.022 A 
BRANCH  66  69
ATOM     69  S   UNL A   1      35.259  32.451  29.662  1.00  0.00     0.127 S 
ATOM     70  O   UNL A   1      36.032  33.592  29.176  1.00  0.00    -0.237 OA
ATOM     71  O   UNL A   1      34.797  31.537  28.616  1.00  0.00    -0.237 OA
ATOM     72  O   UNL A   1      34.262  32.747  30.682  1.00  0.00    -0.744 OA
ENDBRANCH  66  69
ENDBRANCH  48  62
BRANCH  49  73
ATOM     73  C   UNL A   1      46.967  27.381  25.857  1.00  0.00     0.023 A 
ATOM     74  C   UNL A   1      47.883  26.521  26.493  1.00  0.00     0.012 A 
ATOM     75  C   UNL A   1      47.197  27.760  24.521  1.00  0.00     0.148 A 
ATOM     76  C   UNL A   1      49.019  26.066  25.821  1.00  0.00     0.002 A 
ATOM     77  C   UNL A   1      48.298  27.253  23.839  1.00  0.00     0.091 A 
ATOM     78  F   UNL A   1      46.326  28.592  23.932  1.00  0.00    -0.205 F 
ATOM     79  C   UNL A   1      49.219  26.420  24.490  1.00  0.00     0.022 A 
BRANCH  77  80
ATOM     80  S   UNL A   1      48.517  27.537  22.077  1.00  0.00     0.127 S 
ATOM     81  O   UNL A   1      48.659  26.177  21.568  1.00  0.00    -0.237 OA
ATOM     82  O   UNL A   1      47.269  28.206  21.710  1.00  0.00    -0.237 OA
ATOM     83  O   UNL A   1      49.693  28.392  21.982  1.00  0.00    -0.744 OA
ENDBRANCH  77  80
ENDBRANCH  49  73
BRANCH  61  84
ATOM     84  C   UNL A   1      45.231  33.131  29.438  1.00  0.00     0.023 A 
ATOM     85  C   UNL A   1      46.030  33.178  30.597  1.00  0.00     0.012 A 
ATOM     86  C   UNL A   1      45.222  34.227  28.554  1.00  0.00     0.148 A 
ATOM     87  C   UNL A   1      46.799  34.305  30.877  1.00  0.00     0.002 A 
ATOM     88  C   UNL A   1      46.020  35.333  28.822  1.00  0.00     0.091 A 
ATOM     89  F   UNL A   1      44.436  34.168  27.469  1.00  0.00    -0.205 F 
ATOM     90  C   UNL A   1      46.805  35.375  29.985  1.00  0.00     0.022 A 
BRANCH  88  91
ATOM     91  S   UNL A   1      46.149  36.713  27.680  1.00  0.00     0.127 S 
ATOM     92  O   UNL A   1      44.809  37.291  27.759  1.00  0.00    -0.237 OA
ATOM     93  O   UNL A   1      47.202  37.529  28.287  1.00  0.00    -0.237 OA
ATOM     94  O   UNL A   1      46.511  36.131  26.394  1.00  0.00    -0.744 OA
ENDBRANCH  88  91
ENDBRANCH  61  84
ENDBRANCH  35  36
ENDBRANCH  27  30
ENDBRANCH  25  26
ENDBRANCH  24  25
ENDBRANCH   1  24
TORSDOF 19
ENDMDL
MODEL 3
REMARK VINA RESULT:     -11.1      2.278      8.118
REMARK SMILES C[C@H](/N=C(\Cc1ccccc1)C(=O)OC(C)(C)C)C(=O)NCCCNC(=O)c1ccc(-c2c3nc(c(-c4cccc(S(=O)(=O)[O-])c4F)c4ccc([nH]4)c(-c4cccc(S(=O)(=O)[O-])c4F)c4nc(c(-c5cccc(S(=O)(=O)[O-])c5F)c5ccc2[nH]5)C=C4)C=C3)cc1
REMARK SMILES IDX 22 1 21 2 19 3 20 4 2 6 1 7 3 8 4 9 5 10 6 11 7 12 11 13
REMARK SMILES IDX 8 14 10 15 9 16 12 17 13 18 14 19 15 20 16 21 17 22 18 23
REMARK SMILES IDX 23 24 24 25 25 26 26 27 27 29 28 30 29 31 90 32 30 33 89 34
REMARK SMILES IDX 31 35 32 36 33 37 83 38 34 39 88 40 82 41 84 42 35 43 87 44
REMARK SMILES IDX 81 45 80 46 36 48 68 49 48 50 67 51 49 52 52 53 66 54 85 55
REMARK SMILES IDX 50 56 51 57 65 59 86 60 53 61 37 62 38 63 46 64 39 65 41 66
REMARK SMILES IDX 47 67 40 68 42 69 43 70 44 71 45 72 69 73 70 74 78 75 71 76
REMARK SMILES IDX 73 77 79 78 72 79 74 80 75 81 76 82 77 83 54 84 55 85 63 86
REMARK SMILES IDX 56 87 58 88 64 89 57 90 59 91 60 92 61 93 62 94
REMARK H PARENT 21 5 25 28 84 47 52 58
REMARK Flexibility Score: inf
ROOT
ATOM      1  C   UNL A   1      36.591  21.439  25.575  1.00  0.00     0.117 C 
ENDROOT
BRANCH   1   2
ATOM      2  N   UNL A   1      35.404  20.642  25.775  1.00  0.00    -0.354 N 
ATOM      3  C   UNL A   1      34.142  20.977  26.150  1.00  0.00     0.244 C 
ATOM      4  O   UNL A   1      33.345  20.036  26.257  1.00  0.00    -0.273 OA
ATOM      5  H   UNL A   1      35.533  19.680  25.607  1.00  0.00     0.163 HD
BRANCH   3   6
ATOM      6  C   UNL A   1      33.665  22.427  26.336  1.00  0.00     0.191 C 
ATOM      7  C   UNL A   1      32.635  22.602  27.431  1.00  0.00     0.044 C 
BRANCH   6   8
ATOM      8  N   UNL A   1      33.458  23.149  25.086  1.00  0.00    -0.269 NA
ATOM      9  C   UNL A   1      33.728  24.322  24.647  1.00  0.00     0.125 C 
BRANCH   9  10
ATOM     10  C   UNL A   1      34.231  25.514  25.422  1.00  0.00     0.099 C 
BRANCH  10  11
ATOM     11  C   UNL A   1      33.296  26.626  25.837  1.00  0.00    -0.042 A 
ATOM     12  C   UNL A   1      33.788  27.937  25.940  1.00  0.00     0.004 A 
ATOM     13  C   UNL A   1      32.020  26.357  26.347  1.00  0.00     0.004 A 
ATOM     14  C   UNL A   1      33.040  28.935  26.569  1.00  0.00     0.000 A 
ATOM     15  C   UNL A   1      31.266  27.357  26.964  1.00  0.00     0.000 A 
ATOM     16  C   UNL A   1      31.782  28.642  27.088  1.00  0.00     0.000 A 
ENDBRANCH  10  11
ENDBRANCH   9  10
BRANCH   9  17
ATOM     17  C   UNL A   1      33.396  24.542  23.160  1.00  0.00     0.353 C 
ATOM     18  O   UNL A   1      34.052  24.021  22.290  1.00  0.00    -0.245 OA
BRANCH  17  19
ATOM     19  O   UNL A   1      32.297  25.317  23.050  1.00  0.00    -0.455 OA
BRANCH  19  20
ATOM     20  C   UNL A   1      32.246  26.426  22.100  1.00  0.00     0.104 C 
ATOM     21  C   UNL A   1      32.091  25.994  20.635  1.00  0.00     0.056 C 
ATOM     22  C   UNL A   1      31.132  27.386  22.520  1.00  0.00     0.056 C 
ATOM     23  C   UNL A   1      33.605  27.131  22.251  1.00  0.00     0.056 C 
ENDBRANCH  19  20
ENDBRANCH  17  19
ENDBRANCH   9  17
ENDBRANCH   6   8
ENDBRANCH   3   6
ENDBRANCH   1   2
BRANCH   1  24
ATOM     24  C   UNL A   1      37.748  20.601  25.049  1.00  0.00     0.042 C 
BRANCH  24  25
ATOM     25  C   UNL A   1      39.077  20.904  25.724  1.00  0.00     0.118 C 
BRANCH  25  26
ATOM     26  N   UNL A   1      39.990  19.766  25.765  1.00  0.00    -0.352 N 
ATOM     27  C   UNL A   1      41.338  19.713  26.036  1.00  0.00     0.251 C 
ATOM     28  H   UNL A   1      39.574  18.896  25.566  1.00  0.00     0.163 HD
ATOM     29  O   UNL A   1      41.923  18.636  25.944  1.00  0.00    -0.269 OA
BRANCH  27  30
ATOM     30  C   UNL A   1      42.095  20.936  26.398  1.00  0.00     0.039 A 
ATOM     31  C   UNL A   1      42.452  21.837  25.388  1.00  0.00     0.014 A 
ATOM     32  C   UNL A   1      42.452  21.207  27.719  1.00  0.00     0.014 A 
ATOM     33  C   UNL A   1      43.081  23.044  25.715  1.00  0.00     0.010 A 
ATOM     34  C   UNL A   1      42.978  22.449  28.054  1.00  0.00     0.010 A 
ATOM     35  C   UNL A   1      43.302  23.383  27.059  1.00  0.00    -0.014 A 
BRANCH  35  36
ATOM     36  C   UNL A   1      43.871  24.691  27.479  1.00  0.00     0.031 A 
ATOM     37  C   UNL A   1      42.960  25.747  28.047  1.00  0.00     0.074 A 
ATOM     38  C   UNL A   1      45.158  24.988  27.207  1.00  0.00     0.049 A 
ATOM     39  N   UNL A   1      43.183  27.021  28.231  1.00  0.00    -0.248 NA
ATOM     40  C   UNL A   1      41.596  25.320  28.406  1.00  0.00     0.031 C 
ATOM     41  C   UNL A   1      46.129  24.079  26.594  1.00  0.00     0.029 A 
ATOM     42  N   UNL A   1      45.859  26.157  27.372  1.00  0.00    -0.354 N 
ATOM     43  C   UNL A   1      41.970  27.562  28.644  1.00  0.00     0.074 A 
ATOM     44  C   UNL A   1      41.013  26.479  28.674  1.00  0.00     0.031 C 
ATOM     45  C   UNL A   1      47.297  24.723  26.437  1.00  0.00     0.029 A 
ATOM     46  C   UNL A   1      47.149  26.101  26.894  1.00  0.00     0.049 A 
ATOM     47  H   UNL A   1      45.475  26.960  27.794  1.00  0.00     0.167 HD
ATOM     48  C   UNL A   1      41.685  28.839  28.988  1.00  0.00     0.034 A 
ATOM     49  C   UNL A   1      48.099  27.054  26.820  1.00  0.00     0.034 A 
ATOM     50  C   UNL A   1      42.665  29.887  29.065  1.00  0.00     0.049 A 
ATOM     51  C   UNL A   1      47.790  28.436  27.330  1.00  0.00     0.074 A 
ATOM     52  C   UNL A   1      42.500  31.191  29.495  1.00  0.00     0.029 A 
ATOM     53  N   UNL A   1      44.002  29.740  28.727  1.00  0.00    -0.354 N 
ATOM     54  N   UNL A   1      46.667  28.899  27.823  1.00  0.00    -0.248 NA
ATOM     55  C   UNL A   1      48.884  29.419  27.304  1.00  0.00     0.031 C 
ATOM     56  C   UNL A   1      43.743  31.829  29.438  1.00  0.00     0.029 A 
ATOM     57  C   UNL A   1      44.679  30.923  28.966  1.00  0.00     0.049 A 
ATOM     58  H   UNL A   1      44.408  28.917  28.373  1.00  0.00     0.167 HD
ATOM     59  C   UNL A   1      46.928  30.210  28.201  1.00  0.00     0.074 A 
ATOM     60  C   UNL A   1      48.321  30.466  27.893  1.00  0.00     0.031 C 
ATOM     61  C   UNL A   1      46.085  31.127  28.735  1.00  0.00     0.034 A 
BRANCH  48  62
ATOM     62  C   UNL A   1      40.269  29.157  29.386  1.00  0.00     0.023 A 
ATOM     63  C   UNL A   1      39.333  29.503  28.392  1.00  0.00     0.012 A 
ATOM     64  C   UNL A   1      39.851  29.070  30.729  1.00  0.00     0.148 A 
ATOM     65  C   UNL A   1      38.012  29.792  28.729  1.00  0.00     0.002 A 
ATOM     66  C   UNL A   1      38.521  29.320  31.053  1.00  0.00     0.091 A 
ATOM     67  F   UNL A   1      40.760  28.766  31.666  1.00  0.00    -0.205 F 
ATOM     68  C   UNL A   1      37.603  29.690  30.056  1.00  0.00     0.022 A 
BRANCH  66  69
ATOM     69  S   UNL A   1      37.894  29.140  32.727  1.00  0.00     0.127 S 
ATOM     70  O   UNL A   1      36.597  29.806  32.629  1.00  0.00    -0.237 OA
ATOM     71  O   UNL A   1      37.822  27.686  32.882  1.00  0.00    -0.237 OA
ATOM     72  O   UNL A   1      38.876  29.786  33.585  1.00  0.00    -0.744 OA
ENDBRANCH  66  69
ENDBRANCH  48  62
BRANCH  49  73
ATOM     73  C   UNL A   1      49.459  26.703  26.322  1.00  0.00     0.023 A 
ATOM     74  C   UNL A   1      50.261  25.832  27.085  1.00  0.00     0.012 A 
ATOM     75  C   UNL A   1      49.939  27.164  25.082  1.00  0.00     0.148 A 
ATOM     76  C   UNL A   1      51.525  25.447  26.635  1.00  0.00     0.002 A 
ATOM     77  C   UNL A   1      51.173  26.728  24.612  1.00  0.00     0.091 A 
ATOM     78  F   UNL A   1      49.173  28.006  24.372  1.00  0.00    -0.205 F 
ATOM     79  C   UNL A   1      51.975  25.884  25.392  1.00  0.00     0.022 A 
BRANCH  77  80
ATOM     80  S   UNL A   1      51.730  27.119  22.948  1.00  0.00     0.127 S 
ATOM     81  O   UNL A   1      50.567  26.755  22.146  1.00  0.00    -0.237 OA
ATOM     82  O   UNL A   1      51.995  28.556  23.035  1.00  0.00    -0.237 OA
ATOM     83  O   UNL A   1      52.929  26.311  22.758  1.00  0.00    -0.744 OA
ENDBRANCH  77  80
ENDBRANCH  49  73
BRANCH  61  84
ATOM     84  C   UNL A   1      46.644  32.481  29.076  1.00  0.00     0.023 A 
ATOM     85  C   UNL A   1      47.228  32.692  30.341  1.00  0.00     0.012 A 
ATOM     86  C   UNL A   1      46.688  33.504  28.109  1.00  0.00     0.148 A 
ATOM     87  C   UNL A   1      47.835  33.910  30.642  1.00  0.00     0.002 A 
ATOM     88  C   UNL A   1      47.328  34.702  28.405  1.00  0.00     0.091 A 
ATOM     89  F   UNL A   1      46.106  33.287  26.921  1.00  0.00    -0.205 F 
ATOM     90  C   UNL A   1      47.898  34.908  29.672  1.00  0.00     0.022 A 
BRANCH  88  91
ATOM     91  S   UNL A   1      47.527  36.002  27.182  1.00  0.00     0.127 S 
ATOM     92  O   UNL A   1      48.280  35.313  26.135  1.00  0.00    -0.237 OA
ATOM     93  O   UNL A   1      46.142  36.319  26.829  1.00  0.00    -0.237 OA
ATOM     94  O   UNL A   1      48.232  37.080  27.861  1.00  0.00    -0.744 OA
ENDBRANCH  88  91
ENDBRANCH  61  84
ENDBRANCH  35  36
ENDBRANCH  27  30
ENDBRANCH  25  26
ENDBRANCH  24  25
ENDBRANCH   1  24
TORSDOF 19
ENDMDL
