MODEL 1
REMARK VINA RESULT:     -11.6      0.000      0.000
REMARK SMILES CCCCOc1ccc(-c2nc(C)c(C(=O)NCCCNC(=O)c3ccc(-c4c5nc(c(-c6cccc(S(=O)(=O)[O-])c6F)c6ccc([nH]6)c(-c6cccc(S(=O)(=O)[O-])c6F)c6nc(c(-c7cccc(S(=O)(=O)[O-])c7F)c7ccc4[nH]7)C=C6)C=C5)cc3)s2)cc1
REMARK SMILES IDX 18 1 17 2 15 3 16 4 14 6 10 7 11 8 87 9 12 10 13 11 9 12
REMARK SMILES IDX 6 13 7 14 89 15 8 16 88 17 5 18 4 19 3 20 2 21 1 22 19 23
REMARK SMILES IDX 20 24 21 25 22 26 23 28 24 29 25 30 86 31 26 32 85 33 27 34
REMARK SMILES IDX 28 35 29 36 79 37 30 38 84 39 78 40 80 41 31 42 83 43 77 44
REMARK SMILES IDX 76 45 32 47 64 48 44 49 63 50 45 51 48 52 62 53 81 54 46 55
REMARK SMILES IDX 47 56 61 58 82 59 49 60 33 61 34 62 42 63 35 64 37 65 43 66
REMARK SMILES IDX 36 67 38 68 39 69 40 70 41 71 65 72 66 73 74 74 67 75 69 76
REMARK SMILES IDX 75 77 68 78 70 79 71 80 72 81 73 82 50 83 51 84 59 85 52 86
REMARK SMILES IDX 54 87 60 88 53 89 55 90 56 91 57 92 58 93
REMARK H PARENT 17 5 21 27 80 46 48 57
REMARK Flexibility Score: inf
ROOT
ATOM      1  C   UNL A   1      31.704  30.772  26.191  1.00  0.00     0.118 C 
ENDROOT
BRANCH   1   2
ATOM      2  N   UNL A   1      30.910  30.565  25.004  1.00  0.00    -0.351 N 
ATOM      3  C   UNL A   1      30.890  29.581  24.051  1.00  0.00     0.263 C 
ATOM      4  O   UNL A   1      30.029  29.762  23.181  1.00  0.00    -0.268 OA
ATOM      5  H   UNL A   1      30.248  31.276  24.846  1.00  0.00     0.163 HD
BRANCH   3   6
ATOM      6  C   UNL A   1      31.739  28.398  24.075  1.00  0.00     0.115 A 
ATOM      7  C   UNL A   1      32.345  26.037  24.383  1.00  0.00     0.124 A 
ATOM      8  N   UNL A   1      33.352  26.708  23.880  1.00  0.00    -0.241 NA
ATOM      9  S   UNL A   1      30.999  26.995  24.796  1.00  0.00    -0.108 S 
ATOM     10  C   UNL A   1      32.997  28.025  23.611  1.00  0.00     0.062 A 
ATOM     11  C   UNL A   1      34.014  28.752  22.808  1.00  0.00     0.068 C 
BRANCH   7  12
ATOM     12  C   UNL A   1      32.354  24.578  24.548  1.00  0.00     0.011 A 
ATOM     13  C   UNL A   1      31.977  21.829  24.875  1.00  0.00     0.119 A 
ATOM     14  C   UNL A   1      31.826  22.392  23.613  1.00  0.00     0.047 A 
ATOM     15  C   UNL A   1      32.422  22.595  25.947  1.00  0.00     0.047 A 
ATOM     16  C   UNL A   1      32.008  23.766  23.454  1.00  0.00     0.015 A 
ATOM     17  C   UNL A   1      32.581  23.971  25.793  1.00  0.00     0.015 A 
BRANCH  13  18
ATOM     18  O   UNL A   1      31.696  20.513  25.105  1.00  0.00    -0.494 OA
BRANCH  18  19
ATOM     19  C   UNL A   1      32.878  19.699  25.014  1.00  0.00     0.229 C 
BRANCH  19  20
ATOM     20  C   UNL A   1      32.804  18.694  23.855  1.00  0.00     0.041 C 
BRANCH  20  21
ATOM     21  C   UNL A   1      33.078  17.223  24.198  1.00  0.00     0.000 C 
ATOM     22  C   UNL A   1      34.129  16.557  23.323  1.00  0.00     0.004 C 
ENDBRANCH  20  21
ENDBRANCH  19  20
ENDBRANCH  18  19
ENDBRANCH  13  18
ENDBRANCH   7  12
ENDBRANCH   3   6
ENDBRANCH   1   2
BRANCH   1  23
ATOM     23  C   UNL A   1      31.518  32.195  26.713  1.00  0.00     0.042 C 
BRANCH  23  24
ATOM     24  C   UNL A   1      32.829  32.885  27.069  1.00  0.00     0.118 C 
BRANCH  24  25
ATOM     25  N   UNL A   1      32.602  34.213  27.619  1.00  0.00    -0.352 N 
ATOM     26  C   UNL A   1      33.115  34.793  28.753  1.00  0.00     0.251 C 
ATOM     27  H   UNL A   1      31.989  34.782  27.099  1.00  0.00     0.163 HD
ATOM     28  O   UNL A   1      32.601  35.825  29.179  1.00  0.00    -0.269 OA
BRANCH  26  29
ATOM     29  C   UNL A   1      34.269  34.191  29.461  1.00  0.00     0.039 A 
ATOM     30  C   UNL A   1      35.563  34.500  29.027  1.00  0.00     0.014 A 
ATOM     31  C   UNL A   1      34.087  33.282  30.507  1.00  0.00     0.014 A 
ATOM     32  C   UNL A   1      36.667  33.930  29.666  1.00  0.00     0.010 A 
ATOM     33  C   UNL A   1      35.189  32.781  31.196  1.00  0.00     0.010 A 
ATOM     34  C   UNL A   1      36.490  33.082  30.771  1.00  0.00    -0.014 A 
BRANCH  34  35
ATOM     35  C   UNL A   1      37.647  32.477  31.481  1.00  0.00     0.031 A 
ATOM     36  C   UNL A   1      38.410  31.343  30.847  1.00  0.00     0.074 A 
ATOM     37  C   UNL A   1      37.962  32.895  32.723  1.00  0.00     0.049 A 
ATOM     38  N   UNL A   1      39.392  30.632  31.337  1.00  0.00    -0.248 NA
ATOM     39  C   UNL A   1      37.997  30.935  29.492  1.00  0.00     0.031 C 
ATOM     40  C   UNL A   1      37.259  33.940  33.470  1.00  0.00     0.029 A 
ATOM     41  N   UNL A   1      38.941  32.473  33.588  1.00  0.00    -0.354 N 
ATOM     42  C   UNL A   1      39.691  29.678  30.371  1.00  0.00     0.074 A 
ATOM     43  C   UNL A   1      38.761  29.873  29.282  1.00  0.00     0.031 C 
ATOM     44  C   UNL A   1      37.831  34.082  34.676  1.00  0.00     0.029 A 
ATOM     45  C   UNL A   1      38.921  33.121  34.802  1.00  0.00     0.049 A 
ATOM     46  H   UNL A   1      39.595  31.775  33.361  1.00  0.00     0.167 HD
ATOM     47  C   UNL A   1      40.674  28.746  30.372  1.00  0.00     0.034 A 
ATOM     48  C   UNL A   1      39.690  32.951  35.895  1.00  0.00     0.034 A 
ATOM     49  C   UNL A   1      41.629  28.587  31.435  1.00  0.00     0.049 A 
ATOM     50  C   UNL A   1      40.795  31.929  35.856  1.00  0.00     0.074 A 
ATOM     51  C   UNL A   1      42.701  27.716  31.507  1.00  0.00     0.029 A 
ATOM     52  N   UNL A   1      41.630  29.323  32.610  1.00  0.00    -0.354 N 
ATOM     53  N   UNL A   1      41.145  31.128  34.879  1.00  0.00    -0.248 NA
ATOM     54  C   UNL A   1      41.634  31.811  37.058  1.00  0.00     0.031 C 
ATOM     55  C   UNL A   1      43.346  27.919  32.732  1.00  0.00     0.029 A 
ATOM     56  C   UNL A   1      42.687  28.929  33.414  1.00  0.00     0.049 A 
ATOM     57  H   UNL A   1      40.977  30.022  32.841  1.00  0.00     0.167 HD
ATOM     58  C   UNL A   1      42.269  30.446  35.329  1.00  0.00     0.074 A 
ATOM     59  C   UNL A   1      42.552  30.941  36.661  1.00  0.00     0.031 C 
ATOM     60  C   UNL A   1      42.993  29.483  34.707  1.00  0.00     0.034 A 
BRANCH  47  61
ATOM     61  C   UNL A   1      40.813  27.871  29.152  1.00  0.00     0.023 A 
ATOM     62  C   UNL A   1      40.035  26.699  29.053  1.00  0.00     0.012 A 
ATOM     63  C   UNL A   1      41.656  28.232  28.083  1.00  0.00     0.148 A 
ATOM     64  C   UNL A   1      40.118  25.882  27.927  1.00  0.00     0.002 A 
ATOM     65  C   UNL A   1      41.701  27.435  26.944  1.00  0.00     0.091 A 
ATOM     66  F   UNL A   1      42.401  29.339  28.202  1.00  0.00    -0.205 F 
ATOM     67  C   UNL A   1      40.942  26.255  26.868  1.00  0.00     0.022 A 
BRANCH  65  68
ATOM     68  S   UNL A   1      42.672  27.866  25.494  1.00  0.00     0.127 S 
ATOM     69  O   UNL A   1      42.538  26.657  24.680  1.00  0.00    -0.237 OA
ATOM     70  O   UNL A   1      41.951  29.030  24.978  1.00  0.00    -0.237 OA
ATOM     71  O   UNL A   1      44.015  28.146  25.978  1.00  0.00    -0.744 OA
ENDBRANCH  65  68
ENDBRANCH  47  61
BRANCH  48  72
ATOM     72  C   UNL A   1      39.499  33.819  37.093  1.00  0.00     0.023 A 
ATOM     73  C   UNL A   1      39.986  35.141  37.069  1.00  0.00     0.012 A 
ATOM     74  C   UNL A   1      38.838  33.353  38.245  1.00  0.00     0.148 A 
ATOM     75  C   UNL A   1      39.855  35.969  38.184  1.00  0.00     0.002 A 
ATOM     76  C   UNL A   1      38.661  34.203  39.333  1.00  0.00     0.091 A 
ATOM     77  F   UNL A   1      38.393  32.089  38.258  1.00  0.00    -0.205 F 
ATOM     78  C   UNL A   1      39.185  35.504  39.311  1.00  0.00     0.022 A 
BRANCH  76  79
ATOM     79  S   UNL A   1      37.696  33.724  40.771  1.00  0.00     0.127 S 
ATOM     80  O   UNL A   1      38.589  32.768  41.424  1.00  0.00    -0.237 OA
ATOM     81  O   UNL A   1      37.541  35.000  41.473  1.00  0.00    -0.237 OA
ATOM     82  O   UNL A   1      36.455  33.180  40.242  1.00  0.00    -0.744 OA
ENDBRANCH  76  79
ENDBRANCH  48  72
BRANCH  60  83
ATOM     83  C   UNL A   1      44.193  28.934  35.431  1.00  0.00     0.023 A 
ATOM     84  C   UNL A   1      45.464  29.498  35.208  1.00  0.00     0.012 A 
ATOM     85  C   UNL A   1      44.047  27.909  36.386  1.00  0.00     0.148 A 
ATOM     86  C   UNL A   1      46.578  29.028  35.902  1.00  0.00     0.002 A 
ATOM     87  C   UNL A   1      45.152  27.480  37.110  1.00  0.00     0.091 A 
ATOM     88  F   UNL A   1      42.831  27.373  36.569  1.00  0.00    -0.205 F 
ATOM     89  C   UNL A   1      46.421  28.029  36.861  1.00  0.00     0.022 A 
BRANCH  87  90
ATOM     90  S   UNL A   1      45.027  26.268  38.429  1.00  0.00     0.127 S 
ATOM     91  O   UNL A   1      44.661  25.060  37.691  1.00  0.00    -0.237 OA
ATOM     92  O   UNL A   1      46.385  26.261  38.975  1.00  0.00    -0.237 OA
ATOM     93  O   UNL A   1      44.012  26.775  39.343  1.00  0.00    -0.744 OA
ENDBRANCH  87  90
ENDBRANCH  60  83
ENDBRANCH  34  35
ENDBRANCH  26  29
ENDBRANCH  24  25
ENDBRANCH  23  24
ENDBRANCH   1  23
TORSDOF 18
ENDMDL
MODEL 2
REMARK VINA RESULT:     -11.4      2.045      7.939
REMARK SMILES CCCCOc1ccc(-c2nc(C)c(C(=O)NCCCNC(=O)c3ccc(-c4c5nc(c(-c6cccc(S(=O)(=O)[O-])c6F)c6ccc([nH]6)c(-c6cccc(S(=O)(=O)[O-])c6F)c6nc(c(-c7cccc(S(=O)(=O)[O-])c7F)c7ccc4[nH]7)C=C6)C=C5)cc3)s2)cc1
REMARK SMILES IDX 18 1 17 2 15 3 16 4 14 6 10 7 11 8 87 9 12 10 13 11 9 12
REMARK SMILES IDX 6 13 7 14 89 15 8 16 88 17 5 18 4 19 3 20 2 21 1 22 19 23
REMARK SMILES IDX 20 24 21 25 22 26 23 28 24 29 25 30 86 31 26 32 85 33 27 34
REMARK SMILES IDX 28 35 29 36 79 37 30 38 84 39 78 40 80 41 31 42 83 43 77 44
REMARK SMILES IDX 76 45 32 47 64 48 44 49 63 50 45 51 48 52 62 53 81 54 46 55
REMARK SMILES IDX 47 56 61 58 82 59 49 60 33 61 34 62 42 63 35 64 37 65 43 66
REMARK SMILES IDX 36 67 38 68 39 69 40 70 41 71 65 72 66 73 74 74 67 75 69 76
REMARK SMILES IDX 75 77 68 78 70 79 71 80 72 81 73 82 50 83 51 84 59 85 52 86
REMARK SMILES IDX 54 87 60 88 53 89 55 90 56 91 57 92 58 93
REMARK H PARENT 17 5 21 27 80 46 48 57
REMARK Flexibility Score: inf
ROOT
ATOM      1  C   UNL A   1      31.768  29.679  25.594  1.00  0.00     0.118 C 
ENDROOT
BRANCH   1   2
ATOM      2  N   UNL A   1      32.745  29.651  24.532  1.00  0.00    -0.351 N 
ATOM      3  C   UNL A   1      33.107  28.696  23.619  1.00  0.00     0.263 C 
ATOM      4  O   UNL A   1      33.996  29.073  22.845  1.00  0.00    -0.268 OA
ATOM      5  H   UNL A   1      33.255  30.488  24.446  1.00  0.00     0.163 HD
BRANCH   3   6
ATOM      6  C   UNL A   1      32.479  27.387  23.508  1.00  0.00     0.115 A 
ATOM      7  C   UNL A   1      32.246  24.948  23.710  1.00  0.00     0.124 A 
ATOM      8  N   UNL A   1      31.125  25.484  23.293  1.00  0.00    -0.241 NA
ATOM      9  S   UNL A   1      33.540  26.047  23.850  1.00  0.00    -0.108 S 
ATOM     10  C   UNL A   1      31.209  26.872  23.263  1.00  0.00     0.062 A 
ATOM     11  C   UNL A   1      29.896  27.533  23.049  1.00  0.00     0.068 C 
BRANCH   7  12
ATOM     12  C   UNL A   1      32.377  23.529  24.061  1.00  0.00     0.011 A 
ATOM     13  C   UNL A   1      32.244  20.795  24.624  1.00  0.00     0.119 A 
ATOM     14  C   UNL A   1      32.414  21.213  23.309  1.00  0.00     0.047 A 
ATOM     15  C   UNL A   1      32.252  21.713  25.668  1.00  0.00     0.047 A 
ATOM     16  C   UNL A   1      32.474  22.578  23.030  1.00  0.00     0.015 A 
ATOM     17  C   UNL A   1      32.288  23.078  25.387  1.00  0.00     0.015 A 
BRANCH  13  18
ATOM     18  O   UNL A   1      32.063  19.478  24.934  1.00  0.00    -0.494 OA
BRANCH  18  19
ATOM     19  C   UNL A   1      32.614  18.619  23.921  1.00  0.00     0.229 C 
BRANCH  19  20
ATOM     20  C   UNL A   1      33.102  17.281  24.496  1.00  0.00     0.041 C 
BRANCH  20  21
ATOM     21  C   UNL A   1      34.611  17.007  24.422  1.00  0.00     0.000 C 
ATOM     22  C   UNL A   1      35.072  15.802  25.227  1.00  0.00     0.004 C 
ENDBRANCH  20  21
ENDBRANCH  19  20
ENDBRANCH  18  19
ENDBRANCH  13  18
ENDBRANCH   7  12
ENDBRANCH   3   6
ENDBRANCH   1   2
BRANCH   1  23
ATOM     23  C   UNL A   1      31.605  31.100  26.127  1.00  0.00     0.042 C 
BRANCH  23  24
ATOM     24  C   UNL A   1      32.610  31.458  27.215  1.00  0.00     0.118 C 
BRANCH  24  25
ATOM     25  N   UNL A   1      32.886  32.886  27.240  1.00  0.00    -0.352 N 
ATOM     26  C   UNL A   1      33.849  33.582  27.928  1.00  0.00     0.251 C 
ATOM     27  H   UNL A   1      32.294  33.436  26.678  1.00  0.00     0.163 HD
ATOM     28  O   UNL A   1      33.753  34.804  28.016  1.00  0.00    -0.269 OA
BRANCH  26  29
ATOM     29  C   UNL A   1      34.989  32.879  28.562  1.00  0.00     0.039 A 
ATOM     30  C   UNL A   1      36.287  33.341  28.316  1.00  0.00     0.014 A 
ATOM     31  C   UNL A   1      34.797  31.739  29.347  1.00  0.00     0.014 A 
ATOM     32  C   UNL A   1      37.381  32.685  28.886  1.00  0.00     0.010 A 
ATOM     33  C   UNL A   1      35.880  31.137  29.982  1.00  0.00     0.010 A 
ATOM     34  C   UNL A   1      37.185  31.590  29.743  1.00  0.00    -0.014 A 
BRANCH  34  35
ATOM     35  C   UNL A   1      38.330  30.885  30.378  1.00  0.00     0.031 A 
ATOM     36  C   UNL A   1      38.755  31.251  31.776  1.00  0.00     0.074 A 
ATOM     37  C   UNL A   1      39.029  29.976  29.672  1.00  0.00     0.049 A 
ATOM     38  N   UNL A   1      39.773  30.811  32.471  1.00  0.00    -0.248 NA
ATOM     39  C   UNL A   1      37.946  32.263  32.478  1.00  0.00     0.031 C 
ATOM     40  C   UNL A   1      38.756  29.584  28.288  1.00  0.00     0.029 A 
ATOM     41  N   UNL A   1      40.133  29.234  30.013  1.00  0.00    -0.354 N 
ATOM     42  C   UNL A   1      39.746  31.513  33.671  1.00  0.00     0.074 A 
ATOM     43  C   UNL A   1      38.636  32.437  33.596  1.00  0.00     0.031 C 
ATOM     44  C   UNL A   1      39.661  28.670  27.900  1.00  0.00     0.029 A 
ATOM     45  C   UNL A   1      40.597  28.433  28.994  1.00  0.00     0.049 A 
ATOM     46  H   UNL A   1      40.551  29.270  30.903  1.00  0.00     0.167 HD
ATOM     47  C   UNL A   1      40.549  31.377  34.754  1.00  0.00     0.034 A 
ATOM     48  C   UNL A   1      41.660  27.607  28.947  1.00  0.00     0.034 A 
ATOM     49  C   UNL A   1      41.621  30.423  34.843  1.00  0.00     0.049 A 
ATOM     50  C   UNL A   1      42.517  27.454  30.176  1.00  0.00     0.074 A 
ATOM     51  C   UNL A   1      42.454  30.163  35.916  1.00  0.00     0.029 A 
ATOM     52  N   UNL A   1      42.003  29.568  33.822  1.00  0.00    -0.354 N 
ATOM     53  N   UNL A   1      42.393  28.030  31.348  1.00  0.00    -0.248 NA
ATOM     54  C   UNL A   1      43.641  26.510  30.088  1.00  0.00     0.031 C 
ATOM     55  C   UNL A   1      43.348  29.154  35.540  1.00  0.00     0.029 A 
ATOM     56  C   UNL A   1      43.058  28.774  34.239  1.00  0.00     0.049 A 
ATOM     57  H   UNL A   1      41.586  29.529  32.931  1.00  0.00     0.167 HD
ATOM     58  C   UNL A   1      43.390  27.486  32.148  1.00  0.00     0.074 A 
ATOM     59  C   UNL A   1      44.099  26.521  31.332  1.00  0.00     0.031 C 
ATOM     60  C   UNL A   1      43.705  27.771  33.435  1.00  0.00     0.034 A 
BRANCH  47  61
ATOM     61  C   UNL A   1      40.253  32.233  35.959  1.00  0.00     0.023 A 
ATOM     62  C   UNL A   1      41.040  33.379  36.201  1.00  0.00     0.012 A 
ATOM     63  C   UNL A   1      39.169  31.949  36.812  1.00  0.00     0.148 A 
ATOM     64  C   UNL A   1      40.776  34.207  37.289  1.00  0.00     0.002 A 
ATOM     65  C   UNL A   1      38.885  32.805  37.871  1.00  0.00     0.091 A 
ATOM     66  F   UNL A   1      38.443  30.847  36.577  1.00  0.00    -0.205 F 
ATOM     67  C   UNL A   1      39.693  33.927  38.118  1.00  0.00     0.022 A 
BRANCH  65  68
ATOM     68  S   UNL A   1      37.467  32.575  38.952  1.00  0.00     0.127 S 
ATOM     69  O   UNL A   1      36.355  32.857  38.044  1.00  0.00    -0.237 OA
ATOM     70  O   UNL A   1      37.599  31.169  39.335  1.00  0.00    -0.237 OA
ATOM     71  O   UNL A   1      37.636  33.521  40.044  1.00  0.00    -0.744 OA
ENDBRANCH  65  68
ENDBRANCH  47  61
BRANCH  48  72
ATOM     72  C   UNL A   1      41.934  26.801  27.723  1.00  0.00     0.023 A 
ATOM     73  C   UNL A   1      42.515  27.427  26.603  1.00  0.00     0.012 A 
ATOM     74  C   UNL A   1      41.634  25.427  27.661  1.00  0.00     0.148 A 
ATOM     75  C   UNL A   1      42.752  26.711  25.429  1.00  0.00     0.002 A 
ATOM     76  C   UNL A   1      41.925  24.707  26.507  1.00  0.00     0.091 A 
ATOM     77  F   UNL A   1      41.069  24.848  28.730  1.00  0.00    -0.205 F 
ATOM     78  C   UNL A   1      42.467  25.350  25.384  1.00  0.00     0.022 A 
BRANCH  76  79
ATOM     79  S   UNL A   1      41.710  22.925  26.414  1.00  0.00     0.127 S 
ATOM     80  O   UNL A   1      42.315  22.618  25.120  1.00  0.00    -0.237 OA
ATOM     81  O   UNL A   1      42.474  22.464  27.576  1.00  0.00    -0.237 OA
ATOM     82  O   UNL A   1      40.276  22.702  26.518  1.00  0.00    -0.744 OA
ENDBRANCH  76  79
ENDBRANCH  48  72
BRANCH  60  83
ATOM     83  C   UNL A   1      44.832  26.997  34.065  1.00  0.00     0.023 A 
ATOM     84  C   UNL A   1      46.161  27.430  33.894  1.00  0.00     0.012 A 
ATOM     85  C   UNL A   1      44.566  25.885  34.888  1.00  0.00     0.148 A 
ATOM     86  C   UNL A   1      47.212  26.748  34.506  1.00  0.00     0.002 A 
ATOM     87  C   UNL A   1      45.613  25.241  35.535  1.00  0.00     0.091 A 
ATOM     88  F   UNL A   1      43.295  25.477  35.023  1.00  0.00    -0.205 F 
ATOM     89  C   UNL A   1      46.938  25.663  35.336  1.00  0.00     0.022 A 
BRANCH  87  90
ATOM     90  S   UNL A   1      45.345  23.896  36.696  1.00  0.00     0.127 S 
ATOM     91  O   UNL A   1      44.611  22.935  35.874  1.00  0.00    -0.237 OA
ATOM     92  O   UNL A   1      46.713  23.495  37.027  1.00  0.00    -0.237 OA
ATOM     93  O   UNL A   1      44.599  24.469  37.807  1.00  0.00    -0.744 OA
ENDBRANCH  87  90
ENDBRANCH  60  83
ENDBRANCH  34  35
ENDBRANCH  26  29
ENDBRANCH  24  25
ENDBRANCH  23  24
ENDBRANCH   1  23
TORSDOF 18
ENDMDL
MODEL 3
REMARK VINA RESULT:     -11.3      0.665      7.796
REMARK SMILES CCCCOc1ccc(-c2nc(C)c(C(=O)NCCCNC(=O)c3ccc(-c4c5nc(c(-c6cccc(S(=O)(=O)[O-])c6F)c6ccc([nH]6)c(-c6cccc(S(=O)(=O)[O-])c6F)c6nc(c(-c7cccc(S(=O)(=O)[O-])c7F)c7ccc4[nH]7)C=C6)C=C5)cc3)s2)cc1
REMARK SMILES IDX 18 1 17 2 15 3 16 4 14 6 10 7 11 8 87 9 12 10 13 11 9 12
REMARK SMILES IDX 6 13 7 14 89 15 8 16 88 17 5 18 4 19 3 20 2 21 1 22 19 23
REMARK SMILES IDX 20 24 21 25 22 26 23 28 24 29 25 30 86 31 26 32 85 33 27 34
REMARK SMILES IDX 28 35 29 36 79 37 30 38 84 39 78 40 80 41 31 42 83 43 77 44
REMARK SMILES IDX 76 45 32 47 64 48 44 49 63 50 45 51 48 52 62 53 81 54 46 55
REMARK SMILES IDX 47 56 61 58 82 59 49 60 33 61 34 62 42 63 35 64 37 65 43 66
REMARK SMILES IDX 36 67 38 68 39 69 40 70 41 71 65 72 66 73 74 74 67 75 69 76
REMARK SMILES IDX 75 77 68 78 70 79 71 80 72 81 73 82 50 83 51 84 59 85 52 86
REMARK SMILES IDX 54 87 60 88 53 89 55 90 56 91 57 92 58 93
REMARK H PARENT 17 5 21 27 80 46 48 57
REMARK Flexibility Score: inf
ROOT
ATOM      1  C   UNL A   1      31.524  30.632  26.176  1.00  0.00     0.118 C 
ENDROOT
BRANCH   1   2
ATOM      2  N   UNL A   1      30.852  30.434  24.914  1.00  0.00    -0.351 N 
ATOM      3  C   UNL A   1      30.927  29.457  23.957  1.00  0.00     0.263 C 
ATOM      4  O   UNL A   1      30.157  29.644  23.007  1.00  0.00    -0.268 OA
ATOM      5  H   UNL A   1      30.209  31.146  24.696  1.00  0.00     0.163 HD
BRANCH   3   6
ATOM      6  C   UNL A   1      31.769  28.273  24.058  1.00  0.00     0.115 A 
ATOM      7  C   UNL A   1      32.362  25.931  24.513  1.00  0.00     0.124 A 
ATOM      8  N   UNL A   1      33.375  26.566  23.973  1.00  0.00    -0.241 NA
ATOM      9  S   UNL A   1      31.019  26.920  24.861  1.00  0.00    -0.108 S 
ATOM     10  C   UNL A   1      33.028  27.865  23.622  1.00  0.00     0.062 A 
ATOM     11  C   UNL A   1      34.051  28.536  22.780  1.00  0.00     0.068 C 
BRANCH   7  12
ATOM     12  C   UNL A   1      32.362  24.486  24.768  1.00  0.00     0.011 A 
ATOM     13  C   UNL A   1      32.100  21.711  24.960  1.00  0.00     0.119 A 
ATOM     14  C   UNL A   1      32.922  22.251  23.977  1.00  0.00     0.047 A 
ATOM     15  C   UNL A   1      31.501  22.526  25.913  1.00  0.00     0.047 A 
ATOM     16  C   UNL A   1      33.046  23.638  23.879  1.00  0.00     0.015 A 
ATOM     17  C   UNL A   1      31.606  23.911  25.802  1.00  0.00     0.015 A 
BRANCH  13  18
ATOM     18  O   UNL A   1      31.855  20.370  25.022  1.00  0.00    -0.494 OA
BRANCH  18  19
ATOM     19  C   UNL A   1      32.585  19.653  24.011  1.00  0.00     0.229 C 
BRANCH  19  20
ATOM     20  C   UNL A   1      33.829  18.953  24.577  1.00  0.00     0.041 C 
BRANCH  20  21
ATOM     21  C   UNL A   1      34.084  17.513  24.111  1.00  0.00     0.000 C 
ATOM     22  C   UNL A   1      33.383  16.449  24.939  1.00  0.00     0.004 C 
ENDBRANCH  20  21
ENDBRANCH  19  20
ENDBRANCH  18  19
ENDBRANCH  13  18
ENDBRANCH   7  12
ENDBRANCH   3   6
ENDBRANCH   1   2
BRANCH   1  23
ATOM     23  C   UNL A   1      31.456  32.101  26.588  1.00  0.00     0.042 C 
BRANCH  23  24
ATOM     24  C   UNL A   1      32.778  32.643  27.116  1.00  0.00     0.118 C 
BRANCH  24  25
ATOM     25  N   UNL A   1      32.624  33.977  27.677  1.00  0.00    -0.352 N 
ATOM     26  C   UNL A   1      33.211  34.536  28.785  1.00  0.00     0.251 C 
ATOM     27  H   UNL A   1      32.006  34.567  27.188  1.00  0.00     0.163 HD
ATOM     28  O   UNL A   1      32.754  35.584  29.237  1.00  0.00    -0.269 OA
BRANCH  26  29
ATOM     29  C   UNL A   1      34.376  33.893  29.436  1.00  0.00     0.039 A 
ATOM     30  C   UNL A   1      35.664  34.276  29.045  1.00  0.00     0.014 A 
ATOM     31  C   UNL A   1      34.212  32.878  30.383  1.00  0.00     0.014 A 
ATOM     32  C   UNL A   1      36.779  33.672  29.631  1.00  0.00     0.010 A 
ATOM     33  C   UNL A   1      35.323  32.336  31.025  1.00  0.00     0.010 A 
ATOM     34  C   UNL A   1      36.618  32.711  30.642  1.00  0.00    -0.014 A 
BRANCH  34  35
ATOM     35  C   UNL A   1      37.787  32.065  31.295  1.00  0.00     0.031 A 
ATOM     36  C   UNL A   1      38.312  32.604  32.601  1.00  0.00     0.074 A 
ATOM     37  C   UNL A   1      38.421  31.050  30.677  1.00  0.00     0.049 A 
ATOM     38  N   UNL A   1      39.364  32.233  33.284  1.00  0.00    -0.248 NA
ATOM     39  C   UNL A   1      37.572  33.725  33.207  1.00  0.00     0.031 C 
ATOM     40  C   UNL A   1      38.049  30.482  29.379  1.00  0.00     0.029 A 
ATOM     41  N   UNL A   1      39.529  30.328  31.047  1.00  0.00    -0.354 N 
ATOM     42  C   UNL A   1      39.431  33.091  34.377  1.00  0.00     0.074 A 
ATOM     43  C   UNL A   1      38.337  34.028  34.246  1.00  0.00     0.031 C 
ATOM     44  C   UNL A   1      38.907  29.499  29.065  1.00  0.00     0.029 A 
ATOM     45  C   UNL A   1      39.908  29.385  30.120  1.00  0.00     0.049 A 
ATOM     46  H   UNL A   1      40.006  30.472  31.895  1.00  0.00     0.167 HD
ATOM     47  C   UNL A   1      40.300  33.079  35.415  1.00  0.00     0.034 A 
ATOM     48  C   UNL A   1      40.950  28.530  30.119  1.00  0.00     0.034 A 
ATOM     49  C   UNL A   1      41.356  32.115  35.567  1.00  0.00     0.049 A 
ATOM     50  C   UNL A   1      41.882  28.519  31.302  1.00  0.00     0.074 A 
ATOM     51  C   UNL A   1      42.253  31.978  36.611  1.00  0.00     0.029 A 
ATOM     52  N   UNL A   1      41.652  31.119  34.650  1.00  0.00    -0.354 N 
ATOM     53  N   UNL A   1      41.847  29.251  32.389  1.00  0.00    -0.248 NA
ATOM     54  C   UNL A   1      42.978  27.539  31.274  1.00  0.00     0.031 C 
ATOM     55  C   UNL A   1      43.099  30.902  36.320  1.00  0.00     0.029 A 
ATOM     56  C   UNL A   1      42.716  30.359  35.104  1.00  0.00     0.049 A 
ATOM     57  H   UNL A   1      41.177  30.973  33.800  1.00  0.00     0.167 HD
ATOM     58  C   UNL A   1      42.884  28.791  33.192  1.00  0.00     0.074 A 
ATOM     59  C   UNL A   1      43.518  27.705  32.473  1.00  0.00     0.031 C 
ATOM     60  C   UNL A   1      43.289  29.237  34.406  1.00  0.00     0.034 A 
BRANCH  47  61
ATOM     61  C   UNL A   1      40.102  34.098  36.508  1.00  0.00     0.023 A 
ATOM     62  C   UNL A   1      40.361  35.458  36.238  1.00  0.00     0.012 A 
ATOM     63  C   UNL A   1      39.603  33.729  37.773  1.00  0.00     0.148 A 
ATOM     64  C   UNL A   1      40.161  36.429  37.217  1.00  0.00     0.002 A 
ATOM     65  C   UNL A   1      39.365  34.709  38.730  1.00  0.00     0.091 A 
ATOM     66  F   UNL A   1      39.380  32.430  38.018  1.00  0.00    -0.205 F 
ATOM     67  C   UNL A   1      39.653  36.057  38.459  1.00  0.00     0.022 A 
BRANCH  65  68
ATOM     68  S   UNL A   1      38.642  34.345  40.335  1.00  0.00     0.127 S 
ATOM     69  O   UNL A   1      39.709  33.570  40.970  1.00  0.00    -0.237 OA
ATOM     70  O   UNL A   1      38.447  35.683  40.894  1.00  0.00    -0.237 OA
ATOM     71  O   UNL A   1      37.415  33.612  40.067  1.00  0.00    -0.744 OA
ENDBRANCH  65  68
ENDBRANCH  47  61
BRANCH  48  72
ATOM     72  C   UNL A   1      41.126  27.558  29.002  1.00  0.00     0.023 A 
ATOM     73  C   UNL A   1      40.443  26.327  29.048  1.00  0.00     0.012 A 
ATOM     74  C   UNL A   1      41.953  27.842  27.899  1.00  0.00     0.148 A 
ATOM     75  C   UNL A   1      40.612  25.380  28.036  1.00  0.00     0.002 A 
ATOM     76  C   UNL A   1      42.072  26.917  26.867  1.00  0.00     0.091 A 
ATOM     77  F   UNL A   1      42.607  29.012  27.877  1.00  0.00    -0.205 F 
ATOM     78  C   UNL A   1      41.418  25.678  26.943  1.00  0.00     0.022 A 
BRANCH  76  79
ATOM     79  S   UNL A   1      42.986  27.278  25.362  1.00  0.00     0.127 S 
ATOM     80  O   UNL A   1      42.879  26.014  24.637  1.00  0.00    -0.237 OA
ATOM     81  O   UNL A   1      42.211  28.382  24.792  1.00  0.00    -0.237 OA
ATOM     82  O   UNL A   1      44.322  27.652  25.800  1.00  0.00    -0.744 OA
ENDBRANCH  76  79
ENDBRANCH  48  72
BRANCH  60  83
ATOM     83  C   UNL A   1      44.439  28.523  35.065  1.00  0.00     0.023 A 
ATOM     84  C   UNL A   1      45.762  28.895  34.758  1.00  0.00     0.012 A 
ATOM     85  C   UNL A   1      44.205  27.536  36.042  1.00  0.00     0.148 A 
ATOM     86  C   UNL A   1      46.837  28.271  35.390  1.00  0.00     0.002 A 
ATOM     87  C   UNL A   1      45.279  26.955  36.705  1.00  0.00     0.091 A 
ATOM     88  F   UNL A   1      42.938  27.184  36.306  1.00  0.00    -0.205 F 
ATOM     89  C   UNL A   1      46.596  27.312  36.371  1.00  0.00     0.022 A 
BRANCH  87  90
ATOM     90  S   UNL A   1      45.060  25.782  38.047  1.00  0.00     0.127 S 
ATOM     91  O   UNL A   1      46.445  25.488  38.414  1.00  0.00    -0.237 OA
ATOM     92  O   UNL A   1      44.322  26.571  39.032  1.00  0.00    -0.237 OA
ATOM     93  O   UNL A   1      44.312  24.666  37.484  1.00  0.00    -0.744 OA
ENDBRANCH  87  90
ENDBRANCH  60  83
ENDBRANCH  34  35
ENDBRANCH  26  29
ENDBRANCH  24  25
ENDBRANCH  23  24
ENDBRANCH   1  23
TORSDOF 18
ENDMDL
