MODEL 1
REMARK VINA RESULT:     -13.0      0.000      0.000
REMARK SMILES O=C(NCCCNC(=O)c1cc(F)c(F)cc1NS(=O)(=O)c1ccc2c(c1)CCC2)c1ccc(-c2c3nc(c(-c4cccc(S(=O)(=O)[O-])c4F)c4ccc([nH]4)c(-c4cccc(S(=O)(=O)[O-])c4F)c4nc(c(-c5cccc(S(=O)(=O)[O-])c5F)c5ccc2[nH]5)C=C4)C=C3)cc1
REMARK SMILES IDX 5 1 4 2 3 3 1 4 2 5 31 7 32 8 93 9 33 10 92 11 34 12 35 13
REMARK SMILES IDX 36 14 86 15 37 16 91 17 85 18 87 19 38 20 90 21 84 22 83 23
REMARK SMILES IDX 39 25 71 26 51 27 70 28 52 29 55 30 69 31 88 32 53 33 54 34
REMARK SMILES IDX 68 36 89 37 56 38 40 39 41 40 49 41 42 42 44 43 50 44 43 45
REMARK SMILES IDX 45 46 46 47 47 48 48 49 72 50 73 51 81 52 74 53 76 54 82 55
REMARK SMILES IDX 75 56 77 57 78 58 79 59 80 60 57 61 58 62 66 63 59 64 61 65
REMARK SMILES IDX 67 66 60 67 62 68 63 69 64 70 65 71 6 72 7 73 8 74 9 76
REMARK SMILES IDX 10 77 11 78 17 79 12 80 16 81 13 82 14 83 15 84 18 85 19 87
REMARK SMILES IDX 20 88 21 89 22 90 23 91 27 92 24 93 26 94 25 95 28 96 30 97
REMARK SMILES IDX 29 98
REMARK H PARENT 3 6 87 24 55 35 7 75 18 86
REMARK Flexibility Score: inf
ROOT
ATOM      1  C   UNL A   1      31.493  29.736  25.003  1.00  0.00     0.042 C 
ENDROOT
BRANCH   1   2
ATOM      2  C   UNL A   1      32.375  30.187  26.158  1.00  0.00     0.118 C 
BRANCH   2   3
ATOM      3  N   UNL A   1      32.226  31.606  26.457  1.00  0.00    -0.352 N 
ATOM      4  O   UNL A   1      32.519  33.543  27.553  1.00  0.00    -0.269 OA
ATOM      5  C   UNL A   1      32.943  32.418  27.302  1.00  0.00     0.251 C 
ATOM      6  H   UNL A   1      31.492  32.054  25.976  1.00  0.00     0.163 HD
BRANCH   5   7
ATOM      7  C   UNL A   1      34.196  31.935  27.922  1.00  0.00     0.039 A 
ATOM      8  C   UNL A   1      34.321  30.610  28.342  1.00  0.00     0.014 A 
ATOM      9  C   UNL A   1      35.272  32.816  28.071  1.00  0.00     0.014 A 
ATOM     10  C   UNL A   1      35.436  30.217  29.072  1.00  0.00     0.010 A 
ATOM     11  C   UNL A   1      36.441  32.385  28.707  1.00  0.00     0.010 A 
ATOM     12  C   UNL A   1      36.517  31.094  29.251  1.00  0.00    -0.014 A 
BRANCH  12  13
ATOM     13  C   UNL A   1      37.736  30.611  29.951  1.00  0.00     0.031 A 
ATOM     14  C   UNL A   1      38.051  31.037  31.358  1.00  0.00     0.074 A 
ATOM     15  C   UNL A   1      38.560  29.766  29.300  1.00  0.00     0.049 A 
ATOM     16  N   UNL A   1      39.052  30.676  32.119  1.00  0.00    -0.248 NA
ATOM     17  C   UNL A   1      37.135  31.997  31.992  1.00  0.00     0.031 C 
ATOM     18  C   UNL A   1      38.380  29.312  27.919  1.00  0.00     0.029 A 
ATOM     19  N   UNL A   1      39.708  29.136  29.708  1.00  0.00    -0.354 N 
ATOM     20  C   UNL A   1      38.916  31.394  33.301  1.00  0.00     0.074 A 
ATOM     21  C   UNL A   1      37.736  32.221  33.153  1.00  0.00     0.031 C 
ATOM     22  C   UNL A   1      39.356  28.451  27.606  1.00  0.00     0.029 A 
ATOM     23  C   UNL A   1      40.266  28.336  28.740  1.00  0.00     0.049 A 
ATOM     24  H   UNL A   1      40.093  29.245  30.607  1.00  0.00     0.167 HD
ATOM     25  C   UNL A   1      39.691  31.359  34.412  1.00  0.00     0.034 A 
ATOM     26  C   UNL A   1      41.395  27.603  28.751  1.00  0.00     0.034 A 
ATOM     27  C   UNL A   1      40.846  30.511  34.562  1.00  0.00     0.049 A 
ATOM     28  C   UNL A   1      42.228  27.571  29.999  1.00  0.00     0.074 A 
ATOM     29  C   UNL A   1      41.657  30.351  35.673  1.00  0.00     0.029 A 
ATOM     30  N   UNL A   1      41.365  29.694  33.570  1.00  0.00    -0.354 N 
ATOM     31  N   UNL A   1      42.010  28.160  31.150  1.00  0.00    -0.248 NA
ATOM     32  C   UNL A   1      43.449  26.755  29.958  1.00  0.00     0.031 C 
ATOM     33  C   UNL A   1      42.684  29.461  35.340  1.00  0.00     0.029 A 
ATOM     34  C   UNL A   1      42.495  29.038  34.035  1.00  0.00     0.049 A 
ATOM     35  H   UNL A   1      40.987  29.593  32.666  1.00  0.00     0.167 HD
ATOM     36  C   UNL A   1      43.048  27.761  31.982  1.00  0.00     0.074 A 
ATOM     37  C   UNL A   1      43.882  26.865  31.206  1.00  0.00     0.031 C 
ATOM     38  C   UNL A   1      43.293  28.116  33.268  1.00  0.00     0.034 A 
BRANCH  25  39
ATOM     39  C   UNL A   1      39.303  32.249  35.566  1.00  0.00     0.023 A 
ATOM     40  C   UNL A   1      38.446  31.760  36.572  1.00  0.00     0.012 A 
ATOM     41  C   UNL A   1      39.823  33.555  35.680  1.00  0.00     0.148 A 
ATOM     42  C   UNL A   1      38.078  32.567  37.650  1.00  0.00     0.002 A 
ATOM     43  C   UNL A   1      39.488  34.338  36.779  1.00  0.00     0.091 A 
ATOM     44  F   UNL A   1      40.621  34.014  34.706  1.00  0.00    -0.205 F 
ATOM     45  C   UNL A   1      38.605  33.851  37.758  1.00  0.00     0.022 A 
BRANCH  43  46
ATOM     46  S   UNL A   1      40.180  35.974  37.045  1.00  0.00     0.127 S 
ATOM     47  O   UNL A   1      39.729  36.683  35.849  1.00  0.00    -0.237 OA
ATOM     48  O   UNL A   1      39.522  36.391  38.284  1.00  0.00    -0.237 OA
ATOM     49  O   UNL A   1      41.619  35.784  37.159  1.00  0.00    -0.744 OA
ENDBRANCH  43  46
ENDBRANCH  25  39
BRANCH  26  50
ATOM     50  C   UNL A   1      41.760  26.800  27.552  1.00  0.00     0.023 A 
ATOM     51  C   UNL A   1      42.405  27.426  26.470  1.00  0.00     0.012 A 
ATOM     52  C   UNL A   1      41.532  25.410  27.507  1.00  0.00     0.148 A 
ATOM     53  C   UNL A   1      42.801  26.688  25.354  1.00  0.00     0.002 A 
ATOM     54  C   UNL A   1      41.981  24.671  26.420  1.00  0.00     0.091 A 
ATOM     55  F   UNL A   1      40.910  24.836  28.546  1.00  0.00    -0.205 F 
ATOM     56  C   UNL A   1      42.600  25.310  25.335  1.00  0.00     0.022 A 
BRANCH  54  57
ATOM     57  S   UNL A   1      41.894  22.878  26.370  1.00  0.00     0.127 S 
ATOM     58  O   UNL A   1      40.452  22.648  26.413  1.00  0.00    -0.237 OA
ATOM     59  O   UNL A   1      42.528  22.582  25.085  1.00  0.00    -0.237 OA
ATOM     60  O   UNL A   1      42.640  22.414  27.531  1.00  0.00    -0.744 OA
ENDBRANCH  54  57
ENDBRANCH  26  50
BRANCH  38  61
ATOM     61  C   UNL A   1      44.497  27.506  33.936  1.00  0.00     0.023 A 
ATOM     62  C   UNL A   1      45.741  28.165  33.880  1.00  0.00     0.012 A 
ATOM     63  C   UNL A   1      44.380  26.310  34.670  1.00  0.00     0.148 A 
ATOM     64  C   UNL A   1      46.859  27.624  34.517  1.00  0.00     0.002 A 
ATOM     65  C   UNL A   1      45.484  25.804  35.345  1.00  0.00     0.091 A 
ATOM     66  F   UNL A   1      43.193  25.687  34.693  1.00  0.00    -0.205 F 
ATOM     67  C   UNL A   1      46.727  26.451  35.258  1.00  0.00     0.022 A 
BRANCH  65  68
ATOM     68  S   UNL A   1      45.385  24.354  36.401  1.00  0.00     0.127 S 
ATOM     69  O   UNL A   1      44.619  24.865  37.537  1.00  0.00    -0.237 OA
ATOM     70  O   UNL A   1      44.661  23.404  35.557  1.00  0.00    -0.237 OA
ATOM     71  O   UNL A   1      46.761  23.976  36.693  1.00  0.00    -0.744 OA
ENDBRANCH  65  68
ENDBRANCH  38  61
ENDBRANCH  12  13
ENDBRANCH   5   7
ENDBRANCH   2   3
ENDBRANCH   1   2
BRANCH   1  72
ATOM     72  C   UNL A   1      31.600  28.249  24.702  1.00  0.00     0.118 C 
BRANCH  72  73
ATOM     73  N   UNL A   1      30.289  27.615  24.595  1.00  0.00    -0.352 N 
ATOM     74  C   UNL A   1      29.925  26.511  23.864  1.00  0.00     0.253 C 
ATOM     75  H   UNL A   1      29.569  28.036  25.119  1.00  0.00     0.163 HD
ATOM     76  O   UNL A   1      28.749  26.254  23.641  1.00  0.00    -0.269 OA
BRANCH  74  77
ATOM     77  C   UNL A   1      30.980  25.658  23.294  1.00  0.00     0.067 A 
ATOM     78  C   UNL A   1      31.611  26.102  22.118  1.00  0.00     0.058 A 
ATOM     79  C   UNL A   1      31.256  24.395  23.847  1.00  0.00     0.065 A 
ATOM     80  C   UNL A   1      32.426  25.231  21.416  1.00  0.00     0.159 A 
ATOM     81  C   UNL A   1      32.022  23.524  23.068  1.00  0.00     0.070 A 
ATOM     82  F   UNL A   1      32.966  25.620  20.254  1.00  0.00    -0.204 F 
ATOM     83  C   UNL A   1      32.612  23.941  21.877  1.00  0.00     0.160 A 
ATOM     84  F   UNL A   1      33.332  23.064  21.164  1.00  0.00    -0.204 F 
BRANCH  79  85
ATOM     85  N   UNL A   1      30.616  23.927  25.064  1.00  0.00    -0.279 N 
ATOM     86  H   UNL A   1      29.753  23.454  25.015  1.00  0.00     0.180 HD
BRANCH  85  87
ATOM     87  S   UNL A   1      31.364  24.198  26.587  1.00  0.00     0.261 S 
ATOM     88  O   UNL A   1      31.134  25.588  26.935  1.00  0.00    -0.201 OA
ATOM     89  O   UNL A   1      30.934  23.134  27.463  1.00  0.00    -0.201 OA
BRANCH  87  90
ATOM     90  C   UNL A   1      33.105  23.988  26.309  1.00  0.00     0.088 A 
ATOM     91  C   UNL A   1      33.856  25.095  25.865  1.00  0.00     0.022 A 
ATOM     92  C   UNL A   1      33.661  22.703  26.379  1.00  0.00     0.026 A 
ATOM     93  C   UNL A   1      35.144  24.909  25.368  1.00  0.00     0.005 A 
ATOM     94  C   UNL A   1      34.942  22.538  25.875  1.00  0.00    -0.043 A 
ATOM     95  C   UNL A   1      35.658  23.623  25.351  1.00  0.00    -0.045 A 
ATOM     96  C   UNL A   1      35.683  21.255  25.649  1.00  0.00     0.036 C 
ATOM     97  C   UNL A   1      36.922  23.161  24.693  1.00  0.00     0.036 C 
ATOM     98  C   UNL A   1      37.093  21.770  25.317  1.00  0.00     0.010 C 
ENDBRANCH  87  90
ENDBRANCH  85  87
ENDBRANCH  79  85
ENDBRANCH  74  77
ENDBRANCH  72  73
ENDBRANCH   1  72
TORSDOF 16
ENDMDL
MODEL 2
REMARK VINA RESULT:     -12.9      5.170      9.999
REMARK SMILES O=C(NCCCNC(=O)c1cc(F)c(F)cc1NS(=O)(=O)c1ccc2c(c1)CCC2)c1ccc(-c2c3nc(c(-c4cccc(S(=O)(=O)[O-])c4F)c4ccc([nH]4)c(-c4cccc(S(=O)(=O)[O-])c4F)c4nc(c(-c5cccc(S(=O)(=O)[O-])c5F)c5ccc2[nH]5)C=C4)C=C3)cc1
REMARK SMILES IDX 5 1 4 2 3 3 1 4 2 5 31 7 32 8 93 9 33 10 92 11 34 12 35 13
REMARK SMILES IDX 36 14 86 15 37 16 91 17 85 18 87 19 38 20 90 21 84 22 83 23
REMARK SMILES IDX 39 25 71 26 51 27 70 28 52 29 55 30 69 31 88 32 53 33 54 34
REMARK SMILES IDX 68 36 89 37 56 38 40 39 41 40 49 41 42 42 44 43 50 44 43 45
REMARK SMILES IDX 45 46 46 47 47 48 48 49 72 50 73 51 81 52 74 53 76 54 82 55
REMARK SMILES IDX 75 56 77 57 78 58 79 59 80 60 57 61 58 62 66 63 59 64 61 65
REMARK SMILES IDX 67 66 60 67 62 68 63 69 64 70 65 71 6 72 7 73 8 74 9 76
REMARK SMILES IDX 10 77 11 78 17 79 12 80 16 81 13 82 14 83 15 84 18 85 19 87
REMARK SMILES IDX 20 88 21 89 22 90 23 91 27 92 24 93 26 94 25 95 28 96 30 97
REMARK SMILES IDX 29 98
REMARK H PARENT 3 6 87 24 55 35 7 75 18 86
REMARK Flexibility Score: inf
ROOT
ATOM      1  C   UNL A   1      35.099  22.253  25.953  1.00  0.00     0.042 C 
ENDROOT
BRANCH   1   2
ATOM      2  C   UNL A   1      36.302  22.179  25.026  1.00  0.00     0.118 C 
BRANCH   2   3
ATOM      3  N   UNL A   1      37.176  21.053  25.330  1.00  0.00    -0.352 N 
ATOM      4  O   UNL A   1      39.087  19.966  25.789  1.00  0.00    -0.269 OA
ATOM      5  C   UNL A   1      38.470  21.029  25.791  1.00  0.00     0.251 C 
ATOM      6  H   UNL A   1      36.774  20.167  25.180  1.00  0.00     0.163 HD
BRANCH   5   7
ATOM      7  C   UNL A   1      39.123  22.271  26.260  1.00  0.00     0.039 A 
ATOM      8  C   UNL A   1      38.636  23.522  25.878  1.00  0.00     0.014 A 
ATOM      9  C   UNL A   1      40.229  22.186  27.110  1.00  0.00     0.014 A 
ATOM     10  C   UNL A   1      39.356  24.670  26.187  1.00  0.00     0.010 A 
ATOM     11  C   UNL A   1      40.887  23.353  27.515  1.00  0.00     0.010 A 
ATOM     12  C   UNL A   1      40.482  24.602  27.021  1.00  0.00    -0.014 A 
BRANCH  12  13
ATOM     13  C   UNL A   1      41.172  25.859  27.412  1.00  0.00     0.031 A 
ATOM     14  C   UNL A   1      42.567  26.166  26.942  1.00  0.00     0.074 A 
ATOM     15  C   UNL A   1      40.516  26.735  28.198  1.00  0.00     0.049 A 
ATOM     16  N   UNL A   1      43.291  27.232  27.165  1.00  0.00    -0.248 NA
ATOM     17  C   UNL A   1      43.242  25.145  26.127  1.00  0.00     0.031 C 
ATOM     18  C   UNL A   1      39.175  26.530  28.750  1.00  0.00     0.029 A 
ATOM     19  N   UNL A   1      40.881  27.971  28.668  1.00  0.00    -0.354 N 
ATOM     20  C   UNL A   1      44.520  26.996  26.559  1.00  0.00     0.074 A 
ATOM     21  C   UNL A   1      44.446  25.678  25.965  1.00  0.00     0.031 C 
ATOM     22  C   UNL A   1      38.814  27.614  29.449  1.00  0.00     0.029 A 
ATOM     23  C   UNL A   1      39.918  28.565  29.449  1.00  0.00     0.049 A 
ATOM     24  H   UNL A   1      41.748  28.392  28.465  1.00  0.00     0.167 HD
ATOM     25  C   UNL A   1      45.604  27.807  26.491  1.00  0.00     0.034 A 
ATOM     26  C   UNL A   1      39.925  29.739  30.109  1.00  0.00     0.034 A 
ATOM     27  C   UNL A   1      45.658  29.130  27.059  1.00  0.00     0.049 A 
ATOM     28  C   UNL A   1      41.134  30.623  30.005  1.00  0.00     0.074 A 
ATOM     29  C   UNL A   1      46.684  30.056  26.984  1.00  0.00     0.029 A 
ATOM     30  N   UNL A   1      44.653  29.709  27.819  1.00  0.00    -0.354 N 
ATOM     31  N   UNL A   1      42.236  30.435  29.321  1.00  0.00    -0.248 NA
ATOM     32  C   UNL A   1      41.089  31.891  30.744  1.00  0.00     0.031 C 
ATOM     33  C   UNL A   1      46.311  31.183  27.726  1.00  0.00     0.029 A 
ATOM     34  C   UNL A   1      45.039  30.974  28.234  1.00  0.00     0.049 A 
ATOM     35  H   UNL A   1      43.791  29.285  28.033  1.00  0.00     0.167 HD
ATOM     36  C   UNL A   1      43.005  31.574  29.520  1.00  0.00     0.074 A 
ATOM     37  C   UNL A   1      42.231  32.455  30.372  1.00  0.00     0.031 C 
ATOM     38  C   UNL A   1      44.244  31.859  29.047  1.00  0.00     0.034 A 
BRANCH  25  39
ATOM     39  C   UNL A   1      46.817  27.295  25.755  1.00  0.00     0.023 A 
ATOM     40  C   UNL A   1      47.681  26.376  26.383  1.00  0.00     0.012 A 
ATOM     41  C   UNL A   1      47.078  27.689  24.426  1.00  0.00     0.148 A 
ATOM     42  C   UNL A   1      48.808  25.889  25.717  1.00  0.00     0.002 A 
ATOM     43  C   UNL A   1      48.176  27.165  23.754  1.00  0.00     0.091 A 
ATOM     44  F   UNL A   1      46.258  28.579  23.850  1.00  0.00    -0.205 F 
ATOM     45  C   UNL A   1      49.049  26.275  24.402  1.00  0.00     0.022 A 
BRANCH  43  46
ATOM     46  S   UNL A   1      48.525  27.543  22.033  1.00  0.00     0.127 S 
ATOM     47  O   UNL A   1      49.609  28.514  22.159  1.00  0.00    -0.237 OA
ATOM     48  O   UNL A   1      48.932  26.241  21.505  1.00  0.00    -0.237 OA
ATOM     49  O   UNL A   1      47.280  28.057  21.479  1.00  0.00    -0.744 OA
ENDBRANCH  43  46
ENDBRANCH  25  39
BRANCH  26  50
ATOM     50  C   UNL A   1      38.720  30.156  30.877  1.00  0.00     0.023 A 
ATOM     51  C   UNL A   1      38.645  29.874  32.253  1.00  0.00     0.012 A 
ATOM     52  C   UNL A   1      37.682  30.888  30.265  1.00  0.00     0.148 A 
ATOM     53  C   UNL A   1      37.548  30.295  33.005  1.00  0.00     0.002 A 
ATOM     54  C   UNL A   1      36.623  31.354  31.032  1.00  0.00     0.091 A 
ATOM     55  F   UNL A   1      37.773  31.138  28.952  1.00  0.00    -0.205 F 
ATOM     56  C   UNL A   1      36.545  31.045  32.398  1.00  0.00     0.022 A 
BRANCH  54  57
ATOM     57  S   UNL A   1      35.359  32.445  30.368  1.00  0.00     0.127 S 
ATOM     58  O   UNL A   1      34.435  32.551  31.494  1.00  0.00    -0.237 OA
ATOM     59  O   UNL A   1      36.128  33.657  30.084  1.00  0.00    -0.237 OA
ATOM     60  O   UNL A   1      34.838  31.772  29.186  1.00  0.00    -0.744 OA
ENDBRANCH  54  57
ENDBRANCH  26  50
BRANCH  38  61
ATOM     61  C   UNL A   1      44.833  33.196  29.413  1.00  0.00     0.023 A 
ATOM     62  C   UNL A   1      45.595  33.331  30.590  1.00  0.00     0.012 A 
ATOM     63  C   UNL A   1      44.682  34.304  28.556  1.00  0.00     0.148 A 
ATOM     64  C   UNL A   1      46.168  34.558  30.927  1.00  0.00     0.002 A 
ATOM     65  C   UNL A   1      45.298  35.508  28.871  1.00  0.00     0.091 A 
ATOM     66  F   UNL A   1      43.935  34.161  27.451  1.00  0.00    -0.205 F 
ATOM     67  C   UNL A   1      46.029  35.641  30.063  1.00  0.00     0.022 A 
BRANCH  65  68
ATOM     68  S   UNL A   1      45.255  36.927  27.770  1.00  0.00     0.127 S 
ATOM     69  O   UNL A   1      46.000  37.923  28.538  1.00  0.00    -0.237 OA
ATOM     70  O   UNL A   1      45.952  36.423  26.587  1.00  0.00    -0.237 OA
ATOM     71  O   UNL A   1      43.845  37.227  27.558  1.00  0.00    -0.744 OA
ENDBRANCH  65  68
ENDBRANCH  38  61
ENDBRANCH  12  13
ENDBRANCH   5   7
ENDBRANCH   2   3
ENDBRANCH   1   2
BRANCH   1  72
ATOM     72  C   UNL A   1      34.108  21.117  25.754  1.00  0.00     0.118 C 
BRANCH  72  73
ATOM     73  N   UNL A   1      33.636  21.036  24.373  1.00  0.00    -0.352 N 
ATOM     74  C   UNL A   1      32.526  21.614  23.809  1.00  0.00     0.253 C 
ATOM     75  H   UNL A   1      34.191  20.495  23.766  1.00  0.00     0.163 HD
ATOM     76  O   UNL A   1      32.096  21.242  22.725  1.00  0.00    -0.269 OA
BRANCH  74  77
ATOM     77  C   UNL A   1      31.813  22.661  24.558  1.00  0.00     0.067 A 
ATOM     78  C   UNL A   1      31.317  22.327  25.831  1.00  0.00     0.058 A 
ATOM     79  C   UNL A   1      31.542  23.907  23.965  1.00  0.00     0.065 A 
ATOM     80  C   UNL A   1      30.438  23.189  26.465  1.00  0.00     0.159 A 
ATOM     81  C   UNL A   1      30.592  24.710  24.602  1.00  0.00     0.070 A 
ATOM     82  F   UNL A   1      29.900  22.841  27.640  1.00  0.00    -0.204 F 
ATOM     83  C   UNL A   1      30.061  24.364  25.842  1.00  0.00     0.160 A 
ATOM     84  F   UNL A   1      29.148  25.167  26.406  1.00  0.00    -0.204 F 
BRANCH  79  85
ATOM     85  N   UNL A   1      32.052  24.266  22.654  1.00  0.00    -0.279 N 
ATOM     86  H   UNL A   1      31.565  23.990  21.844  1.00  0.00     0.180 HD
BRANCH  85  87
ATOM     87  S   UNL A   1      33.506  25.173  22.516  1.00  0.00     0.261 S 
ATOM     88  O   UNL A   1      34.604  24.262  22.781  1.00  0.00    -0.201 OA
ATOM     89  O   UNL A   1      33.431  25.903  21.273  1.00  0.00    -0.201 OA
BRANCH  87  90
ATOM     90  C   UNL A   1      33.455  26.361  23.835  1.00  0.00     0.088 A 
ATOM     91  C   UNL A   1      34.026  26.016  25.077  1.00  0.00     0.022 A 
ATOM     92  C   UNL A   1      32.714  27.540  23.668  1.00  0.00     0.026 A 
ATOM     93  C   UNL A   1      33.762  26.790  26.205  1.00  0.00     0.005 A 
ATOM     94  C   UNL A   1      32.457  28.293  24.804  1.00  0.00    -0.043 A 
ATOM     95  C   UNL A   1      32.951  27.904  26.057  1.00  0.00    -0.045 A 
ATOM     96  C   UNL A   1      31.539  29.470  24.939  1.00  0.00     0.036 C 
ATOM     97  C   UNL A   1      32.379  28.759  27.145  1.00  0.00     0.036 C 
ATOM     98  C   UNL A   1      31.893  29.975  26.346  1.00  0.00     0.010 C 
ENDBRANCH  87  90
ENDBRANCH  85  87
ENDBRANCH  79  85
ENDBRANCH  74  77
ENDBRANCH  72  73
ENDBRANCH   1  72
TORSDOF 16
ENDMDL
MODEL 3
REMARK VINA RESULT:     -12.7      5.023     10.048
REMARK SMILES O=C(NCCCNC(=O)c1cc(F)c(F)cc1NS(=O)(=O)c1ccc2c(c1)CCC2)c1ccc(-c2c3nc(c(-c4cccc(S(=O)(=O)[O-])c4F)c4ccc([nH]4)c(-c4cccc(S(=O)(=O)[O-])c4F)c4nc(c(-c5cccc(S(=O)(=O)[O-])c5F)c5ccc2[nH]5)C=C4)C=C3)cc1
REMARK SMILES IDX 5 1 4 2 3 3 1 4 2 5 31 7 32 8 93 9 33 10 92 11 34 12 35 13
REMARK SMILES IDX 36 14 86 15 37 16 91 17 85 18 87 19 38 20 90 21 84 22 83 23
REMARK SMILES IDX 39 25 71 26 51 27 70 28 52 29 55 30 69 31 88 32 53 33 54 34
REMARK SMILES IDX 68 36 89 37 56 38 40 39 41 40 49 41 42 42 44 43 50 44 43 45
REMARK SMILES IDX 45 46 46 47 47 48 48 49 72 50 73 51 81 52 74 53 76 54 82 55
REMARK SMILES IDX 75 56 77 57 78 58 79 59 80 60 57 61 58 62 66 63 59 64 61 65
REMARK SMILES IDX 67 66 60 67 62 68 63 69 64 70 65 71 6 72 7 73 8 74 9 76
REMARK SMILES IDX 10 77 11 78 17 79 12 80 16 81 13 82 14 83 15 84 18 85 19 87
REMARK SMILES IDX 20 88 21 89 22 90 23 91 27 92 24 93 26 94 25 95 28 96 30 97
REMARK SMILES IDX 29 98
REMARK H PARENT 3 6 87 24 55 35 7 75 18 86
REMARK Flexibility Score: inf
ROOT
ATOM      1  C   UNL A   1      35.191  22.138  26.439  1.00  0.00     0.042 C 
ENDROOT
BRANCH   1   2
ATOM      2  C   UNL A   1      36.282  22.161  25.378  1.00  0.00     0.118 C 
BRANCH   2   3
ATOM      3  N   UNL A   1      37.236  21.070  25.531  1.00  0.00    -0.352 N 
ATOM      4  O   UNL A   1      39.234  20.066  25.735  1.00  0.00    -0.269 OA
ATOM      5  C   UNL A   1      38.570  21.092  25.857  1.00  0.00     0.251 C 
ATOM      6  H   UNL A   1      36.864  20.172  25.374  1.00  0.00     0.163 HD
BRANCH   5   7
ATOM      7  C   UNL A   1      39.207  22.344  26.325  1.00  0.00     0.039 A 
ATOM      8  C   UNL A   1      38.734  23.587  25.904  1.00  0.00     0.014 A 
ATOM      9  C   UNL A   1      40.283  22.274  27.214  1.00  0.00     0.014 A 
ATOM     10  C   UNL A   1      39.443  24.740  26.216  1.00  0.00     0.010 A 
ATOM     11  C   UNL A   1      40.928  23.448  27.619  1.00  0.00     0.010 A 
ATOM     12  C   UNL A   1      40.541  24.688  27.090  1.00  0.00    -0.014 A 
BRANCH  12  13
ATOM     13  C   UNL A   1      41.217  25.952  27.481  1.00  0.00     0.031 A 
ATOM     14  C   UNL A   1      42.615  26.266  27.025  1.00  0.00     0.074 A 
ATOM     15  C   UNL A   1      40.546  26.828  28.255  1.00  0.00     0.049 A 
ATOM     16  N   UNL A   1      43.329  27.338  27.250  1.00  0.00    -0.248 NA
ATOM     17  C   UNL A   1      43.307  25.245  26.224  1.00  0.00     0.031 C 
ATOM     18  C   UNL A   1      39.200  26.617  28.792  1.00  0.00     0.029 A 
ATOM     19  N   UNL A   1      40.897  28.069  28.721  1.00  0.00    -0.354 N 
ATOM     20  C   UNL A   1      44.566  27.108  26.659  1.00  0.00     0.074 A 
ATOM     21  C   UNL A   1      44.509  25.785  26.073  1.00  0.00     0.031 C 
ATOM     22  C   UNL A   1      38.824  27.702  29.480  1.00  0.00     0.029 A 
ATOM     23  C   UNL A   1      39.922  28.661  29.487  1.00  0.00     0.049 A 
ATOM     24  H   UNL A   1      41.763  28.495  28.525  1.00  0.00     0.167 HD
ATOM     25  C   UNL A   1      45.645  27.925  26.599  1.00  0.00     0.034 A 
ATOM     26  C   UNL A   1      39.913  29.838  30.140  1.00  0.00     0.034 A 
ATOM     27  C   UNL A   1      45.684  29.252  27.159  1.00  0.00     0.049 A 
ATOM     28  C   UNL A   1      41.116  30.731  30.045  1.00  0.00     0.074 A 
ATOM     29  C   UNL A   1      46.704  30.185  27.091  1.00  0.00     0.029 A 
ATOM     30  N   UNL A   1      44.667  29.829  27.905  1.00  0.00    -0.354 N 
ATOM     31  N   UNL A   1      42.227  30.546  29.374  1.00  0.00    -0.248 NA
ATOM     32  C   UNL A   1      41.054  32.003  30.776  1.00  0.00     0.031 C 
ATOM     33  C   UNL A   1      46.315  31.314  27.822  1.00  0.00     0.029 A 
ATOM     34  C   UNL A   1      45.039  31.099  28.316  1.00  0.00     0.049 A 
ATOM     35  H   UNL A   1      43.805  29.399  28.111  1.00  0.00     0.167 HD
ATOM     36  C   UNL A   1      42.986  31.692  29.575  1.00  0.00     0.074 A 
ATOM     37  C   UNL A   1      42.196  32.572  30.414  1.00  0.00     0.031 C 
ATOM     38  C   UNL A   1      44.228  31.982  29.115  1.00  0.00     0.034 A 
BRANCH  25  39
ATOM     39  C   UNL A   1      46.870  27.418  25.880  1.00  0.00     0.023 A 
ATOM     40  C   UNL A   1      47.781  26.578  26.553  1.00  0.00     0.012 A 
ATOM     41  C   UNL A   1      47.098  27.734  24.525  1.00  0.00     0.148 A 
ATOM     42  C   UNL A   1      48.919  26.096  25.904  1.00  0.00     0.002 A 
ATOM     43  C   UNL A   1      48.210  27.213  23.872  1.00  0.00     0.091 A 
ATOM     44  F   UNL A   1      46.234  28.549  23.904  1.00  0.00    -0.205 F 
ATOM     45  C   UNL A   1      49.128  26.406  24.563  1.00  0.00     0.022 A 
BRANCH  43  46
ATOM     46  S   UNL A   1      48.521  27.493  22.125  1.00  0.00     0.127 S 
ATOM     47  O   UNL A   1      47.269  28.112  21.698  1.00  0.00    -0.237 OA
ATOM     48  O   UNL A   1      49.670  28.399  22.156  1.00  0.00    -0.237 OA
ATOM     49  O   UNL A   1      48.802  26.182  21.557  1.00  0.00    -0.744 OA
ENDBRANCH  43  46
ENDBRANCH  25  39
BRANCH  26  50
ATOM     50  C   UNL A   1      38.696  30.252  30.892  1.00  0.00     0.023 A 
ATOM     51  C   UNL A   1      38.602  29.967  32.266  1.00  0.00     0.012 A 
ATOM     52  C   UNL A   1      37.665  30.982  30.267  1.00  0.00     0.148 A 
ATOM     53  C   UNL A   1      37.494  30.385  33.004  1.00  0.00     0.002 A 
ATOM     54  C   UNL A   1      36.594  31.445  31.019  1.00  0.00     0.091 A 
ATOM     55  F   UNL A   1      37.773  31.235  28.956  1.00  0.00    -0.205 F 
ATOM     56  C   UNL A   1      36.497  31.134  32.384  1.00  0.00     0.022 A 
BRANCH  54  57
ATOM     57  S   UNL A   1      35.337  32.534  30.339  1.00  0.00     0.127 S 
ATOM     58  O   UNL A   1      34.875  31.770  29.183  1.00  0.00    -0.237 OA
ATOM     59  O   UNL A   1      34.383  32.620  31.445  1.00  0.00    -0.237 OA
ATOM     60  O   UNL A   1      36.020  33.784  30.036  1.00  0.00    -0.744 OA
ENDBRANCH  54  57
ENDBRANCH  26  50
BRANCH  38  61
ATOM     61  C   UNL A   1      44.804  33.326  29.480  1.00  0.00     0.023 A 
ATOM     62  C   UNL A   1      45.599  33.461  30.635  1.00  0.00     0.012 A 
ATOM     63  C   UNL A   1      44.606  34.441  28.642  1.00  0.00     0.148 A 
ATOM     64  C   UNL A   1      46.160  34.694  30.970  1.00  0.00     0.002 A 
ATOM     65  C   UNL A   1      45.210  35.653  28.953  1.00  0.00     0.091 A 
ATOM     66  F   UNL A   1      43.829  34.297  27.559  1.00  0.00    -0.205 F 
ATOM     67  C   UNL A   1      45.975  35.785  30.124  1.00  0.00     0.022 A 
BRANCH  65  68
ATOM     68  S   UNL A   1      45.107  37.084  27.872  1.00  0.00     0.127 S 
ATOM     69  O   UNL A   1      45.692  36.567  26.636  1.00  0.00    -0.237 OA
ATOM     70  O   UNL A   1      43.665  37.324  27.811  1.00  0.00    -0.237 OA
ATOM     71  O   UNL A   1      45.867  38.138  28.531  1.00  0.00    -0.744 OA
ENDBRANCH  65  68
ENDBRANCH  38  61
ENDBRANCH  12  13
ENDBRANCH   5   7
ENDBRANCH   2   3
ENDBRANCH   1   2
BRANCH   1  72
ATOM     72  C   UNL A   1      34.289  23.362  26.409  1.00  0.00     0.118 C 
BRANCH  72  73
ATOM     73  N   UNL A   1      33.058  23.156  27.168  1.00  0.00    -0.352 N 
ATOM     74  C   UNL A   1      31.822  22.771  26.713  1.00  0.00     0.253 C 
ATOM     75  H   UNL A   1      33.126  23.313  28.137  1.00  0.00     0.163 HD
ATOM     76  O   UNL A   1      30.818  22.906  27.401  1.00  0.00    -0.269 OA
BRANCH  74  77
ATOM     77  C   UNL A   1      31.704  22.237  25.346  1.00  0.00     0.067 A 
ATOM     78  C   UNL A   1      32.198  20.942  25.108  1.00  0.00     0.058 A 
ATOM     79  C   UNL A   1      31.222  23.046  24.301  1.00  0.00     0.065 A 
ATOM     80  C   UNL A   1      32.333  20.496  23.804  1.00  0.00     0.159 A 
ATOM     81  C   UNL A   1      31.449  22.589  23.000  1.00  0.00     0.070 A 
ATOM     82  F   UNL A   1      32.877  19.296  23.568  1.00  0.00    -0.204 F 
ATOM     83  C   UNL A   1      31.981  21.325  22.755  1.00  0.00     0.160 A 
ATOM     84  F   UNL A   1      32.184  20.937  21.489  1.00  0.00    -0.204 F 
BRANCH  79  85
ATOM     85  N   UNL A   1      30.705  24.383  24.533  1.00  0.00    -0.279 N 
ATOM     86  H   UNL A   1      29.736  24.524  24.636  1.00  0.00     0.180 HD
BRANCH  85  87
ATOM     87  S   UNL A   1      31.783  25.717  24.629  1.00  0.00     0.261 S 
ATOM     88  O   UNL A   1      31.797  26.157  26.012  1.00  0.00    -0.201 OA
ATOM     89  O   UNL A   1      33.002  25.322  23.965  1.00  0.00    -0.201 OA
BRANCH  87  90
ATOM     90  C   UNL A   1      31.039  27.004  23.658  1.00  0.00     0.088 A 
ATOM     91  C   UNL A   1      31.871  27.997  23.102  1.00  0.00     0.022 A 
ATOM     92  C   UNL A   1      29.642  27.097  23.598  1.00  0.00     0.026 A 
ATOM     93  C   UNL A   1      31.313  29.163  22.583  1.00  0.00     0.005 A 
ATOM     94  C   UNL A   1      29.106  28.268  23.083  1.00  0.00    -0.043 A 
ATOM     95  C   UNL A   1      29.934  29.296  22.610  1.00  0.00    -0.045 A 
ATOM     96  C   UNL A   1      27.672  28.703  23.087  1.00  0.00     0.036 C 
ATOM     97  C   UNL A   1      29.135  30.522  22.294  1.00  0.00     0.036 C 
ATOM     98  C   UNL A   1      27.723  29.936  22.171  1.00  0.00     0.010 C 
ENDBRANCH  87  90
ENDBRANCH  85  87
ENDBRANCH  79  85
ENDBRANCH  74  77
ENDBRANCH  72  73
ENDBRANCH   1  72
TORSDOF 16
ENDMDL
