MODEL 1
REMARK VINA RESULT:     -13.0      0.000      0.000
REMARK SMILES CCOc1ccc(-c2cc(Cl)cc3c2O[C@H](C(F)(F)F)C(C(=O)NCCCNC(=O)c2ccc(-c4c5nc(c(-c6cccc(S(=O)(=O)[O-])c6F)c6ccc([nH]6)c(-c6cccc(S(=O)(=O)[O-])c6F)c6nc(c(-c7cccc(S(=O)(=O)[O-])c7F)c7ccc4[nH]7)C=C6)C=C5)cc2)=C3)cc1
REMARK SMILES IDX 26 1 25 2 24 3 22 4 23 5 21 7 8 8 9 9 14 10 10 11 13 12
REMARK SMILES IDX 15 13 11 14 12 15 94 16 16 17 7 18 4 19 5 20 96 21 6 22
REMARK SMILES IDX 95 23 3 24 2 25 1 26 17 27 18 28 19 29 20 30 27 31 28 32
REMARK SMILES IDX 29 33 30 35 31 36 32 37 93 38 33 39 92 40 34 41 35 42 36 43
REMARK SMILES IDX 86 44 37 45 91 46 85 47 87 48 38 49 90 50 84 51 83 52 39 54
REMARK SMILES IDX 71 55 51 56 70 57 52 58 55 59 69 60 88 61 53 62 54 63 68 65
REMARK SMILES IDX 89 66 56 67 40 68 41 69 49 70 42 71 44 72 50 73 43 74 45 75
REMARK SMILES IDX 46 76 47 77 48 78 72 79 73 80 81 81 74 82 76 83 82 84 75 85
REMARK SMILES IDX 77 86 78 87 79 88 80 89 57 90 58 91 66 92 59 93 61 94 67 95
REMARK SMILES IDX 60 96 62 97 63 98 64 99 65 100
REMARK H PARENT 24 6 28 34 87 53 55 64
REMARK Flexibility Score: inf
ROOT
ATOM      1  C   UNL A   1      35.575  21.412  25.358  1.00  0.00     0.042 C 
ENDROOT
BRANCH   1   2
ATOM      2  C   UNL A   1      34.922  22.136  26.537  1.00  0.00     0.118 C 
BRANCH   2   3
ATOM      3  N   UNL A   1      34.931  23.568  26.311  1.00  0.00    -0.352 N 
ATOM      4  C   UNL A   1      34.213  24.261  25.395  1.00  0.00     0.251 C 
ATOM      5  O   UNL A   1      34.711  25.232  24.838  1.00  0.00    -0.270 OA
ATOM      6  H   UNL A   1      35.528  24.096  26.889  1.00  0.00     0.163 HD
BRANCH   4   7
ATOM      7  C   UNL A   1      32.777  23.887  25.223  1.00  0.00     0.067 C 
ATOM      8  C   UNL A   1      31.241  27.554  24.332  1.00  0.00     0.026 A 
ATOM      9  C   UNL A   1      31.772  28.489  25.253  1.00  0.00     0.033 A 
ATOM     10  C   UNL A   1      31.422  26.196  24.641  1.00  0.00     0.135 A 
ATOM     11  C   UNL A   1      32.302  28.103  26.484  1.00  0.00     0.042 A 
ATOM     12  C   UNL A   1      31.856  25.827  25.937  1.00  0.00     0.019 A 
ATOM     13  O   UNL A   1      31.224  25.184  23.715  1.00  0.00    -0.475 OA
ATOM     14  Cl  UNL A   1      32.932  29.294  27.552  1.00  0.00    -0.084 Cl
ATOM     15  C   UNL A   1      32.286  26.773  26.862  1.00  0.00     0.032 A 
ATOM     16  C   UNL A   1      32.017  24.383  26.221  1.00  0.00     0.025 C 
ATOM     17  C   UNL A   1      32.239  24.095  23.809  1.00  0.00     0.314 C 
BRANCH   8  18
ATOM     18  C   UNL A   1      30.361  28.118  23.280  1.00  0.00    -0.014 A 
ATOM     19  C   UNL A   1      28.606  29.911  21.975  1.00  0.00     0.119 A 
ATOM     20  C   UNL A   1      29.970  29.955  21.706  1.00  0.00     0.047 A 
ATOM     21  C   UNL A   1      28.098  28.898  22.782  1.00  0.00     0.047 A 
ATOM     22  C   UNL A   1      30.840  29.061  22.348  1.00  0.00     0.013 A 
ATOM     23  C   UNL A   1      28.967  28.008  23.425  1.00  0.00     0.013 A 
BRANCH  19  24
ATOM     24  O   UNL A   1      27.798  30.829  21.364  1.00  0.00    -0.494 OA
BRANCH  24  25
ATOM     25  C   UNL A   1      28.277  32.180  21.456  1.00  0.00     0.226 C 
ATOM     26  C   UNL A   1      28.350  32.641  22.904  1.00  0.00     0.049 C 
ENDBRANCH  24  25
ENDBRANCH  19  24
ENDBRANCH   8  18
BRANCH  17  27
ATOM     27  C   UNL A   1      31.671  22.754  23.292  1.00  0.00     0.429 C 
ATOM     28  F   UNL A   1      31.753  21.766  24.213  1.00  0.00    -0.167 F 
ATOM     29  F   UNL A   1      30.371  22.873  22.936  1.00  0.00    -0.167 F 
ATOM     30  F   UNL A   1      32.329  22.301  22.191  1.00  0.00    -0.167 F 
ENDBRANCH  17  27
ENDBRANCH   4   7
ENDBRANCH   2   3
ENDBRANCH   1   2
BRANCH   1  31
ATOM     31  C   UNL A   1      37.023  21.817  25.080  1.00  0.00     0.118 C 
BRANCH  31  32
ATOM     32  N   UNL A   1      37.988  20.788  25.442  1.00  0.00    -0.352 N 
ATOM     33  C   UNL A   1      39.217  20.933  26.040  1.00  0.00     0.251 C 
ATOM     34  H   UNL A   1      37.724  19.864  25.229  1.00  0.00     0.163 HD
ATOM     35  O   UNL A   1      39.964  19.965  26.154  1.00  0.00    -0.269 OA
BRANCH  33  36
ATOM     36  C   UNL A   1      39.644  22.266  26.515  1.00  0.00     0.039 A 
ATOM     37  C   UNL A   1      40.607  22.349  27.524  1.00  0.00     0.014 A 
ATOM     38  C   UNL A   1      39.122  23.428  25.940  1.00  0.00     0.014 A 
ATOM     39  C   UNL A   1      41.103  23.598  27.904  1.00  0.00     0.010 A 
ATOM     40  C   UNL A   1      39.672  24.664  26.267  1.00  0.00     0.010 A 
ATOM     41  C   UNL A   1      40.670  24.764  27.250  1.00  0.00    -0.014 A 
BRANCH  41  42
ATOM     42  C   UNL A   1      41.263  26.092  27.555  1.00  0.00     0.031 A 
ATOM     43  C   UNL A   1      42.684  26.397  27.165  1.00  0.00     0.074 A 
ATOM     44  C   UNL A   1      40.557  26.987  28.277  1.00  0.00     0.049 A 
ATOM     45  N   UNL A   1      43.400  27.459  27.423  1.00  0.00    -0.248 NA
ATOM     46  C   UNL A   1      43.405  25.358  26.411  1.00  0.00     0.031 C 
ATOM     47  C   UNL A   1      39.198  26.780  28.786  1.00  0.00     0.029 A 
ATOM     48  N   UNL A   1      40.894  28.235  28.736  1.00  0.00    -0.354 N 
ATOM     49  C   UNL A   1      44.664  27.203  26.905  1.00  0.00     0.074 A 
ATOM     50  C   UNL A   1      44.626  25.870  26.343  1.00  0.00     0.031 C 
ATOM     51  C   UNL A   1      38.819  27.864  29.482  1.00  0.00     0.029 A 
ATOM     52  C   UNL A   1      39.915  28.828  29.499  1.00  0.00     0.049 A 
ATOM     53  H   UNL A   1      41.757  28.668  28.536  1.00  0.00     0.167 HD
ATOM     54  C   UNL A   1      45.748  28.012  26.869  1.00  0.00     0.034 A 
ATOM     55  C   UNL A   1      39.902  30.008  30.150  1.00  0.00     0.034 A 
ATOM     56  C   UNL A   1      45.768  29.356  27.382  1.00  0.00     0.049 A 
ATOM     57  C   UNL A   1      41.106  30.907  30.057  1.00  0.00     0.074 A 
ATOM     58  C   UNL A   1      46.786  30.290  27.307  1.00  0.00     0.029 A 
ATOM     59  N   UNL A   1      44.723  29.957  28.067  1.00  0.00    -0.354 N 
ATOM     60  N   UNL A   1      42.235  30.710  29.421  1.00  0.00    -0.248 NA
ATOM     61  C   UNL A   1      41.022  32.205  30.742  1.00  0.00     0.031 C 
ATOM     62  C   UNL A   1      46.365  31.449  27.966  1.00  0.00     0.029 A 
ATOM     63  C   UNL A   1      45.075  31.245  28.430  1.00  0.00     0.049 A 
ATOM     64  H   UNL A   1      43.859  29.529  28.266  1.00  0.00     0.167 HD
ATOM     65  C   UNL A   1      42.982  31.870  29.599  1.00  0.00     0.074 A 
ATOM     66  C   UNL A   1      42.167  32.773  30.386  1.00  0.00     0.031 C 
ATOM     67  C   UNL A   1      44.233  32.155  29.163  1.00  0.00     0.034 A 
BRANCH  54  68
ATOM     68  C   UNL A   1      46.993  27.487  26.200  1.00  0.00     0.023 A 
ATOM     69  C   UNL A   1      47.221  27.771  24.838  1.00  0.00     0.012 A 
ATOM     70  C   UNL A   1      47.961  26.766  26.927  1.00  0.00     0.148 A 
ATOM     71  C   UNL A   1      48.373  27.314  24.199  1.00  0.00     0.002 A 
ATOM     72  C   UNL A   1      49.128  26.353  26.294  1.00  0.00     0.091 A 
ATOM     73  F   UNL A   1      47.719  26.488  28.215  1.00  0.00    -0.205 F 
ATOM     74  C   UNL A   1      49.329  26.615  24.928  1.00  0.00     0.022 A 
BRANCH  72  75
ATOM     75  S   UNL A   1      50.459  25.516  27.164  1.00  0.00     0.127 S 
ATOM     76  O   UNL A   1      49.795  24.292  27.610  1.00  0.00    -0.237 OA
ATOM     77  O   UNL A   1      51.446  25.321  26.102  1.00  0.00    -0.237 OA
ATOM     78  O   UNL A   1      50.877  26.423  28.224  1.00  0.00    -0.744 OA
ENDBRANCH  72  75
ENDBRANCH  54  68
BRANCH  55  79
ATOM     79  C   UNL A   1      38.681  30.439  30.890  1.00  0.00     0.023 A 
ATOM     80  C   UNL A   1      38.577  30.161  32.267  1.00  0.00     0.012 A 
ATOM     81  C   UNL A   1      37.643  31.142  30.251  1.00  0.00     0.148 A 
ATOM     82  C   UNL A   1      37.446  30.547  32.988  1.00  0.00     0.002 A 
ATOM     83  C   UNL A   1      36.545  31.573  30.986  1.00  0.00     0.091 A 
ATOM     84  F   UNL A   1      37.755  31.388  28.937  1.00  0.00    -0.205 F 
ATOM     85  C   UNL A   1      36.435  31.262  32.350  1.00  0.00     0.022 A 
BRANCH  83  86
ATOM     86  S   UNL A   1      35.260  32.613  30.280  1.00  0.00     0.127 S 
ATOM     87  O   UNL A   1      34.824  31.815  29.138  1.00  0.00    -0.237 OA
ATOM     88  O   UNL A   1      34.298  32.695  31.380  1.00  0.00    -0.237 OA
ATOM     89  O   UNL A   1      35.912  33.876  29.960  1.00  0.00    -0.744 OA
ENDBRANCH  83  86
ENDBRANCH  55  79
BRANCH  67  90
ATOM     90  C   UNL A   1      44.797  33.512  29.492  1.00  0.00     0.023 A 
ATOM     91  C   UNL A   1      45.515  33.701  30.689  1.00  0.00     0.012 A 
ATOM     92  C   UNL A   1      44.691  34.575  28.573  1.00  0.00     0.148 A 
ATOM     93  C   UNL A   1      46.094  34.936  30.981  1.00  0.00     0.002 A 
ATOM     94  C   UNL A   1      45.313  35.787  28.848  1.00  0.00     0.091 A 
ATOM     95  F   UNL A   1      43.989  34.380  27.448  1.00  0.00    -0.205 F 
ATOM     96  C   UNL A   1      46.004  35.973  30.056  1.00  0.00     0.022 A 
BRANCH  94  97
ATOM     97  S   UNL A   1      45.332  37.148  27.675  1.00  0.00     0.127 S 
ATOM     98  O   UNL A   1      45.983  36.534  26.518  1.00  0.00    -0.237 OA
ATOM     99  O   UNL A   1      43.906  37.425  27.498  1.00  0.00    -0.237 OA
ATOM    100  O   UNL A   1      46.081  38.220  28.316  1.00  0.00    -0.744 OA
ENDBRANCH  94  97
ENDBRANCH  67  90
ENDBRANCH  41  42
ENDBRANCH  33  36
ENDBRANCH  31  32
ENDBRANCH   1  31
TORSDOF 17
ENDMDL
MODEL 2
REMARK VINA RESULT:     -13.0      4.882     10.296
REMARK SMILES CCOc1ccc(-c2cc(Cl)cc3c2O[C@H](C(F)(F)F)C(C(=O)NCCCNC(=O)c2ccc(-c4c5nc(c(-c6cccc(S(=O)(=O)[O-])c6F)c6ccc([nH]6)c(-c6cccc(S(=O)(=O)[O-])c6F)c6nc(c(-c7cccc(S(=O)(=O)[O-])c7F)c7ccc4[nH]7)C=C6)C=C5)cc2)=C3)cc1
REMARK SMILES IDX 26 1 25 2 24 3 22 4 23 5 21 7 8 8 9 9 14 10 10 11 13 12
REMARK SMILES IDX 15 13 11 14 12 15 94 16 16 17 7 18 4 19 5 20 96 21 6 22
REMARK SMILES IDX 95 23 3 24 2 25 1 26 17 27 18 28 19 29 20 30 27 31 28 32
REMARK SMILES IDX 29 33 30 35 31 36 32 37 93 38 33 39 92 40 34 41 35 42 36 43
REMARK SMILES IDX 86 44 37 45 91 46 85 47 87 48 38 49 90 50 84 51 83 52 39 54
REMARK SMILES IDX 71 55 51 56 70 57 52 58 55 59 69 60 88 61 53 62 54 63 68 65
REMARK SMILES IDX 89 66 56 67 40 68 41 69 49 70 42 71 44 72 50 73 43 74 45 75
REMARK SMILES IDX 46 76 47 77 48 78 72 79 73 80 81 81 74 82 76 83 82 84 75 85
REMARK SMILES IDX 77 86 78 87 79 88 80 89 57 90 58 91 66 92 59 93 61 94 67 95
REMARK SMILES IDX 60 96 62 97 63 98 64 99 65 100
REMARK H PARENT 24 6 28 34 87 53 55 64
REMARK Flexibility Score: inf
ROOT
ATOM      1  C   UNL A   1      31.924  29.680  25.282  1.00  0.00     0.042 C 
ENDROOT
BRANCH   1   2
ATOM      2  C   UNL A   1      33.160  29.116  24.578  1.00  0.00     0.118 C 
BRANCH   2   3
ATOM      3  N   UNL A   1      33.661  27.963  25.299  1.00  0.00    -0.352 N 
ATOM      4  C   UNL A   1      33.071  26.750  25.422  1.00  0.00     0.251 C 
ATOM      5  O   UNL A   1      33.166  26.129  26.475  1.00  0.00    -0.270 OA
ATOM      6  H   UNL A   1      34.529  28.075  25.751  1.00  0.00     0.163 HD
BRANCH   4   7
ATOM      7  C   UNL A   1      32.455  26.158  24.197  1.00  0.00     0.067 C 
ATOM      8  C   UNL A   1      33.611  22.282  24.680  1.00  0.00     0.026 A 
ATOM      9  C   UNL A   1      34.983  22.271  25.032  1.00  0.00     0.033 A 
ATOM     10  C   UNL A   1      33.096  23.495  24.194  1.00  0.00     0.135 A 
ATOM     11  C   UNL A   1      35.828  23.348  24.764  1.00  0.00     0.042 A 
ATOM     12  C   UNL A   1      33.985  24.532  23.826  1.00  0.00     0.019 A 
ATOM     13  O   UNL A   1      31.737  23.742  24.088  1.00  0.00    -0.475 OA
ATOM     14  Cl  UNL A   1      37.483  23.267  25.223  1.00  0.00    -0.084 Cl
ATOM     15  C   UNL A   1      35.348  24.461  24.097  1.00  0.00     0.032 A 
ATOM     16  C   UNL A   1      33.396  25.786  23.304  1.00  0.00     0.025 C 
ATOM     17  C   UNL A   1      31.360  25.132  24.476  1.00  0.00     0.314 C 
BRANCH   8  18
ATOM     18  C   UNL A   1      32.948  20.955  24.646  1.00  0.00    -0.014 A 
ATOM     19  C   UNL A   1      32.587  18.184  24.214  1.00  0.00     0.119 A 
ATOM     20  C   UNL A   1      32.937  18.650  25.477  1.00  0.00     0.047 A 
ATOM     21  C   UNL A   1      32.287  19.094  23.205  1.00  0.00     0.047 A 
ATOM     22  C   UNL A   1      33.109  20.026  25.693  1.00  0.00     0.013 A 
ATOM     23  C   UNL A   1      32.462  20.467  23.421  1.00  0.00     0.013 A 
BRANCH  19  24
ATOM     24  O   UNL A   1      32.474  16.834  24.033  1.00  0.00    -0.494 OA
BRANCH  24  25
ATOM     25  C   UNL A   1      33.322  16.057  24.893  1.00  0.00     0.226 C 
ATOM     26  C   UNL A   1      32.543  14.942  25.575  1.00  0.00     0.049 C 
ENDBRANCH  24  25
ENDBRANCH  19  24
ENDBRANCH   8  18
BRANCH  17  27
ATOM     27  C   UNL A   1      30.065  25.581  23.764  1.00  0.00     0.429 C 
ATOM     28  F   UNL A   1      30.240  26.704  23.027  1.00  0.00    -0.167 F 
ATOM     29  F   UNL A   1      29.598  24.618  22.935  1.00  0.00    -0.167 F 
ATOM     30  F   UNL A   1      29.059  25.854  24.637  1.00  0.00    -0.167 F 
ENDBRANCH  17  27
ENDBRANCH   4   7
ENDBRANCH   2   3
ENDBRANCH   1   2
BRANCH   1  31
ATOM     31  C   UNL A   1      32.170  30.184  26.704  1.00  0.00     0.118 C 
BRANCH  31  32
ATOM     32  N   UNL A   1      32.197  31.636  26.804  1.00  0.00    -0.352 N 
ATOM     33  C   UNL A   1      33.146  32.441  27.387  1.00  0.00     0.251 C 
ATOM     34  H   UNL A   1      31.431  32.105  26.399  1.00  0.00     0.163 HD
ATOM     35  O   UNL A   1      32.946  33.648  27.499  1.00  0.00    -0.269 OA
BRANCH  33  36
ATOM     36  C   UNL A   1      34.394  31.841  27.905  1.00  0.00     0.039 A 
ATOM     37  C   UNL A   1      35.522  32.650  28.060  1.00  0.00     0.014 A 
ATOM     38  C   UNL A   1      34.436  30.493  28.270  1.00  0.00     0.014 A 
ATOM     39  C   UNL A   1      36.671  32.125  28.653  1.00  0.00     0.010 A 
ATOM     40  C   UNL A   1      35.556  29.994  28.929  1.00  0.00     0.010 A 
ATOM     41  C   UNL A   1      36.685  30.803  29.131  1.00  0.00    -0.014 A 
BRANCH  41  42
ATOM     42  C   UNL A   1      37.854  30.254  29.866  1.00  0.00     0.031 A 
ATOM     43  C   UNL A   1      38.151  30.712  31.269  1.00  0.00     0.074 A 
ATOM     44  C   UNL A   1      38.708  29.423  29.235  1.00  0.00     0.049 A 
ATOM     45  N   UNL A   1      39.169  30.417  32.035  1.00  0.00    -0.248 NA
ATOM     46  C   UNL A   1      37.194  31.648  31.881  1.00  0.00     0.031 C 
ATOM     47  C   UNL A   1      38.577  28.968  27.848  1.00  0.00     0.029 A 
ATOM     48  N   UNL A   1      39.873  28.839  29.665  1.00  0.00    -0.354 N 
ATOM     49  C   UNL A   1      39.000  31.160  33.197  1.00  0.00     0.074 A 
ATOM     50  C   UNL A   1      37.797  31.945  33.024  1.00  0.00     0.031 C 
ATOM     51  C   UNL A   1      39.617  28.175  27.545  1.00  0.00     0.029 A 
ATOM     52  C   UNL A   1      40.506  28.090  28.699  1.00  0.00     0.049 A 
ATOM     53  H   UNL A   1      40.224  28.944  30.580  1.00  0.00     0.167 HD
ATOM     54  C   UNL A   1      39.757  31.167  34.319  1.00  0.00     0.034 A 
ATOM     55  C   UNL A   1      41.675  27.420  28.733  1.00  0.00     0.034 A 
ATOM     56  C   UNL A   1      40.923  30.347  34.509  1.00  0.00     0.049 A 
ATOM     57  C   UNL A   1      42.475  27.410  30.008  1.00  0.00     0.074 A 
ATOM     58  C   UNL A   1      41.702  30.210  35.644  1.00  0.00     0.029 A 
ATOM     59  N   UNL A   1      41.481  29.528  33.539  1.00  0.00    -0.354 N 
ATOM     60  N   UNL A   1      42.210  27.991  31.152  1.00  0.00    -0.248 NA
ATOM     61  C   UNL A   1      43.717  26.622  30.008  1.00  0.00     0.031 C 
ATOM     62  C   UNL A   1      42.744  29.324  35.354  1.00  0.00     0.029 A 
ATOM     63  C   UNL A   1      42.600  28.890  34.046  1.00  0.00     0.049 A 
ATOM     64  H   UNL A   1      41.133  29.418  32.625  1.00  0.00     0.167 HD
ATOM     65  C   UNL A   1      43.231  27.614  32.018  1.00  0.00     0.074 A 
ATOM     66  C   UNL A   1      44.108  26.736  31.271  1.00  0.00     0.031 C 
ATOM     67  C   UNL A   1      43.432  27.974  33.309  1.00  0.00     0.034 A 
BRANCH  54  68
ATOM     68  C   UNL A   1      39.314  32.050  35.458  1.00  0.00     0.023 A 
ATOM     69  C   UNL A   1      38.436  31.534  36.433  1.00  0.00     0.012 A 
ATOM     70  C   UNL A   1      39.807  33.361  35.597  1.00  0.00     0.148 A 
ATOM     71  C   UNL A   1      38.025  32.322  37.508  1.00  0.00     0.002 A 
ATOM     72  C   UNL A   1      39.428  34.125  36.695  1.00  0.00     0.091 A 
ATOM     73  F   UNL A   1      40.625  33.842  34.649  1.00  0.00    -0.205 F 
ATOM     74  C   UNL A   1      38.528  33.612  37.644  1.00  0.00     0.022 A 
BRANCH  72  75
ATOM     75  S   UNL A   1      40.082  35.769  37.005  1.00  0.00     0.127 S 
ATOM     76  O   UNL A   1      39.650  36.489  35.809  1.00  0.00    -0.237 OA
ATOM     77  O   UNL A   1      39.384  36.153  38.233  1.00  0.00    -0.237 OA
ATOM     78  O   UNL A   1      41.523  35.607  37.150  1.00  0.00    -0.744 OA
ENDBRANCH  72  75
ENDBRANCH  54  68
BRANCH  55  79
ATOM     79  C   UNL A   1      42.126  26.646  27.541  1.00  0.00     0.023 A 
ATOM     80  C   UNL A   1      42.840  27.305  26.521  1.00  0.00     0.012 A 
ATOM     81  C   UNL A   1      41.878  25.265  27.423  1.00  0.00     0.148 A 
ATOM     82  C   UNL A   1      43.272  26.610  25.391  1.00  0.00     0.002 A 
ATOM     83  C   UNL A   1      42.360  24.567  26.322  1.00  0.00     0.091 A 
ATOM     84  F   UNL A   1      41.187  24.657  28.398  1.00  0.00    -0.205 F 
ATOM     85  C   UNL A   1      43.042  25.240  25.296  1.00  0.00     0.022 A 
BRANCH  83  86
ATOM     86  S   UNL A   1      42.227  22.780  26.179  1.00  0.00     0.127 S 
ATOM     87  O   UNL A   1      42.994  22.331  27.337  1.00  0.00    -0.237 OA
ATOM     88  O   UNL A   1      40.781  22.576  26.277  1.00  0.00    -0.237 OA
ATOM     89  O   UNL A   1      42.791  22.449  24.877  1.00  0.00    -0.744 OA
ENDBRANCH  83  86
ENDBRANCH  55  79
BRANCH  67  90
ATOM     90  C   UNL A   1      44.627  27.395  34.021  1.00  0.00     0.023 A 
ATOM     91  C   UNL A   1      45.864  28.067  33.972  1.00  0.00     0.012 A 
ATOM     92  C   UNL A   1      44.500  26.233  34.807  1.00  0.00     0.148 A 
ATOM     93  C   UNL A   1      46.965  27.576  34.673  1.00  0.00     0.002 A 
ATOM     94  C   UNL A   1      45.588  25.778  35.542  1.00  0.00     0.091 A 
ATOM     95  F   UNL A   1      43.319  25.598  34.825  1.00  0.00    -0.205 F 
ATOM     96  C   UNL A   1      46.824  26.440  35.467  1.00  0.00     0.022 A 
BRANCH  94  97
ATOM     97  S   UNL A   1      45.474  24.381  36.666  1.00  0.00     0.127 S 
ATOM     98  O   UNL A   1      44.370  24.787  37.535  1.00  0.00    -0.237 OA
ATOM     99  O   UNL A   1      45.162  23.276  35.758  1.00  0.00    -0.237 OA
ATOM    100  O   UNL A   1      46.775  24.280  37.315  1.00  0.00    -0.744 OA
ENDBRANCH  94  97
ENDBRANCH  67  90
ENDBRANCH  41  42
ENDBRANCH  33  36
ENDBRANCH  31  32
ENDBRANCH   1  31
TORSDOF 17
ENDMDL
MODEL 3
REMARK VINA RESULT:     -12.4      4.784     10.013
REMARK SMILES CCOc1ccc(-c2cc(Cl)cc3c2O[C@H](C(F)(F)F)C(C(=O)NCCCNC(=O)c2ccc(-c4c5nc(c(-c6cccc(S(=O)(=O)[O-])c6F)c6ccc([nH]6)c(-c6cccc(S(=O)(=O)[O-])c6F)c6nc(c(-c7cccc(S(=O)(=O)[O-])c7F)c7ccc4[nH]7)C=C6)C=C5)cc2)=C3)cc1
REMARK SMILES IDX 26 1 25 2 24 3 22 4 23 5 21 7 8 8 9 9 14 10 10 11 13 12
REMARK SMILES IDX 15 13 11 14 12 15 94 16 16 17 7 18 4 19 5 20 96 21 6 22
REMARK SMILES IDX 95 23 3 24 2 25 1 26 17 27 18 28 19 29 20 30 27 31 28 32
REMARK SMILES IDX 29 33 30 35 31 36 32 37 93 38 33 39 92 40 34 41 35 42 36 43
REMARK SMILES IDX 86 44 37 45 91 46 85 47 87 48 38 49 90 50 84 51 83 52 39 54
REMARK SMILES IDX 71 55 51 56 70 57 52 58 55 59 69 60 88 61 53 62 54 63 68 65
REMARK SMILES IDX 89 66 56 67 40 68 41 69 49 70 42 71 44 72 50 73 43 74 45 75
REMARK SMILES IDX 46 76 47 77 48 78 72 79 73 80 81 81 74 82 76 83 82 84 75 85
REMARK SMILES IDX 77 86 78 87 79 88 80 89 57 90 58 91 66 92 59 93 61 94 67 95
REMARK SMILES IDX 60 96 62 97 63 98 64 99 65 100
REMARK H PARENT 24 6 28 34 87 53 55 64
REMARK Flexibility Score: inf
ROOT
ATOM      1  C   UNL A   1      32.226  29.732  25.181  1.00  0.00     0.042 C 
ENDROOT
BRANCH   1   2
ATOM      2  C   UNL A   1      33.204  29.013  24.249  1.00  0.00     0.118 C 
BRANCH   2   3
ATOM      3  N   UNL A   1      33.847  27.918  24.949  1.00  0.00    -0.352 N 
ATOM      4  C   UNL A   1      33.371  26.662  25.125  1.00  0.00     0.251 C 
ATOM      5  O   UNL A   1      33.586  26.071  26.178  1.00  0.00    -0.270 OA
ATOM      6  H   UNL A   1      34.730  28.110  25.340  1.00  0.00     0.163 HD
BRANCH   4   7
ATOM      7  C   UNL A   1      32.728  26.000  23.952  1.00  0.00     0.067 C 
ATOM      8  C   UNL A   1      33.706  22.128  24.759  1.00  0.00     0.026 A 
ATOM      9  C   UNL A   1      35.076  22.085  25.116  1.00  0.00     0.033 A 
ATOM     10  C   UNL A   1      33.247  23.319  24.173  1.00  0.00     0.135 A 
ATOM     11  C   UNL A   1      35.970  23.096  24.762  1.00  0.00     0.042 A 
ATOM     12  C   UNL A   1      34.182  24.281  23.722  1.00  0.00     0.019 A 
ATOM     13  O   UNL A   1      31.900  23.618  24.042  1.00  0.00    -0.475 OA
ATOM     14  Cl  UNL A   1      37.619  22.979  25.232  1.00  0.00    -0.084 Cl
ATOM     15  C   UNL A   1      35.541  24.170  24.004  1.00  0.00     0.032 A 
ATOM     16  C   UNL A   1      33.651  25.512  23.096  1.00  0.00     0.025 C 
ATOM     17  C   UNL A   1      31.587  25.051  24.312  1.00  0.00     0.314 C 
BRANCH   8  18
ATOM     18  C   UNL A   1      32.983  20.835  24.834  1.00  0.00    -0.014 A 
ATOM     19  C   UNL A   1      32.497  18.057  24.635  1.00  0.00     0.119 A 
ATOM     20  C   UNL A   1      32.865  18.612  25.857  1.00  0.00     0.047 A 
ATOM     21  C   UNL A   1      32.242  18.890  23.551  1.00  0.00     0.047 A 
ATOM     22  C   UNL A   1      33.099  19.991  25.957  1.00  0.00     0.013 A 
ATOM     23  C   UNL A   1      32.479  20.267  23.651  1.00  0.00     0.013 A 
BRANCH  19  24
ATOM     24  O   UNL A   1      32.324  16.702  24.568  1.00  0.00    -0.494 OA
BRANCH  24  25
ATOM     25  C   UNL A   1      33.543  15.965  24.388  1.00  0.00     0.226 C 
ATOM     26  C   UNL A   1      34.373  16.544  23.252  1.00  0.00     0.049 C 
ENDBRANCH  24  25
ENDBRANCH  19  24
ENDBRANCH   8  18
BRANCH  17  27
ATOM     27  C   UNL A   1      30.314  25.497  23.560  1.00  0.00     0.429 C 
ATOM     28  F   UNL A   1      29.652  24.458  22.998  1.00  0.00    -0.167 F 
ATOM     29  F   UNL A   1      29.450  26.133  24.385  1.00  0.00    -0.167 F 
ATOM     30  F   UNL A   1      30.584  26.365  22.548  1.00  0.00    -0.167 F 
ENDBRANCH  17  27
ENDBRANCH   4   7
ENDBRANCH   2   3
ENDBRANCH   1   2
BRANCH   1  31
ATOM     31  C   UNL A   1      32.785  30.060  26.566  1.00  0.00     0.118 C 
BRANCH  31  32
ATOM     32  N   UNL A   1      32.749  31.482  26.878  1.00  0.00    -0.352 N 
ATOM     33  C   UNL A   1      33.648  32.226  27.604  1.00  0.00     0.251 C 
ATOM     34  H   UNL A   1      31.977  31.977  26.520  1.00  0.00     0.163 HD
ATOM     35  O   UNL A   1      33.395  33.395  27.885  1.00  0.00    -0.269 OA
BRANCH  33  36
ATOM     36  C   UNL A   1      34.904  31.602  28.070  1.00  0.00     0.039 A 
ATOM     37  C   UNL A   1      36.060  32.382  28.147  1.00  0.00     0.014 A 
ATOM     38  C   UNL A   1      34.929  30.261  28.463  1.00  0.00     0.014 A 
ATOM     39  C   UNL A   1      37.225  31.837  28.691  1.00  0.00     0.010 A 
ATOM     40  C   UNL A   1      36.069  29.745  29.073  1.00  0.00     0.010 A 
ATOM     41  C   UNL A   1      37.228  30.526  29.198  1.00  0.00    -0.014 A 
BRANCH  41  42
ATOM     42  C   UNL A   1      38.419  29.960  29.883  1.00  0.00     0.031 A 
ATOM     43  C   UNL A   1      38.798  30.434  31.261  1.00  0.00     0.074 A 
ATOM     44  C   UNL A   1      39.220  29.098  29.226  1.00  0.00     0.049 A 
ATOM     45  N   UNL A   1      39.845  30.126  31.980  1.00  0.00    -0.248 NA
ATOM     46  C   UNL A   1      37.896  31.404  31.903  1.00  0.00     0.031 C 
ATOM     47  C   UNL A   1      39.008  28.623  27.856  1.00  0.00     0.029 A 
ATOM     48  N   UNL A   1      40.391  28.491  29.607  1.00  0.00    -0.354 N 
ATOM     49  C   UNL A   1      39.754  30.893  33.135  1.00  0.00     0.074 A 
ATOM     50  C   UNL A   1      38.563  31.705  33.009  1.00  0.00     0.031 C 
ATOM     51  C   UNL A   1      40.011  27.798  27.515  1.00  0.00     0.029 A 
ATOM     52  C   UNL A   1      40.955  27.710  28.624  1.00  0.00     0.049 A 
ATOM     53  H   UNL A   1      40.789  28.603  30.501  1.00  0.00     0.167 HD
ATOM     54  C   UNL A   1      40.566  30.899  34.218  1.00  0.00     0.034 A 
ATOM     55  C   UNL A   1      42.107  27.011  28.611  1.00  0.00     0.034 A 
ATOM     56  C   UNL A   1      41.720  30.053  34.364  1.00  0.00     0.049 A 
ATOM     57  C   UNL A   1      42.970  27.002  29.845  1.00  0.00     0.074 A 
ATOM     58  C   UNL A   1      42.552  29.915  35.461  1.00  0.00     0.029 A 
ATOM     59  N   UNL A   1      42.208  29.205  33.382  1.00  0.00    -0.354 N 
ATOM     60  N   UNL A   1      42.778  27.610  30.990  1.00  0.00    -0.248 NA
ATOM     61  C   UNL A   1      44.191  26.184  29.797  1.00  0.00     0.031 C 
ATOM     62  C   UNL A   1      43.556  28.998  35.136  1.00  0.00     0.029 A 
ATOM     63  C   UNL A   1      43.336  28.547  33.844  1.00  0.00     0.049 A 
ATOM     64  H   UNL A   1      41.812  29.088  32.489  1.00  0.00     0.167 HD
ATOM     65  C   UNL A   1      43.832  27.221  31.811  1.00  0.00     0.074 A 
ATOM     66  C   UNL A   1      44.648  26.308  31.036  1.00  0.00     0.031 C 
ATOM     67  C   UNL A   1      44.107  27.598  33.083  1.00  0.00     0.034 A 
BRANCH  54  68
ATOM     68  C   UNL A   1      40.203  31.812  35.362  1.00  0.00     0.023 A 
ATOM     69  C   UNL A   1      40.830  33.070  35.471  1.00  0.00     0.012 A 
ATOM     70  C   UNL A   1      39.206  31.455  36.289  1.00  0.00     0.148 A 
ATOM     71  C   UNL A   1      40.499  33.943  36.507  1.00  0.00     0.002 A 
ATOM     72  C   UNL A   1      38.849  32.348  37.293  1.00  0.00     0.091 A 
ATOM     73  F   UNL A   1      38.634  30.247  36.182  1.00  0.00    -0.205 F 
ATOM     74  C   UNL A   1      39.503  33.586  37.410  1.00  0.00     0.022 A 
BRANCH  72  75
ATOM     75  S   UNL A   1      37.522  32.019  38.459  1.00  0.00     0.127 S 
ATOM     76  O   UNL A   1      38.170  32.317  39.735  1.00  0.00    -0.237 OA
ATOM     77  O   UNL A   1      36.506  32.989  38.050  1.00  0.00    -0.237 OA
ATOM     78  O   UNL A   1      37.148  30.626  38.258  1.00  0.00    -0.744 OA
ENDBRANCH  72  75
ENDBRANCH  54  68
BRANCH  55  79
ATOM     79  C   UNL A   1      42.478  26.206  27.412  1.00  0.00     0.023 A 
ATOM     80  C   UNL A   1      43.203  26.817  26.370  1.00  0.00     0.012 A 
ATOM     81  C   UNL A   1      42.145  24.842  27.310  1.00  0.00     0.148 A 
ATOM     82  C   UNL A   1      43.562  26.092  25.233  1.00  0.00     0.002 A 
ATOM     83  C   UNL A   1      42.555  24.112  26.200  1.00  0.00     0.091 A 
ATOM     84  F   UNL A   1      41.446  24.281  28.307  1.00  0.00    -0.205 F 
ATOM     85  C   UNL A   1      43.247  24.738  25.153  1.00  0.00     0.022 A 
BRANCH  83  86
ATOM     86  S   UNL A   1      42.311  22.336  26.073  1.00  0.00     0.127 S 
ATOM     87  O   UNL A   1      43.076  22.015  24.871  1.00  0.00    -0.237 OA
ATOM     88  O   UNL A   1      42.900  21.859  27.325  1.00  0.00    -0.237 OA
ATOM     89  O   UNL A   1      40.870  22.145  25.978  1.00  0.00    -0.744 OA
ENDBRANCH  83  86
ENDBRANCH  55  79
BRANCH  67  90
ATOM     90  C   UNL A   1      45.321  27.001  33.744  1.00  0.00     0.023 A 
ATOM     91  C   UNL A   1      45.207  25.792  34.458  1.00  0.00     0.012 A 
ATOM     92  C   UNL A   1      46.589  27.593  33.584  1.00  0.00     0.148 A 
ATOM     93  C   UNL A   1      46.332  25.195  35.026  1.00  0.00     0.002 A 
ATOM     94  C   UNL A   1      47.713  26.967  34.111  1.00  0.00     0.091 A 
ATOM     95  F   UNL A   1      46.674  28.753  32.917  1.00  0.00    -0.205 F 
ATOM     96  C   UNL A   1      47.585  25.775  34.842  1.00  0.00     0.022 A 
BRANCH  94  97
ATOM     97  S   UNL A   1      49.377  27.589  33.842  1.00  0.00     0.127 S 
ATOM     98  O   UNL A   1      49.461  27.593  32.382  1.00  0.00    -0.237 OA
ATOM     99  O   UNL A   1      49.315  28.917  34.454  1.00  0.00    -0.237 OA
ATOM    100  O   UNL A   1      50.269  26.655  34.516  1.00  0.00    -0.744 OA
ENDBRANCH  94  97
ENDBRANCH  67  90
ENDBRANCH  41  42
ENDBRANCH  33  36
ENDBRANCH  31  32
ENDBRANCH   1  31
TORSDOF 17
ENDMDL
