MODEL 1
REMARK VINA RESULT:     -11.4      0.000      0.000
REMARK SMILES CC(C)(CNC(=O)[C@H]1CCC[C@H](C(=O)NCCCNC(=O)c2ccc(-c3c4nc(c(-c5cccc(S(=O)(=O)[O-])c5F)c5ccc([nH]5)c(-c5cccc(S(=O)(=O)[O-])c5F)c5nc(c(-c6cccc(S(=O)(=O)[O-])c6F)c6ccc3[nH]6)C=C5)C=C4)cc2)C1)S(C)(=O)=O
REMARK SMILES IDX 16 1 15 2 13 3 14 4 12 6 8 7 9 8 85 9 10 10 11 11 6 12 5 13
REMARK SMILES IDX 7 15 4 16 2 17 1 18 3 19 86 20 87 21 88 22 89 23 17 24 18 25
REMARK SMILES IDX 19 26 20 27 21 29 22 30 23 31 84 32 24 33 83 34 25 35 26 36
REMARK SMILES IDX 27 37 77 38 28 39 82 40 76 41 78 42 29 43 81 44 75 45 74 46
REMARK SMILES IDX 30 48 62 49 42 50 61 51 43 52 46 53 60 54 79 55 44 56 45 57
REMARK SMILES IDX 59 59 80 60 47 61 31 62 32 63 40 64 33 65 35 66 41 67 34 68
REMARK SMILES IDX 36 69 37 70 38 71 39 72 63 73 64 74 72 75 65 76 67 77 73 78
REMARK SMILES IDX 66 79 68 80 69 81 70 82 71 83 48 84 49 85 57 86 50 87 52 88
REMARK SMILES IDX 58 89 51 90 53 91 54 92 55 93 56 94
REMARK H PARENT 15 5 5 14 19 28 78 47 46 58
REMARK Flexibility Score: inf
ROOT
ATOM      1  C   UNL A   1      36.506  20.402  24.988  1.00  0.00     0.117 C 
ENDROOT
BRANCH   1   2
ATOM      2  N   UNL A   1      35.362  19.519  24.826  1.00  0.00    -0.356 N 
ATOM      3  C   UNL A   1      34.031  19.748  24.993  1.00  0.00     0.223 C 
ATOM      4  O   UNL A   1      33.248  18.822  24.765  1.00  0.00    -0.275 OA
ATOM      5  H   UNL A   1      35.589  18.602  24.548  1.00  0.00     0.163 HD
BRANCH   3   6
ATOM      6  C   UNL A   1      33.510  21.113  25.427  1.00  0.00     0.079 C 
ATOM      7  C   UNL A   1      33.600  23.621  24.798  1.00  0.00     0.079 C 
ATOM      8  C   UNL A   1      34.112  23.882  26.218  1.00  0.00     0.013 C 
ATOM      9  C   UNL A   1      33.814  22.174  24.359  1.00  0.00     0.027 C 
ATOM     10  C   UNL A   1      33.615  22.878  27.251  1.00  0.00     0.002 C 
ATOM     11  C   UNL A   1      33.948  21.451  26.853  1.00  0.00     0.013 C 
BRANCH   7  12
ATOM     12  C   UNL A   1      32.142  24.030  24.600  1.00  0.00     0.223 C 
ATOM     13  N   UNL A   1      31.842  25.319  24.254  1.00  0.00    -0.354 N 
ATOM     14  H   UNL A   1      30.901  25.485  24.014  1.00  0.00     0.163 HD
ATOM     15  O   UNL A   1      31.204  23.239  24.686  1.00  0.00    -0.275 OA
BRANCH  13  16
ATOM     16  C   UNL A   1      32.717  26.480  24.191  1.00  0.00     0.138 C 
BRANCH  16  17
ATOM     17  C   UNL A   1      32.020  27.840  23.976  1.00  0.00     0.084 C 
ATOM     18  C   UNL A   1      31.643  28.527  25.295  1.00  0.00     0.030 C 
ATOM     19  C   UNL A   1      33.019  28.748  23.221  1.00  0.00     0.030 C 
BRANCH  17  20
ATOM     20  S   UNL A   1      30.553  27.666  22.901  1.00  0.00     0.154 S 
ATOM     21  C   UNL A   1      30.111  29.298  22.332  1.00  0.00     0.158 C 
ATOM     22  O   UNL A   1      30.966  26.924  21.719  1.00  0.00    -0.229 OA
ATOM     23  O   UNL A   1      29.466  27.161  23.713  1.00  0.00    -0.229 OA
ENDBRANCH  17  20
ENDBRANCH  16  17
ENDBRANCH  13  16
ENDBRANCH   7  12
ENDBRANCH   3   6
ENDBRANCH   1   2
BRANCH   1  24
ATOM     24  C   UNL A   1      37.827  19.653  24.988  1.00  0.00     0.042 C 
BRANCH  24  25
ATOM     25  C   UNL A   1      38.944  20.404  25.685  1.00  0.00     0.118 C 
BRANCH  25  26
ATOM     26  N   UNL A   1      40.071  19.542  26.015  1.00  0.00    -0.352 N 
ATOM     27  C   UNL A   1      41.352  19.872  26.385  1.00  0.00     0.251 C 
ATOM     28  H   UNL A   1      39.886  18.576  25.967  1.00  0.00     0.163 HD
ATOM     29  O   UNL A   1      42.216  19.001  26.414  1.00  0.00    -0.269 OA
BRANCH  27  30
ATOM     30  C   UNL A   1      41.687  21.269  26.733  1.00  0.00     0.039 A 
ATOM     31  C   UNL A   1      41.818  22.215  25.714  1.00  0.00     0.014 A 
ATOM     32  C   UNL A   1      41.893  21.644  28.063  1.00  0.00     0.014 A 
ATOM     33  C   UNL A   1      42.119  23.540  26.035  1.00  0.00     0.010 A 
ATOM     34  C   UNL A   1      42.065  22.981  28.388  1.00  0.00     0.010 A 
ATOM     35  C   UNL A   1      42.227  23.937  27.377  1.00  0.00    -0.014 A 
BRANCH  35  36
ATOM     36  C   UNL A   1      42.575  25.330  27.752  1.00  0.00     0.031 A 
ATOM     37  C   UNL A   1      43.998  25.808  27.603  1.00  0.00     0.074 A 
ATOM     38  C   UNL A   1      41.641  26.137  28.287  1.00  0.00     0.049 A 
ATOM     39  N   UNL A   1      44.513  26.971  27.902  1.00  0.00    -0.248 NA
ATOM     40  C   UNL A   1      44.977  24.837  27.086  1.00  0.00     0.031 C 
ATOM     41  C   UNL A   1      40.249  25.767  28.548  1.00  0.00     0.029 A 
ATOM     42  N   UNL A   1      41.727  27.436  28.719  1.00  0.00    -0.354 N 
ATOM     43  C   UNL A   1      45.875  26.857  27.649  1.00  0.00     0.074 A 
ATOM     44  C   UNL A   1      46.116  25.495  27.234  1.00  0.00     0.031 C 
ATOM     45  C   UNL A   1      39.603  26.825  29.065  1.00  0.00     0.029 A 
ATOM     46  C   UNL A   1      40.541  27.935  29.201  1.00  0.00     0.049 A 
ATOM     47  H   UNL A   1      42.558  27.961  28.686  1.00  0.00     0.167 HD
ATOM     48  C   UNL A   1      46.839  27.808  27.714  1.00  0.00     0.034 A 
ATOM     49  C   UNL A   1      40.243  29.155  29.688  1.00  0.00     0.034 A 
ATOM     50  C   UNL A   1      46.586  29.172  28.089  1.00  0.00     0.049 A 
ATOM     51  C   UNL A   1      41.319  30.207  29.727  1.00  0.00     0.074 A 
ATOM     52  C   UNL A   1      47.466  30.237  28.117  1.00  0.00     0.029 A 
ATOM     53  N   UNL A   1      45.356  29.656  28.512  1.00  0.00    -0.354 N 
ATOM     54  N   UNL A   1      42.572  30.122  29.348  1.00  0.00    -0.248 NA
ATOM     55  C   UNL A   1      40.928  31.533  30.221  1.00  0.00     0.031 C 
ATOM     56  C   UNL A   1      46.776  31.360  28.588  1.00  0.00     0.029 A 
ATOM     57  C   UNL A   1      45.455  31.004  28.812  1.00  0.00     0.049 A 
ATOM     58  H   UNL A   1      44.534  29.120  28.589  1.00  0.00     0.167 HD
ATOM     59  C   UNL A   1      43.105  31.396  29.509  1.00  0.00     0.074 A 
ATOM     60  C   UNL A   1      42.036  32.233  30.013  1.00  0.00     0.031 C 
ATOM     61  C   UNL A   1      44.366  31.833  29.264  1.00  0.00     0.034 A 
BRANCH  48  62
ATOM     62  C   UNL A   1      48.240  27.398  27.332  1.00  0.00     0.023 A 
ATOM     63  C   UNL A   1      49.090  26.817  28.297  1.00  0.00     0.012 A 
ATOM     64  C   UNL A   1      48.720  27.589  26.022  1.00  0.00     0.148 A 
ATOM     65  C   UNL A   1      50.410  26.495  27.986  1.00  0.00     0.002 A 
ATOM     66  C   UNL A   1      50.021  27.214  25.704  1.00  0.00     0.091 A 
ATOM     67  F   UNL A   1      47.911  28.161  25.118  1.00  0.00    -0.205 F 
ATOM     68  C   UNL A   1      50.872  26.686  26.688  1.00  0.00     0.022 A 
BRANCH  66  69
ATOM     69  S   UNL A   1      50.679  27.337  24.037  1.00  0.00     0.127 S 
ATOM     70  O   UNL A   1      49.619  26.707  23.253  1.00  0.00    -0.237 OA
ATOM     71  O   UNL A   1      50.794  28.784  23.857  1.00  0.00    -0.237 OA
ATOM     72  O   UNL A   1      51.952  26.628  24.059  1.00  0.00    -0.744 OA
ENDBRANCH  66  69
ENDBRANCH  48  62
BRANCH  49  73
ATOM     73  C   UNL A   1      38.839  29.478  30.071  1.00  0.00     0.023 A 
ATOM     74  C   UNL A   1      38.411  29.205  31.386  1.00  0.00     0.012 A 
ATOM     75  C   UNL A   1      37.946  30.083  29.169  1.00  0.00     0.148 A 
ATOM     76  C   UNL A   1      37.109  29.502  31.787  1.00  0.00     0.002 A 
ATOM     77  C   UNL A   1      36.665  30.424  29.590  1.00  0.00     0.091 A 
ATOM     78  F   UNL A   1      38.374  30.334  27.924  1.00  0.00    -0.205 F 
ATOM     79  C   UNL A   1      36.239  30.120  30.892  1.00  0.00     0.022 A 
BRANCH  77  80
ATOM     80  S   UNL A   1      35.511  31.328  28.552  1.00  0.00     0.127 S 
ATOM     81  O   UNL A   1      34.966  30.264  27.712  1.00  0.00    -0.237 OA
ATOM     82  O   UNL A   1      34.581  31.870  29.543  1.00  0.00    -0.237 OA
ATOM     83  O   UNL A   1      36.305  32.331  27.856  1.00  0.00    -0.744 OA
ENDBRANCH  77  80
ENDBRANCH  49  73
BRANCH  61  84
ATOM     84  C   UNL A   1      44.650  33.298  29.475  1.00  0.00     0.023 A 
ATOM     85  C   UNL A   1      45.120  33.760  30.720  1.00  0.00     0.012 A 
ATOM     86  C   UNL A   1      44.513  34.208  28.406  1.00  0.00     0.148 A 
ATOM     87  C   UNL A   1      45.408  35.111  30.909  1.00  0.00     0.002 A 
ATOM     88  C   UNL A   1      44.856  35.541  28.587  1.00  0.00     0.091 A 
ATOM     89  F   UNL A   1      44.046  33.752  27.235  1.00  0.00    -0.205 F 
ATOM     90  C   UNL A   1      45.289  35.998  29.842  1.00  0.00     0.022 A 
BRANCH  88  91
ATOM     91  S   UNL A   1      44.834  36.729  27.240  1.00  0.00     0.127 S 
ATOM     92  O   UNL A   1      45.253  37.955  27.917  1.00  0.00    -0.237 OA
ATOM     93  O   UNL A   1      45.824  36.172  26.319  1.00  0.00    -0.237 OA
ATOM     94  O   UNL A   1      43.468  36.731  26.730  1.00  0.00    -0.744 OA
ENDBRANCH  88  91
ENDBRANCH  61  84
ENDBRANCH  35  36
ENDBRANCH  27  30
ENDBRANCH  25  26
ENDBRANCH  24  25
ENDBRANCH   1  24
TORSDOF 17
ENDMDL
MODEL 2
REMARK VINA RESULT:     -11.3      5.301     10.693
REMARK SMILES CC(C)(CNC(=O)[C@H]1CCC[C@H](C(=O)NCCCNC(=O)c2ccc(-c3c4nc(c(-c5cccc(S(=O)(=O)[O-])c5F)c5ccc([nH]5)c(-c5cccc(S(=O)(=O)[O-])c5F)c5nc(c(-c6cccc(S(=O)(=O)[O-])c6F)c6ccc3[nH]6)C=C5)C=C4)cc2)C1)S(C)(=O)=O
REMARK SMILES IDX 16 1 15 2 13 3 14 4 12 6 8 7 9 8 85 9 10 10 11 11 6 12 5 13
REMARK SMILES IDX 7 15 4 16 2 17 1 18 3 19 86 20 87 21 88 22 89 23 17 24 18 25
REMARK SMILES IDX 19 26 20 27 21 29 22 30 23 31 84 32 24 33 83 34 25 35 26 36
REMARK SMILES IDX 27 37 77 38 28 39 82 40 76 41 78 42 29 43 81 44 75 45 74 46
REMARK SMILES IDX 30 48 62 49 42 50 61 51 43 52 46 53 60 54 79 55 44 56 45 57
REMARK SMILES IDX 59 59 80 60 47 61 31 62 32 63 40 64 33 65 35 66 41 67 34 68
REMARK SMILES IDX 36 69 37 70 38 71 39 72 63 73 64 74 72 75 65 76 67 77 73 78
REMARK SMILES IDX 66 79 68 80 69 81 70 82 71 83 48 84 49 85 57 86 50 87 52 88
REMARK SMILES IDX 58 89 51 90 53 91 54 92 55 93 56 94
REMARK H PARENT 15 5 5 14 19 28 78 47 46 58
REMARK Flexibility Score: inf
ROOT
ATOM      1  C   UNL A   1      32.225  29.703  24.782  1.00  0.00     0.117 C 
ENDROOT
BRANCH   1   2
ATOM      2  N   UNL A   1      31.286  29.613  23.676  1.00  0.00    -0.356 N 
ATOM      3  C   UNL A   1      30.829  28.534  22.982  1.00  0.00     0.223 C 
ATOM      4  O   UNL A   1      30.003  28.726  22.086  1.00  0.00    -0.275 OA
ATOM      5  H   UNL A   1      30.920  30.476  23.378  1.00  0.00     0.163 HD
BRANCH   3   6
ATOM      6  C   UNL A   1      31.301  27.123  23.311  1.00  0.00     0.079 C 
ATOM      7  C   UNL A   1      31.651  24.792  22.244  1.00  0.00     0.079 C 
ATOM      8  C   UNL A   1      30.728  24.237  23.332  1.00  0.00     0.013 C 
ATOM      9  C   UNL A   1      31.462  26.293  22.029  1.00  0.00     0.027 C 
ATOM     10  C   UNL A   1      30.766  25.023  24.637  1.00  0.00     0.002 C 
ATOM     11  C   UNL A   1      30.452  26.493  24.417  1.00  0.00     0.013 C 
BRANCH   7  12
ATOM     12  C   UNL A   1      33.125  24.468  22.481  1.00  0.00     0.223 C 
ATOM     13  N   UNL A   1      33.489  23.195  22.826  1.00  0.00    -0.354 N 
ATOM     14  H   UNL A   1      34.459  23.020  22.836  1.00  0.00     0.163 HD
ATOM     15  O   UNL A   1      34.027  25.289  22.330  1.00  0.00    -0.275 OA
BRANCH  13  16
ATOM     16  C   UNL A   1      32.648  22.062  23.179  1.00  0.00     0.138 C 
BRANCH  16  17
ATOM     17  C   UNL A   1      32.869  21.469  24.587  1.00  0.00     0.084 C 
ATOM     18  C   UNL A   1      31.599  21.499  25.448  1.00  0.00     0.030 C 
ATOM     19  C   UNL A   1      33.294  19.994  24.397  1.00  0.00     0.030 C 
BRANCH  17  20
ATOM     20  S   UNL A   1      34.247  22.307  25.445  1.00  0.00     0.154 S 
ATOM     21  C   UNL A   1      34.427  21.537  27.045  1.00  0.00     0.158 C 
ATOM     22  O   UNL A   1      35.465  22.004  24.709  1.00  0.00    -0.229 OA
ATOM     23  O   UNL A   1      33.866  23.689  25.650  1.00  0.00    -0.229 OA
ENDBRANCH  17  20
ENDBRANCH  16  17
ENDBRANCH  13  16
ENDBRANCH   7  12
ENDBRANCH   3   6
ENDBRANCH   1   2
BRANCH   1  24
ATOM     24  C   UNL A   1      31.653  30.447  25.975  1.00  0.00     0.042 C 
BRANCH  24  25
ATOM     25  C   UNL A   1      32.705  30.871  26.981  1.00  0.00     0.118 C 
BRANCH  25  26
ATOM     26  N   UNL A   1      32.849  32.318  27.057  1.00  0.00    -0.352 N 
ATOM     27  C   UNL A   1      33.762  33.075  27.749  1.00  0.00     0.251 C 
ATOM     28  H   UNL A   1      32.194  32.832  26.531  1.00  0.00     0.163 HD
ATOM     29  O   UNL A   1      33.588  34.286  27.856  1.00  0.00    -0.269 OA
BRANCH  27  30
ATOM     30  C   UNL A   1      34.941  32.433  28.370  1.00  0.00     0.039 A 
ATOM     31  C   UNL A   1      34.791  31.196  29.001  1.00  0.00     0.014 A 
ATOM     32  C   UNL A   1      36.189  33.059  28.349  1.00  0.00     0.014 A 
ATOM     33  C   UNL A   1      35.901  30.575  29.576  1.00  0.00     0.010 A 
ATOM     34  C   UNL A   1      37.311  32.384  28.807  1.00  0.00     0.010 A 
ATOM     35  C   UNL A   1      37.175  31.157  29.467  1.00  0.00    -0.014 A 
BRANCH  35  36
ATOM     36  C   UNL A   1      38.370  30.539  30.093  1.00  0.00     0.031 A 
ATOM     37  C   UNL A   1      38.741  30.900  31.509  1.00  0.00     0.074 A 
ATOM     38  C   UNL A   1      39.155  29.715  29.375  1.00  0.00     0.049 A 
ATOM     39  N   UNL A   1      39.758  30.498  32.224  1.00  0.00    -0.248 NA
ATOM     40  C   UNL A   1      37.874  31.871  32.199  1.00  0.00     0.031 C 
ATOM     41  C   UNL A   1      38.942  29.346  27.974  1.00  0.00     0.029 A 
ATOM     42  N   UNL A   1      40.301  29.047  29.725  1.00  0.00    -0.354 N 
ATOM     43  C   UNL A   1      39.676  31.195  33.424  1.00  0.00     0.074 A 
ATOM     44  C   UNL A   1      38.547  32.091  33.316  1.00  0.00     0.031 C 
ATOM     45  C   UNL A   1      39.907  28.493  27.594  1.00  0.00     0.029 A 
ATOM     46  C   UNL A   1      40.822  28.280  28.711  1.00  0.00     0.049 A 
ATOM     47  H   UNL A   1      40.711  29.111  30.617  1.00  0.00     0.167 HD
ATOM     48  C   UNL A   1      40.441  31.076  34.536  1.00  0.00     0.034 A 
ATOM     49  C   UNL A   1      41.911  27.487  28.690  1.00  0.00     0.034 A 
ATOM     50  C   UNL A   1      41.537  30.154  34.651  1.00  0.00     0.049 A 
ATOM     51  C   UNL A   1      42.733  27.345  29.942  1.00  0.00     0.074 A 
ATOM     52  C   UNL A   1      42.334  29.892  35.750  1.00  0.00     0.029 A 
ATOM     53  N   UNL A   1      41.998  29.347  33.620  1.00  0.00    -0.354 N 
ATOM     54  N   UNL A   1      42.557  27.905  31.115  1.00  0.00    -0.248 NA
ATOM     55  C   UNL A   1      43.881  26.430  29.878  1.00  0.00     0.031 C 
ATOM     56  C   UNL A   1      43.296  28.948  35.375  1.00  0.00     0.029 A 
ATOM     57  C   UNL A   1      43.073  28.591  34.054  1.00  0.00     0.049 A 
ATOM     58  H   UNL A   1      41.617  29.316  32.714  1.00  0.00     0.167 HD
ATOM     59  C   UNL A   1      43.538  27.371  31.943  1.00  0.00     0.074 A 
ATOM     60  C   UNL A   1      44.299  26.439  31.137  1.00  0.00     0.031 C 
ATOM     61  C   UNL A   1      43.787  27.630  33.251  1.00  0.00     0.034 A 
BRANCH  48  62
ATOM     62  C   UNL A   1      40.082  31.942  35.718  1.00  0.00     0.023 A 
ATOM     63  C   UNL A   1      40.838  33.101  35.995  1.00  0.00     0.012 A 
ATOM     64  C   UNL A   1      39.000  31.613  36.557  1.00  0.00     0.148 A 
ATOM     65  C   UNL A   1      40.569  33.878  37.121  1.00  0.00     0.002 A 
ATOM     66  C   UNL A   1      38.703  32.424  37.646  1.00  0.00     0.091 A 
ATOM     67  F   UNL A   1      38.301  30.499  36.296  1.00  0.00    -0.205 F 
ATOM     68  C   UNL A   1      39.497  33.544  37.941  1.00  0.00     0.022 A 
BRANCH  66  69
ATOM     69  S   UNL A   1      37.286  32.127  38.711  1.00  0.00     0.127 S 
ATOM     70  O   UNL A   1      37.095  30.687  38.553  1.00  0.00    -0.237 OA
ATOM     71  O   UNL A   1      37.793  32.536  40.021  1.00  0.00    -0.237 OA
ATOM     72  O   UNL A   1      36.214  32.965  38.189  1.00  0.00    -0.744 OA
ENDBRANCH  66  69
ENDBRANCH  48  62
BRANCH  49  73
ATOM     73  C   UNL A   1      42.217  26.681  27.474  1.00  0.00     0.023 A 
ATOM     74  C   UNL A   1      42.825  27.314  26.371  1.00  0.00     0.012 A 
ATOM     75  C   UNL A   1      41.953  25.301  27.415  1.00  0.00     0.148 A 
ATOM     76  C   UNL A   1      43.138  26.593  25.219  1.00  0.00     0.002 A 
ATOM     77  C   UNL A   1      42.314  24.576  26.284  1.00  0.00     0.091 A 
ATOM     78  F   UNL A   1      41.375  24.719  28.476  1.00  0.00    -0.205 F 
ATOM     79  C   UNL A   1      42.890  25.223  25.179  1.00  0.00     0.022 A 
BRANCH  77  80
ATOM     80  S   UNL A   1      42.148  22.791  26.181  1.00  0.00     0.127 S 
ATOM     81  O   UNL A   1      42.889  22.352  27.360  1.00  0.00    -0.237 OA
ATOM     82  O   UNL A   1      40.697  22.622  26.266  1.00  0.00    -0.237 OA
ATOM     83  O   UNL A   1      42.727  22.412  24.900  1.00  0.00    -0.744 OA
ENDBRANCH  77  80
ENDBRANCH  49  73
BRANCH  61  84
ATOM     84  C   UNL A   1      44.890  26.850  33.920  1.00  0.00     0.023 A 
ATOM     85  C   UNL A   1      46.204  27.358  33.949  1.00  0.00     0.012 A 
ATOM     86  C   UNL A   1      44.602  25.637  34.579  1.00  0.00     0.148 A 
ATOM     87  C   UNL A   1      47.221  26.651  34.589  1.00  0.00     0.002 A 
ATOM     88  C   UNL A   1      45.610  24.968  35.262  1.00  0.00     0.091 A 
ATOM     89  F   UNL A   1      43.350  25.161  34.523  1.00  0.00    -0.205 F 
ATOM     90  C   UNL A   1      46.922  25.465  35.256  1.00  0.00     0.022 A 
BRANCH  88  91
ATOM     91  S   UNL A   1      45.292  23.491  36.234  1.00  0.00     0.127 S 
ATOM     92  O   UNL A   1      44.227  22.851  35.464  1.00  0.00    -0.237 OA
ATOM     93  O   UNL A   1      46.581  22.803  36.183  1.00  0.00    -0.237 OA
ATOM     94  O   UNL A   1      44.910  23.959  37.561  1.00  0.00    -0.744 OA
ENDBRANCH  88  91
ENDBRANCH  61  84
ENDBRANCH  35  36
ENDBRANCH  27  30
ENDBRANCH  25  26
ENDBRANCH  24  25
ENDBRANCH   1  24
TORSDOF 17
ENDMDL
MODEL 3
REMARK VINA RESULT:     -11.3      1.951      7.893
REMARK SMILES CC(C)(CNC(=O)[C@H]1CCC[C@H](C(=O)NCCCNC(=O)c2ccc(-c3c4nc(c(-c5cccc(S(=O)(=O)[O-])c5F)c5ccc([nH]5)c(-c5cccc(S(=O)(=O)[O-])c5F)c5nc(c(-c6cccc(S(=O)(=O)[O-])c6F)c6ccc3[nH]6)C=C5)C=C4)cc2)C1)S(C)(=O)=O
REMARK SMILES IDX 16 1 15 2 13 3 14 4 12 6 8 7 9 8 85 9 10 10 11 11 6 12 5 13
REMARK SMILES IDX 7 15 4 16 2 17 1 18 3 19 86 20 87 21 88 22 89 23 17 24 18 25
REMARK SMILES IDX 19 26 20 27 21 29 22 30 23 31 84 32 24 33 83 34 25 35 26 36
REMARK SMILES IDX 27 37 77 38 28 39 82 40 76 41 78 42 29 43 81 44 75 45 74 46
REMARK SMILES IDX 30 48 62 49 42 50 61 51 43 52 46 53 60 54 79 55 44 56 45 57
REMARK SMILES IDX 59 59 80 60 47 61 31 62 32 63 40 64 33 65 35 66 41 67 34 68
REMARK SMILES IDX 36 69 37 70 38 71 39 72 63 73 64 74 72 75 65 76 67 77 73 78
REMARK SMILES IDX 66 79 68 80 69 81 70 82 71 83 48 84 49 85 57 86 50 87 52 88
REMARK SMILES IDX 58 89 51 90 53 91 54 92 55 93 56 94
REMARK H PARENT 15 5 5 14 19 28 78 47 46 58
REMARK Flexibility Score: inf
ROOT
ATOM      1  C   UNL A   1      36.885  20.458  25.022  1.00  0.00     0.117 C 
ENDROOT
BRANCH   1   2
ATOM      2  N   UNL A   1      35.639  19.714  25.111  1.00  0.00    -0.356 N 
ATOM      3  C   UNL A   1      34.351  20.107  24.908  1.00  0.00     0.223 C 
ATOM      4  O   UNL A   1      33.459  19.262  25.025  1.00  0.00    -0.275 OA
ATOM      5  H   UNL A   1      35.744  18.767  25.359  1.00  0.00     0.163 HD
BRANCH   3   6
ATOM      6  C   UNL A   1      34.012  21.542  24.523  1.00  0.00     0.079 C 
ATOM      7  C   UNL A   1      33.244  23.796  25.535  1.00  0.00     0.079 C 
ATOM      8  C   UNL A   1      32.065  23.747  24.561  1.00  0.00     0.013 C 
ATOM      9  C   UNL A   1      33.860  22.418  25.775  1.00  0.00     0.027 C 
ATOM     10  C   UNL A   1      32.363  23.007  23.262  1.00  0.00     0.002 C 
ATOM     11  C   UNL A   1      32.857  21.595  23.522  1.00  0.00     0.013 C 
BRANCH   7  12
ATOM     12  C   UNL A   1      34.322  24.798  25.127  1.00  0.00     0.223 C 
ATOM     13  N   UNL A   1      33.972  26.092  24.852  1.00  0.00    -0.354 N 
ATOM     14  H   UNL A   1      34.724  26.715  24.723  1.00  0.00     0.163 HD
ATOM     15  O   UNL A   1      35.518  24.517  25.078  1.00  0.00    -0.275 OA
BRANCH  13  16
ATOM     16  C   UNL A   1      32.646  26.677  24.721  1.00  0.00     0.138 C 
BRANCH  16  17
ATOM     17  C   UNL A   1      32.431  27.598  23.501  1.00  0.00     0.084 C 
ATOM     18  C   UNL A   1      33.313  28.852  23.544  1.00  0.00     0.030 C 
ATOM     19  C   UNL A   1      32.807  26.780  22.243  1.00  0.00     0.030 C 
BRANCH  17  20
ATOM     20  S   UNL A   1      30.671  28.055  23.324  1.00  0.00     0.154 S 
ATOM     21  C   UNL A   1      29.710  26.820  24.179  1.00  0.00     0.158 C 
ATOM     22  O   UNL A   1      30.470  29.300  24.051  1.00  0.00    -0.229 OA
ATOM     23  O   UNL A   1      30.338  27.993  21.916  1.00  0.00    -0.229 OA
ENDBRANCH  17  20
ENDBRANCH  16  17
ENDBRANCH  13  16
ENDBRANCH   7  12
ENDBRANCH   3   6
ENDBRANCH   1   2
BRANCH   1  24
ATOM     24  C   UNL A   1      38.105  19.555  25.012  1.00  0.00     0.042 C 
BRANCH  24  25
ATOM     25  C   UNL A   1      39.279  20.121  25.787  1.00  0.00     0.118 C 
BRANCH  25  26
ATOM     26  N   UNL A   1      40.350  19.149  25.960  1.00  0.00    -0.352 N 
ATOM     27  C   UNL A   1      41.699  19.348  26.123  1.00  0.00     0.251 C 
ATOM     28  H   UNL A   1      40.063  18.207  25.962  1.00  0.00     0.163 HD
ATOM     29  O   UNL A   1      42.465  18.392  26.040  1.00  0.00    -0.269 OA
BRANCH  27  30
ATOM     30  C   UNL A   1      42.223  20.705  26.386  1.00  0.00     0.039 A 
ATOM     31  C   UNL A   1      42.445  21.108  27.705  1.00  0.00     0.014 A 
ATOM     32  C   UNL A   1      42.476  21.589  25.335  1.00  0.00     0.014 A 
ATOM     33  C   UNL A   1      42.954  22.382  27.962  1.00  0.00     0.010 A 
ATOM     34  C   UNL A   1      43.100  22.803  25.584  1.00  0.00     0.010 A 
ATOM     35  C   UNL A   1      43.304  23.233  26.901  1.00  0.00    -0.014 A 
BRANCH  35  36
ATOM     36  C   UNL A   1      43.819  24.604  27.139  1.00  0.00     0.031 A 
ATOM     37  C   UNL A   1      42.892  25.666  27.674  1.00  0.00     0.074 A 
ATOM     38  C   UNL A   1      45.087  24.912  26.813  1.00  0.00     0.049 A 
ATOM     39  N   UNL A   1      43.135  26.926  27.921  1.00  0.00    -0.248 NA
ATOM     40  C   UNL A   1      41.497  25.268  27.930  1.00  0.00     0.031 C 
ATOM     41  C   UNL A   1      46.059  23.991  26.221  1.00  0.00     0.029 A 
ATOM     42  N   UNL A   1      45.774  26.095  26.924  1.00  0.00    -0.354 N 
ATOM     43  C   UNL A   1      41.921  27.475  28.318  1.00  0.00     0.074 A 
ATOM     44  C   UNL A   1      40.931  26.428  28.218  1.00  0.00     0.031 C 
ATOM     45  C   UNL A   1      47.226  24.635  26.051  1.00  0.00     0.029 A 
ATOM     46  C   UNL A   1      47.076  26.018  26.491  1.00  0.00     0.049 A 
ATOM     47  H   UNL A   1      45.372  26.919  27.280  1.00  0.00     0.167 HD
ATOM     48  C   UNL A   1      41.655  28.726  28.766  1.00  0.00     0.034 A 
ATOM     49  C   UNL A   1      48.041  26.957  26.462  1.00  0.00     0.034 A 
ATOM     50  C   UNL A   1      42.653  29.751  28.900  1.00  0.00     0.049 A 
ATOM     51  C   UNL A   1      47.735  28.333  26.989  1.00  0.00     0.074 A 
ATOM     52  C   UNL A   1      42.516  31.027  29.413  1.00  0.00     0.029 A 
ATOM     53  N   UNL A   1      43.977  29.616  28.509  1.00  0.00    -0.354 N 
ATOM     54  N   UNL A   1      46.616  28.795  27.495  1.00  0.00    -0.248 NA
ATOM     55  C   UNL A   1      48.837  29.304  26.980  1.00  0.00     0.031 C 
ATOM     56  C   UNL A   1      43.751  31.676  29.302  1.00  0.00     0.029 A 
ATOM     57  C   UNL A   1      44.668  30.789  28.760  1.00  0.00     0.049 A 
ATOM     58  H   UNL A   1      44.368  28.807  28.110  1.00  0.00     0.167 HD
ATOM     59  C   UNL A   1      46.893  30.092  27.911  1.00  0.00     0.074 A 
ATOM     60  C   UNL A   1      48.288  30.337  27.604  1.00  0.00     0.031 C 
ATOM     61  C   UNL A   1      46.069  30.998  28.494  1.00  0.00     0.034 A 
BRANCH  48  62
ATOM     62  C   UNL A   1      40.234  29.025  29.175  1.00  0.00     0.023 A 
ATOM     63  C   UNL A   1      39.285  29.398  28.198  1.00  0.00     0.012 A 
ATOM     64  C   UNL A   1      39.833  28.941  30.522  1.00  0.00     0.148 A 
ATOM     65  C   UNL A   1      37.985  29.747  28.561  1.00  0.00     0.002 A 
ATOM     66  C   UNL A   1      38.519  29.236  30.869  1.00  0.00     0.091 A 
ATOM     67  F   UNL A   1      40.747  28.606  31.445  1.00  0.00    -0.205 F 
ATOM     68  C   UNL A   1      37.600  29.657  29.894  1.00  0.00     0.022 A 
BRANCH  66  69
ATOM     69  S   UNL A   1      37.904  29.064  32.548  1.00  0.00     0.127 S 
ATOM     70  O   UNL A   1      38.808  29.944  33.286  1.00  0.00    -0.237 OA
ATOM     71  O   UNL A   1      36.533  29.561  32.428  1.00  0.00    -0.237 OA
ATOM     72  O   UNL A   1      38.007  27.647  32.867  1.00  0.00    -0.744 OA
ENDBRANCH  66  69
ENDBRANCH  48  62
BRANCH  49  73
ATOM     73  C   UNL A   1      49.416  26.592  26.019  1.00  0.00     0.023 A 
ATOM     74  C   UNL A   1      50.196  25.749  26.835  1.00  0.00     0.012 A 
ATOM     75  C   UNL A   1      49.939  27.034  24.790  1.00  0.00     0.148 A 
ATOM     76  C   UNL A   1      51.483  25.376  26.450  1.00  0.00     0.002 A 
ATOM     77  C   UNL A   1      51.203  26.617  24.387  1.00  0.00     0.091 A 
ATOM     78  F   UNL A   1      49.180  27.835  24.028  1.00  0.00    -0.205 F 
ATOM     79  C   UNL A   1      51.983  25.802  25.223  1.00  0.00     0.022 A 
BRANCH  77  80
ATOM     80  S   UNL A   1      51.888  27.013  22.774  1.00  0.00     0.127 S 
ATOM     81  O   UNL A   1      52.312  28.398  22.961  1.00  0.00    -0.237 OA
ATOM     82  O   UNL A   1      52.979  26.043  22.668  1.00  0.00    -0.237 OA
ATOM     83  O   UNL A   1      50.805  26.812  21.823  1.00  0.00    -0.744 OA
ENDBRANCH  77  80
ENDBRANCH  49  73
BRANCH  61  84
ATOM     84  C   UNL A   1      46.663  32.323  28.900  1.00  0.00     0.023 A 
ATOM     85  C   UNL A   1      47.262  32.475  30.166  1.00  0.00     0.012 A 
ATOM     86  C   UNL A   1      46.683  33.399  27.991  1.00  0.00     0.148 A 
ATOM     87  C   UNL A   1      47.835  33.692  30.534  1.00  0.00     0.002 A 
ATOM     88  C   UNL A   1      47.305  34.590  28.345  1.00  0.00     0.091 A 
ATOM     89  F   UNL A   1      46.091  33.241  26.798  1.00  0.00    -0.205 F 
ATOM     90  C   UNL A   1      47.868  34.743  29.621  1.00  0.00     0.022 A 
BRANCH  88  91
ATOM     91  S   UNL A   1      47.487  35.957  27.194  1.00  0.00     0.127 S 
ATOM     92  O   UNL A   1      48.322  36.882  27.959  1.00  0.00    -0.237 OA
ATOM     93  O   UNL A   1      48.160  35.322  26.061  1.00  0.00    -0.237 OA
ATOM     94  O   UNL A   1      46.135  36.423  26.909  1.00  0.00    -0.744 OA
ENDBRANCH  88  91
ENDBRANCH  61  84
ENDBRANCH  35  36
ENDBRANCH  27  30
ENDBRANCH  25  26
ENDBRANCH  24  25
ENDBRANCH   1  24
TORSDOF 17
ENDMDL
