MODEL 1
REMARK VINA RESULT:     -12.0      0.000      0.000
REMARK SMILES Cc1ccc(C(C)C)c(OCC(=O)Nc2nc(CC(=O)NCCCNC(=O)c3ccc(-c4c5nc(c(-c6cccc(S(=O)(=O)[O-])c6F)c6ccc([nH]6)c(-c6cccc(S(=O)(=O)[O-])c6F)c6nc(c(-c7cccc(S(=O)(=O)[O-])c7F)c7ccc4[nH]7)C=C6)C=C5)cc3)cs2)c1
REMARK SMILES IDX 19 1 20 2 21 3 18 5 17 6 15 7 16 8 92 9 91 10 14 11 12 12
REMARK SMILES IDX 13 13 11 15 10 16 9 17 1 18 2 19 3 20 93 21 4 22 5 23 6 24
REMARK SMILES IDX 7 25 8 26 22 27 23 28 24 29 25 30 26 31 27 33 28 34 29 35
REMARK SMILES IDX 90 36 30 37 89 38 31 39 32 40 33 41 83 42 34 43 88 44 82 45
REMARK SMILES IDX 84 46 35 47 87 48 81 49 80 50 36 52 68 53 48 54 67 55 49 56
REMARK SMILES IDX 52 57 66 58 85 59 50 60 51 61 65 63 86 64 53 65 37 66 38 67
REMARK SMILES IDX 46 68 39 69 41 70 47 71 40 72 42 73 43 74 44 75 45 76 69 77
REMARK SMILES IDX 70 78 78 79 71 80 73 81 79 82 72 83 74 84 75 85 76 86 77 87
REMARK SMILES IDX 54 88 55 89 63 90 56 91 58 92 64 93 57 94 59 95 60 96 61 97
REMARK SMILES IDX 62 98
REMARK H PARENT 21 4 14 14 25 32 84 51 52 62
REMARK Flexibility Score: inf
ROOT
ATOM      1  C   UNL A   1      34.869  33.243  27.947  1.00  0.00     0.226 C 
ATOM      2  O   UNL A   1      35.922  33.136  27.316  1.00  0.00    -0.275 OA
ATOM      3  N   UNL A   1      34.286  34.476  28.064  1.00  0.00    -0.356 N 
ATOM      4  H   UNL A   1      34.817  35.233  27.729  1.00  0.00     0.163 HD
ENDROOT
BRANCH   1   5
ATOM      5  C   UNL A   1      34.221  32.022  28.580  1.00  0.00     0.157 C 
BRANCH   5   6
ATOM      6  C   UNL A   1      33.444  31.236  27.579  1.00  0.00     0.063 A 
ATOM      7  C   UNL A   1      33.342  29.867  25.864  1.00  0.00     0.189 A 
ATOM      8  N   UNL A   1      34.113  30.279  26.831  1.00  0.00    -0.224 NA
ATOM      9  S   UNL A   1      31.736  30.439  25.870  1.00  0.00    -0.105 S 
ATOM     10  C   UNL A   1      32.108  31.394  27.247  1.00  0.00     0.093 A 
BRANCH   7  11
ATOM     11  N   UNL A   1      33.655  29.068  24.811  1.00  0.00    -0.299 N 
ATOM     12  C   UNL A   1      33.699  27.708  24.818  1.00  0.00     0.264 C 
ATOM     13  O   UNL A   1      34.080  27.144  23.784  1.00  0.00    -0.271 OA
ATOM     14  H   UNL A   1      33.870  29.514  23.960  1.00  0.00     0.172 HD
BRANCH  12  15
ATOM     15  C   UNL A   1      33.177  26.880  26.012  1.00  0.00     0.329 C 
BRANCH  15  16
ATOM     16  O   UNL A   1      33.805  25.663  26.369  1.00  0.00    -0.483 OA
BRANCH  16  17
ATOM     17  C   UNL A   1      33.220  24.469  26.046  1.00  0.00     0.123 A 
ATOM     18  C   UNL A   1      30.006  22.468  26.523  1.00  0.00     0.044 C 
ATOM     19  C   UNL A   1      31.378  22.867  26.068  1.00  0.00    -0.047 A 
ATOM     20  C   UNL A   1      32.076  22.059  25.173  1.00  0.00     0.004 A 
ATOM     21  C   UNL A   1      31.964  24.061  26.510  1.00  0.00     0.050 A 
ATOM     22  C   UNL A   1      33.350  22.427  24.743  1.00  0.00     0.008 A 
ATOM     23  C   UNL A   1      33.941  23.633  25.163  1.00  0.00    -0.003 A 
BRANCH  23  24
ATOM     24  C   UNL A   1      35.334  23.999  24.661  1.00  0.00     0.017 C 
ATOM     25  C   UNL A   1      36.395  23.761  25.736  1.00  0.00     0.012 C 
ATOM     26  C   UNL A   1      35.725  23.235  23.389  1.00  0.00     0.012 C 
ENDBRANCH  23  24
ENDBRANCH  16  17
ENDBRANCH  15  16
ENDBRANCH  12  15
ENDBRANCH   7  11
ENDBRANCH   5   6
ENDBRANCH   1   5
BRANCH   3  27
ATOM     27  C   UNL A   1      32.985  34.814  28.621  1.00  0.00     0.117 C 
BRANCH  27  28
ATOM     28  C   UNL A   1      32.968  36.052  29.502  1.00  0.00     0.042 C 
BRANCH  28  29
ATOM     29  C   UNL A   1      32.457  35.772  30.900  1.00  0.00     0.118 C 
BRANCH  29  30
ATOM     30  N   UNL A   1      33.235  36.360  31.978  1.00  0.00    -0.352 N 
ATOM     31  C   UNL A   1      34.254  35.797  32.739  1.00  0.00     0.251 C 
ATOM     32  H   UNL A   1      33.008  37.290  32.203  1.00  0.00     0.163 HD
ATOM     33  O   UNL A   1      34.670  36.420  33.703  1.00  0.00    -0.269 OA
BRANCH  31  34
ATOM     34  C   UNL A   1      34.906  34.525  32.307  1.00  0.00     0.039 A 
ATOM     35  C   UNL A   1      34.811  33.402  33.143  1.00  0.00     0.014 A 
ATOM     36  C   UNL A   1      35.762  34.486  31.215  1.00  0.00     0.014 A 
ATOM     37  C   UNL A   1      35.753  32.377  33.040  1.00  0.00     0.010 A 
ATOM     38  C   UNL A   1      36.774  33.559  31.194  1.00  0.00     0.010 A 
ATOM     39  C   UNL A   1      36.802  32.535  32.142  1.00  0.00    -0.014 A 
BRANCH  39  40
ATOM     40  C   UNL A   1      38.042  31.777  32.136  1.00  0.00     0.031 A 
ATOM     41  C   UNL A   1      38.134  30.500  31.405  1.00  0.00     0.074 A 
ATOM     42  C   UNL A   1      39.162  32.452  32.477  1.00  0.00     0.049 A 
ATOM     43  N   UNL A   1      39.131  29.688  31.485  1.00  0.00    -0.248 NA
ATOM     44  C   UNL A   1      37.079  30.035  30.516  1.00  0.00     0.031 C 
ATOM     45  C   UNL A   1      40.530  32.172  32.059  1.00  0.00     0.029 A 
ATOM     46  N   UNL A   1      39.299  33.453  33.443  1.00  0.00    -0.354 N 
ATOM     47  C   UNL A   1      39.003  28.777  30.455  1.00  0.00     0.074 A 
ATOM     48  C   UNL A   1      37.664  28.975  29.954  1.00  0.00     0.031 C 
ATOM     49  C   UNL A   1      41.370  32.749  32.931  1.00  0.00     0.029 A 
ATOM     50  C   UNL A   1      40.561  33.255  34.025  1.00  0.00     0.049 A 
ATOM     51  H   UNL A   1      38.644  34.153  33.669  1.00  0.00     0.167 HD
ATOM     52  C   UNL A   1      40.107  28.083  30.052  1.00  0.00     0.034 A 
ATOM     53  C   UNL A   1      40.738  32.954  35.345  1.00  0.00     0.034 A 
ATOM     54  C   UNL A   1      41.263  28.406  30.906  1.00  0.00     0.049 A 
ATOM     55  C   UNL A   1      41.464  31.638  35.559  1.00  0.00     0.074 A 
ATOM     56  C   UNL A   1      42.357  29.238  30.730  1.00  0.00     0.029 A 
ATOM     57  N   UNL A   1      41.258  28.043  32.248  1.00  0.00    -0.354 N 
ATOM     58  N   UNL A   1      41.728  30.785  34.609  1.00  0.00    -0.248 NA
ATOM     59  C   UNL A   1      41.932  31.167  36.859  1.00  0.00     0.031 C 
ATOM     60  C   UNL A   1      42.967  29.436  31.996  1.00  0.00     0.029 A 
ATOM     61  C   UNL A   1      42.263  28.702  32.937  1.00  0.00     0.049 A 
ATOM     62  H   UNL A   1      40.626  27.404  32.653  1.00  0.00     0.167 HD
ATOM     63  C   UNL A   1      42.252  29.634  35.138  1.00  0.00     0.074 A 
ATOM     64  C   UNL A   1      42.433  29.958  36.542  1.00  0.00     0.031 C 
ATOM     65  C   UNL A   1      42.427  28.508  34.376  1.00  0.00     0.034 A 
BRANCH  52  66
ATOM     66  C   UNL A   1      40.276  27.341  28.728  1.00  0.00     0.023 A 
ATOM     67  C   UNL A   1      39.490  26.179  28.541  1.00  0.00     0.012 A 
ATOM     68  C   UNL A   1      41.180  27.633  27.680  1.00  0.00     0.148 A 
ATOM     69  C   UNL A   1      39.661  25.309  27.457  1.00  0.00     0.002 A 
ATOM     70  C   UNL A   1      41.389  26.744  26.619  1.00  0.00     0.091 A 
ATOM     71  F   UNL A   1      41.802  28.811  27.641  1.00  0.00    -0.205 F 
ATOM     72  C   UNL A   1      40.636  25.575  26.509  1.00  0.00     0.022 A 
BRANCH  70  73
ATOM     73  S   UNL A   1      42.665  27.007  25.371  1.00  0.00     0.127 S 
ATOM     74  O   UNL A   1      43.856  27.232  26.193  1.00  0.00    -0.237 OA
ATOM     75  O   UNL A   1      42.660  25.738  24.644  1.00  0.00    -0.237 OA
ATOM     76  O   UNL A   1      42.249  28.170  24.596  1.00  0.00    -0.744 OA
ENDBRANCH  70  73
ENDBRANCH  52  66
BRANCH  53  77
ATOM     77  C   UNL A   1      39.687  33.531  36.234  1.00  0.00     0.023 A 
ATOM     78  C   UNL A   1      38.585  32.693  36.530  1.00  0.00     0.012 A 
ATOM     79  C   UNL A   1      39.950  34.628  37.075  1.00  0.00     0.148 A 
ATOM     80  C   UNL A   1      37.848  32.862  37.703  1.00  0.00     0.002 A 
ATOM     81  C   UNL A   1      39.207  34.790  38.246  1.00  0.00     0.091 A 
ATOM     82  F   UNL A   1      40.974  35.435  36.773  1.00  0.00    -0.205 F 
ATOM     83  C   UNL A   1      38.182  33.888  38.578  1.00  0.00     0.022 A 
BRANCH  81  84
ATOM     84  S   UNL A   1      39.610  36.055  39.461  1.00  0.00     0.127 S 
ATOM     85  O   UNL A   1      41.003  35.738  39.763  1.00  0.00    -0.237 OA
ATOM     86  O   UNL A   1      39.408  37.291  38.705  1.00  0.00    -0.237 OA
ATOM     87  O   UNL A   1      38.653  35.856  40.539  1.00  0.00    -0.744 OA
ENDBRANCH  81  84
ENDBRANCH  53  77
BRANCH  65  88
ATOM     88  C   UNL A   1      42.751  27.115  34.897  1.00  0.00     0.023 A 
ATOM     89  C   UNL A   1      41.775  26.269  35.456  1.00  0.00     0.012 A 
ATOM     90  C   UNL A   1      44.038  26.544  34.699  1.00  0.00     0.148 A 
ATOM     91  C   UNL A   1      42.062  24.953  35.843  1.00  0.00     0.002 A 
ATOM     92  C   UNL A   1      44.287  25.202  34.980  1.00  0.00     0.091 A 
ATOM     93  F   UNL A   1      45.050  27.304  34.253  1.00  0.00    -0.205 F 
ATOM     94  C   UNL A   1      43.311  24.410  35.581  1.00  0.00     0.022 A 
BRANCH  92  95
ATOM     95  S   UNL A   1      45.807  24.416  34.422  1.00  0.00     0.127 S 
ATOM     96  O   UNL A   1      45.833  24.768  33.005  1.00  0.00    -0.237 OA
ATOM     97  O   UNL A   1      46.828  25.082  35.232  1.00  0.00    -0.237 OA
ATOM     98  O   UNL A   1      45.630  23.004  34.737  1.00  0.00    -0.744 OA
ENDBRANCH  92  95
ENDBRANCH  65  88
ENDBRANCH  39  40
ENDBRANCH  31  34
ENDBRANCH  29  30
ENDBRANCH  28  29
ENDBRANCH  27  28
ENDBRANCH   3  27
TORSDOF 19
ENDMDL
MODEL 2
REMARK VINA RESULT:     -11.2      2.477      3.521
REMARK SMILES Cc1ccc(C(C)C)c(OCC(=O)Nc2nc(CC(=O)NCCCNC(=O)c3ccc(-c4c5nc(c(-c6cccc(S(=O)(=O)[O-])c6F)c6ccc([nH]6)c(-c6cccc(S(=O)(=O)[O-])c6F)c6nc(c(-c7cccc(S(=O)(=O)[O-])c7F)c7ccc4[nH]7)C=C6)C=C5)cc3)cs2)c1
REMARK SMILES IDX 19 1 20 2 21 3 18 5 17 6 15 7 16 8 92 9 91 10 14 11 12 12
REMARK SMILES IDX 13 13 11 15 10 16 9 17 1 18 2 19 3 20 93 21 4 22 5 23 6 24
REMARK SMILES IDX 7 25 8 26 22 27 23 28 24 29 25 30 26 31 27 33 28 34 29 35
REMARK SMILES IDX 90 36 30 37 89 38 31 39 32 40 33 41 83 42 34 43 88 44 82 45
REMARK SMILES IDX 84 46 35 47 87 48 81 49 80 50 36 52 68 53 48 54 67 55 49 56
REMARK SMILES IDX 52 57 66 58 85 59 50 60 51 61 65 63 86 64 53 65 37 66 38 67
REMARK SMILES IDX 46 68 39 69 41 70 47 71 40 72 42 73 43 74 44 75 45 76 69 77
REMARK SMILES IDX 70 78 78 79 71 80 73 81 79 82 72 83 74 84 75 85 76 86 77 87
REMARK SMILES IDX 54 88 55 89 63 90 56 91 58 92 64 93 57 94 59 95 60 96 61 97
REMARK SMILES IDX 62 98
REMARK H PARENT 21 4 14 14 25 32 84 51 52 62
REMARK Flexibility Score: inf
ROOT
ATOM      1  C   UNL A   1      32.202  30.108  26.624  1.00  0.00     0.226 C 
ATOM      2  O   UNL A   1      31.446  30.807  25.946  1.00  0.00    -0.275 OA
ATOM      3  N   UNL A   1      33.482  30.539  26.848  1.00  0.00    -0.356 N 
ATOM      4  H   UNL A   1      33.757  31.340  26.348  1.00  0.00     0.163 HD
ENDROOT
BRANCH   1   5
ATOM      5  C   UNL A   1      31.720  28.790  27.207  1.00  0.00     0.157 C 
BRANCH   5   6
ATOM      6  C   UNL A   1      31.601  27.739  26.156  1.00  0.00     0.063 A 
ATOM      7  C   UNL A   1      32.009  26.982  24.134  1.00  0.00     0.189 A 
ATOM      8  N   UNL A   1      32.411  27.836  25.034  1.00  0.00    -0.224 NA
ATOM      9  S   UNL A   1      30.779  25.898  24.604  1.00  0.00    -0.105 S 
ATOM     10  C   UNL A   1      30.706  26.681  26.130  1.00  0.00     0.093 A 
BRANCH   7  11
ATOM     11  N   UNL A   1      32.409  26.860  22.842  1.00  0.00    -0.299 N 
ATOM     12  C   UNL A   1      33.437  26.093  22.386  1.00  0.00     0.264 C 
ATOM     13  O   UNL A   1      33.709  26.163  21.180  1.00  0.00    -0.271 OA
ATOM     14  H   UNL A   1      31.907  27.374  22.169  1.00  0.00     0.172 HD
BRANCH  12  15
ATOM     15  C   UNL A   1      34.161  25.076  23.294  1.00  0.00     0.329 C 
BRANCH  15  16
ATOM     16  O   UNL A   1      34.428  23.766  22.829  1.00  0.00    -0.483 OA
BRANCH  16  17
ATOM     17  C   UNL A   1      35.033  22.856  23.654  1.00  0.00     0.123 A 
ATOM     18  C   UNL A   1      38.290  22.197  25.528  1.00  0.00     0.044 C 
ATOM     19  C   UNL A   1      36.890  22.044  25.014  1.00  0.00    -0.047 A 
ATOM     20  C   UNL A   1      36.092  20.997  25.470  1.00  0.00     0.004 A 
ATOM     21  C   UNL A   1      36.358  22.959  24.095  1.00  0.00     0.050 A 
ATOM     22  C   UNL A   1      34.789  20.852  24.999  1.00  0.00     0.008 A 
ATOM     23  C   UNL A   1      34.235  21.775  24.093  1.00  0.00    -0.003 A 
BRANCH  23  24
ATOM     24  C   UNL A   1      32.801  21.582  23.609  1.00  0.00     0.017 C 
ATOM     25  C   UNL A   1      32.407  20.104  23.603  1.00  0.00     0.012 C 
ATOM     26  C   UNL A   1      31.784  22.372  24.443  1.00  0.00     0.012 C 
ENDBRANCH  23  24
ENDBRANCH  16  17
ENDBRANCH  15  16
ENDBRANCH  12  15
ENDBRANCH   7  11
ENDBRANCH   5   6
ENDBRANCH   1   5
BRANCH   3  27
ATOM     27  C   UNL A   1      34.488  29.967  27.730  1.00  0.00     0.117 C 
BRANCH  27  28
ATOM     28  C   UNL A   1      35.404  30.981  28.397  1.00  0.00     0.042 C 
BRANCH  28  29
ATOM     29  C   UNL A   1      35.462  32.299  27.654  1.00  0.00     0.118 C 
BRANCH  29  30
ATOM     30  N   UNL A   1      34.802  33.415  28.311  1.00  0.00    -0.352 N 
ATOM     31  C   UNL A   1      35.127  34.056  29.501  1.00  0.00     0.251 C 
ATOM     32  H   UNL A   1      34.009  33.767  27.846  1.00  0.00     0.163 HD
ATOM     33  O   UNL A   1      34.342  34.876  29.951  1.00  0.00    -0.269 OA
BRANCH  31  34
ATOM     34  C   UNL A   1      36.460  33.838  30.137  1.00  0.00     0.039 A 
ATOM     35  C   UNL A   1      37.614  34.187  29.419  1.00  0.00     0.014 A 
ATOM     36  C   UNL A   1      36.588  33.121  31.319  1.00  0.00     0.014 A 
ATOM     37  C   UNL A   1      38.837  33.593  29.739  1.00  0.00     0.010 A 
ATOM     38  C   UNL A   1      37.748  32.427  31.555  1.00  0.00     0.010 A 
ATOM     39  C   UNL A   1      38.857  32.620  30.730  1.00  0.00    -0.014 A 
BRANCH  39  40
ATOM     40  C   UNL A   1      39.922  31.658  30.961  1.00  0.00     0.031 A 
ATOM     41  C   UNL A   1      39.889  30.337  30.307  1.00  0.00     0.074 A 
ATOM     42  C   UNL A   1      41.080  32.148  31.456  1.00  0.00     0.049 A 
ATOM     43  N   UNL A   1      40.695  29.370  30.583  1.00  0.00    -0.248 NA
ATOM     44  C   UNL A   1      38.919  30.005  29.273  1.00  0.00     0.031 C 
ATOM     45  C   UNL A   1      42.420  31.604  31.283  1.00  0.00     0.029 A 
ATOM     46  N   UNL A   1      41.245  33.174  32.391  1.00  0.00    -0.354 N 
ATOM     47  C   UNL A   1      40.564  28.427  29.583  1.00  0.00     0.074 A 
ATOM     48  C   UNL A   1      39.380  28.822  28.860  1.00  0.00     0.031 C 
ATOM     49  C   UNL A   1      43.206  32.083  32.259  1.00  0.00     0.029 A 
ATOM     50  C   UNL A   1      42.342  32.798  33.183  1.00  0.00     0.049 A 
ATOM     51  H   UNL A   1      40.704  33.992  32.477  1.00  0.00     0.167 HD
ATOM     52  C   UNL A   1      41.570  27.524  29.398  1.00  0.00     0.034 A 
ATOM     53  C   UNL A   1      42.253  32.563  34.525  1.00  0.00     0.034 A 
ATOM     54  C   UNL A   1      42.617  27.697  30.419  1.00  0.00     0.049 A 
ATOM     55  C   UNL A   1      42.680  31.157  34.909  1.00  0.00     0.074 A 
ATOM     56  C   UNL A   1      43.860  28.310  30.394  1.00  0.00     0.029 A 
ATOM     57  N   UNL A   1      42.335  27.435  31.754  1.00  0.00    -0.354 N 
ATOM     58  N   UNL A   1      42.928  30.208  34.050  1.00  0.00    -0.248 NA
ATOM     59  C   UNL A   1      42.844  30.703  36.286  1.00  0.00     0.031 C 
ATOM     60  C   UNL A   1      44.290  28.484  31.736  1.00  0.00     0.029 A 
ATOM     61  C   UNL A   1      43.324  27.953  32.575  1.00  0.00     0.049 A 
ATOM     62  H   UNL A   1      41.542  26.946  32.073  1.00  0.00     0.167 HD
ATOM     63  C   UNL A   1      43.141  29.022  34.704  1.00  0.00     0.074 A 
ATOM     64  C   UNL A   1      43.157  29.406  36.105  1.00  0.00     0.031 C 
ATOM     65  C   UNL A   1      43.222  27.833  34.028  1.00  0.00     0.034 A 
BRANCH  52  66
ATOM     66  C   UNL A   1      41.805  26.673  28.151  1.00  0.00     0.023 A 
ATOM     67  C   UNL A   1      41.591  27.300  26.900  1.00  0.00     0.012 A 
ATOM     68  C   UNL A   1      42.147  25.303  28.089  1.00  0.00     0.148 A 
ATOM     69  C   UNL A   1      41.603  26.602  25.686  1.00  0.00     0.002 A 
ATOM     70  C   UNL A   1      42.114  24.590  26.884  1.00  0.00     0.091 A 
ATOM     71  F   UNL A   1      42.588  24.673  29.177  1.00  0.00    -0.205 F 
ATOM     72  C   UNL A   1      41.833  25.236  25.680  1.00  0.00     0.022 A 
BRANCH  70  73
ATOM     73  S   UNL A   1      42.366  22.805  26.807  1.00  0.00     0.127 S 
ATOM     74  O   UNL A   1      43.739  22.668  27.296  1.00  0.00    -0.237 OA
ATOM     75  O   UNL A   1      41.342  22.303  27.721  1.00  0.00    -0.237 OA
ATOM     76  O   UNL A   1      42.193  22.426  25.409  1.00  0.00    -0.744 OA
ENDBRANCH  70  73
ENDBRANCH  52  66
BRANCH  53  77
ATOM     77  C   UNL A   1      41.200  33.375  35.203  1.00  0.00     0.023 A 
ATOM     78  C   UNL A   1      41.480  34.753  35.373  1.00  0.00     0.012 A 
ATOM     79  C   UNL A   1      39.864  32.941  35.276  1.00  0.00     0.148 A 
ATOM     80  C   UNL A   1      40.450  35.689  35.476  1.00  0.00     0.002 A 
ATOM     81  C   UNL A   1      38.839  33.884  35.382  1.00  0.00     0.091 A 
ATOM     82  F   UNL A   1      39.608  31.634  35.147  1.00  0.00    -0.205 F 
ATOM     83  C   UNL A   1      39.130  35.257  35.445  1.00  0.00     0.022 A 
BRANCH  81  84
ATOM     84  S   UNL A   1      37.104  33.417  35.291  1.00  0.00     0.127 S 
ATOM     85  O   UNL A   1      36.718  33.447  36.699  1.00  0.00    -0.237 OA
ATOM     86  O   UNL A   1      36.534  34.485  34.471  1.00  0.00    -0.237 OA
ATOM     87  O   UNL A   1      37.102  32.110  34.648  1.00  0.00    -0.744 OA
ENDBRANCH  81  84
ENDBRANCH  53  77
BRANCH  65  88
ATOM     88  C   UNL A   1      43.198  26.444  34.650  1.00  0.00     0.023 A 
ATOM     89  C   UNL A   1      42.003  25.803  35.026  1.00  0.00     0.012 A 
ATOM     90  C   UNL A   1      44.383  25.664  34.738  1.00  0.00     0.148 A 
ATOM     91  C   UNL A   1      41.982  24.488  35.508  1.00  0.00     0.002 A 
ATOM     92  C   UNL A   1      44.343  24.321  35.108  1.00  0.00     0.091 A 
ATOM     93  F   UNL A   1      45.577  26.222  34.483  1.00  0.00    -0.205 F 
ATOM     94  C   UNL A   1      43.148  23.736  35.524  1.00  0.00     0.022 A 
BRANCH  92  95
ATOM     95  S   UNL A   1      45.787  23.268  34.899  1.00  0.00     0.127 S 
ATOM     96  O   UNL A   1      45.184  21.987  34.539  1.00  0.00    -0.237 OA
ATOM     97  O   UNL A   1      46.508  23.927  33.809  1.00  0.00    -0.237 OA
ATOM     98  O   UNL A   1      46.474  23.324  36.183  1.00  0.00    -0.744 OA
ENDBRANCH  92  95
ENDBRANCH  65  88
ENDBRANCH  39  40
ENDBRANCH  31  34
ENDBRANCH  29  30
ENDBRANCH  28  29
ENDBRANCH  27  28
ENDBRANCH   3  27
TORSDOF 19
ENDMDL
MODEL 3
REMARK VINA RESULT:     -11.1      1.554      2.398
REMARK SMILES Cc1ccc(C(C)C)c(OCC(=O)Nc2nc(CC(=O)NCCCNC(=O)c3ccc(-c4c5nc(c(-c6cccc(S(=O)(=O)[O-])c6F)c6ccc([nH]6)c(-c6cccc(S(=O)(=O)[O-])c6F)c6nc(c(-c7cccc(S(=O)(=O)[O-])c7F)c7ccc4[nH]7)C=C6)C=C5)cc3)cs2)c1
REMARK SMILES IDX 19 1 20 2 21 3 18 5 17 6 15 7 16 8 92 9 91 10 14 11 12 12
REMARK SMILES IDX 13 13 11 15 10 16 9 17 1 18 2 19 3 20 93 21 4 22 5 23 6 24
REMARK SMILES IDX 7 25 8 26 22 27 23 28 24 29 25 30 26 31 27 33 28 34 29 35
REMARK SMILES IDX 90 36 30 37 89 38 31 39 32 40 33 41 83 42 34 43 88 44 82 45
REMARK SMILES IDX 84 46 35 47 87 48 81 49 80 50 36 52 68 53 48 54 67 55 49 56
REMARK SMILES IDX 52 57 66 58 85 59 50 60 51 61 65 63 86 64 53 65 37 66 38 67
REMARK SMILES IDX 46 68 39 69 41 70 47 71 40 72 42 73 43 74 44 75 45 76 69 77
REMARK SMILES IDX 70 78 78 79 71 80 73 81 79 82 72 83 74 84 75 85 76 86 77 87
REMARK SMILES IDX 54 88 55 89 63 90 56 91 58 92 64 93 57 94 59 95 60 96 61 97
REMARK SMILES IDX 62 98
REMARK H PARENT 21 4 14 14 25 32 84 51 52 62
REMARK Flexibility Score: inf
ROOT
ATOM      1  C   UNL A   1      34.923  34.189  27.954  1.00  0.00     0.226 C 
ATOM      2  O   UNL A   1      35.911  33.969  27.252  1.00  0.00    -0.275 OA
ATOM      3  N   UNL A   1      34.357  35.436  27.933  1.00  0.00    -0.356 N 
ATOM      4  H   UNL A   1      34.856  36.123  27.436  1.00  0.00     0.163 HD
ENDROOT
BRANCH   1   5
ATOM      5  C   UNL A   1      34.335  33.093  28.827  1.00  0.00     0.157 C 
BRANCH   5   6
ATOM      6  C   UNL A   1      34.394  31.766  28.149  1.00  0.00     0.063 A 
ATOM      7  C   UNL A   1      33.495  29.832  27.619  1.00  0.00     0.189 A 
ATOM      8  N   UNL A   1      33.217  31.043  28.013  1.00  0.00    -0.224 NA
ATOM      9  S   UNL A   1      35.122  29.513  27.216  1.00  0.00    -0.105 S 
ATOM     10  C   UNL A   1      35.525  31.115  27.683  1.00  0.00     0.093 A 
BRANCH   7  11
ATOM     11  N   UNL A   1      32.667  28.759  27.522  1.00  0.00    -0.299 N 
ATOM     12  C   UNL A   1      31.783  28.513  26.517  1.00  0.00     0.264 C 
ATOM     13  O   UNL A   1      31.051  27.522  26.633  1.00  0.00    -0.271 OA
ATOM     14  H   UNL A   1      32.710  28.097  28.248  1.00  0.00     0.172 HD
BRANCH  12  15
ATOM     15  C   UNL A   1      31.770  29.348  25.219  1.00  0.00     0.329 C 
BRANCH  15  16
ATOM     16  O   UNL A   1      32.139  28.761  23.986  1.00  0.00    -0.483 OA
BRANCH  16  17
ATOM     17  C   UNL A   1      31.719  27.495  23.677  1.00  0.00     0.123 A 
ATOM     18  C   UNL A   1      32.908  23.871  23.583  1.00  0.00     0.044 C 
ATOM     19  C   UNL A   1      32.031  25.082  23.479  1.00  0.00    -0.047 A 
ATOM     20  C   UNL A   1      30.680  24.938  23.167  1.00  0.00     0.004 A 
ATOM     21  C   UNL A   1      32.544  26.365  23.716  1.00  0.00     0.050 A 
ATOM     22  C   UNL A   1      29.859  26.060  23.073  1.00  0.00     0.008 A 
ATOM     23  C   UNL A   1      30.356  27.351  23.329  1.00  0.00    -0.003 A 
BRANCH  23  24
ATOM     24  C   UNL A   1      29.420  28.550  23.222  1.00  0.00     0.017 C 
ATOM     25  C   UNL A   1      29.767  29.424  22.015  1.00  0.00     0.012 C 
ATOM     26  C   UNL A   1      27.942  28.142  23.140  1.00  0.00     0.012 C 
ENDBRANCH  23  24
ENDBRANCH  16  17
ENDBRANCH  15  16
ENDBRANCH  12  15
ENDBRANCH   7  11
ENDBRANCH   5   6
ENDBRANCH   1   5
BRANCH   3  27
ATOM     27  C   UNL A   1      33.116  35.878  28.550  1.00  0.00     0.117 C 
BRANCH  27  28
ATOM     28  C   UNL A   1      33.290  36.715  29.808  1.00  0.00     0.042 C 
BRANCH  28  29
ATOM     29  C   UNL A   1      32.738  36.038  31.045  1.00  0.00     0.118 C 
BRANCH  29  30
ATOM     30  N   UNL A   1      33.392  36.394  32.294  1.00  0.00    -0.352 N 
ATOM     31  C   UNL A   1      34.301  35.665  33.052  1.00  0.00     0.251 C 
ATOM     32  H   UNL A   1      33.157  37.278  32.655  1.00  0.00     0.163 HD
ATOM     33  O   UNL A   1      34.609  36.089  34.155  1.00  0.00    -0.269 OA
BRANCH  31  34
ATOM     34  C   UNL A   1      34.976  34.464  32.476  1.00  0.00     0.039 A 
ATOM     35  C   UNL A   1      34.775  33.218  33.089  1.00  0.00     0.014 A 
ATOM     36  C   UNL A   1      35.944  34.584  31.488  1.00  0.00     0.014 A 
ATOM     37  C   UNL A   1      35.707  32.195  32.907  1.00  0.00     0.010 A 
ATOM     38  C   UNL A   1      36.938  33.641  31.410  1.00  0.00     0.010 A 
ATOM     39  C   UNL A   1      36.848  32.469  32.163  1.00  0.00    -0.014 A 
BRANCH  39  40
ATOM     40  C   UNL A   1      38.071  31.682  32.153  1.00  0.00     0.031 A 
ATOM     41  C   UNL A   1      38.141  30.421  31.393  1.00  0.00     0.074 A 
ATOM     42  C   UNL A   1      39.202  32.322  32.524  1.00  0.00     0.049 A 
ATOM     43  N   UNL A   1      39.118  29.584  31.465  1.00  0.00    -0.248 NA
ATOM     44  C   UNL A   1      37.086  30.003  30.481  1.00  0.00     0.031 C 
ATOM     45  C   UNL A   1      40.567  32.019  32.115  1.00  0.00     0.029 A 
ATOM     46  N   UNL A   1      39.350  33.296  33.515  1.00  0.00    -0.354 N 
ATOM     47  C   UNL A   1      38.982  28.702  30.412  1.00  0.00     0.074 A 
ATOM     48  C   UNL A   1      37.653  28.943  29.901  1.00  0.00     0.031 C 
ATOM     49  C   UNL A   1      41.410  32.555  33.011  1.00  0.00     0.029 A 
ATOM     50  C   UNL A   1      40.600  33.054  34.107  1.00  0.00     0.049 A 
ATOM     51  H   UNL A   1      38.709  34.006  33.750  1.00  0.00     0.167 HD
ATOM     52  C   UNL A   1      40.073  27.991  30.006  1.00  0.00     0.034 A 
ATOM     53  C   UNL A   1      40.754  32.718  35.422  1.00  0.00     0.034 A 
ATOM     54  C   UNL A   1      41.226  28.266  30.881  1.00  0.00     0.049 A 
ATOM     55  C   UNL A   1      41.445  31.380  35.613  1.00  0.00     0.074 A 
ATOM     56  C   UNL A   1      42.341  29.076  30.738  1.00  0.00     0.029 A 
ATOM     57  N   UNL A   1      41.195  27.871  32.213  1.00  0.00    -0.354 N 
ATOM     58  N   UNL A   1      41.701  30.544  34.645  1.00  0.00    -0.248 NA
ATOM     59  C   UNL A   1      41.886  30.867  36.906  1.00  0.00     0.031 C 
ATOM     60  C   UNL A   1      42.940  29.228  32.016  1.00  0.00     0.029 A 
ATOM     61  C   UNL A   1      42.208  28.489  32.930  1.00  0.00     0.049 A 
ATOM     62  H   UNL A   1      40.544  27.238  32.595  1.00  0.00     0.167 HD
ATOM     63  C   UNL A   1      42.191  29.369  35.152  1.00  0.00     0.074 A 
ATOM     64  C   UNL A   1      42.363  29.655  36.566  1.00  0.00     0.031 C 
ATOM     65  C   UNL A   1      42.349  28.257  34.366  1.00  0.00     0.034 A 
BRANCH  52  66
ATOM     66  C   UNL A   1      40.241  27.276  28.666  1.00  0.00     0.023 A 
ATOM     67  C   UNL A   1      39.391  26.172  28.419  1.00  0.00     0.012 A 
ATOM     68  C   UNL A   1      41.197  27.540  27.658  1.00  0.00     0.148 A 
ATOM     69  C   UNL A   1      39.545  25.324  27.316  1.00  0.00     0.002 A 
ATOM     70  C   UNL A   1      41.386  26.670  26.578  1.00  0.00     0.091 A 
ATOM     71  F   UNL A   1      41.891  28.677  27.674  1.00  0.00    -0.205 F 
ATOM     72  C   UNL A   1      40.567  25.554  26.409  1.00  0.00     0.022 A 
BRANCH  70  73
ATOM     73  S   UNL A   1      42.719  26.886  25.380  1.00  0.00     0.127 S 
ATOM     74  O   UNL A   1      42.665  25.629  24.631  1.00  0.00    -0.237 OA
ATOM     75  O   UNL A   1      42.279  28.060  24.629  1.00  0.00    -0.237 OA
ATOM     76  O   UNL A   1      43.941  27.064  26.155  1.00  0.00    -0.744 OA
ENDBRANCH  70  73
ENDBRANCH  52  66
BRANCH  53  77
ATOM     77  C   UNL A   1      39.706  33.298  36.312  1.00  0.00     0.023 A 
ATOM     78  C   UNL A   1      38.650  32.433  36.688  1.00  0.00     0.012 A 
ATOM     79  C   UNL A   1      39.946  34.450  37.084  1.00  0.00     0.148 A 
ATOM     80  C   UNL A   1      37.942  32.635  37.874  1.00  0.00     0.002 A 
ATOM     81  C   UNL A   1      39.231  34.645  38.268  1.00  0.00     0.091 A 
ATOM     82  F   UNL A   1      40.924  35.281  36.706  1.00  0.00    -0.205 F 
ATOM     83  C   UNL A   1      38.257  33.721  38.680  1.00  0.00     0.022 A 
BRANCH  81  84
ATOM     84  S   UNL A   1      39.615  35.992  39.398  1.00  0.00     0.127 S 
ATOM     85  O   UNL A   1      38.791  35.648  40.554  1.00  0.00    -0.237 OA
ATOM     86  O   UNL A   1      41.055  35.833  39.598  1.00  0.00    -0.237 OA
ATOM     87  O   UNL A   1      39.245  37.201  38.678  1.00  0.00    -0.744 OA
ENDBRANCH  81  84
ENDBRANCH  53  77
BRANCH  65  88
ATOM     88  C   UNL A   1      42.634  26.845  34.857  1.00  0.00     0.023 A 
ATOM     89  C   UNL A   1      41.802  26.181  35.777  1.00  0.00     0.012 A 
ATOM     90  C   UNL A   1      43.680  26.071  34.284  1.00  0.00     0.148 A 
ATOM     91  C   UNL A   1      42.017  24.847  36.150  1.00  0.00     0.002 A 
ATOM     92  C   UNL A   1      43.819  24.714  34.571  1.00  0.00     0.091 A 
ATOM     93  F   UNL A   1      44.572  26.647  33.465  1.00  0.00    -0.205 F 
ATOM     94  C   UNL A   1      43.009  24.104  35.527  1.00  0.00     0.022 A 
BRANCH  92  95
ATOM     95  S   UNL A   1      44.927  23.681  33.599  1.00  0.00     0.127 S 
ATOM     96  O   UNL A   1      44.612  22.343  34.093  1.00  0.00    -0.237 OA
ATOM     97  O   UNL A   1      44.486  23.941  32.227  1.00  0.00    -0.237 OA
ATOM     98  O   UNL A   1      46.261  24.186  33.899  1.00  0.00    -0.744 OA
ENDBRANCH  92  95
ENDBRANCH  65  88
ENDBRANCH  39  40
ENDBRANCH  31  34
ENDBRANCH  29  30
ENDBRANCH  28  29
ENDBRANCH  27  28
ENDBRANCH   3  27
TORSDOF 19
ENDMDL
