MODEL 1
REMARK VINA RESULT:     -12.2      0.000      0.000
REMARK SMILES CC[C@@](O)(C(=O)NCCCNC(=O)c1ccc(-c2c3nc(c(-c4cccc(S(=O)(=O)[O-])c4F)c4ccc([nH]4)c(-c4cccc(S(=O)(=O)[O-])c4F)c4nc(c(-c5cccc(S(=O)(=O)[O-])c5F)c5ccc2[nH]5)C=C4)C=C3)cc1)[C@H]1CCc2ccc(OC)cc21
REMARK SMILES IDX 9 1 8 2 7 3 5 4 6 5 3 7 2 8 1 9 4 10 77 12 78 13 87 14 79 15
REMARK SMILES IDX 80 16 86 17 81 18 83 19 82 20 84 21 85 22 10 23 11 24 12 25
REMARK SMILES IDX 13 27 14 28 15 29 76 30 16 31 75 32 17 33 18 34 19 35 69 36
REMARK SMILES IDX 20 37 74 38 68 39 70 40 21 41 73 42 67 43 66 44 22 46 54 47
REMARK SMILES IDX 34 48 53 49 35 50 38 51 52 52 71 53 36 54 37 55 51 57 72 58
REMARK SMILES IDX 39 59 23 60 24 61 32 62 25 63 27 64 33 65 26 66 28 67 29 68
REMARK SMILES IDX 30 69 31 70 55 71 56 72 64 73 57 74 59 75 65 76 58 77 60 78
REMARK SMILES IDX 61 79 62 80 63 81 40 82 41 83 49 84 42 85 44 86 50 87 43 88
REMARK SMILES IDX 45 89 46 90 47 91 48 92
REMARK H PARENT 7 6 4 11 11 26 70 45 38 56
REMARK Flexibility Score: inf
ROOT
ATOM      1  C   UNL A   1      31.566  32.093  26.836  1.00  0.00     0.042 C 
ENDROOT
BRANCH   1   2
ATOM      2  C   UNL A   1      31.773  30.598  26.614  1.00  0.00     0.117 C 
BRANCH   2   3
ATOM      3  N   UNL A   1      32.298  30.365  25.286  1.00  0.00    -0.354 N 
ATOM      4  C   UNL A   1      32.548  29.202  24.630  1.00  0.00     0.252 C 
ATOM      5  O   UNL A   1      33.320  29.297  23.672  1.00  0.00    -0.272 OA
ATOM      6  H   UNL A   1      32.507  31.180  24.776  1.00  0.00     0.163 HD
BRANCH   4   7
ATOM      7  C   UNL A   1      31.891  27.854  25.079  1.00  0.00     0.149 C 
BRANCH   7   8
ATOM      8  C   UNL A   1      33.013  26.842  25.408  1.00  0.00     0.043 C 
ATOM      9  C   UNL A   1      33.524  26.025  24.227  1.00  0.00     0.007 C 
ENDBRANCH   7   8
BRANCH   7  10
ATOM     10  O   UNL A   1      31.137  28.074  26.294  1.00  0.00    -0.379 OA
ATOM     11  H   UNL A   1      30.493  28.785  26.149  1.00  0.00     0.212 HD
ENDBRANCH   7  10
BRANCH   7  12
ATOM     12  C   UNL A   1      30.850  27.385  24.005  1.00  0.00     0.061 C 
ATOM     13  C   UNL A   1      29.908  26.293  24.611  1.00  0.00     0.017 C 
ATOM     14  C   UNL A   1      29.844  28.363  23.447  1.00  0.00    -0.035 A 
ATOM     15  C   UNL A   1      28.568  26.386  23.886  1.00  0.00     0.036 C 
ATOM     16  C   UNL A   1      28.553  27.822  23.475  1.00  0.00    -0.044 A 
ATOM     17  C   UNL A   1      30.048  29.647  22.953  1.00  0.00     0.050 A 
ATOM     18  C   UNL A   1      27.447  28.578  23.126  1.00  0.00     0.008 A 
ATOM     19  C   UNL A   1      28.942  30.430  22.610  1.00  0.00     0.119 A 
ATOM     20  C   UNL A   1      27.649  29.897  22.718  1.00  0.00     0.047 A 
BRANCH  19  21
ATOM     21  O   UNL A   1      28.990  31.724  22.163  1.00  0.00    -0.497 OA
ATOM     22  C   UNL A   1      28.210  32.035  21.013  1.00  0.00     0.278 C 
ENDBRANCH  19  21
ENDBRANCH   7  12
ENDBRANCH   4   7
ENDBRANCH   2   3
ENDBRANCH   1   2
BRANCH   1  23
ATOM     23  C   UNL A   1      32.834  32.829  27.258  1.00  0.00     0.118 C 
BRANCH  23  24
ATOM     24  N   UNL A   1      32.566  34.200  27.673  1.00  0.00    -0.352 N 
ATOM     25  C   UNL A   1      33.076  34.898  28.735  1.00  0.00     0.251 C 
ATOM     26  H   UNL A   1      31.927  34.695  27.110  1.00  0.00     0.163 HD
ATOM     27  O   UNL A   1      32.571  35.971  29.064  1.00  0.00    -0.269 OA
BRANCH  25  28
ATOM     28  C   UNL A   1      34.223  34.351  29.484  1.00  0.00     0.039 A 
ATOM     29  C   UNL A   1      33.990  33.710  30.702  1.00  0.00     0.014 A 
ATOM     30  C   UNL A   1      35.523  34.472  28.984  1.00  0.00     0.014 A 
ATOM     31  C   UNL A   1      35.061  33.147  31.396  1.00  0.00     0.010 A 
ATOM     32  C   UNL A   1      36.574  33.834  29.633  1.00  0.00     0.010 A 
ATOM     33  C   UNL A   1      36.357  33.180  30.854  1.00  0.00    -0.014 A 
BRANCH  33  34
ATOM     34  C   UNL A   1      37.493  32.536  31.557  1.00  0.00     0.031 A 
ATOM     35  C   UNL A   1      38.227  31.386  30.921  1.00  0.00     0.074 A 
ATOM     36  C   UNL A   1      37.820  32.946  32.798  1.00  0.00     0.049 A 
ATOM     37  N   UNL A   1      39.231  30.690  31.390  1.00  0.00    -0.248 NA
ATOM     38  C   UNL A   1      37.758  30.941  29.598  1.00  0.00     0.031 C 
ATOM     39  C   UNL A   1      37.124  33.988  33.556  1.00  0.00     0.029 A 
ATOM     40  N   UNL A   1      38.808  32.521  33.650  1.00  0.00    -0.354 N 
ATOM     41  C   UNL A   1      39.495  29.715  30.437  1.00  0.00     0.074 A 
ATOM     42  C   UNL A   1      38.517  29.876  29.384  1.00  0.00     0.031 C 
ATOM     43  C   UNL A   1      37.710  34.127  34.755  1.00  0.00     0.029 A 
ATOM     44  C   UNL A   1      38.804  33.167  34.864  1.00  0.00     0.049 A 
ATOM     45  H   UNL A   1      39.458  31.820  33.416  1.00  0.00     0.167 HD
ATOM     46  C   UNL A   1      40.485  28.790  30.419  1.00  0.00     0.034 A 
ATOM     47  C   UNL A   1      39.590  33.002  35.946  1.00  0.00     0.034 A 
ATOM     48  C   UNL A   1      41.474  28.655  31.454  1.00  0.00     0.049 A 
ATOM     49  C   UNL A   1      40.709  31.998  35.884  1.00  0.00     0.074 A 
ATOM     50  C   UNL A   1      42.562  27.801  31.498  1.00  0.00     0.029 A 
ATOM     51  N   UNL A   1      41.493  29.388  32.630  1.00  0.00    -0.354 N 
ATOM     52  N   UNL A   1      41.042  31.192  34.904  1.00  0.00    -0.248 NA
ATOM     53  C   UNL A   1      41.587  31.910  37.059  1.00  0.00     0.031 C 
ATOM     54  C   UNL A   1      43.225  28.002  32.713  1.00  0.00     0.029 A 
ATOM     55  C   UNL A   1      42.570  29.005  33.411  1.00  0.00     0.049 A 
ATOM     56  H   UNL A   1      40.837  30.081  32.875  1.00  0.00     0.167 HD
ATOM     57  C   UNL A   1      42.185  30.527  35.329  1.00  0.00     0.074 A 
ATOM     58  C   UNL A   1      42.503  31.044  36.645  1.00  0.00     0.031 C 
ATOM     59  C   UNL A   1      42.900  29.563  34.697  1.00  0.00     0.034 A 
BRANCH  46  60
ATOM     60  C   UNL A   1      40.581  27.892  29.212  1.00  0.00     0.023 A 
ATOM     61  C   UNL A   1      39.752  26.754  29.126  1.00  0.00     0.012 A 
ATOM     62  C   UNL A   1      41.445  28.197  28.143  1.00  0.00     0.148 A 
ATOM     63  C   UNL A   1      39.809  25.913  28.016  1.00  0.00     0.002 A 
ATOM     64  C   UNL A   1      41.460  27.381  27.017  1.00  0.00     0.091 A 
ATOM     65  F   UNL A   1      42.240  29.272  28.249  1.00  0.00    -0.205 F 
ATOM     66  C   UNL A   1      40.654  26.232  26.957  1.00  0.00     0.022 A 
BRANCH  64  67
ATOM     67  S   UNL A   1      42.452  27.748  25.564  1.00  0.00     0.127 S 
ATOM     68  O   UNL A   1      43.789  27.868  26.143  1.00  0.00    -0.237 OA
ATOM     69  O   UNL A   1      42.247  26.554  24.744  1.00  0.00    -0.237 OA
ATOM     70  O   UNL A   1      41.903  28.974  25.001  1.00  0.00    -0.744 OA
ENDBRANCH  64  67
ENDBRANCH  46  60
BRANCH  47  71
ATOM     71  C   UNL A   1      39.383  33.848  37.154  1.00  0.00     0.023 A 
ATOM     72  C   UNL A   1      39.807  35.191  37.146  1.00  0.00     0.012 A 
ATOM     73  C   UNL A   1      38.743  33.338  38.300  1.00  0.00     0.148 A 
ATOM     74  C   UNL A   1      39.636  35.999  38.271  1.00  0.00     0.002 A 
ATOM     75  C   UNL A   1      38.522  34.164  39.396  1.00  0.00     0.091 A 
ATOM     76  F   UNL A   1      38.353  32.055  38.293  1.00  0.00    -0.205 F 
ATOM     77  C   UNL A   1      38.984  35.489  39.391  1.00  0.00     0.022 A 
BRANCH  75  78
ATOM     78  S   UNL A   1      37.571  33.632  40.824  1.00  0.00     0.127 S 
ATOM     79  O   UNL A   1      36.373  33.081  40.198  1.00  0.00    -0.237 OA
ATOM     80  O   UNL A   1      38.462  32.641  41.429  1.00  0.00    -0.237 OA
ATOM     81  O   UNL A   1      37.372  34.828  41.631  1.00  0.00    -0.744 OA
ENDBRANCH  75  78
ENDBRANCH  47  71
BRANCH  59  82
ATOM     82  C   UNL A   1      44.120  29.029  35.400  1.00  0.00     0.023 A 
ATOM     83  C   UNL A   1      45.379  29.619  35.171  1.00  0.00     0.012 A 
ATOM     84  C   UNL A   1      44.008  27.980  36.334  1.00  0.00     0.148 A 
ATOM     85  C   UNL A   1      46.514  29.148  35.830  1.00  0.00     0.002 A 
ATOM     86  C   UNL A   1      45.133  27.550  37.027  1.00  0.00     0.091 A 
ATOM     87  F   UNL A   1      42.804  27.419  36.526  1.00  0.00    -0.205 F 
ATOM     88  C   UNL A   1      46.389  28.122  36.765  1.00  0.00     0.022 A 
BRANCH  86  89
ATOM     89  S   UNL A   1      45.051  26.304  38.317  1.00  0.00     0.127 S 
ATOM     90  O   UNL A   1      45.131  25.067  37.541  1.00  0.00    -0.237 OA
ATOM     91  O   UNL A   1      46.242  26.603  39.112  1.00  0.00    -0.237 OA
ATOM     92  O   UNL A   1      43.790  26.528  39.011  1.00  0.00    -0.744 OA
ENDBRANCH  86  89
ENDBRANCH  59  82
ENDBRANCH  33  34
ENDBRANCH  25  28
ENDBRANCH  23  24
ENDBRANCH   1  23
TORSDOF 17
ENDMDL
MODEL 2
REMARK VINA RESULT:     -12.0      1.194      2.837
REMARK SMILES CC[C@@](O)(C(=O)NCCCNC(=O)c1ccc(-c2c3nc(c(-c4cccc(S(=O)(=O)[O-])c4F)c4ccc([nH]4)c(-c4cccc(S(=O)(=O)[O-])c4F)c4nc(c(-c5cccc(S(=O)(=O)[O-])c5F)c5ccc2[nH]5)C=C4)C=C3)cc1)[C@H]1CCc2ccc(OC)cc21
REMARK SMILES IDX 9 1 8 2 7 3 5 4 6 5 3 7 2 8 1 9 4 10 77 12 78 13 87 14 79 15
REMARK SMILES IDX 80 16 86 17 81 18 83 19 82 20 84 21 85 22 10 23 11 24 12 25
REMARK SMILES IDX 13 27 14 28 15 29 76 30 16 31 75 32 17 33 18 34 19 35 69 36
REMARK SMILES IDX 20 37 74 38 68 39 70 40 21 41 73 42 67 43 66 44 22 46 54 47
REMARK SMILES IDX 34 48 53 49 35 50 38 51 52 52 71 53 36 54 37 55 51 57 72 58
REMARK SMILES IDX 39 59 23 60 24 61 32 62 25 63 27 64 33 65 26 66 28 67 29 68
REMARK SMILES IDX 30 69 31 70 55 71 56 72 64 73 57 74 59 75 65 76 58 77 60 78
REMARK SMILES IDX 61 79 62 80 63 81 40 82 41 83 49 84 42 85 44 86 50 87 43 88
REMARK SMILES IDX 45 89 46 90 47 91 48 92
REMARK H PARENT 7 6 4 11 11 26 70 45 38 56
REMARK Flexibility Score: inf
ROOT
ATOM      1  C   UNL A   1      31.671  32.186  26.588  1.00  0.00     0.042 C 
ENDROOT
BRANCH   1   2
ATOM      2  C   UNL A   1      31.827  30.685  26.369  1.00  0.00     0.117 C 
BRANCH   2   3
ATOM      3  N   UNL A   1      31.029  30.266  25.237  1.00  0.00    -0.354 N 
ATOM      4  C   UNL A   1      31.337  29.450  24.195  1.00  0.00     0.252 C 
ATOM      5  O   UNL A   1      30.605  29.561  23.209  1.00  0.00    -0.272 OA
ATOM      6  H   UNL A   1      30.115  30.631  25.219  1.00  0.00     0.163 HD
BRANCH   4   7
ATOM      7  C   UNL A   1      32.541  28.452  24.270  1.00  0.00     0.149 C 
BRANCH   7   8
ATOM      8  C   UNL A   1      32.749  27.821  22.873  1.00  0.00     0.043 C 
ATOM      9  C   UNL A   1      34.020  28.246  22.148  1.00  0.00     0.007 C 
ENDBRANCH   7   8
BRANCH   7  10
ATOM     10  O   UNL A   1      33.745  29.182  24.599  1.00  0.00    -0.379 OA
ATOM     11  H   UNL A   1      33.507  30.031  25.003  1.00  0.00     0.212 HD
ENDBRANCH   7  10
BRANCH   7  12
ATOM     12  C   UNL A   1      32.318  27.437  25.445  1.00  0.00     0.061 C 
ATOM     13  C   UNL A   1      30.827  26.961  25.467  1.00  0.00     0.017 C 
ATOM     14  C   UNL A   1      33.047  26.115  25.452  1.00  0.00    -0.035 A 
ATOM     15  C   UNL A   1      30.801  25.555  26.061  1.00  0.00     0.036 C 
ATOM     16  C   UNL A   1      32.164  25.059  25.706  1.00  0.00    -0.044 A 
ATOM     17  C   UNL A   1      34.397  25.855  25.243  1.00  0.00     0.050 A 
ATOM     18  C   UNL A   1      32.581  23.740  25.643  1.00  0.00     0.008 A 
ATOM     19  C   UNL A   1      34.833  24.530  25.161  1.00  0.00     0.119 A 
ATOM     20  C   UNL A   1      33.918  23.482  25.342  1.00  0.00     0.047 A 
BRANCH  19  21
ATOM     21  O   UNL A   1      36.118  24.128  24.907  1.00  0.00    -0.497 OA
ATOM     22  C   UNL A   1      36.907  23.754  26.032  1.00  0.00     0.278 C 
ENDBRANCH  19  21
ENDBRANCH   7  12
ENDBRANCH   4   7
ENDBRANCH   2   3
ENDBRANCH   1   2
BRANCH   1  23
ATOM     23  C   UNL A   1      32.879  32.835  27.257  1.00  0.00     0.118 C 
BRANCH  23  24
ATOM     24  N   UNL A   1      32.609  34.203  27.681  1.00  0.00    -0.352 N 
ATOM     25  C   UNL A   1      33.115  34.893  28.749  1.00  0.00     0.251 C 
ATOM     26  H   UNL A   1      31.972  34.701  27.119  1.00  0.00     0.163 HD
ATOM     27  O   UNL A   1      32.609  35.963  29.084  1.00  0.00    -0.269 OA
BRANCH  25  28
ATOM     28  C   UNL A   1      34.259  34.342  29.499  1.00  0.00     0.039 A 
ATOM     29  C   UNL A   1      34.017  33.640  30.682  1.00  0.00     0.014 A 
ATOM     30  C   UNL A   1      35.566  34.516  29.034  1.00  0.00     0.014 A 
ATOM     31  C   UNL A   1      35.087  33.074  31.374  1.00  0.00     0.010 A 
ATOM     32  C   UNL A   1      36.620  33.876  29.678  1.00  0.00     0.010 A 
ATOM     33  C   UNL A   1      36.393  33.163  30.863  1.00  0.00    -0.014 A 
BRANCH  33  34
ATOM     34  C   UNL A   1      37.530  32.515  31.562  1.00  0.00     0.031 A 
ATOM     35  C   UNL A   1      38.260  31.365  30.922  1.00  0.00     0.074 A 
ATOM     36  C   UNL A   1      37.861  32.923  32.802  1.00  0.00     0.049 A 
ATOM     37  N   UNL A   1      39.264  30.667  31.387  1.00  0.00    -0.248 NA
ATOM     38  C   UNL A   1      37.787  30.923  29.599  1.00  0.00     0.031 C 
ATOM     39  C   UNL A   1      37.168  33.965  33.564  1.00  0.00     0.029 A 
ATOM     40  N   UNL A   1      38.850  32.495  33.651  1.00  0.00    -0.354 N 
ATOM     41  C   UNL A   1      39.525  29.693  30.432  1.00  0.00     0.074 A 
ATOM     42  C   UNL A   1      38.544  29.858  29.381  1.00  0.00     0.031 C 
ATOM     43  C   UNL A   1      37.758  34.101  34.762  1.00  0.00     0.029 A 
ATOM     44  C   UNL A   1      38.851  33.139  34.866  1.00  0.00     0.049 A 
ATOM     45  H   UNL A   1      39.499  31.794  33.414  1.00  0.00     0.167 HD
ATOM     46  C   UNL A   1      40.513  28.767  30.410  1.00  0.00     0.034 A 
ATOM     47  C   UNL A   1      39.640  32.971  35.946  1.00  0.00     0.034 A 
ATOM     48  C   UNL A   1      41.505  28.629  31.442  1.00  0.00     0.049 A 
ATOM     49  C   UNL A   1      40.757  31.965  35.879  1.00  0.00     0.074 A 
ATOM     50  C   UNL A   1      42.591  27.772  31.482  1.00  0.00     0.029 A 
ATOM     51  N   UNL A   1      41.528  29.359  32.619  1.00  0.00    -0.354 N 
ATOM     52  N   UNL A   1      41.085  31.161  34.897  1.00  0.00    -0.248 NA
ATOM     53  C   UNL A   1      41.638  31.874  37.051  1.00  0.00     0.031 C 
ATOM     54  C   UNL A   1      43.258  27.970  32.695  1.00  0.00     0.029 A 
ATOM     55  C   UNL A   1      42.606  28.973  33.397  1.00  0.00     0.049 A 
ATOM     56  H   UNL A   1      40.874  30.053  32.867  1.00  0.00     0.167 HD
ATOM     57  C   UNL A   1      42.229  30.493  35.318  1.00  0.00     0.074 A 
ATOM     58  C   UNL A   1      42.551  31.008  36.634  1.00  0.00     0.031 C 
ATOM     59  C   UNL A   1      42.940  29.529  34.682  1.00  0.00     0.034 A 
BRANCH  46  60
ATOM     60  C   UNL A   1      40.604  27.870  29.201  1.00  0.00     0.023 A 
ATOM     61  C   UNL A   1      39.746  26.755  29.098  1.00  0.00     0.012 A 
ATOM     62  C   UNL A   1      41.494  28.156  28.148  1.00  0.00     0.148 A 
ATOM     63  C   UNL A   1      39.798  25.918  27.985  1.00  0.00     0.002 A 
ATOM     64  C   UNL A   1      41.505  27.343  27.018  1.00  0.00     0.091 A 
ATOM     65  F   UNL A   1      42.316  29.207  28.271  1.00  0.00    -0.205 F 
ATOM     66  C   UNL A   1      40.668  26.217  26.942  1.00  0.00     0.022 A 
BRANCH  64  67
ATOM     67  S   UNL A   1      42.530  27.687  25.584  1.00  0.00     0.127 S 
ATOM     68  O   UNL A   1      42.298  26.500  24.763  1.00  0.00    -0.237 OA
ATOM     69  O   UNL A   1      41.927  28.914  25.064  1.00  0.00    -0.237 OA
ATOM     70  O   UNL A   1      43.888  27.843  26.087  1.00  0.00    -0.744 OA
ENDBRANCH  64  67
ENDBRANCH  46  60
BRANCH  47  71
ATOM     71  C   UNL A   1      39.437  33.816  37.156  1.00  0.00     0.023 A 
ATOM     72  C   UNL A   1      39.900  35.145  37.164  1.00  0.00     0.012 A 
ATOM     73  C   UNL A   1      38.764  33.317  38.288  1.00  0.00     0.148 A 
ATOM     74  C   UNL A   1      39.734  35.951  38.291  1.00  0.00     0.002 A 
ATOM     75  C   UNL A   1      38.548  34.143  39.385  1.00  0.00     0.091 A 
ATOM     76  F   UNL A   1      38.336  32.047  38.265  1.00  0.00    -0.205 F 
ATOM     77  C   UNL A   1      39.049  35.454  39.397  1.00  0.00     0.022 A 
BRANCH  75  78
ATOM     78  S   UNL A   1      37.558  33.630  40.794  1.00  0.00     0.127 S 
ATOM     79  O   UNL A   1      38.422  32.634  41.420  1.00  0.00    -0.237 OA
ATOM     80  O   UNL A   1      37.420  34.883  41.538  1.00  0.00    -0.237 OA
ATOM     81  O   UNL A   1      36.311  33.127  40.235  1.00  0.00    -0.744 OA
ENDBRANCH  75  78
ENDBRANCH  47  71
BRANCH  59  82
ATOM     82  C   UNL A   1      44.162  28.992  35.381  1.00  0.00     0.023 A 
ATOM     83  C   UNL A   1      45.422  29.575  35.143  1.00  0.00     0.012 A 
ATOM     84  C   UNL A   1      44.049  27.947  36.320  1.00  0.00     0.148 A 
ATOM     85  C   UNL A   1      46.558  29.101  35.799  1.00  0.00     0.002 A 
ATOM     86  C   UNL A   1      45.176  27.515  37.009  1.00  0.00     0.091 A 
ATOM     87  F   UNL A   1      42.844  27.393  36.520  1.00  0.00    -0.205 F 
ATOM     88  C   UNL A   1      46.434  28.079  36.738  1.00  0.00     0.022 A 
BRANCH  86  89
ATOM     89  S   UNL A   1      45.095  26.274  38.304  1.00  0.00     0.127 S 
ATOM     90  O   UNL A   1      43.825  26.600  38.951  1.00  0.00    -0.237 OA
ATOM     91  O   UNL A   1      45.087  25.027  37.538  1.00  0.00    -0.237 OA
ATOM     92  O   UNL A   1      46.284  26.471  39.123  1.00  0.00    -0.744 OA
ENDBRANCH  86  89
ENDBRANCH  59  82
ENDBRANCH  33  34
ENDBRANCH  25  28
ENDBRANCH  23  24
ENDBRANCH   1  23
TORSDOF 17
ENDMDL
MODEL 3
REMARK VINA RESULT:     -12.0      2.808      8.661
REMARK SMILES CC[C@@](O)(C(=O)NCCCNC(=O)c1ccc(-c2c3nc(c(-c4cccc(S(=O)(=O)[O-])c4F)c4ccc([nH]4)c(-c4cccc(S(=O)(=O)[O-])c4F)c4nc(c(-c5cccc(S(=O)(=O)[O-])c5F)c5ccc2[nH]5)C=C4)C=C3)cc1)[C@H]1CCc2ccc(OC)cc21
REMARK SMILES IDX 9 1 8 2 7 3 5 4 6 5 3 7 2 8 1 9 4 10 77 12 78 13 87 14 79 15
REMARK SMILES IDX 80 16 86 17 81 18 83 19 82 20 84 21 85 22 10 23 11 24 12 25
REMARK SMILES IDX 13 27 14 28 15 29 76 30 16 31 75 32 17 33 18 34 19 35 69 36
REMARK SMILES IDX 20 37 74 38 68 39 70 40 21 41 73 42 67 43 66 44 22 46 54 47
REMARK SMILES IDX 34 48 53 49 35 50 38 51 52 52 71 53 36 54 37 55 51 57 72 58
REMARK SMILES IDX 39 59 23 60 24 61 32 62 25 63 27 64 33 65 26 66 28 67 29 68
REMARK SMILES IDX 30 69 31 70 55 71 56 72 64 73 57 74 59 75 65 76 58 77 60 78
REMARK SMILES IDX 61 79 62 80 63 81 40 82 41 83 49 84 42 85 44 86 50 87 43 88
REMARK SMILES IDX 45 89 46 90 47 91 48 92
REMARK H PARENT 7 6 4 11 11 26 70 45 38 56
REMARK Flexibility Score: inf
ROOT
ATOM      1  C   UNL A   1      32.749  29.346  24.910  1.00  0.00     0.042 C 
ENDROOT
BRANCH   1   2
ATOM      2  C   UNL A   1      33.805  28.248  24.848  1.00  0.00     0.117 C 
BRANCH   2   3
ATOM      3  N   UNL A   1      33.887  27.717  23.505  1.00  0.00    -0.354 N 
ATOM      4  C   UNL A   1      33.382  26.571  22.978  1.00  0.00     0.252 C 
ATOM      5  O   UNL A   1      33.907  26.204  21.923  1.00  0.00    -0.272 OA
ATOM      6  H   UNL A   1      34.389  28.277  22.870  1.00  0.00     0.163 HD
BRANCH   4   7
ATOM      7  C   UNL A   1      32.220  25.793  23.681  1.00  0.00     0.149 C 
BRANCH   7   8
ATOM      8  C   UNL A   1      30.959  26.689  23.689  1.00  0.00     0.043 C 
ATOM      9  C   UNL A   1      30.656  27.402  22.376  1.00  0.00     0.007 C 
ENDBRANCH   7   8
BRANCH   7  10
ATOM     10  O   UNL A   1      31.905  24.610  22.912  1.00  0.00    -0.379 OA
ATOM     11  H   UNL A   1      31.217  24.101  23.369  1.00  0.00     0.212 HD
ENDBRANCH   7  10
BRANCH   7  12
ATOM     12  C   UNL A   1      32.695  25.281  25.085  1.00  0.00     0.061 C 
ATOM     13  C   UNL A   1      31.467  24.792  25.922  1.00  0.00     0.017 C 
ATOM     14  C   UNL A   1      33.612  24.086  25.184  1.00  0.00    -0.035 A 
ATOM     15  C   UNL A   1      31.962  23.709  26.877  1.00  0.00     0.036 C 
ATOM     16  C   UNL A   1      33.135  23.168  26.128  1.00  0.00    -0.044 A 
ATOM     17  C   UNL A   1      34.785  23.818  24.488  1.00  0.00     0.050 A 
ATOM     18  C   UNL A   1      33.744  21.937  26.308  1.00  0.00     0.008 A 
ATOM     19  C   UNL A   1      35.405  22.575  24.646  1.00  0.00     0.119 A 
ATOM     20  C   UNL A   1      34.869  21.637  25.540  1.00  0.00     0.047 A 
BRANCH  19  21
ATOM     21  O   UNL A   1      36.530  22.157  23.986  1.00  0.00    -0.497 OA
ATOM     22  C   UNL A   1      37.405  21.287  24.698  1.00  0.00     0.278 C 
ENDBRANCH  19  21
ENDBRANCH   7  12
ENDBRANCH   4   7
ENDBRANCH   2   3
ENDBRANCH   1   2
BRANCH   1  23
ATOM     23  C   UNL A   1      32.375  29.756  26.331  1.00  0.00     0.118 C 
BRANCH  23  24
ATOM     24  N   UNL A   1      32.274  31.202  26.482  1.00  0.00    -0.352 N 
ATOM     25  C   UNL A   1      33.028  32.046  27.252  1.00  0.00     0.251 C 
ATOM     26  H   UNL A   1      31.563  31.633  25.956  1.00  0.00     0.163 HD
ATOM     27  O   UNL A   1      32.661  33.207  27.430  1.00  0.00    -0.269 OA
BRANCH  25  28
ATOM     28  C   UNL A   1      34.271  31.553  27.874  1.00  0.00     0.039 A 
ATOM     29  C   UNL A   1      35.278  32.466  28.190  1.00  0.00     0.014 A 
ATOM     30  C   UNL A   1      34.440  30.191  28.144  1.00  0.00     0.014 A 
ATOM     31  C   UNL A   1      36.438  32.018  28.821  1.00  0.00     0.010 A 
ATOM     32  C   UNL A   1      35.557  29.761  28.852  1.00  0.00     0.010 A 
ATOM     33  C   UNL A   1      36.575  30.666  29.182  1.00  0.00    -0.014 A 
BRANCH  33  34
ATOM     34  C   UNL A   1      37.780  30.190  29.904  1.00  0.00     0.031 A 
ATOM     35  C   UNL A   1      38.076  30.680  31.296  1.00  0.00     0.074 A 
ATOM     36  C   UNL A   1      38.641  29.364  29.279  1.00  0.00     0.049 A 
ATOM     37  N   UNL A   1      39.086  30.387  32.074  1.00  0.00    -0.248 NA
ATOM     38  C   UNL A   1      37.130  31.645  31.882  1.00  0.00     0.031 C 
ATOM     39  C   UNL A   1      38.511  28.893  27.897  1.00  0.00     0.029 A 
ATOM     40  N   UNL A   1      39.809  28.792  29.714  1.00  0.00    -0.354 N 
ATOM     41  C   UNL A   1      38.912  31.147  33.224  1.00  0.00     0.074 A 
ATOM     42  C   UNL A   1      37.726  31.950  33.025  1.00  0.00     0.031 C 
ATOM     43  C   UNL A   1      39.551  28.099  27.602  1.00  0.00     0.029 A 
ATOM     44  C   UNL A   1      40.437  28.025  28.760  1.00  0.00     0.049 A 
ATOM     45  H   UNL A   1      40.165  28.917  30.623  1.00  0.00     0.167 HD
ATOM     46  C   UNL A   1      39.650  31.150  34.360  1.00  0.00     0.034 A 
ATOM     47  C   UNL A   1      41.598  27.344  28.810  1.00  0.00     0.034 A 
ATOM     48  C   UNL A   1      40.810  30.325  34.564  1.00  0.00     0.049 A 
ATOM     49  C   UNL A   1      42.377  27.329  30.097  1.00  0.00     0.074 A 
ATOM     50  C   UNL A   1      41.586  30.198  35.703  1.00  0.00     0.029 A 
ATOM     51  N   UNL A   1      41.367  29.492  33.607  1.00  0.00    -0.354 N 
ATOM     52  N   UNL A   1      42.108  27.931  31.231  1.00  0.00    -0.248 NA
ATOM     53  C   UNL A   1      43.596  26.508  30.127  1.00  0.00     0.031 C 
ATOM     54  C   UNL A   1      42.626  29.305  35.425  1.00  0.00     0.029 A 
ATOM     55  C   UNL A   1      42.479  28.850  34.124  1.00  0.00     0.049 A 
ATOM     56  H   UNL A   1      41.021  29.373  32.691  1.00  0.00     0.167 HD
ATOM     57  C   UNL A   1      43.103  27.535  32.117  1.00  0.00     0.074 A 
ATOM     58  C   UNL A   1      43.965  26.621  31.395  1.00  0.00     0.031 C 
ATOM     59  C   UNL A   1      43.297  27.906  33.407  1.00  0.00     0.034 A 
BRANCH  46  60
ATOM     60  C   UNL A   1      39.187  32.031  35.492  1.00  0.00     0.023 A 
ATOM     61  C   UNL A   1      38.266  31.526  36.433  1.00  0.00     0.012 A 
ATOM     62  C   UNL A   1      39.698  33.333  35.658  1.00  0.00     0.148 A 
ATOM     63  C   UNL A   1      37.832  32.313  37.499  1.00  0.00     0.002 A 
ATOM     64  C   UNL A   1      39.297  34.095  36.751  1.00  0.00     0.091 A 
ATOM     65  F   UNL A   1      40.557  33.805  34.744  1.00  0.00    -0.205 F 
ATOM     66  C   UNL A   1      38.355  33.592  37.663  1.00  0.00     0.022 A 
BRANCH  64  67
ATOM     67  S   UNL A   1      39.971  35.722  37.101  1.00  0.00     0.127 S 
ATOM     68  O   UNL A   1      41.391  35.422  37.279  1.00  0.00    -0.237 OA
ATOM     69  O   UNL A   1      39.653  36.455  35.876  1.00  0.00    -0.237 OA
ATOM     70  O   UNL A   1      39.280  36.198  38.291  1.00  0.00    -0.744 OA
ENDBRANCH  64  67
ENDBRANCH  46  60
BRANCH  47  71
ATOM     71  C   UNL A   1      42.061  26.572  27.623  1.00  0.00     0.023 A 
ATOM     72  C   UNL A   1      42.804  27.219  26.617  1.00  0.00     0.012 A 
ATOM     73  C   UNL A   1      41.791  25.195  27.498  1.00  0.00     0.148 A 
ATOM     74  C   UNL A   1      43.236  26.520  25.489  1.00  0.00     0.002 A 
ATOM     75  C   UNL A   1      42.275  24.491  26.402  1.00  0.00     0.091 A 
ATOM     76  F   UNL A   1      41.075  24.598  28.462  1.00  0.00    -0.205 F 
ATOM     77  C   UNL A   1      42.981  25.155  25.386  1.00  0.00     0.022 A 
BRANCH  75  78
ATOM     78  S   UNL A   1      42.112  22.708  26.258  1.00  0.00     0.127 S 
ATOM     79  O   UNL A   1      42.792  22.246  27.464  1.00  0.00    -0.237 OA
ATOM     80  O   UNL A   1      40.659  22.535  26.263  1.00  0.00    -0.237 OA
ATOM     81  O   UNL A   1      42.750  22.356  24.996  1.00  0.00    -0.744 OA
ENDBRANCH  75  78
ENDBRANCH  47  71
BRANCH  59  82
ATOM     82  C   UNL A   1      44.465  27.296  34.137  1.00  0.00     0.023 A 
ATOM     83  C   UNL A   1      45.730  27.915  34.084  1.00  0.00     0.012 A 
ATOM     84  C   UNL A   1      44.293  26.141  34.926  1.00  0.00     0.148 A 
ATOM     85  C   UNL A   1      46.815  27.372  34.771  1.00  0.00     0.002 A 
ATOM     86  C   UNL A   1      45.366  25.636  35.651  1.00  0.00     0.091 A 
ATOM     87  F   UNL A   1      43.087  25.556  34.951  1.00  0.00    -0.205 F 
ATOM     88  C   UNL A   1      46.631  26.240  35.562  1.00  0.00     0.022 A 
BRANCH  86  89
ATOM     89  S   UNL A   1      45.199  24.242  36.770  1.00  0.00     0.127 S 
ATOM     90  O   UNL A   1      44.210  24.742  37.724  1.00  0.00    -0.237 OA
ATOM     91  O   UNL A   1      44.711  23.188  35.881  1.00  0.00    -0.237 OA
ATOM     92  O   UNL A   1      46.529  24.004  37.315  1.00  0.00    -0.744 OA
ENDBRANCH  86  89
ENDBRANCH  59  82
ENDBRANCH  33  34
ENDBRANCH  25  28
ENDBRANCH  23  24
ENDBRANCH   1  23
TORSDOF 17
ENDMDL
