MODEL 1
REMARK VINA RESULT:     -11.8      0.000      0.000
REMARK SMILES CCOc1cccc(-c2ccc([C@@H](C)C(=O)NCCCNC(=O)c3ccc(-c4c5nc(c(-c6cccc(S(=O)(=O)[O-])c6F)c6ccc([nH]6)c(-c6cccc(S(=O)(=O)[O-])c6F)c6nc(c(-c7cccc(S(=O)(=O)[O-])c7F)c7ccc4[nH]7)C=C6)C=C5)cc3)cc2F)c1
REMARK SMILES IDX 18 1 17 2 15 3 16 4 13 6 14 7 12 8 9 9 10 10 88 11 11 12
REMARK SMILES IDX 87 13 89 14 8 15 4 16 5 17 90 18 6 19 7 20 3 21 2 22 1 23
REMARK SMILES IDX 19 24 20 25 21 26 22 27 23 29 24 30 25 31 86 32 26 33 85 34
REMARK SMILES IDX 27 35 28 36 29 37 79 38 30 39 84 40 78 41 80 42 31 43 83 44
REMARK SMILES IDX 77 45 76 46 32 48 64 49 44 50 63 51 45 52 48 53 62 54 81 55
REMARK SMILES IDX 46 56 47 57 61 59 82 60 49 61 33 62 34 63 42 64 35 65 37 66
REMARK SMILES IDX 43 67 36 68 38 69 39 70 40 71 41 72 65 73 66 74 74 75 67 76
REMARK SMILES IDX 69 77 75 78 68 79 70 80 71 81 72 82 73 83 50 84 51 85 59 86
REMARK SMILES IDX 52 87 54 88 60 89 53 90 55 91 56 92 57 93 58 94
REMARK H PARENT 17 5 21 28 80 47 48 58
REMARK Flexibility Score: inf
ROOT
ATOM      1  C   UNL A   1      31.460  28.886  25.438  1.00  0.00     0.117 C 
ENDROOT
BRANCH   1   2
ATOM      2  N   UNL A   1      31.608  29.318  24.063  1.00  0.00    -0.356 N 
ATOM      3  C   UNL A   1      31.061  28.864  22.903  1.00  0.00     0.227 C 
ATOM      4  O   UNL A   1      31.424  29.438  21.867  1.00  0.00    -0.274 OA
ATOM      5  H   UNL A   1      32.217  30.083  23.947  1.00  0.00     0.163 HD
BRANCH   3   6
ATOM      6  C   UNL A   1      30.033  27.725  22.822  1.00  0.00     0.105 C 
ATOM      7  C   UNL A   1      28.690  28.035  23.478  1.00  0.00     0.023 C 
BRANCH   6   8
ATOM      8  C   UNL A   1      30.613  26.354  23.126  1.00  0.00    -0.033 A 
ATOM      9  C   UNL A   1      31.941  23.882  23.741  1.00  0.00     0.018 A 
ATOM     10  C   UNL A   1      30.913  24.398  24.551  1.00  0.00     0.012 A 
ATOM     11  C   UNL A   1      32.225  24.612  22.575  1.00  0.00     0.131 A 
ATOM     12  C   UNL A   1      30.240  25.586  24.231  1.00  0.00     0.005 A 
ATOM     13  C   UNL A   1      31.603  25.829  22.285  1.00  0.00     0.044 A 
ATOM     14  F   UNL A   1      33.128  24.171  21.685  1.00  0.00    -0.206 F 
BRANCH   9  15
ATOM     15  C   UNL A   1      32.717  22.684  24.156  1.00  0.00    -0.012 A 
ATOM     16  C   UNL A   1      32.811  20.278  24.609  1.00  0.00     0.119 A 
ATOM     17  C   UNL A   1      34.189  20.329  24.766  1.00  0.00     0.046 A 
ATOM     18  C   UNL A   1      32.087  21.438  24.326  1.00  0.00     0.055 A 
ATOM     19  C   UNL A   1      34.842  21.549  24.624  1.00  0.00     0.004 A 
ATOM     20  C   UNL A   1      34.114  22.711  24.331  1.00  0.00     0.009 A 
BRANCH  16  21
ATOM     21  O   UNL A   1      32.153  19.098  24.820  1.00  0.00    -0.494 OA
BRANCH  21  22
ATOM     22  C   UNL A   1      32.861  18.238  25.723  1.00  0.00     0.226 C 
ATOM     23  C   UNL A   1      32.606  16.772  25.396  1.00  0.00     0.049 C 
ENDBRANCH  21  22
ENDBRANCH  16  21
ENDBRANCH   9  15
ENDBRANCH   6   8
ENDBRANCH   3   6
ENDBRANCH   1   2
BRANCH   1  24
ATOM     24  C   UNL A   1      32.604  27.986  25.896  1.00  0.00     0.042 C 
BRANCH  24  25
ATOM     25  C   UNL A   1      33.938  28.707  26.057  1.00  0.00     0.118 C 
BRANCH  25  26
ATOM     26  N   UNL A   1      33.777  30.043  26.616  1.00  0.00    -0.352 N 
ATOM     27  C   UNL A   1      34.491  30.706  27.582  1.00  0.00     0.251 C 
ATOM     28  H   UNL A   1      33.030  30.558  26.235  1.00  0.00     0.163 HD
ATOM     29  O   UNL A   1      34.029  31.748  28.043  1.00  0.00    -0.269 OA
BRANCH  27  30
ATOM     30  C   UNL A   1      35.792  30.196  28.080  1.00  0.00     0.039 A 
ATOM     31  C   UNL A   1      36.911  30.295  27.244  1.00  0.00     0.014 A 
ATOM     32  C   UNL A   1      35.913  29.562  29.319  1.00  0.00     0.014 A 
ATOM     33  C   UNL A   1      38.148  29.799  27.668  1.00  0.00     0.010 A 
ATOM     34  C   UNL A   1      37.164  29.145  29.774  1.00  0.00     0.010 A 
ATOM     35  C   UNL A   1      38.291  29.241  28.948  1.00  0.00    -0.014 A 
BRANCH  35  36
ATOM     36  C   UNL A   1      39.613  28.758  29.429  1.00  0.00     0.031 A 
ATOM     37  C   UNL A   1      40.334  29.475  30.541  1.00  0.00     0.074 A 
ATOM     38  C   UNL A   1      40.198  27.710  28.817  1.00  0.00     0.049 A 
ATOM     39  N   UNL A   1      41.497  29.207  31.076  1.00  0.00    -0.248 NA
ATOM     40  C   UNL A   1      39.677  30.664  31.109  1.00  0.00     0.031 C 
ATOM     41  C   UNL A   1      39.647  26.989  27.668  1.00  0.00     0.029 A 
ATOM     42  N   UNL A   1      41.395  27.084  29.058  1.00  0.00    -0.354 N 
ATOM     43  C   UNL A   1      41.725  30.205  32.016  1.00  0.00     0.074 A 
ATOM     44  C   UNL A   1      40.598  31.109  31.951  1.00  0.00     0.031 C 
ATOM     45  C   UNL A   1      40.499  26.017  27.307  1.00  0.00     0.029 A 
ATOM     46  C   UNL A   1      41.667  26.059  28.182  1.00  0.00     0.049 A 
ATOM     47  H   UNL A   1      42.002  27.344  29.788  1.00  0.00     0.167 HD
ATOM     48  C   UNL A   1      42.761  30.343  32.880  1.00  0.00     0.034 A 
ATOM     49  C   UNL A   1      42.735  25.242  28.093  1.00  0.00     0.034 A 
ATOM     50  C   UNL A   1      43.860  29.418  32.973  1.00  0.00     0.049 A 
ATOM     51  C   UNL A   1      43.840  25.372  29.105  1.00  0.00     0.074 A 
ATOM     52  C   UNL A   1      44.913  29.419  33.870  1.00  0.00     0.029 A 
ATOM     53  N   UNL A   1      44.050  28.329  32.136  1.00  0.00    -0.354 N 
ATOM     54  N   UNL A   1      43.954  26.223  30.096  1.00  0.00    -0.248 NA
ATOM     55  C   UNL A   1      44.941  24.402  29.017  1.00  0.00     0.031 C 
ATOM     56  C   UNL A   1      45.749  28.339  33.566  1.00  0.00     0.029 A 
ATOM     57  C   UNL A   1      45.204  27.652  32.492  1.00  0.00     0.049 A 
ATOM     58  H   UNL A   1      43.452  28.074  31.397  1.00  0.00     0.167 HD
ATOM     59  C   UNL A   1      45.122  25.876  30.765  1.00  0.00     0.074 A 
ATOM     60  C   UNL A   1      45.662  24.716  30.084  1.00  0.00     0.031 C 
ATOM     61  C   UNL A   1      45.706  26.473  31.834  1.00  0.00     0.034 A 
BRANCH  48  62
ATOM     62  C   UNL A   1      42.720  31.504  33.841  1.00  0.00     0.023 A 
ATOM     63  C   UNL A   1      43.252  32.749  33.446  1.00  0.00     0.012 A 
ATOM     64  C   UNL A   1      42.112  31.385  35.106  1.00  0.00     0.148 A 
ATOM     65  C   UNL A   1      43.216  33.845  34.306  1.00  0.00     0.002 A 
ATOM     66  C   UNL A   1      42.040  32.495  35.942  1.00  0.00     0.091 A 
ATOM     67  F   UNL A   1      41.629  30.191  35.475  1.00  0.00    -0.205 F 
ATOM     68  C   UNL A   1      42.602  33.720  35.549  1.00  0.00     0.022 A 
BRANCH  66  69
ATOM     69  S   UNL A   1      41.203  32.460  37.531  1.00  0.00     0.127 S 
ATOM     70  O   UNL A   1      39.884  31.950  37.158  1.00  0.00    -0.237 OA
ATOM     71  O   UNL A   1      42.026  31.520  38.293  1.00  0.00    -0.237 OA
ATOM     72  O   UNL A   1      41.228  33.828  38.028  1.00  0.00    -0.744 OA
ENDBRANCH  66  69
ENDBRANCH  48  62
BRANCH  49  73
ATOM     73  C   UNL A   1      42.767  24.180  27.047  1.00  0.00     0.023 A 
ATOM     74  C   UNL A   1      43.509  24.392  25.868  1.00  0.00     0.012 A 
ATOM     75  C   UNL A   1      42.112  22.947  27.233  1.00  0.00     0.148 A 
ATOM     76  C   UNL A   1      43.571  23.409  24.881  1.00  0.00     0.002 A 
ATOM     77  C   UNL A   1      42.227  21.949  26.273  1.00  0.00     0.091 A 
ATOM     78  F   UNL A   1      41.405  22.767  28.358  1.00  0.00    -0.205 F 
ATOM     79  C   UNL A   1      42.940  22.186  25.087  1.00  0.00     0.022 A 
BRANCH  77  80
ATOM     80  S   UNL A   1      41.568  20.295  26.517  1.00  0.00     0.127 S 
ATOM     81  O   UNL A   1      42.132  19.577  25.378  1.00  0.00    -0.237 OA
ATOM     82  O   UNL A   1      42.133  19.934  27.817  1.00  0.00    -0.237 OA
ATOM     83  O   UNL A   1      40.118  20.443  26.518  1.00  0.00    -0.744 OA
ENDBRANCH  77  80
ENDBRANCH  49  73
BRANCH  61  84
ATOM     84  C   UNL A   1      46.989  25.874  32.348  1.00  0.00     0.023 A 
ATOM     85  C   UNL A   1      48.219  26.259  31.775  1.00  0.00     0.012 A 
ATOM     86  C   UNL A   1      46.984  24.974  33.432  1.00  0.00     0.148 A 
ATOM     87  C   UNL A   1      49.418  25.726  32.247  1.00  0.00     0.002 A 
ATOM     88  C   UNL A   1      48.188  24.485  33.927  1.00  0.00     0.091 A 
ATOM     89  F   UNL A   1      45.805  24.603  33.951  1.00  0.00    -0.205 F 
ATOM     90  C   UNL A   1      49.403  24.849  33.328  1.00  0.00     0.022 A 
BRANCH  88  91
ATOM     91  S   UNL A   1      48.265  23.425  35.376  1.00  0.00     0.127 S 
ATOM     92  O   UNL A   1      47.555  22.234  34.913  1.00  0.00    -0.237 OA
ATOM     93  O   UNL A   1      49.707  23.243  35.554  1.00  0.00    -0.237 OA
ATOM     94  O   UNL A   1      47.617  24.168  36.448  1.00  0.00    -0.744 OA
ENDBRANCH  88  91
ENDBRANCH  61  84
ENDBRANCH  35  36
ENDBRANCH  27  30
ENDBRANCH  25  26
ENDBRANCH  24  25
ENDBRANCH   1  24
TORSDOF 17
ENDMDL
MODEL 2
REMARK VINA RESULT:     -11.8      5.267     11.475
REMARK SMILES CCOc1cccc(-c2ccc([C@@H](C)C(=O)NCCCNC(=O)c3ccc(-c4c5nc(c(-c6cccc(S(=O)(=O)[O-])c6F)c6ccc([nH]6)c(-c6cccc(S(=O)(=O)[O-])c6F)c6nc(c(-c7cccc(S(=O)(=O)[O-])c7F)c7ccc4[nH]7)C=C6)C=C5)cc3)cc2F)c1
REMARK SMILES IDX 18 1 17 2 15 3 16 4 13 6 14 7 12 8 9 9 10 10 88 11 11 12
REMARK SMILES IDX 87 13 89 14 8 15 4 16 5 17 90 18 6 19 7 20 3 21 2 22 1 23
REMARK SMILES IDX 19 24 20 25 21 26 22 27 23 29 24 30 25 31 86 32 26 33 85 34
REMARK SMILES IDX 27 35 28 36 29 37 79 38 30 39 84 40 78 41 80 42 31 43 83 44
REMARK SMILES IDX 77 45 76 46 32 48 64 49 44 50 63 51 45 52 48 53 62 54 81 55
REMARK SMILES IDX 46 56 47 57 61 59 82 60 49 61 33 62 34 63 42 64 35 65 37 66
REMARK SMILES IDX 43 67 36 68 38 69 39 70 40 71 41 72 65 73 66 74 74 75 67 76
REMARK SMILES IDX 69 77 75 78 68 79 70 80 71 81 72 82 73 83 50 84 51 85 59 86
REMARK SMILES IDX 52 87 54 88 60 89 53 90 55 91 56 92 57 93 58 94
REMARK H PARENT 17 5 21 28 80 47 48 58
REMARK Flexibility Score: inf
ROOT
ATOM      1  C   UNL A   1      42.170  20.026  25.761  1.00  0.00     0.117 C 
ENDROOT
BRANCH   1   2
ATOM      2  N   UNL A   1      43.581  20.275  25.547  1.00  0.00    -0.356 N 
ATOM      3  C   UNL A   1      44.312  21.422  25.543  1.00  0.00     0.227 C 
ATOM      4  O   UNL A   1      45.517  21.301  25.287  1.00  0.00    -0.274 OA
ATOM      5  H   UNL A   1      44.109  19.462  25.372  1.00  0.00     0.163 HD
BRANCH   3   6
ATOM      6  C   UNL A   1      43.735  22.813  25.851  1.00  0.00     0.105 C 
ATOM      7  C   UNL A   1      44.048  23.876  24.801  1.00  0.00     0.023 C 
BRANCH   6   8
ATOM      8  C   UNL A   1      43.915  23.244  27.297  1.00  0.00    -0.033 A 
ATOM      9  C   UNL A   1      44.288  24.302  29.941  1.00  0.00     0.018 A 
ATOM     10  C   UNL A   1      43.066  23.742  29.528  1.00  0.00     0.012 A 
ATOM     11  C   UNL A   1      45.335  24.244  29.006  1.00  0.00     0.131 A 
ATOM     12  C   UNL A   1      42.895  23.193  28.249  1.00  0.00     0.005 A 
ATOM     13  C   UNL A   1      45.151  23.756  27.709  1.00  0.00     0.044 A 
ATOM     14  F   UNL A   1      46.568  24.671  29.319  1.00  0.00    -0.206 F 
BRANCH   9  15
ATOM     15  C   UNL A   1      44.416  24.980  31.258  1.00  0.00    -0.012 A 
ATOM     16  C   UNL A   1      44.661  24.844  33.692  1.00  0.00     0.119 A 
ATOM     17  C   UNL A   1      44.846  26.215  33.783  1.00  0.00     0.046 A 
ATOM     18  C   UNL A   1      44.433  24.240  32.454  1.00  0.00     0.055 A 
ATOM     19  C   UNL A   1      44.817  26.982  32.622  1.00  0.00     0.004 A 
ATOM     20  C   UNL A   1      44.596  26.372  31.378  1.00  0.00     0.009 A 
BRANCH  16  21
ATOM     21  O   UNL A   1      44.614  24.094  34.835  1.00  0.00    -0.494 OA
BRANCH  21  22
ATOM     22  C   UNL A   1      43.446  23.263  34.889  1.00  0.00     0.226 C 
ATOM     23  C   UNL A   1      42.252  24.032  35.436  1.00  0.00     0.049 C 
ENDBRANCH  21  22
ENDBRANCH  16  21
ENDBRANCH   9  15
ENDBRANCH   6   8
ENDBRANCH   3   6
ENDBRANCH   1   2
BRANCH   1  24
ATOM     24  C   UNL A   1      41.794  20.019  27.240  1.00  0.00     0.042 C 
BRANCH  24  25
ATOM     25  C   UNL A   1      40.803  21.107  27.637  1.00  0.00     0.118 C 
BRANCH  25  26
ATOM     26  N   UNL A   1      39.794  21.333  26.611  1.00  0.00    -0.352 N 
ATOM     27  C   UNL A   1      39.144  22.479  26.224  1.00  0.00     0.251 C 
ATOM     28  H   UNL A   1      39.533  20.527  26.109  1.00  0.00     0.163 HD
ATOM     29  O   UNL A   1      38.171  22.380  25.480  1.00  0.00    -0.269 OA
BRANCH  27  30
ATOM     30  C   UNL A   1      39.586  23.819  26.681  1.00  0.00     0.039 A 
ATOM     31  C   UNL A   1      39.318  24.194  28.003  1.00  0.00     0.014 A 
ATOM     32  C   UNL A   1      40.193  24.734  25.817  1.00  0.00     0.014 A 
ATOM     33  C   UNL A   1      39.694  25.460  28.462  1.00  0.00     0.010 A 
ATOM     34  C   UNL A   1      40.642  25.963  26.299  1.00  0.00     0.010 A 
ATOM     35  C   UNL A   1      40.382  26.348  27.621  1.00  0.00    -0.014 A 
BRANCH  35  36
ATOM     36  C   UNL A   1      40.834  27.677  28.113  1.00  0.00     0.031 A 
ATOM     37  C   UNL A   1      42.298  28.030  28.136  1.00  0.00     0.074 A 
ATOM     38  C   UNL A   1      39.927  28.543  28.606  1.00  0.00     0.049 A 
ATOM     39  N   UNL A   1      42.873  29.131  28.547  1.00  0.00    -0.248 NA
ATOM     40  C   UNL A   1      43.243  27.005  27.662  1.00  0.00     0.031 C 
ATOM     41  C   UNL A   1      38.490  28.283  28.727  1.00  0.00     0.029 A 
ATOM     42  N   UNL A   1      40.079  29.806  29.120  1.00  0.00    -0.354 N 
ATOM     43  C   UNL A   1      44.241  28.922  28.411  1.00  0.00     0.074 A 
ATOM     44  C   UNL A   1      44.412  27.573  27.918  1.00  0.00     0.031 C 
ATOM     45  C   UNL A   1      37.893  29.354  29.273  1.00  0.00     0.029 A 
ATOM     46  C   UNL A   1      38.904  30.366  29.563  1.00  0.00     0.049 A 
ATOM     47  H   UNL A   1      40.947  30.268  29.167  1.00  0.00     0.167 HD
ATOM     48  C   UNL A   1      45.262  29.783  28.642  1.00  0.00     0.034 A 
ATOM     49  C   UNL A   1      38.664  31.562  30.138  1.00  0.00     0.034 A 
ATOM     50  C   UNL A   1      45.086  31.139  29.091  1.00  0.00     0.049 A 
ATOM     51  C   UNL A   1      39.805  32.525  30.322  1.00  0.00     0.074 A 
ATOM     52  C   UNL A   1      46.048  32.118  29.272  1.00  0.00     0.029 A 
ATOM     53  N   UNL A   1      43.868  31.707  29.432  1.00  0.00    -0.354 N 
ATOM     54  N   UNL A   1      41.074  32.366  30.029  1.00  0.00    -0.248 NA
ATOM     55  C   UNL A   1      39.478  33.847  30.873  1.00  0.00     0.031 C 
ATOM     56  C   UNL A   1      45.413  33.274  29.739  1.00  0.00     0.029 A 
ATOM     57  C   UNL A   1      44.052  33.022  29.826  1.00  0.00     0.049 A 
ATOM     58  H   UNL A   1      43.000  31.245  29.398  1.00  0.00     0.167 HD
ATOM     59  C   UNL A   1      41.690  33.574  30.333  1.00  0.00     0.074 A 
ATOM     60  C   UNL A   1      40.648  34.465  30.804  1.00  0.00     0.031 C 
ATOM     61  C   UNL A   1      43.001  33.911  30.250  1.00  0.00     0.034 A 
BRANCH  48  62
ATOM     62  C   UNL A   1      46.661  29.301  28.350  1.00  0.00     0.023 A 
ATOM     63  C   UNL A   1      47.199  29.481  27.059  1.00  0.00     0.012 A 
ATOM     64  C   UNL A   1      47.460  28.722  29.355  1.00  0.00     0.148 A 
ATOM     65  C   UNL A   1      48.494  29.059  26.761  1.00  0.00     0.002 A 
ATOM     66  C   UNL A   1      48.767  28.344  29.062  1.00  0.00     0.091 A 
ATOM     67  F   UNL A   1      46.928  28.540  30.571  1.00  0.00    -0.205 F 
ATOM     68  C   UNL A   1      49.280  28.500  27.764  1.00  0.00     0.022 A 
BRANCH  66  69
ATOM     69  S   UNL A   1      49.887  27.686  30.302  1.00  0.00     0.127 S 
ATOM     70  O   UNL A   1      49.225  26.434  30.664  1.00  0.00    -0.237 OA
ATOM     71  O   UNL A   1      51.127  27.521  29.543  1.00  0.00    -0.237 OA
ATOM     72  O   UNL A   1      49.951  28.688  31.357  1.00  0.00    -0.744 OA
ENDBRANCH  66  69
ENDBRANCH  48  62
BRANCH  49  73
ATOM     73  C   UNL A   1      37.270  31.938  30.507  1.00  0.00     0.023 A 
ATOM     74  C   UNL A   1      36.804  31.673  31.810  1.00  0.00     0.012 A 
ATOM     75  C   UNL A   1      36.422  32.597  29.596  1.00  0.00     0.148 A 
ATOM     76  C   UNL A   1      35.510  32.029  32.188  1.00  0.00     0.002 A 
ATOM     77  C   UNL A   1      35.155  33.003  29.997  1.00  0.00     0.091 A 
ATOM     78  F   UNL A   1      36.880  32.832  28.358  1.00  0.00    -0.205 F 
ATOM     79  C   UNL A   1      34.690  32.703  31.287  1.00  0.00     0.022 A 
BRANCH  77  80
ATOM     80  S   UNL A   1      34.085  33.999  28.952  1.00  0.00     0.127 S 
ATOM     81  O   UNL A   1      33.152  34.559  29.924  1.00  0.00    -0.237 OA
ATOM     82  O   UNL A   1      35.030  34.958  28.379  1.00  0.00    -0.237 OA
ATOM     83  O   UNL A   1      33.511  33.077  27.980  1.00  0.00    -0.744 OA
ENDBRANCH  77  80
ENDBRANCH  49  73
BRANCH  61  84
ATOM     84  C   UNL A   1      43.386  35.309  30.660  1.00  0.00     0.023 A 
ATOM     85  C   UNL A   1      43.574  36.299  29.673  1.00  0.00     0.012 A 
ATOM     86  C   UNL A   1      43.505  35.658  32.019  1.00  0.00     0.148 A 
ATOM     87  C   UNL A   1      43.915  37.602  30.031  1.00  0.00     0.002 A 
ATOM     88  C   UNL A   1      43.799  36.971  32.370  1.00  0.00     0.091 A 
ATOM     89  F   UNL A   1      43.343  34.701  32.943  1.00  0.00    -0.205 F 
ATOM     90  C   UNL A   1      44.017  37.940  31.379  1.00  0.00     0.022 A 
BRANCH  88  91
ATOM     91  S   UNL A   1      43.856  37.513  34.082  1.00  0.00     0.127 S 
ATOM     92  O   UNL A   1      42.498  37.214  34.535  1.00  0.00    -0.237 OA
ATOM     93  O   UNL A   1      44.892  36.649  34.650  1.00  0.00    -0.237 OA
ATOM     94  O   UNL A   1      44.209  38.926  34.040  1.00  0.00    -0.744 OA
ENDBRANCH  88  91
ENDBRANCH  61  84
ENDBRANCH  35  36
ENDBRANCH  27  30
ENDBRANCH  25  26
ENDBRANCH  24  25
ENDBRANCH   1  24
TORSDOF 17
ENDMDL
MODEL 3
REMARK VINA RESULT:     -11.7      2.935      4.360
REMARK SMILES CCOc1cccc(-c2ccc([C@@H](C)C(=O)NCCCNC(=O)c3ccc(-c4c5nc(c(-c6cccc(S(=O)(=O)[O-])c6F)c6ccc([nH]6)c(-c6cccc(S(=O)(=O)[O-])c6F)c6nc(c(-c7cccc(S(=O)(=O)[O-])c7F)c7ccc4[nH]7)C=C6)C=C5)cc3)cc2F)c1
REMARK SMILES IDX 18 1 17 2 15 3 16 4 13 6 14 7 12 8 9 9 10 10 88 11 11 12
REMARK SMILES IDX 87 13 89 14 8 15 4 16 5 17 90 18 6 19 7 20 3 21 2 22 1 23
REMARK SMILES IDX 19 24 20 25 21 26 22 27 23 29 24 30 25 31 86 32 26 33 85 34
REMARK SMILES IDX 27 35 28 36 29 37 79 38 30 39 84 40 78 41 80 42 31 43 83 44
REMARK SMILES IDX 77 45 76 46 32 48 64 49 44 50 63 51 45 52 48 53 62 54 81 55
REMARK SMILES IDX 46 56 47 57 61 59 82 60 49 61 33 62 34 63 42 64 35 65 37 66
REMARK SMILES IDX 43 67 36 68 38 69 39 70 40 71 41 72 65 73 66 74 74 75 67 76
REMARK SMILES IDX 69 77 75 78 68 79 70 80 71 81 72 82 73 83 50 84 51 85 59 86
REMARK SMILES IDX 52 87 54 88 60 89 53 90 55 91 56 92 57 93 58 94
REMARK H PARENT 17 5 21 28 80 47 48 58
REMARK Flexibility Score: inf
ROOT
ATOM      1  C   UNL A   1      32.974  27.228  24.177  1.00  0.00     0.117 C 
ENDROOT
BRANCH   1   2
ATOM      2  N   UNL A   1      32.885  26.899  22.769  1.00  0.00    -0.356 N 
ATOM      3  C   UNL A   1      32.749  25.711  22.119  1.00  0.00     0.227 C 
ATOM      4  O   UNL A   1      32.740  25.763  20.882  1.00  0.00    -0.274 OA
ATOM      5  H   UNL A   1      32.933  27.679  22.171  1.00  0.00     0.163 HD
BRANCH   3   6
ATOM      6  C   UNL A   1      32.590  24.355  22.826  1.00  0.00     0.105 C 
ATOM      7  C   UNL A   1      31.243  24.153  23.515  1.00  0.00     0.023 C 
BRANCH   6   8
ATOM      8  C   UNL A   1      33.810  23.937  23.629  1.00  0.00    -0.033 A 
ATOM      9  C   UNL A   1      36.243  23.347  25.038  1.00  0.00     0.018 A 
ATOM     10  C   UNL A   1      35.073  23.748  25.707  1.00  0.00     0.012 A 
ATOM     11  C   UNL A   1      36.127  23.182  23.647  1.00  0.00     0.131 A 
ATOM     12  C   UNL A   1      33.875  24.001  25.022  1.00  0.00     0.005 A 
ATOM     13  C   UNL A   1      34.954  23.494  22.953  1.00  0.00     0.044 A 
ATOM     14  F   UNL A   1      37.154  22.723  22.916  1.00  0.00    -0.206 F 
BRANCH   9  15
ATOM     15  C   UNL A   1      37.530  23.194  25.766  1.00  0.00    -0.012 A 
ATOM     16  C   UNL A   1      39.497  21.844  26.324  1.00  0.00     0.119 A 
ATOM     17  C   UNL A   1      40.082  22.913  26.987  1.00  0.00     0.046 A 
ATOM     18  C   UNL A   1      38.236  21.979  25.739  1.00  0.00     0.055 A 
ATOM     19  C   UNL A   1      39.403  24.125  27.051  1.00  0.00     0.004 A 
ATOM     20  C   UNL A   1      38.141  24.260  26.455  1.00  0.00     0.009 A 
BRANCH  16  21
ATOM     21  O   UNL A   1      40.123  20.628  26.321  1.00  0.00    -0.494 OA
BRANCH  21  22
ATOM     22  C   UNL A   1      41.536  20.748  26.109  1.00  0.00     0.226 C 
ATOM     23  C   UNL A   1      42.315  20.261  27.323  1.00  0.00     0.049 C 
ENDBRANCH  21  22
ENDBRANCH  16  21
ENDBRANCH   9  15
ENDBRANCH   6   8
ENDBRANCH   3   6
ENDBRANCH   1   2
BRANCH   1  24
ATOM     24  C   UNL A   1      33.655  28.572  24.423  1.00  0.00     0.042 C 
BRANCH  24  25
ATOM     25  C   UNL A   1      33.891  28.890  25.895  1.00  0.00     0.118 C 
BRANCH  25  26
ATOM     26  N   UNL A   1      33.554  30.269  26.221  1.00  0.00    -0.352 N 
ATOM     27  C   UNL A   1      34.003  31.093  27.223  1.00  0.00     0.251 C 
ATOM     28  H   UNL A   1      32.891  30.681  25.620  1.00  0.00     0.163 HD
ATOM     29  O   UNL A   1      33.406  32.148  27.427  1.00  0.00    -0.269 OA
BRANCH  27  30
ATOM     30  C   UNL A   1      35.177  30.739  28.057  1.00  0.00     0.039 A 
ATOM     31  C   UNL A   1      36.281  31.599  28.054  1.00  0.00     0.014 A 
ATOM     32  C   UNL A   1      35.237  29.547  28.783  1.00  0.00     0.014 A 
ATOM     33  C   UNL A   1      37.417  31.284  28.805  1.00  0.00     0.010 A 
ATOM     34  C   UNL A   1      36.336  29.276  29.598  1.00  0.00     0.010 A 
ATOM     35  C   UNL A   1      37.445  30.131  29.605  1.00  0.00    -0.014 A 
BRANCH  35  36
ATOM     36  C   UNL A   1      38.628  29.813  30.449  1.00  0.00     0.031 A 
ATOM     37  C   UNL A   1      38.812  30.472  31.792  1.00  0.00     0.074 A 
ATOM     38  C   UNL A   1      39.574  28.979  29.976  1.00  0.00     0.049 A 
ATOM     39  N   UNL A   1      39.787  30.329  32.653  1.00  0.00    -0.248 NA
ATOM     40  C   UNL A   1      37.783  31.437  32.212  1.00  0.00     0.031 C 
ATOM     41  C   UNL A   1      39.560  28.351  28.653  1.00  0.00     0.029 A 
ATOM     42  N   UNL A   1      40.744  28.536  30.541  1.00  0.00    -0.354 N 
ATOM     43  C   UNL A   1      39.507  31.203  33.696  1.00  0.00     0.074 A 
ATOM     44  C   UNL A   1      38.292  31.904  33.343  1.00  0.00     0.031 C 
ATOM     45  C   UNL A   1      40.663  27.599  28.510  1.00  0.00     0.029 A 
ATOM     46  C   UNL A   1      41.474  27.709  29.719  1.00  0.00     0.049 A 
ATOM     47  H   UNL A   1      41.032  28.785  31.448  1.00  0.00     0.167 HD
ATOM     48  C   UNL A   1      40.179  31.386  34.859  1.00  0.00     0.034 A 
ATOM     49  C   UNL A   1      42.663  27.106  29.915  1.00  0.00     0.034 A 
ATOM     50  C   UNL A   1      41.363  30.656  35.228  1.00  0.00     0.049 A 
ATOM     51  C   UNL A   1      43.356  27.272  31.240  1.00  0.00     0.074 A 
ATOM     52  C   UNL A   1      42.070  30.704  36.417  1.00  0.00     0.029 A 
ATOM     53  N   UNL A   1      42.019  29.748  34.410  1.00  0.00    -0.354 N 
ATOM     54  N   UNL A   1      42.985  27.976  32.282  1.00  0.00    -0.248 NA
ATOM     55  C   UNL A   1      44.606  26.525  31.435  1.00  0.00     0.031 C 
ATOM     56  C   UNL A   1      43.162  29.836  36.312  1.00  0.00     0.029 A 
ATOM     57  C   UNL A   1      43.124  29.231  35.066  1.00  0.00     0.049 A 
ATOM     58  H   UNL A   1      41.741  29.506  33.498  1.00  0.00     0.167 HD
ATOM     59  C   UNL A   1      43.939  27.737  33.264  1.00  0.00     0.074 A 
ATOM     60  C   UNL A   1      44.888  26.797  32.701  1.00  0.00     0.031 C 
ATOM     61  C   UNL A   1      44.034  28.263  34.511  1.00  0.00     0.034 A 
BRANCH  48  62
ATOM     62  C   UNL A   1      39.608  32.371  35.848  1.00  0.00     0.023 A 
ATOM     63  C   UNL A   1      38.624  31.943  36.762  1.00  0.00     0.012 A 
ATOM     64  C   UNL A   1      40.077  33.698  35.912  1.00  0.00     0.148 A 
ATOM     65  C   UNL A   1      38.087  32.826  37.698  1.00  0.00     0.002 A 
ATOM     66  C   UNL A   1      39.568  34.562  36.877  1.00  0.00     0.091 A 
ATOM     67  F   UNL A   1      40.998  34.096  35.023  1.00  0.00    -0.205 F 
ATOM     68  C   UNL A   1      38.566  34.131  37.760  1.00  0.00     0.022 A 
BRANCH  66  69
ATOM     69  S   UNL A   1      40.173  36.239  37.092  1.00  0.00     0.127 S 
ATOM     70  O   UNL A   1      39.862  36.834  35.793  1.00  0.00    -0.237 OA
ATOM     71  O   UNL A   1      39.347  36.726  38.198  1.00  0.00    -0.237 OA
ATOM     72  O   UNL A   1      41.590  36.118  37.403  1.00  0.00    -0.744 OA
ENDBRANCH  66  69
ENDBRANCH  48  62
BRANCH  49  73
ATOM     73  C   UNL A   1      43.230  26.229  28.852  1.00  0.00     0.023 A 
ATOM     74  C   UNL A   1      42.831  24.879  28.783  1.00  0.00     0.012 A 
ATOM     75  C   UNL A   1      44.120  26.731  27.883  1.00  0.00     0.148 A 
ATOM     76  C   UNL A   1      43.333  24.039  27.789  1.00  0.00     0.002 A 
ATOM     77  C   UNL A   1      44.570  25.905  26.860  1.00  0.00     0.091 A 
ATOM     78  F   UNL A   1      44.495  28.015  27.970  1.00  0.00    -0.205 F 
ATOM     79  C   UNL A   1      44.192  24.553  26.822  1.00  0.00     0.022 A 
BRANCH  77  80
ATOM     80  S   UNL A   1      45.565  26.516  25.493  1.00  0.00     0.127 S 
ATOM     81  O   UNL A   1      45.649  25.339  24.634  1.00  0.00    -0.237 OA
ATOM     82  O   UNL A   1      44.731  27.601  24.975  1.00  0.00    -0.237 OA
ATOM     83  O   UNL A   1      46.820  26.960  26.085  1.00  0.00    -0.744 OA
ENDBRANCH  77  80
ENDBRANCH  49  73
BRANCH  61  84
ATOM     84  C   UNL A   1      45.195  27.819  35.364  1.00  0.00     0.023 A 
ATOM     85  C   UNL A   1      46.397  28.555  35.343  1.00  0.00     0.012 A 
ATOM     86  C   UNL A   1      45.077  26.710  36.225  1.00  0.00     0.148 A 
ATOM     87  C   UNL A   1      47.478  28.170  36.136  1.00  0.00     0.002 A 
ATOM     88  C   UNL A   1      46.143  26.362  37.048  1.00  0.00     0.091 A 
ATOM     89  F   UNL A   1      43.934  26.010  36.217  1.00  0.00    -0.205 F 
ATOM     90  C   UNL A   1      47.347  27.081  36.995  1.00  0.00     0.022 A 
BRANCH  88  91
ATOM     91  S   UNL A   1      46.027  25.033  38.251  1.00  0.00     0.127 S 
ATOM     92  O   UNL A   1      45.793  23.873  37.393  1.00  0.00    -0.237 OA
ATOM     93  O   UNL A   1      47.346  25.067  38.883  1.00  0.00    -0.237 OA
ATOM     94  O   UNL A   1      44.928  25.393  39.136  1.00  0.00    -0.744 OA
ENDBRANCH  88  91
ENDBRANCH  61  84
ENDBRANCH  35  36
ENDBRANCH  27  30
ENDBRANCH  25  26
ENDBRANCH  24  25
ENDBRANCH   1  24
TORSDOF 17
ENDMDL
