MODEL 1
REMARK VINA RESULT:     -11.1      0.000      0.000
REMARK SMILES C[C@H](NC(=O)N(CC(=O)NCCCNC(=O)c1ccc(-c2c3nc(c(-c4cccc(S(=O)(=O)[O-])c4F)c4ccc([nH]4)c(-c4cccc(S(=O)(=O)[O-])c4F)c4nc(c(-c5cccc(S(=O)(=O)[O-])c5F)c5ccc2[nH]5)C=C4)C=C3)cc1)CC(F)(F)F)[C@@H]1CCCO1
REMARK SMILES IDX 11 1 10 2 8 3 9 4 7 6 6 7 4 8 3 9 5 11 2 12 1 13 85 14 86 15
REMARK SMILES IDX 89 16 87 17 88 18 80 19 81 20 82 21 83 22 84 23 12 24 13 25
REMARK SMILES IDX 14 26 15 27 16 29 17 30 18 31 79 32 19 33 78 34 20 35 21 36
REMARK SMILES IDX 22 37 72 38 23 39 77 40 71 41 73 42 24 43 76 44 70 45 69 46
REMARK SMILES IDX 25 48 57 49 37 50 56 51 38 52 41 53 55 54 74 55 39 56 40 57
REMARK SMILES IDX 54 59 75 60 42 61 26 62 27 63 35 64 28 65 30 66 36 67 29 68
REMARK SMILES IDX 31 69 32 70 33 71 34 72 58 73 59 74 67 75 60 76 62 77 68 78
REMARK SMILES IDX 61 79 63 80 64 81 65 82 66 83 43 84 44 85 52 86 45 87 47 88
REMARK SMILES IDX 53 89 46 90 48 91 49 92 50 93 51 94
REMARK H PARENT 10 5 3 10 14 28 73 47 41 58
REMARK Flexibility Score: inf
ROOT
ATOM      1  C   UNL A   1      31.750  30.648  25.853  1.00  0.00     0.117 C 
ENDROOT
BRANCH   1   2
ATOM      2  N   UNL A   1      33.025  30.019  26.142  1.00  0.00    -0.354 N 
ATOM      3  C   UNL A   1      33.317  28.693  26.260  1.00  0.00     0.239 C 
ATOM      4  O   UNL A   1      34.454  28.354  26.590  1.00  0.00    -0.273 OA
ATOM      5  H   UNL A   1      33.783  30.634  26.271  1.00  0.00     0.163 HD
BRANCH   3   6
ATOM      6  C   UNL A   1      32.277  27.664  25.833  1.00  0.00     0.221 C 
BRANCH   6   7
ATOM      7  N   UNL A   1      32.428  27.001  24.541  1.00  0.00    -0.306 N 
BRANCH   7   8
ATOM      8  C   UNL A   1      32.629  27.575  23.320  1.00  0.00     0.318 C 
ATOM      9  N   UNL A   1      31.641  27.939  22.484  1.00  0.00    -0.333 N 
ATOM     10  H   UNL A   1      32.018  28.309  21.652  1.00  0.00     0.165 HD
ATOM     11  O   UNL A   1      33.767  27.853  22.935  1.00  0.00    -0.249 OA
BRANCH   9  12
ATOM     12  C   UNL A   1      30.166  27.955  22.429  1.00  0.00     0.109 C 
ATOM     13  C   UNL A   1      29.532  27.066  23.513  1.00  0.00     0.034 C 
BRANCH  12  14
ATOM     14  C   UNL A   1      29.614  29.393  22.609  1.00  0.00     0.140 C 
ATOM     15  C   UNL A   1      28.191  29.540  23.127  1.00  0.00     0.036 C 
ATOM     16  O   UNL A   1      29.656  30.101  21.350  1.00  0.00    -0.376 OA
ATOM     17  C   UNL A   1      27.843  30.919  22.609  1.00  0.00     0.031 C 
ATOM     18  C   UNL A   1      28.465  30.887  21.230  1.00  0.00     0.160 C 
ENDBRANCH  12  14
ENDBRANCH   9  12
ENDBRANCH   7   8
BRANCH   7  19
ATOM     19  C   UNL A   1      32.454  25.513  24.572  1.00  0.00     0.237 C 
BRANCH  19  20
ATOM     20  C   UNL A   1      33.616  24.819  25.291  1.00  0.00     0.406 C 
ATOM     21  F   UNL A   1      33.378  24.590  26.594  1.00  0.00    -0.169 F 
ATOM     22  F   UNL A   1      33.870  23.624  24.703  1.00  0.00    -0.169 F 
ATOM     23  F   UNL A   1      34.752  25.548  25.200  1.00  0.00    -0.169 F 
ENDBRANCH  19  20
ENDBRANCH   7  19
ENDBRANCH   6   7
ENDBRANCH   3   6
ENDBRANCH   1   2
BRANCH   1  24
ATOM     24  C   UNL A   1      31.509  31.867  26.730  1.00  0.00     0.042 C 
BRANCH  24  25
ATOM     25  C   UNL A   1      32.796  32.486  27.250  1.00  0.00     0.118 C 
BRANCH  25  26
ATOM     26  N   UNL A   1      32.627  33.900  27.561  1.00  0.00    -0.352 N 
ATOM     27  C   UNL A   1      33.193  34.619  28.579  1.00  0.00     0.251 C 
ATOM     28  H   UNL A   1      32.028  34.403  26.962  1.00  0.00     0.163 HD
ATOM     29  O   UNL A   1      32.767  35.742  28.850  1.00  0.00    -0.269 OA
BRANCH  27  30
ATOM     30  C   UNL A   1      34.306  34.031  29.348  1.00  0.00     0.039 A 
ATOM     31  C   UNL A   1      34.020  33.210  30.439  1.00  0.00     0.014 A 
ATOM     32  C   UNL A   1      35.630  34.282  28.974  1.00  0.00     0.014 A 
ATOM     33  C   UNL A   1      35.069  32.610  31.136  1.00  0.00     0.010 A 
ATOM     34  C   UNL A   1      36.665  33.610  29.610  1.00  0.00     0.010 A 
ATOM     35  C   UNL A   1      36.398  32.787  30.712  1.00  0.00    -0.014 A 
BRANCH  35  36
ATOM     36  C   UNL A   1      37.521  32.129  31.425  1.00  0.00     0.031 A 
ATOM     37  C   UNL A   1      38.291  31.019  30.761  1.00  0.00     0.074 A 
ATOM     38  C   UNL A   1      37.805  32.490  32.692  1.00  0.00     0.049 A 
ATOM     39  N   UNL A   1      39.296  30.324  31.225  1.00  0.00    -0.248 NA
ATOM     40  C   UNL A   1      37.858  30.615  29.411  1.00  0.00     0.031 C 
ATOM     41  C   UNL A   1      37.069  33.488  33.472  1.00  0.00     0.029 A 
ATOM     42  N   UNL A   1      38.774  32.044  33.553  1.00  0.00    -0.354 N 
ATOM     43  C   UNL A   1      39.591  29.382  30.245  1.00  0.00     0.074 A 
ATOM     44  C   UNL A   1      38.633  29.566  29.180  1.00  0.00     0.031 C 
ATOM     45  C   UNL A   1      37.625  33.591  34.690  1.00  0.00     0.029 A 
ATOM     46  C   UNL A   1      38.734  32.647  34.789  1.00  0.00     0.049 A 
ATOM     47  H   UNL A   1      39.438  31.360  33.310  1.00  0.00     0.167 HD
ATOM     48  C   UNL A   1      40.590  28.469  30.220  1.00  0.00     0.034 A 
ATOM     49  C   UNL A   1      39.502  32.457  35.879  1.00  0.00     0.034 A 
ATOM     50  C   UNL A   1      41.563  28.319  31.267  1.00  0.00     0.049 A 
ATOM     51  C   UNL A   1      40.634  31.469  35.806  1.00  0.00     0.074 A 
ATOM     52  C   UNL A   1      42.669  27.489  31.300  1.00  0.00     0.029 A 
ATOM     53  N   UNL A   1      41.539  29.005  32.471  1.00  0.00    -0.354 N 
ATOM     54  N   UNL A   1      41.002  30.706  34.806  1.00  0.00    -0.248 NA
ATOM     55  C   UNL A   1      41.483  31.346  36.999  1.00  0.00     0.031 C 
ATOM     56  C   UNL A   1      43.297  27.650  32.540  1.00  0.00     0.029 A 
ATOM     57  C   UNL A   1      42.606  28.610  33.261  1.00  0.00     0.049 A 
ATOM     58  H   UNL A   1      40.865  29.674  32.727  1.00  0.00     0.167 HD
ATOM     59  C   UNL A   1      42.146  30.042  35.232  1.00  0.00     0.074 A 
ATOM     60  C   UNL A   1      42.421  30.510  36.576  1.00  0.00     0.031 C 
ATOM     61  C   UNL A   1      42.894  29.122  34.576  1.00  0.00     0.034 A 
BRANCH  48  62
ATOM     62  C   UNL A   1      40.708  27.591  29.000  1.00  0.00     0.023 A 
ATOM     63  C   UNL A   1      39.861  26.472  28.861  1.00  0.00     0.012 A 
ATOM     64  C   UNL A   1      41.614  27.901  27.969  1.00  0.00     0.148 A 
ATOM     65  C   UNL A   1      39.941  25.653  27.735  1.00  0.00     0.002 A 
ATOM     66  C   UNL A   1      41.654  27.110  26.826  1.00  0.00     0.091 A 
ATOM     67  F   UNL A   1      42.426  28.956  28.127  1.00  0.00    -0.205 F 
ATOM     68  C   UNL A   1      40.829  25.979  26.714  1.00  0.00     0.022 A 
BRANCH  66  69
ATOM     69  S   UNL A   1      42.700  27.493  25.417  1.00  0.00     0.127 S 
ATOM     70  O   UNL A   1      43.984  27.758  26.067  1.00  0.00    -0.237 OA
ATOM     71  O   UNL A   1      42.651  26.246  24.652  1.00  0.00    -0.237 OA
ATOM     72  O   UNL A   1      42.086  28.636  24.757  1.00  0.00    -0.744 OA
ENDBRANCH  66  69
ENDBRANCH  48  62
BRANCH  49  73
ATOM     73  C   UNL A   1      39.266  33.267  37.108  1.00  0.00     0.023 A 
ATOM     74  C   UNL A   1      38.410  32.771  38.111  1.00  0.00     0.012 A 
ATOM     75  C   UNL A   1      39.899  34.509  37.297  1.00  0.00     0.148 A 
ATOM     76  C   UNL A   1      38.161  33.516  39.265  1.00  0.00     0.002 A 
ATOM     77  C   UNL A   1      39.691  35.220  38.474  1.00  0.00     0.091 A 
ATOM     78  F   UNL A   1      40.704  34.966  36.328  1.00  0.00    -0.205 F 
ATOM     79  C   UNL A   1      38.807  34.734  39.450  1.00  0.00     0.022 A 
BRANCH  77  80
ATOM     80  S   UNL A   1      40.576  36.735  38.856  1.00  0.00     0.127 S 
ATOM     81  O   UNL A   1      39.500  37.721  38.841  1.00  0.00    -0.237 OA
ATOM     82  O   UNL A   1      41.121  36.437  40.182  1.00  0.00    -0.237 OA
ATOM     83  O   UNL A   1      41.580  36.878  37.811  1.00  0.00    -0.744 OA
ENDBRANCH  77  80
ENDBRANCH  49  73
BRANCH  61  84
ATOM     84  C   UNL A   1      44.117  28.588  35.275  1.00  0.00     0.023 A 
ATOM     85  C   UNL A   1      45.377  29.176  35.044  1.00  0.00     0.012 A 
ATOM     86  C   UNL A   1      44.002  27.548  36.219  1.00  0.00     0.148 A 
ATOM     87  C   UNL A   1      46.508  28.711  35.712  1.00  0.00     0.002 A 
ATOM     88  C   UNL A   1      45.124  27.127  36.922  1.00  0.00     0.091 A 
ATOM     89  F   UNL A   1      42.798  26.991  36.412  1.00  0.00    -0.205 F 
ATOM     90  C   UNL A   1      46.380  27.697  36.660  1.00  0.00     0.022 A 
BRANCH  88  91
ATOM     91  S   UNL A   1      45.034  25.901  38.231  1.00  0.00     0.127 S 
ATOM     92  O   UNL A   1      46.428  25.825  38.663  1.00  0.00    -0.237 OA
ATOM     93  O   UNL A   1      44.132  26.539  39.191  1.00  0.00    -0.237 OA
ATOM     94  O   UNL A   1      44.504  24.692  37.615  1.00  0.00    -0.744 OA
ENDBRANCH  88  91
ENDBRANCH  61  84
ENDBRANCH  35  36
ENDBRANCH  27  30
ENDBRANCH  25  26
ENDBRANCH  24  25
ENDBRANCH   1  24
TORSDOF 19
ENDMDL
MODEL 2
REMARK VINA RESULT:     -11.0      4.161      9.437
REMARK SMILES C[C@H](NC(=O)N(CC(=O)NCCCNC(=O)c1ccc(-c2c3nc(c(-c4cccc(S(=O)(=O)[O-])c4F)c4ccc([nH]4)c(-c4cccc(S(=O)(=O)[O-])c4F)c4nc(c(-c5cccc(S(=O)(=O)[O-])c5F)c5ccc2[nH]5)C=C4)C=C3)cc1)CC(F)(F)F)[C@@H]1CCCO1
REMARK SMILES IDX 11 1 10 2 8 3 9 4 7 6 6 7 4 8 3 9 5 11 2 12 1 13 85 14 86 15
REMARK SMILES IDX 89 16 87 17 88 18 80 19 81 20 82 21 83 22 84 23 12 24 13 25
REMARK SMILES IDX 14 26 15 27 16 29 17 30 18 31 79 32 19 33 78 34 20 35 21 36
REMARK SMILES IDX 22 37 72 38 23 39 77 40 71 41 73 42 24 43 76 44 70 45 69 46
REMARK SMILES IDX 25 48 57 49 37 50 56 51 38 52 41 53 55 54 74 55 39 56 40 57
REMARK SMILES IDX 54 59 75 60 42 61 26 62 27 63 35 64 28 65 30 66 36 67 29 68
REMARK SMILES IDX 31 69 32 70 33 71 34 72 58 73 59 74 67 75 60 76 62 77 68 78
REMARK SMILES IDX 61 79 63 80 64 81 65 82 66 83 43 84 44 85 52 86 45 87 47 88
REMARK SMILES IDX 53 89 46 90 48 91 49 92 50 93 51 94
REMARK H PARENT 10 5 3 10 14 28 73 47 41 58
REMARK Flexibility Score: inf
ROOT
ATOM      1  C   UNL A   1      32.456  26.934  25.968  1.00  0.00     0.117 C 
ENDROOT
BRANCH   1   2
ATOM      2  N   UNL A   1      31.644  25.909  26.597  1.00  0.00    -0.354 N 
ATOM      3  C   UNL A   1      31.875  24.569  26.685  1.00  0.00     0.239 C 
ATOM      4  O   UNL A   1      31.022  23.843  27.196  1.00  0.00    -0.273 OA
ATOM      5  H   UNL A   1      30.813  26.225  27.018  1.00  0.00     0.163 HD
BRANCH   3   6
ATOM      6  C   UNL A   1      33.243  24.024  26.290  1.00  0.00     0.221 C 
BRANCH   6   7
ATOM      7  N   UNL A   1      33.406  23.404  24.979  1.00  0.00    -0.306 N 
BRANCH   7   8
ATOM      8  C   UNL A   1      34.328  22.473  24.598  1.00  0.00     0.318 C 
ATOM      9  N   UNL A   1      34.071  21.159  24.477  1.00  0.00    -0.333 N 
ATOM     10  H   UNL A   1      34.887  20.675  24.216  1.00  0.00     0.165 HD
ATOM     11  O   UNL A   1      35.470  22.813  24.277  1.00  0.00    -0.249 OA
BRANCH   9  12
ATOM     12  C   UNL A   1      32.941  20.220  24.617  1.00  0.00     0.109 C 
ATOM     13  C   UNL A   1      32.247  19.937  23.272  1.00  0.00     0.034 C 
BRANCH  12  14
ATOM     14  C   UNL A   1      33.408  18.864  25.205  1.00  0.00     0.140 C 
ATOM     15  C   UNL A   1      34.301  17.989  24.337  1.00  0.00     0.036 C 
ATOM     16  O   UNL A   1      32.262  18.051  25.546  1.00  0.00    -0.376 OA
ATOM     17  C   UNL A   1      34.038  16.628  24.943  1.00  0.00     0.031 C 
ATOM     18  C   UNL A   1      32.547  16.692  25.192  1.00  0.00     0.160 C 
ENDBRANCH  12  14
ENDBRANCH   9  12
ENDBRANCH   7   8
BRANCH   7  19
ATOM     19  C   UNL A   1      32.387  23.765  23.957  1.00  0.00     0.237 C 
BRANCH  19  20
ATOM     20  C   UNL A   1      32.760  24.796  22.887  1.00  0.00     0.406 C 
ATOM     21  F   UNL A   1      33.855  25.514  23.195  1.00  0.00    -0.169 F 
ATOM     22  F   UNL A   1      32.999  24.168  21.709  1.00  0.00    -0.169 F 
ATOM     23  F   UNL A   1      31.745  25.663  22.668  1.00  0.00    -0.169 F 
ENDBRANCH  19  20
ENDBRANCH   7  19
ENDBRANCH   6   7
ENDBRANCH   3   6
ENDBRANCH   1   2
BRANCH   1  24
ATOM     24  C   UNL A   1      32.956  27.957  26.976  1.00  0.00     0.042 C 
BRANCH  24  25
ATOM     25  C   UNL A   1      34.095  28.808  26.439  1.00  0.00     0.118 C 
BRANCH  25  26
ATOM     26  N   UNL A   1      33.895  30.223  26.733  1.00  0.00    -0.352 N 
ATOM     27  C   UNL A   1      34.576  31.010  27.622  1.00  0.00     0.251 C 
ATOM     28  H   UNL A   1      33.178  30.669  26.227  1.00  0.00     0.163 HD
ATOM     29  O   UNL A   1      34.135  32.118  27.927  1.00  0.00    -0.269 OA
BRANCH  27  30
ATOM     30  C   UNL A   1      35.833  30.512  28.213  1.00  0.00     0.039 A 
ATOM     31  C   UNL A   1      35.781  29.738  29.372  1.00  0.00     0.014 A 
ATOM     32  C   UNL A   1      37.060  30.801  27.604  1.00  0.00     0.014 A 
ATOM     33  C   UNL A   1      36.963  29.222  29.903  1.00  0.00     0.010 A 
ATOM     34  C   UNL A   1      38.221  30.209  28.082  1.00  0.00     0.010 A 
ATOM     35  C   UNL A   1      38.190  29.435  29.249  1.00  0.00    -0.014 A 
BRANCH  35  36
ATOM     36  C   UNL A   1      39.450  28.865  29.786  1.00  0.00     0.031 A 
ATOM     37  C   UNL A   1      40.086  29.461  31.014  1.00  0.00     0.074 A 
ATOM     38  C   UNL A   1      40.053  27.854  29.132  1.00  0.00     0.049 A 
ATOM     39  N   UNL A   1      41.184  29.104  31.626  1.00  0.00    -0.248 NA
ATOM     40  C   UNL A   1      39.418  30.627  31.618  1.00  0.00     0.031 C 
ATOM     41  C   UNL A   1      39.580  27.256  27.880  1.00  0.00     0.029 A 
ATOM     42  N   UNL A   1      41.203  27.163  29.415  1.00  0.00    -0.354 N 
ATOM     43  C   UNL A   1      41.358  30.019  32.659  1.00  0.00     0.074 A 
ATOM     44  C   UNL A   1      40.276  30.971  32.566  1.00  0.00     0.031 C 
ATOM     45  C   UNL A   1      40.424  26.277  27.514  1.00  0.00     0.029 A 
ATOM     46  C   UNL A   1      41.511  26.199  28.485  1.00  0.00     0.049 A 
ATOM     47  H   UNL A   1      41.755  27.340  30.211  1.00  0.00     0.167 HD
ATOM     48  C   UNL A   1      42.313  30.043  33.618  1.00  0.00     0.034 A 
ATOM     49  C   UNL A   1      42.554  25.348  28.420  1.00  0.00     0.034 A 
ATOM     50  C   UNL A   1      43.364  29.068  33.726  1.00  0.00     0.049 A 
ATOM     51  C   UNL A   1      43.575  25.367  29.525  1.00  0.00     0.074 A 
ATOM     52  C   UNL A   1      44.326  28.948  34.712  1.00  0.00     0.029 A 
ATOM     53  N   UNL A   1      43.597  28.054  32.811  1.00  0.00    -0.354 N 
ATOM     54  N   UNL A   1      43.628  26.132  30.588  1.00  0.00    -0.248 NA
ATOM     55  C   UNL A   1      44.658  24.377  29.443  1.00  0.00     0.031 C 
ATOM     56  C   UNL A   1      45.164  27.879  34.374  1.00  0.00     0.029 A 
ATOM     57  C   UNL A   1      44.696  27.309  33.201  1.00  0.00     0.049 A 
ATOM     58  H   UNL A   1      43.060  27.888  32.003  1.00  0.00     0.167 HD
ATOM     59  C   UNL A   1      44.724  25.692  31.321  1.00  0.00     0.074 A 
ATOM     60  C   UNL A   1      45.293  24.579  30.590  1.00  0.00     0.031 C 
ATOM     61  C   UNL A   1      45.220  26.173  32.488  1.00  0.00     0.034 A 
BRANCH  48  62
ATOM     62  C   UNL A   1      42.239  31.136  34.654  1.00  0.00     0.023 A 
ATOM     63  C   UNL A   1      41.526  30.915  35.851  1.00  0.00     0.012 A 
ATOM     64  C   UNL A   1      42.916  32.356  34.470  1.00  0.00     0.148 A 
ATOM     65  C   UNL A   1      41.457  31.906  36.831  1.00  0.00     0.002 A 
ATOM     66  C   UNL A   1      42.884  33.319  35.472  1.00  0.00     0.091 A 
ATOM     67  F   UNL A   1      43.571  32.556  33.317  1.00  0.00    -0.205 F 
ATOM     68  C   UNL A   1      42.144  33.101  36.646  1.00  0.00     0.022 A 
BRANCH  66  69
ATOM     69  S   UNL A   1      43.806  34.857  35.369  1.00  0.00     0.127 S 
ATOM     70  O   UNL A   1      43.121  35.538  34.270  1.00  0.00    -0.237 OA
ATOM     71  O   UNL A   1      43.571  35.443  36.689  1.00  0.00    -0.237 OA
ATOM     72  O   UNL A   1      45.188  34.483  35.107  1.00  0.00    -0.744 OA
ENDBRANCH  66  69
ENDBRANCH  48  62
BRANCH  49  73
ATOM     73  C   UNL A   1      42.647  24.365  27.304  1.00  0.00     0.023 A 
ATOM     74  C   UNL A   1      43.350  24.710  26.133  1.00  0.00     0.012 A 
ATOM     75  C   UNL A   1      42.066  23.088  27.404  1.00  0.00     0.148 A 
ATOM     76  C   UNL A   1      43.440  23.814  25.067  1.00  0.00     0.002 A 
ATOM     77  C   UNL A   1      42.208  22.179  26.362  1.00  0.00     0.091 A 
ATOM     78  F   UNL A   1      41.396  22.781  28.524  1.00  0.00    -0.205 F 
ATOM     79  C   UNL A   1      42.878  22.547  25.185  1.00  0.00     0.022 A 
BRANCH  77  80
ATOM     80  S   UNL A   1      41.627  20.484  26.474  1.00  0.00     0.127 S 
ATOM     81  O   UNL A   1      40.189  20.647  26.279  1.00  0.00    -0.237 OA
ATOM     82  O   UNL A   1      42.332  19.851  25.358  1.00  0.00    -0.237 OA
ATOM     83  O   UNL A   1      42.037  20.013  27.789  1.00  0.00    -0.744 OA
ENDBRANCH  77  80
ENDBRANCH  49  73
BRANCH  61  84
ATOM     84  C   UNL A   1      46.413  25.469  33.082  1.00  0.00     0.023 A 
ATOM     85  C   UNL A   1      46.229  24.453  34.041  1.00  0.00     0.012 A 
ATOM     86  C   UNL A   1      47.714  25.771  32.634  1.00  0.00     0.148 A 
ATOM     87  C   UNL A   1      47.325  23.774  34.571  1.00  0.00     0.002 A 
ATOM     88  C   UNL A   1      48.796  25.052  33.125  1.00  0.00     0.091 A 
ATOM     89  F   UNL A   1      47.868  26.753  31.734  1.00  0.00    -0.205 F 
ATOM     90  C   UNL A   1      48.606  24.063  34.104  1.00  0.00     0.022 A 
BRANCH  88  91
ATOM     91  S   UNL A   1      50.466  25.286  32.508  1.00  0.00     0.127 S 
ATOM     92  O   UNL A   1      50.308  24.962  31.091  1.00  0.00    -0.237 OA
ATOM     93  O   UNL A   1      50.702  26.704  32.787  1.00  0.00    -0.237 OA
ATOM     94  O   UNL A   1      51.308  24.372  33.267  1.00  0.00    -0.744 OA
ENDBRANCH  88  91
ENDBRANCH  61  84
ENDBRANCH  35  36
ENDBRANCH  27  30
ENDBRANCH  25  26
ENDBRANCH  24  25
ENDBRANCH   1  24
TORSDOF 19
ENDMDL
MODEL 3
REMARK VINA RESULT:     -11.0      4.830      7.869
REMARK SMILES C[C@H](NC(=O)N(CC(=O)NCCCNC(=O)c1ccc(-c2c3nc(c(-c4cccc(S(=O)(=O)[O-])c4F)c4ccc([nH]4)c(-c4cccc(S(=O)(=O)[O-])c4F)c4nc(c(-c5cccc(S(=O)(=O)[O-])c5F)c5ccc2[nH]5)C=C4)C=C3)cc1)CC(F)(F)F)[C@@H]1CCCO1
REMARK SMILES IDX 11 1 10 2 8 3 9 4 7 6 6 7 4 8 3 9 5 11 2 12 1 13 85 14 86 15
REMARK SMILES IDX 89 16 87 17 88 18 80 19 81 20 82 21 83 22 84 23 12 24 13 25
REMARK SMILES IDX 14 26 15 27 16 29 17 30 18 31 79 32 19 33 78 34 20 35 21 36
REMARK SMILES IDX 22 37 72 38 23 39 77 40 71 41 73 42 24 43 76 44 70 45 69 46
REMARK SMILES IDX 25 48 57 49 37 50 56 51 38 52 41 53 55 54 74 55 39 56 40 57
REMARK SMILES IDX 54 59 75 60 42 61 26 62 27 63 35 64 28 65 30 66 36 67 29 68
REMARK SMILES IDX 31 69 32 70 33 71 34 72 58 73 59 74 67 75 60 76 62 77 68 78
REMARK SMILES IDX 61 79 63 80 64 81 65 82 66 83 43 84 44 85 52 86 45 87 47 88
REMARK SMILES IDX 53 89 46 90 48 91 49 92 50 93 51 94
REMARK H PARENT 10 5 3 10 14 28 73 47 41 58
REMARK Flexibility Score: inf
ROOT
ATOM      1  C   UNL A   1      34.155  23.929  24.964  1.00  0.00     0.117 C 
ENDROOT
BRANCH   1   2
ATOM      2  N   UNL A   1      34.362  25.265  24.437  1.00  0.00    -0.354 N 
ATOM      3  C   UNL A   1      33.855  26.449  24.883  1.00  0.00     0.239 C 
ATOM      4  O   UNL A   1      34.086  27.480  24.250  1.00  0.00    -0.273 OA
ATOM      5  H   UNL A   1      34.951  25.325  23.650  1.00  0.00     0.163 HD
BRANCH   3   6
ATOM      6  C   UNL A   1      33.146  26.490  26.232  1.00  0.00     0.221 C 
BRANCH   6   7
ATOM      7  N   UNL A   1      31.809  27.071  26.311  1.00  0.00    -0.306 N 
BRANCH   7   8
ATOM      8  C   UNL A   1      30.656  26.606  25.748  1.00  0.00     0.318 C 
ATOM      9  N   UNL A   1      30.235  26.928  24.513  1.00  0.00    -0.333 N 
ATOM     10  H   UNL A   1      29.369  26.498  24.326  1.00  0.00     0.165 HD
ATOM     11  O   UNL A   1      29.949  25.791  26.345  1.00  0.00    -0.249 OA
BRANCH   9  12
ATOM     12  C   UNL A   1      30.672  27.727  23.352  1.00  0.00     0.109 C 
ATOM     13  C   UNL A   1      31.203  26.848  22.204  1.00  0.00     0.034 C 
BRANCH  12  14
ATOM     14  C   UNL A   1      29.508  28.587  22.793  1.00  0.00     0.140 C 
ATOM     15  C   UNL A   1      29.273  29.949  23.428  1.00  0.00     0.036 C 
ATOM     16  O   UNL A   1      28.259  27.869  22.914  1.00  0.00    -0.376 OA
ATOM     17  C   UNL A   1      27.817  30.175  23.081  1.00  0.00     0.031 C 
ATOM     18  C   UNL A   1      27.238  28.795  23.303  1.00  0.00     0.160 C 
ENDBRANCH  12  14
ENDBRANCH   9  12
ENDBRANCH   7   8
BRANCH   7  19
ATOM     19  C   UNL A   1      31.669  28.266  27.187  1.00  0.00     0.237 C 
BRANCH  19  20
ATOM     20  C   UNL A   1      32.218  29.606  26.685  1.00  0.00     0.406 C 
ATOM     21  F   UNL A   1      31.504  30.666  27.102  1.00  0.00    -0.169 F 
ATOM     22  F   UNL A   1      33.491  29.771  27.120  1.00  0.00    -0.169 F 
ATOM     23  F   UNL A   1      32.260  29.641  25.333  1.00  0.00    -0.169 F 
ENDBRANCH  19  20
ENDBRANCH   7  19
ENDBRANCH   6   7
ENDBRANCH   3   6
ENDBRANCH   1   2
BRANCH   1  24
ATOM     24  C   UNL A   1      35.155  23.592  26.059  1.00  0.00     0.042 C 
BRANCH  24  25
ATOM     25  C   UNL A   1      36.589  23.910  25.669  1.00  0.00     0.118 C 
BRANCH  25  26
ATOM     26  N   UNL A   1      37.486  22.798  25.962  1.00  0.00    -0.352 N 
ATOM     27  C   UNL A   1      38.776  22.845  26.417  1.00  0.00     0.251 C 
ATOM     28  H   UNL A   1      37.117  21.898  25.813  1.00  0.00     0.163 HD
ATOM     29  O   UNL A   1      39.476  21.833  26.389  1.00  0.00    -0.269 OA
BRANCH  27  30
ATOM     30  C   UNL A   1      39.315  24.119  26.931  1.00  0.00     0.039 A 
ATOM     31  C   UNL A   1      39.953  24.993  26.051  1.00  0.00     0.014 A 
ATOM     32  C   UNL A   1      39.171  24.450  28.283  1.00  0.00     0.014 A 
ATOM     33  C   UNL A   1      40.417  26.221  26.523  1.00  0.00     0.010 A 
ATOM     34  C   UNL A   1      39.550  25.710  28.727  1.00  0.00     0.010 A 
ATOM     35  C   UNL A   1      40.198  26.598  27.860  1.00  0.00    -0.014 A 
BRANCH  35  36
ATOM     36  C   UNL A   1      40.658  27.914  28.367  1.00  0.00     0.031 A 
ATOM     37  C   UNL A   1      42.130  28.219  28.452  1.00  0.00     0.074 A 
ATOM     38  C   UNL A   1      39.753  28.809  28.808  1.00  0.00     0.049 A 
ATOM     39  N   UNL A   1      42.722  29.307  28.870  1.00  0.00    -0.248 NA
ATOM     40  C   UNL A   1      43.062  27.154  28.040  1.00  0.00     0.031 C 
ATOM     41  C   UNL A   1      38.305  28.590  28.862  1.00  0.00     0.029 A 
ATOM     42  N   UNL A   1      39.916  30.072  29.315  1.00  0.00    -0.354 N 
ATOM     43  C   UNL A   1      44.086  29.046  28.808  1.00  0.00     0.074 A 
ATOM     44  C   UNL A   1      44.235  27.683  28.351  1.00  0.00     0.031 C 
ATOM     45  C   UNL A   1      37.713  29.689  29.357  1.00  0.00     0.029 A 
ATOM     46  C   UNL A   1      38.737  30.675  29.684  1.00  0.00     0.049 A 
ATOM     47  H   UNL A   1      40.795  30.507  29.404  1.00  0.00     0.167 HD
ATOM     48  C   UNL A   1      45.122  29.876  29.074  1.00  0.00     0.034 A 
ATOM     49  C   UNL A   1      38.508  31.887  30.227  1.00  0.00     0.034 A 
ATOM     50  C   UNL A   1      44.964  31.243  29.490  1.00  0.00     0.049 A 
ATOM     51  C   UNL A   1      39.674  32.806  30.468  1.00  0.00     0.074 A 
ATOM     52  C   UNL A   1      45.944  32.197  29.697  1.00  0.00     0.029 A 
ATOM     53  N   UNL A   1      43.750  31.846  29.775  1.00  0.00    -0.354 N 
ATOM     54  N   UNL A   1      40.949  32.601  30.243  1.00  0.00    -0.248 NA
ATOM     55  C   UNL A   1      39.366  34.141  31.001  1.00  0.00     0.031 C 
ATOM     56  C   UNL A   1      45.324  33.369  30.140  1.00  0.00     0.029 A 
ATOM     57  C   UNL A   1      43.954  33.158  30.167  1.00  0.00     0.049 A 
ATOM     58  H   UNL A   1      42.871  31.408  29.708  1.00  0.00     0.167 HD
ATOM     59  C   UNL A   1      41.591  33.790  30.567  1.00  0.00     0.074 A 
ATOM     60  C   UNL A   1      40.560  34.718  30.986  1.00  0.00     0.031 C 
ATOM     61  C   UNL A   1      42.913  34.084  30.533  1.00  0.00     0.034 A 
BRANCH  48  62
ATOM     62  C   UNL A   1      46.518  29.342  28.880  1.00  0.00     0.023 A 
ATOM     63  C   UNL A   1      47.288  28.976  30.003  1.00  0.00     0.012 A 
ATOM     64  C   UNL A   1      47.047  29.151  27.589  1.00  0.00     0.148 A 
ATOM     65  C   UNL A   1      48.576  28.465  29.847  1.00  0.00     0.002 A 
ATOM     66  C   UNL A   1      48.313  28.594  27.440  1.00  0.00     0.091 A 
ATOM     67  F   UNL A   1      46.310  29.523  26.534  1.00  0.00    -0.205 F 
ATOM     68  C   UNL A   1      49.083  28.264  28.567  1.00  0.00     0.022 A 
BRANCH  66  69
ATOM     69  S   UNL A   1      49.023  28.215  25.834  1.00  0.00     0.127 S 
ATOM     70  O   UNL A   1      47.902  28.507  24.940  1.00  0.00    -0.237 OA
ATOM     71  O   UNL A   1      50.129  29.170  25.756  1.00  0.00    -0.237 OA
ATOM     72  O   UNL A   1      49.428  26.819  25.891  1.00  0.00    -0.744 OA
ENDBRANCH  66  69
ENDBRANCH  48  62
BRANCH  49  73
ATOM     73  C   UNL A   1      37.112  32.322  30.516  1.00  0.00     0.023 A 
ATOM     74  C   UNL A   1      36.618  32.238  31.833  1.00  0.00     0.012 A 
ATOM     75  C   UNL A   1      36.283  32.839  29.503  1.00  0.00     0.148 A 
ATOM     76  C   UNL A   1      35.310  32.626  32.128  1.00  0.00     0.002 A 
ATOM     77  C   UNL A   1      35.001  33.277  29.815  1.00  0.00     0.091 A 
ATOM     78  F   UNL A   1      36.770  32.905  28.256  1.00  0.00    -0.205 F 
ATOM     79  C   UNL A   1      34.506  33.153  31.122  1.00  0.00     0.022 A 
BRANCH  77  80
ATOM     80  S   UNL A   1      33.938  34.085  28.614  1.00  0.00     0.127 S 
ATOM     81  O   UNL A   1      32.858  34.585  29.459  1.00  0.00    -0.237 OA
ATOM     82  O   UNL A   1      34.826  35.115  28.074  1.00  0.00    -0.237 OA
ATOM     83  O   UNL A   1      33.566  33.050  27.658  1.00  0.00    -0.744 OA
ENDBRANCH  77  80
ENDBRANCH  49  73
BRANCH  61  84
ATOM     84  C   UNL A   1      43.329  35.482  30.909  1.00  0.00     0.023 A 
ATOM     85  C   UNL A   1      43.510  36.459  29.910  1.00  0.00     0.012 A 
ATOM     86  C   UNL A   1      43.470  35.843  32.264  1.00  0.00     0.148 A 
ATOM     87  C   UNL A   1      43.860  37.765  30.252  1.00  0.00     0.002 A 
ATOM     88  C   UNL A   1      43.765  37.158  32.600  1.00  0.00     0.091 A 
ATOM     89  F   UNL A   1      43.310  34.895  33.198  1.00  0.00    -0.205 F 
ATOM     90  C   UNL A   1      43.975  38.117  31.596  1.00  0.00     0.022 A 
BRANCH  88  91
ATOM     91  S   UNL A   1      43.831  37.724  34.303  1.00  0.00     0.127 S 
ATOM     92  O   UNL A   1      44.147  39.141  34.134  1.00  0.00    -0.237 OA
ATOM     93  O   UNL A   1      42.469  37.456  34.771  1.00  0.00    -0.237 OA
ATOM     94  O   UNL A   1      44.861  36.927  34.953  1.00  0.00    -0.744 OA
ENDBRANCH  88  91
ENDBRANCH  61  84
ENDBRANCH  35  36
ENDBRANCH  27  30
ENDBRANCH  25  26
ENDBRANCH  24  25
ENDBRANCH   1  24
TORSDOF 19
ENDMDL
