MODEL 1
REMARK VINA RESULT:     -12.1      0.000      0.000
REMARK SMILES CC[C@H]1CCC[C@@H]([C@@H](Cc2ccccc2F)C(=O)NCCCNC(=O)c2ccc(-c3c4nc(c(-c5cccc(S(=O)(=O)[O-])c5F)c5ccc([nH]5)c(-c5cccc(S(=O)(=O)[O-])c5F)c5nc(c(-c6cccc(S(=O)(=O)[O-])c6F)c6ccc3[nH]6)C=C5)C=C4)cc2)C1
REMARK SMILES IDX 21 1 20 2 19 3 17 4 18 5 8 7 7 8 3 9 4 10 89 11 5 12 6 13
REMARK SMILES IDX 2 14 1 15 9 16 10 17 11 18 15 19 12 20 14 21 16 22 13 23
REMARK SMILES IDX 22 24 23 25 24 26 25 28 26 29 27 30 88 31 28 32 87 33 29 34
REMARK SMILES IDX 30 35 31 36 81 37 32 38 86 39 80 40 82 41 33 42 85 43 79 44
REMARK SMILES IDX 78 45 34 47 66 48 46 49 65 50 47 51 50 52 64 53 83 54 48 55
REMARK SMILES IDX 49 56 63 58 84 59 51 60 35 61 36 62 44 63 37 64 39 65 45 66
REMARK SMILES IDX 38 67 40 68 41 69 42 70 43 71 67 72 68 73 76 74 69 75 71 76
REMARK SMILES IDX 77 77 70 78 72 79 73 80 74 81 75 82 52 83 53 84 61 85 54 86
REMARK SMILES IDX 56 87 62 88 55 89 57 90 58 91 59 92 60 93
REMARK H PARENT 19 6 23 27 82 46 50 57
REMARK Flexibility Score: inf
ROOT
ATOM      1  C   UNL A   1      32.452  28.556  26.230  1.00  0.00     0.042 C 
ENDROOT
BRANCH   1   2
ATOM      2  C   UNL A   1      32.432  27.054  26.438  1.00  0.00     0.117 C 
BRANCH   2   3
ATOM      3  N   UNL A   1      31.139  26.487  26.758  1.00  0.00    -0.356 N 
ATOM      4  C   UNL A   1      30.226  25.826  26.009  1.00  0.00     0.223 C 
ATOM      5  O   UNL A   1      29.388  25.184  26.659  1.00  0.00    -0.275 OA
ATOM      6  H   UNL A   1      30.875  26.603  27.699  1.00  0.00     0.163 HD
BRANCH   4   7
ATOM      7  C   UNL A   1      30.169  25.795  24.473  1.00  0.00     0.086 C 
BRANCH   7   8
ATOM      8  C   UNL A   1      30.730  24.573  23.656  1.00  0.00     0.002 C 
ATOM      9  C   UNL A   1      33.192  25.174  22.872  1.00  0.00    -0.011 C 
ATOM     10  C   UNL A   1      33.709  24.017  23.736  1.00  0.00     0.003 C 
ATOM     11  C   UNL A   1      31.701  24.978  22.500  1.00  0.00     0.008 C 
ATOM     12  C   UNL A   1      32.784  23.658  24.885  1.00  0.00     0.001 C 
ATOM     13  C   UNL A   1      31.363  23.394  24.396  1.00  0.00     0.004 C 
BRANCH   9  14
ATOM     14  C   UNL A   1      33.465  26.606  23.379  1.00  0.00     0.000 C 
ATOM     15  C   UNL A   1      33.663  27.687  22.330  1.00  0.00     0.004 C 
ENDBRANCH   9  14
ENDBRANCH   7   8
BRANCH   7  16
ATOM     16  C   UNL A   1      28.902  26.484  23.878  1.00  0.00     0.052 C 
BRANCH  16  17
ATOM     17  C   UNL A   1      29.015  27.862  23.282  1.00  0.00    -0.011 A 
ATOM     18  C   UNL A   1      30.234  28.341  22.780  1.00  0.00     0.007 A 
ATOM     19  C   UNL A   1      27.876  28.670  23.150  1.00  0.00     0.126 A 
ATOM     20  C   UNL A   1      30.280  29.556  22.085  1.00  0.00     0.000 A 
ATOM     21  C   UNL A   1      27.920  29.882  22.465  1.00  0.00     0.039 A 
ATOM     22  F   UNL A   1      26.694  28.242  23.617  1.00  0.00    -0.207 F 
ATOM     23  C   UNL A   1      29.122  30.315  21.911  1.00  0.00     0.003 A 
ENDBRANCH  16  17
ENDBRANCH   7  16
ENDBRANCH   4   7
ENDBRANCH   2   3
ENDBRANCH   1   2
BRANCH   1  24
ATOM     24  C   UNL A   1      33.829  29.161  26.395  1.00  0.00     0.118 C 
BRANCH  24  25
ATOM     25  N   UNL A   1      33.756  30.551  26.823  1.00  0.00    -0.352 N 
ATOM     26  C   UNL A   1      34.494  31.215  27.775  1.00  0.00     0.251 C 
ATOM     27  H   UNL A   1      33.078  31.097  26.364  1.00  0.00     0.163 HD
ATOM     28  O   UNL A   1      34.089  32.292  28.209  1.00  0.00    -0.269 OA
BRANCH  26  29
ATOM     29  C   UNL A   1      35.756  30.634  28.289  1.00  0.00     0.039 A 
ATOM     30  C   UNL A   1      35.735  29.844  29.443  1.00  0.00     0.014 A 
ATOM     31  C   UNL A   1      36.972  30.897  27.658  1.00  0.00     0.014 A 
ATOM     32  C   UNL A   1      36.924  29.284  29.924  1.00  0.00     0.010 A 
ATOM     33  C   UNL A   1      38.124  30.234  28.057  1.00  0.00     0.010 A 
ATOM     34  C   UNL A   1      38.127  29.451  29.218  1.00  0.00    -0.014 A 
BRANCH  34  35
ATOM     35  C   UNL A   1      39.413  28.875  29.689  1.00  0.00     0.031 A 
ATOM     36  C   UNL A   1      40.163  29.546  30.816  1.00  0.00     0.074 A 
ATOM     37  C   UNL A   1      39.959  27.824  29.047  1.00  0.00     0.049 A 
ATOM     38  N   UNL A   1      41.352  29.279  31.287  1.00  0.00    -0.248 NA
ATOM     39  C   UNL A   1      39.511  30.696  31.469  1.00  0.00     0.031 C 
ATOM     40  C   UNL A   1      39.379  27.145  27.886  1.00  0.00     0.029 A 
ATOM     41  N   UNL A   1      41.141  27.159  29.261  1.00  0.00    -0.354 N 
ATOM     42  C   UNL A   1      41.612  30.258  32.240  1.00  0.00     0.074 A 
ATOM     43  C   UNL A   1      40.475  31.149  32.256  1.00  0.00     0.031 C 
ATOM     44  C   UNL A   1      40.200  26.156  27.498  1.00  0.00     0.029 A 
ATOM     45  C   UNL A   1      41.379  26.148  28.359  1.00  0.00     0.049 A 
ATOM     46  H   UNL A   1      41.762  27.385  29.991  1.00  0.00     0.167 HD
ATOM     47  C   UNL A   1      42.681  30.382  33.059  1.00  0.00     0.034 A 
ATOM     48  C   UNL A   1      42.429  25.309  28.236  1.00  0.00     0.034 A 
ATOM     49  C   UNL A   1      43.759  29.434  33.113  1.00  0.00     0.049 A 
ATOM     50  C   UNL A   1      43.558  25.406  29.227  1.00  0.00     0.074 A 
ATOM     51  C   UNL A   1      44.825  29.400  33.992  1.00  0.00     0.029 A 
ATOM     52  N   UNL A   1      43.899  28.349  32.264  1.00  0.00    -0.354 N 
ATOM     53  N   UNL A   1      43.709  26.246  30.222  1.00  0.00    -0.248 NA
ATOM     54  C   UNL A   1      44.643  24.421  29.104  1.00  0.00     0.031 C 
ATOM     55  C   UNL A   1      45.619  28.298  33.668  1.00  0.00     0.029 A 
ATOM     56  C   UNL A   1      45.036  27.636  32.598  1.00  0.00     0.049 A 
ATOM     57  H   UNL A   1      43.282  28.119  31.532  1.00  0.00     0.167 HD
ATOM     58  C   UNL A   1      44.886  25.875  30.861  1.00  0.00     0.074 A 
ATOM     59  C   UNL A   1      45.398  24.719  30.154  1.00  0.00     0.031 C 
ATOM     60  C   UNL A   1      45.498  26.451  31.925  1.00  0.00     0.034 A 
BRANCH  47  61
ATOM     61  C   UNL A   1      42.707  31.531  34.033  1.00  0.00     0.023 A 
ATOM     62  C   UNL A   1      43.238  32.772  33.625  1.00  0.00     0.012 A 
ATOM     63  C   UNL A   1      42.114  31.416  35.305  1.00  0.00     0.148 A 
ATOM     64  C   UNL A   1      43.198  33.875  34.475  1.00  0.00     0.002 A 
ATOM     65  C   UNL A   1      42.036  32.533  36.129  1.00  0.00     0.091 A 
ATOM     66  F   UNL A   1      41.631  30.223  35.679  1.00  0.00    -0.205 F 
ATOM     67  C   UNL A   1      42.585  33.760  35.720  1.00  0.00     0.022 A 
BRANCH  65  68
ATOM     68  S   UNL A   1      41.192  32.516  37.715  1.00  0.00     0.127 S 
ATOM     69  O   UNL A   1      39.881  31.983  37.346  1.00  0.00    -0.237 OA
ATOM     70  O   UNL A   1      42.025  31.600  38.495  1.00  0.00    -0.237 OA
ATOM     71  O   UNL A   1      41.190  33.894  38.187  1.00  0.00    -0.744 OA
ENDBRANCH  65  68
ENDBRANCH  47  61
BRANCH  48  72
ATOM     72  C   UNL A   1      42.408  24.253  27.185  1.00  0.00     0.023 A 
ATOM     73  C   UNL A   1      43.250  24.381  26.063  1.00  0.00     0.012 A 
ATOM     74  C   UNL A   1      41.614  23.096  27.317  1.00  0.00     0.148 A 
ATOM     75  C   UNL A   1      43.287  23.390  25.082  1.00  0.00     0.002 A 
ATOM     76  C   UNL A   1      41.699  22.085  26.365  1.00  0.00     0.091 A 
ATOM     77  F   UNL A   1      40.808  22.997  28.384  1.00  0.00    -0.205 F 
ATOM     78  C   UNL A   1      42.522  22.237  25.239  1.00  0.00     0.022 A 
BRANCH  76  79
ATOM     79  S   UNL A   1      40.866  20.506  26.566  1.00  0.00     0.127 S 
ATOM     80  O   UNL A   1      39.504  20.830  26.145  1.00  0.00    -0.237 OA
ATOM     81  O   UNL A   1      41.609  19.650  25.638  1.00  0.00    -0.237 OA
ATOM     82  O   UNL A   1      41.032  20.152  27.967  1.00  0.00    -0.744 OA
ENDBRANCH  76  79
ENDBRANCH  48  72
BRANCH  60  83
ATOM     83  C   UNL A   1      46.781  25.844  32.424  1.00  0.00     0.023 A 
ATOM     84  C   UNL A   1      48.010  26.337  31.950  1.00  0.00     0.012 A 
ATOM     85  C   UNL A   1      46.767  24.889  33.459  1.00  0.00     0.148 A 
ATOM     86  C   UNL A   1      49.210  25.879  32.491  1.00  0.00     0.002 A 
ATOM     87  C   UNL A   1      47.964  24.473  34.027  1.00  0.00     0.091 A 
ATOM     88  F   UNL A   1      45.582  24.423  33.884  1.00  0.00    -0.205 F 
ATOM     89  C   UNL A   1      49.188  24.960  33.538  1.00  0.00     0.022 A 
BRANCH  87  90
ATOM     90  S   UNL A   1      48.027  23.375  35.448  1.00  0.00     0.127 S 
ATOM     91  O   UNL A   1      47.240  24.116  36.432  1.00  0.00    -0.237 OA
ATOM     92  O   UNL A   1      47.382  22.166  34.936  1.00  0.00    -0.237 OA
ATOM     93  O   UNL A   1      49.440  23.216  35.770  1.00  0.00    -0.744 OA
ENDBRANCH  87  90
ENDBRANCH  60  83
ENDBRANCH  34  35
ENDBRANCH  26  29
ENDBRANCH  24  25
ENDBRANCH   1  24
TORSDOF 17
ENDMDL
MODEL 2
REMARK VINA RESULT:     -12.0      1.904      3.408
REMARK SMILES CC[C@H]1CCC[C@@H]([C@@H](Cc2ccccc2F)C(=O)NCCCNC(=O)c2ccc(-c3c4nc(c(-c5cccc(S(=O)(=O)[O-])c5F)c5ccc([nH]5)c(-c5cccc(S(=O)(=O)[O-])c5F)c5nc(c(-c6cccc(S(=O)(=O)[O-])c6F)c6ccc3[nH]6)C=C5)C=C4)cc2)C1
REMARK SMILES IDX 21 1 20 2 19 3 17 4 18 5 8 7 7 8 3 9 4 10 89 11 5 12 6 13
REMARK SMILES IDX 2 14 1 15 9 16 10 17 11 18 15 19 12 20 14 21 16 22 13 23
REMARK SMILES IDX 22 24 23 25 24 26 25 28 26 29 27 30 88 31 28 32 87 33 29 34
REMARK SMILES IDX 30 35 31 36 81 37 32 38 86 39 80 40 82 41 33 42 85 43 79 44
REMARK SMILES IDX 78 45 34 47 66 48 46 49 65 50 47 51 50 52 64 53 83 54 48 55
REMARK SMILES IDX 49 56 63 58 84 59 51 60 35 61 36 62 44 63 37 64 39 65 45 66
REMARK SMILES IDX 38 67 40 68 41 69 42 70 43 71 67 72 68 73 76 74 69 75 71 76
REMARK SMILES IDX 77 77 70 78 72 79 73 80 74 81 75 82 52 83 53 84 61 85 54 86
REMARK SMILES IDX 56 87 62 88 55 89 57 90 58 91 59 92 60 93
REMARK H PARENT 19 6 23 27 82 46 50 57
REMARK Flexibility Score: inf
ROOT
ATOM      1  C   UNL A   1      33.830  28.629  25.045  1.00  0.00     0.042 C 
ENDROOT
BRANCH   1   2
ATOM      2  C   UNL A   1      33.588  27.172  24.705  1.00  0.00     0.117 C 
BRANCH   2   3
ATOM      3  N   UNL A   1      33.778  26.817  23.314  1.00  0.00    -0.356 N 
ATOM      4  C   UNL A   1      33.432  25.720  22.600  1.00  0.00     0.223 C 
ATOM      5  O   UNL A   1      33.440  25.877  21.371  1.00  0.00    -0.275 OA
ATOM      6  H   UNL A   1      34.246  27.505  22.788  1.00  0.00     0.163 HD
BRANCH   4   7
ATOM      7  C   UNL A   1      33.026  24.356  23.182  1.00  0.00     0.086 C 
BRANCH   7   8
ATOM      8  C   UNL A   1      31.516  23.984  23.421  1.00  0.00     0.002 C 
ATOM      9  C   UNL A   1      31.189  23.520  26.012  1.00  0.00    -0.011 C 
ATOM     10  C   UNL A   1      30.240  24.724  26.069  1.00  0.00     0.003 C 
ATOM     11  C   UNL A   1      31.295  22.953  24.574  1.00  0.00     0.008 C 
ATOM     12  C   UNL A   1      30.489  25.745  24.974  1.00  0.00     0.001 C 
ATOM     13  C   UNL A   1      30.480  25.096  23.593  1.00  0.00     0.004 C 
BRANCH   9  14
ATOM     14  C   UNL A   1      32.580  23.691  26.656  1.00  0.00     0.000 C 
ATOM     15  C   UNL A   1      33.067  22.573  27.563  1.00  0.00     0.004 C 
ENDBRANCH   9  14
ENDBRANCH   7   8
BRANCH   7  16
ATOM     16  C   UNL A   1      33.950  23.182  22.733  1.00  0.00     0.052 C 
BRANCH  16  17
ATOM     17  C   UNL A   1      35.010  22.669  23.670  1.00  0.00    -0.011 A 
ATOM     18  C   UNL A   1      36.215  23.363  23.856  1.00  0.00     0.007 A 
ATOM     19  C   UNL A   1      34.780  21.517  24.436  1.00  0.00     0.126 A 
ATOM     20  C   UNL A   1      37.114  22.957  24.850  1.00  0.00     0.000 A 
ATOM     21  C   UNL A   1      35.674  21.107  25.421  1.00  0.00     0.039 A 
ATOM     22  F   UNL A   1      33.637  20.831  24.285  1.00  0.00    -0.207 F 
ATOM     23  C   UNL A   1      36.835  21.844  25.645  1.00  0.00     0.003 A 
ENDBRANCH  16  17
ENDBRANCH   7  16
ENDBRANCH   4   7
ENDBRANCH   2   3
ENDBRANCH   1   2
BRANCH   1  24
ATOM     24  C   UNL A   1      33.904  28.888  26.534  1.00  0.00     0.118 C 
BRANCH  24  25
ATOM     25  N   UNL A   1      33.869  30.312  26.834  1.00  0.00    -0.352 N 
ATOM     26  C   UNL A   1      34.656  31.048  27.690  1.00  0.00     0.251 C 
ATOM     27  H   UNL A   1      33.180  30.825  26.354  1.00  0.00     0.163 HD
ATOM     28  O   UNL A   1      34.284  32.167  28.038  1.00  0.00    -0.269 OA
BRANCH  26  29
ATOM     29  C   UNL A   1      35.930  30.495  28.203  1.00  0.00     0.039 A 
ATOM     30  C   UNL A   1      35.937  29.764  29.396  1.00  0.00     0.014 A 
ATOM     31  C   UNL A   1      37.131  30.726  27.533  1.00  0.00     0.014 A 
ATOM     32  C   UNL A   1      37.137  29.230  29.878  1.00  0.00     0.010 A 
ATOM     33  C   UNL A   1      38.293  30.085  27.938  1.00  0.00     0.010 A 
ATOM     34  C   UNL A   1      38.323  29.362  29.137  1.00  0.00    -0.014 A 
BRANCH  34  35
ATOM     35  C   UNL A   1      39.621  28.811  29.607  1.00  0.00     0.031 A 
ATOM     36  C   UNL A   1      40.350  29.486  30.745  1.00  0.00     0.074 A 
ATOM     37  C   UNL A   1      40.195  27.780  28.956  1.00  0.00     0.049 A 
ATOM     38  N   UNL A   1      41.543  29.242  31.219  1.00  0.00    -0.248 NA
ATOM     39  C   UNL A   1      39.667  30.612  31.409  1.00  0.00     0.031 C 
ATOM     40  C   UNL A   1      39.637  27.103  27.784  1.00  0.00     0.029 A 
ATOM     41  N   UNL A   1      41.392  27.142  29.167  1.00  0.00    -0.354 N 
ATOM     42  C   UNL A   1      41.775  30.216  32.185  1.00  0.00     0.074 A 
ATOM     43  C   UNL A   1      40.617  31.078  32.206  1.00  0.00     0.031 C 
ATOM     44  C   UNL A   1      40.483  26.138  27.388  1.00  0.00     0.029 A 
ATOM     45  C   UNL A   1      41.657  26.148  28.255  1.00  0.00     0.049 A 
ATOM     46  H   UNL A   1      42.003  27.374  29.903  1.00  0.00     0.167 HD
ATOM     47  C   UNL A   1      42.837  30.355  33.011  1.00  0.00     0.034 A 
ATOM     48  C   UNL A   1      42.728  25.336  28.127  1.00  0.00     0.034 A 
ATOM     49  C   UNL A   1      43.937  29.433  33.058  1.00  0.00     0.049 A 
ATOM     50  C   UNL A   1      43.850  25.448  29.124  1.00  0.00     0.074 A 
ATOM     51  C   UNL A   1      45.000  29.414  33.942  1.00  0.00     0.029 A 
ATOM     52  N   UNL A   1      44.106  28.362  32.197  1.00  0.00    -0.354 N 
ATOM     53  N   UNL A   1      43.976  26.279  30.129  1.00  0.00    -0.248 NA
ATOM     54  C   UNL A   1      44.959  24.491  28.995  1.00  0.00     0.031 C 
ATOM     55  C   UNL A   1      45.822  28.335  33.608  1.00  0.00     0.029 A 
ATOM     56  C   UNL A   1      45.259  27.672  32.528  1.00  0.00     0.049 A 
ATOM     57  H   UNL A   1      43.499  28.126  31.460  1.00  0.00     0.167 HD
ATOM     58  C   UNL A   1      45.159  25.929  30.769  1.00  0.00     0.074 A 
ATOM     59  C   UNL A   1      45.702  24.794  30.051  1.00  0.00     0.031 C 
ATOM     60  C   UNL A   1      45.752  26.507  31.843  1.00  0.00     0.034 A 
BRANCH  47  61
ATOM     61  C   UNL A   1      42.831  31.493  33.997  1.00  0.00     0.023 A 
ATOM     62  C   UNL A   1      43.363  32.742  33.617  1.00  0.00     0.012 A 
ATOM     63  C   UNL A   1      42.208  31.359  35.254  1.00  0.00     0.148 A 
ATOM     64  C   UNL A   1      43.294  33.835  34.479  1.00  0.00     0.002 A 
ATOM     65  C   UNL A   1      42.102  32.465  36.089  1.00  0.00     0.091 A 
ATOM     66  F   UNL A   1      41.725  30.158  35.602  1.00  0.00    -0.205 F 
ATOM     67  C   UNL A   1      42.653  33.701  35.707  1.00  0.00     0.022 A 
BRANCH  65  68
ATOM     68  S   UNL A   1      41.220  32.424  37.653  1.00  0.00     0.127 S 
ATOM     69  O   UNL A   1      39.930  31.864  37.250  1.00  0.00    -0.237 OA
ATOM     70  O   UNL A   1      42.053  31.523  38.450  1.00  0.00    -0.237 OA
ATOM     71  O   UNL A   1      41.178  33.799  38.130  1.00  0.00    -0.744 OA
ENDBRANCH  65  68
ENDBRANCH  47  61
BRANCH  48  72
ATOM     72  C   UNL A   1      42.737  24.292  27.063  1.00  0.00     0.023 A 
ATOM     73  C   UNL A   1      43.477  24.515  25.886  1.00  0.00     0.012 A 
ATOM     74  C   UNL A   1      42.077  23.058  27.234  1.00  0.00     0.148 A 
ATOM     75  C   UNL A   1      43.541  23.542  24.889  1.00  0.00     0.002 A 
ATOM     76  C   UNL A   1      42.193  22.070  26.262  1.00  0.00     0.091 A 
ATOM     77  F   UNL A   1      41.366  22.868  28.354  1.00  0.00    -0.205 F 
ATOM     78  C   UNL A   1      42.911  22.315  25.082  1.00  0.00     0.022 A 
BRANCH  76  79
ATOM     79  S   UNL A   1      41.543  20.412  26.498  1.00  0.00     0.127 S 
ATOM     80  O   UNL A   1      42.196  19.678  25.415  1.00  0.00    -0.237 OA
ATOM     81  O   UNL A   1      42.025  20.084  27.841  1.00  0.00    -0.237 OA
ATOM     82  O   UNL A   1      40.098  20.540  26.397  1.00  0.00    -0.744 OA
ENDBRANCH  76  79
ENDBRANCH  48  72
BRANCH  60  83
ATOM     83  C   UNL A   1      47.047  25.924  32.341  1.00  0.00     0.023 A 
ATOM     84  C   UNL A   1      48.267  26.447  31.872  1.00  0.00     0.012 A 
ATOM     85  C   UNL A   1      47.052  24.963  33.371  1.00  0.00     0.148 A 
ATOM     86  C   UNL A   1      49.475  26.011  32.413  1.00  0.00     0.002 A 
ATOM     87  C   UNL A   1      48.257  24.570  33.938  1.00  0.00     0.091 A 
ATOM     88  F   UNL A   1      45.877  24.470  33.791  1.00  0.00    -0.205 F 
ATOM     89  C   UNL A   1      49.471  25.086  33.455  1.00  0.00     0.022 A 
BRANCH  87  90
ATOM     90  S   UNL A   1      48.341  23.466  35.353  1.00  0.00     0.127 S 
ATOM     91  O   UNL A   1      49.774  23.465  35.646  1.00  0.00    -0.237 OA
ATOM     92  O   UNL A   1      47.517  24.163  36.341  1.00  0.00    -0.237 OA
ATOM     93  O   UNL A   1      47.795  22.192  34.902  1.00  0.00    -0.744 OA
ENDBRANCH  87  90
ENDBRANCH  60  83
ENDBRANCH  34  35
ENDBRANCH  26  29
ENDBRANCH  24  25
ENDBRANCH   1  24
TORSDOF 17
ENDMDL
MODEL 3
REMARK VINA RESULT:     -11.9      2.557      4.036
REMARK SMILES CC[C@H]1CCC[C@@H]([C@@H](Cc2ccccc2F)C(=O)NCCCNC(=O)c2ccc(-c3c4nc(c(-c5cccc(S(=O)(=O)[O-])c5F)c5ccc([nH]5)c(-c5cccc(S(=O)(=O)[O-])c5F)c5nc(c(-c6cccc(S(=O)(=O)[O-])c6F)c6ccc3[nH]6)C=C5)C=C4)cc2)C1
REMARK SMILES IDX 21 1 20 2 19 3 17 4 18 5 8 7 7 8 3 9 4 10 89 11 5 12 6 13
REMARK SMILES IDX 2 14 1 15 9 16 10 17 11 18 15 19 12 20 14 21 16 22 13 23
REMARK SMILES IDX 22 24 23 25 24 26 25 28 26 29 27 30 88 31 28 32 87 33 29 34
REMARK SMILES IDX 30 35 31 36 81 37 32 38 86 39 80 40 82 41 33 42 85 43 79 44
REMARK SMILES IDX 78 45 34 47 66 48 46 49 65 50 47 51 50 52 64 53 83 54 48 55
REMARK SMILES IDX 49 56 63 58 84 59 51 60 35 61 36 62 44 63 37 64 39 65 45 66
REMARK SMILES IDX 38 67 40 68 41 69 42 70 43 71 67 72 68 73 76 74 69 75 71 76
REMARK SMILES IDX 77 77 70 78 72 79 73 80 74 81 75 82 52 83 53 84 61 85 54 86
REMARK SMILES IDX 56 87 62 88 55 89 57 90 58 91 59 92 60 93
REMARK H PARENT 19 6 23 27 82 46 50 57
REMARK Flexibility Score: inf
ROOT
ATOM      1  C   UNL A   1      32.924  28.834  23.703  1.00  0.00     0.042 C 
ENDROOT
BRANCH   1   2
ATOM      2  C   UNL A   1      33.658  27.613  23.185  1.00  0.00     0.117 C 
BRANCH   2   3
ATOM      3  N   UNL A   1      33.146  27.055  21.951  1.00  0.00    -0.356 N 
ATOM      4  C   UNL A   1      32.390  25.962  21.693  1.00  0.00     0.223 C 
ATOM      5  O   UNL A   1      31.850  25.958  20.577  1.00  0.00    -0.275 OA
ATOM      6  H   UNL A   1      33.395  27.568  21.149  1.00  0.00     0.163 HD
BRANCH   4   7
ATOM      7  C   UNL A   1      32.144  24.786  22.652  1.00  0.00     0.086 C 
BRANCH   7   8
ATOM      8  C   UNL A   1      30.739  24.553  23.319  1.00  0.00     0.002 C 
ATOM      9  C   UNL A   1      31.117  24.201  25.922  1.00  0.00    -0.011 C 
ATOM     10  C   UNL A   1      30.313  25.483  26.173  1.00  0.00     0.003 C 
ATOM     11  C   UNL A   1      30.775  23.581  24.543  1.00  0.00     0.008 C 
ATOM     12  C   UNL A   1      30.320  26.443  24.998  1.00  0.00     0.001 C 
ATOM     13  C   UNL A   1      29.877  25.754  23.711  1.00  0.00     0.004 C 
BRANCH   9  14
ATOM     14  C   UNL A   1      32.642  24.272  26.145  1.00  0.00     0.000 C 
ATOM     15  C   UNL A   1      33.283  25.650  26.126  1.00  0.00     0.004 C 
ENDBRANCH   9  14
ENDBRANCH   7   8
BRANCH   7  16
ATOM     16  C   UNL A   1      32.941  23.497  22.282  1.00  0.00     0.052 C 
BRANCH  16  17
ATOM     17  C   UNL A   1      34.007  22.988  23.214  1.00  0.00    -0.011 A 
ATOM     18  C   UNL A   1      35.149  23.750  23.501  1.00  0.00     0.007 A 
ATOM     19  C   UNL A   1      33.840  21.763  23.877  1.00  0.00     0.126 A 
ATOM     20  C   UNL A   1      36.045  23.330  24.492  1.00  0.00     0.000 A 
ATOM     21  C   UNL A   1      34.731  21.340  24.859  1.00  0.00     0.039 A 
ATOM     22  F   UNL A   1      32.758  21.011  23.629  1.00  0.00    -0.207 F 
ATOM     23  C   UNL A   1      35.826  22.137  25.184  1.00  0.00     0.003 A 
ENDBRANCH  16  17
ENDBRANCH   7  16
ENDBRANCH   4   7
ENDBRANCH   2   3
ENDBRANCH   1   2
BRANCH   1  24
ATOM     24  C   UNL A   1      33.067  29.024  25.198  1.00  0.00     0.118 C 
BRANCH  24  25
ATOM     25  N   UNL A   1      32.675  30.366  25.608  1.00  0.00    -0.352 N 
ATOM     26  C   UNL A   1      33.095  31.111  26.684  1.00  0.00     0.251 C 
ATOM     27  H   UNL A   1      32.010  30.804  25.028  1.00  0.00     0.163 HD
ATOM     28  O   UNL A   1      32.435  32.087  27.036  1.00  0.00    -0.269 OA
BRANCH  26  29
ATOM     29  C   UNL A   1      34.320  30.736  27.428  1.00  0.00     0.039 A 
ATOM     30  C   UNL A   1      35.327  31.686  27.627  1.00  0.00     0.014 A 
ATOM     31  C   UNL A   1      34.499  29.435  27.899  1.00  0.00     0.014 A 
ATOM     32  C   UNL A   1      36.480  31.337  28.339  1.00  0.00     0.010 A 
ATOM     33  C   UNL A   1      35.577  29.131  28.718  1.00  0.00     0.010 A 
ATOM     34  C   UNL A   1      36.603  30.063  28.916  1.00  0.00    -0.014 A 
BRANCH  34  35
ATOM     35  C   UNL A   1      37.808  29.648  29.682  1.00  0.00     0.031 A 
ATOM     36  C   UNL A   1      38.052  30.224  31.057  1.00  0.00     0.074 A 
ATOM     37  C   UNL A   1      38.728  28.846  29.113  1.00  0.00     0.049 A 
ATOM     38  N   UNL A   1      39.097  30.091  31.832  1.00  0.00    -0.248 NA
ATOM     39  C   UNL A   1      37.007  31.100  31.617  1.00  0.00     0.031 C 
ATOM     40  C   UNL A   1      38.654  28.300  27.756  1.00  0.00     0.029 A 
ATOM     41  N   UNL A   1      39.926  28.374  29.593  1.00  0.00    -0.354 N 
ATOM     42  C   UNL A   1      38.861  30.909  32.931  1.00  0.00     0.074 A 
ATOM     43  C   UNL A   1      37.594  31.565  32.710  1.00  0.00     0.031 C 
ATOM     44  C   UNL A   1      39.749  27.560  27.518  1.00  0.00     0.029 A 
ATOM     45  C   UNL A   1      40.619  27.604  28.689  1.00  0.00     0.049 A 
ATOM     46  H   UNL A   1      40.256  28.570  30.499  1.00  0.00     0.167 HD
ATOM     47  C   UNL A   1      39.610  31.069  34.045  1.00  0.00     0.034 A 
ATOM     48  C   UNL A   1      41.823  27.002  28.789  1.00  0.00     0.034 A 
ATOM     49  C   UNL A   1      40.816  30.334  34.307  1.00  0.00     0.049 A 
ATOM     50  C   UNL A   1      42.588  27.115  30.081  1.00  0.00     0.074 A 
ATOM     51  C   UNL A   1      41.582  30.330  35.459  1.00  0.00     0.029 A 
ATOM     52  N   UNL A   1      41.421  29.465  33.415  1.00  0.00    -0.354 N 
ATOM     53  N   UNL A   1      42.270  27.772  31.170  1.00  0.00    -0.248 NA
ATOM     54  C   UNL A   1      43.857  26.378  30.174  1.00  0.00     0.031 C 
ATOM     55  C   UNL A   1      42.660  29.464  35.258  1.00  0.00     0.029 A 
ATOM     56  C   UNL A   1      42.554  28.917  33.989  1.00  0.00     0.049 A 
ATOM     57  H   UNL A   1      41.095  29.268  32.508  1.00  0.00     0.167 HD
ATOM     58  C   UNL A   1      43.281  27.506  32.086  1.00  0.00     0.074 A 
ATOM     59  C   UNL A   1      44.211  26.609  31.432  1.00  0.00     0.031 C 
ATOM     60  C   UNL A   1      43.434  27.977  33.348  1.00  0.00     0.034 A 
BRANCH  47  61
ATOM     61  C   UNL A   1      39.113  32.006  35.114  1.00  0.00     0.023 A 
ATOM     62  C   UNL A   1      38.154  31.552  36.042  1.00  0.00     0.012 A 
ATOM     63  C   UNL A   1      39.667  33.292  35.266  1.00  0.00     0.148 A 
ATOM     64  C   UNL A   1      37.739  32.369  37.092  1.00  0.00     0.002 A 
ATOM     65  C   UNL A   1      39.283  34.083  36.342  1.00  0.00     0.091 A 
ATOM     66  F   UNL A   1      40.565  33.711  34.362  1.00  0.00    -0.205 F 
ATOM     67  C   UNL A   1      38.312  33.627  37.250  1.00  0.00     0.022 A 
BRANCH  65  68
ATOM     68  S   UNL A   1      40.022  35.683  36.688  1.00  0.00     0.127 S 
ATOM     69  O   UNL A   1      41.441  35.341  36.775  1.00  0.00    -0.237 OA
ATOM     70  O   UNL A   1      39.653  36.454  35.500  1.00  0.00    -0.237 OA
ATOM     71  O   UNL A   1      39.419  36.148  37.929  1.00  0.00    -0.744 OA
ENDBRANCH  65  68
ENDBRANCH  47  61
BRANCH  48  72
ATOM     72  C   UNL A   1      42.326  26.170  27.660  1.00  0.00     0.023 A 
ATOM     73  C   UNL A   1      43.269  26.717  26.768  1.00  0.00     0.012 A 
ATOM     74  C   UNL A   1      41.931  24.826  27.501  1.00  0.00     0.148 A 
ATOM     75  C   UNL A   1      43.792  25.951  25.726  1.00  0.00     0.002 A 
ATOM     76  C   UNL A   1      42.500  24.052  26.495  1.00  0.00     0.091 A 
ATOM     77  F   UNL A   1      41.023  24.326  28.350  1.00  0.00    -0.205 F 
ATOM     78  C   UNL A   1      43.419  24.616  25.597  1.00  0.00     0.022 A 
BRANCH  76  79
ATOM     79  S   UNL A   1      42.192  22.288  26.353  1.00  0.00     0.127 S 
ATOM     80  O   UNL A   1      40.748  22.254  26.127  1.00  0.00    -0.237 OA
ATOM     81  O   UNL A   1      43.004  21.929  25.189  1.00  0.00    -0.237 OA
ATOM     82  O   UNL A   1      42.653  21.707  27.604  1.00  0.00    -0.744 OA
ENDBRANCH  76  79
ENDBRANCH  48  72
BRANCH  60  83
ATOM     83  C   UNL A   1      44.635  27.526  34.135  1.00  0.00     0.023 A 
ATOM     84  C   UNL A   1      45.788  28.332  34.160  1.00  0.00     0.012 A 
ATOM     85  C   UNL A   1      44.566  26.383  34.956  1.00  0.00     0.148 A 
ATOM     86  C   UNL A   1      46.864  27.999  34.983  1.00  0.00     0.002 A 
ATOM     87  C   UNL A   1      45.621  26.085  35.809  1.00  0.00     0.091 A 
ATOM     88  F   UNL A   1      43.462  25.623  34.904  1.00  0.00    -0.205 F 
ATOM     89  C   UNL A   1      46.775  26.887  35.817  1.00  0.00     0.022 A 
BRANCH  87  90
ATOM     90  S   UNL A   1      45.551  24.736  36.994  1.00  0.00     0.127 S 
ATOM     91  O   UNL A   1      46.822  24.893  37.699  1.00  0.00    -0.237 OA
ATOM     92  O   UNL A   1      44.368  25.077  37.784  1.00  0.00    -0.237 OA
ATOM     93  O   UNL A   1      45.420  23.516  36.207  1.00  0.00    -0.744 OA
ENDBRANCH  87  90
ENDBRANCH  60  83
ENDBRANCH  34  35
ENDBRANCH  26  29
ENDBRANCH  24  25
ENDBRANCH   1  24
TORSDOF 17
ENDMDL
