MODEL 1
REMARK VINA RESULT:     -11.8      0.000      0.000
REMARK SMILES CC(C)[NH2+][C@@H](C(=O)NCCCNC(=O)c1ccc(-c2c3nc(c(-c4cccc(S(=O)(=O)[O-])c4F)c4ccc([nH]4)c(-c4cccc(S(=O)(=O)[O-])c4F)c4nc(c(-c5cccc(S(=O)(=O)[O-])c5F)c5ccc2[nH]5)C=C4)C=C3)cc1)c1c[nH]c2ccc(Br)cc12
REMARK SMILES IDX 10 1 9 2 8 3 6 4 7 5 5 7 4 8 2 11 1 12 3 13 78 14 79 15
REMARK SMILES IDX 87 16 80 17 81 18 86 19 82 21 84 22 83 23 85 24 11 25 12 26
REMARK SMILES IDX 13 27 14 29 15 30 16 31 77 32 17 33 76 34 18 35 19 36 20 37
REMARK SMILES IDX 70 38 21 39 75 40 69 41 71 42 22 43 74 44 68 45 67 46 23 48
REMARK SMILES IDX 55 49 35 50 54 51 36 52 39 53 53 54 72 55 37 56 38 57 52 59
REMARK SMILES IDX 73 60 40 61 24 62 25 63 33 64 26 65 28 66 34 67 27 68 29 69
REMARK SMILES IDX 30 70 31 71 32 72 56 73 57 74 65 75 58 76 60 77 66 78 59 79
REMARK SMILES IDX 61 80 62 81 63 82 64 83 41 84 42 85 50 86 43 87 45 88 51 89
REMARK SMILES IDX 44 90 46 91 47 92 48 93 49 94
REMARK H PARENT 8 6 4 9 4 10 80 20 12 28 71 47 39 58
REMARK Flexibility Score: inf
ROOT
ATOM      1  C   UNL A   1      37.006  19.776  24.976  1.00  0.00     0.042 C 
ENDROOT
BRANCH   1   2
ATOM      2  C   UNL A   1      35.734  20.662  24.934  1.00  0.00     0.118 C 
BRANCH   2   3
ATOM      3  N   UNL A   1      35.218  21.113  26.224  1.00  0.00    -0.351 N 
ATOM      4  C   UNL A   1      34.207  21.943  26.644  1.00  0.00     0.283 C 
ATOM      5  O   UNL A   1      33.958  21.849  27.855  1.00  0.00    -0.268 OA
ATOM      6  H   UNL A   1      35.718  20.727  26.979  1.00  0.00     0.163 HD
BRANCH   4   7
ATOM      7  C   UNL A   1      33.340  22.824  25.710  1.00  0.00     0.306 C 
BRANCH   7   8
ATOM      8  N   UNL A   1      34.005  23.722  24.746  1.00  0.00    -0.330 N 
ATOM      9  H   UNL A   1      33.682  24.661  24.980  1.00  0.00     0.347 HD
ATOM     10  H   UNL A   1      34.978  23.443  24.874  1.00  0.00     0.347 HD
BRANCH   8  11
ATOM     11  C   UNL A   1      33.893  23.624  23.310  1.00  0.00     0.176 C 
ATOM     12  C   UNL A   1      32.835  22.580  22.938  1.00  0.00     0.075 C 
ATOM     13  C   UNL A   1      33.666  24.891  22.488  1.00  0.00     0.075 C 
ENDBRANCH   8  11
ENDBRANCH   7   8
BRANCH   7  14
ATOM     14  C   UNL A   1      32.221  23.688  26.356  1.00  0.00     0.044 A 
ATOM     15  C   UNL A   1      30.932  23.158  26.579  1.00  0.00     0.094 A 
ATOM     16  C   UNL A   1      31.848  25.064  26.127  1.00  0.00     0.010 A 
ATOM     17  N   UNL A   1      30.340  23.634  25.380  1.00  0.00    -0.361 N 
ATOM     18  C   UNL A   1      30.706  24.971  25.318  1.00  0.00     0.046 A 
ATOM     19  C   UNL A   1      32.294  26.353  26.480  1.00  0.00     0.026 A 
ATOM     20  H   UNL A   1      29.792  23.130  24.737  1.00  0.00     0.166 HD
ATOM     21  C   UNL A   1      30.150  26.043  24.622  1.00  0.00     0.028 A 
ATOM     22  C   UNL A   1      31.586  27.457  25.971  1.00  0.00     0.018 A 
ATOM     23  C   UNL A   1      30.588  27.310  25.005  1.00  0.00     0.018 A 
ATOM     24  Br  UNL A   1      31.923  29.188  26.669  1.00  0.00    -0.051 Br
ENDBRANCH   7  14
ENDBRANCH   4   7
ENDBRANCH   2   3
ENDBRANCH   1   2
BRANCH   1  25
ATOM     25  C   UNL A   1      38.321  20.444  25.380  1.00  0.00     0.118 C 
BRANCH  25  26
ATOM     26  N   UNL A   1      39.327  19.459  25.734  1.00  0.00    -0.352 N 
ATOM     27  C   UNL A   1      40.643  19.642  26.087  1.00  0.00     0.251 C 
ATOM     28  H   UNL A   1      39.022  18.523  25.719  1.00  0.00     0.163 HD
ATOM     29  O   UNL A   1      41.404  18.677  26.058  1.00  0.00    -0.269 OA
BRANCH  27  30
ATOM     30  C   UNL A   1      41.165  20.973  26.494  1.00  0.00     0.039 A 
ATOM     31  C   UNL A   1      41.730  21.801  25.517  1.00  0.00     0.014 A 
ATOM     32  C   UNL A   1      41.181  21.385  27.831  1.00  0.00     0.014 A 
ATOM     33  C   UNL A   1      42.262  23.049  25.867  1.00  0.00     0.010 A 
ATOM     34  C   UNL A   1      41.673  22.650  28.174  1.00  0.00     0.010 A 
ATOM     35  C   UNL A   1      42.217  23.499  27.197  1.00  0.00    -0.014 A 
BRANCH  35  36
ATOM     36  C   UNL A   1      42.674  24.872  27.563  1.00  0.00     0.031 A 
ATOM     37  C   UNL A   1      41.725  25.878  28.160  1.00  0.00     0.074 A 
ATOM     38  C   UNL A   1      43.937  25.244  27.270  1.00  0.00     0.049 A 
ATOM     39  N   UNL A   1      41.945  27.130  28.475  1.00  0.00    -0.248 NA
ATOM     40  C   UNL A   1      40.349  25.430  28.428  1.00  0.00     0.031 C 
ATOM     41  C   UNL A   1      44.942  24.389  26.633  1.00  0.00     0.029 A 
ATOM     42  N   UNL A   1      44.583  26.447  27.432  1.00  0.00    -0.354 N 
ATOM     43  C   UNL A   1      40.734  27.631  28.939  1.00  0.00     0.074 A 
ATOM     44  C   UNL A   1      39.777  26.547  28.863  1.00  0.00     0.031 C 
ATOM     45  C   UNL A   1      46.065  25.097  26.439  1.00  0.00     0.029 A 
ATOM     46  C   UNL A   1      45.855  26.465  26.903  1.00  0.00     0.049 A 
ATOM     47  H   UNL A   1      44.176  27.221  27.883  1.00  0.00     0.167 HD
ATOM     48  C   UNL A   1      40.448  28.873  29.400  1.00  0.00     0.034 A 
ATOM     49  C   UNL A   1      46.743  27.472  26.776  1.00  0.00     0.034 A 
ATOM     50  C   UNL A   1      41.408  29.940  29.519  1.00  0.00     0.049 A 
ATOM     51  C   UNL A   1      46.396  28.837  27.307  1.00  0.00     0.074 A 
ATOM     52  C   UNL A   1      41.234  31.190  30.089  1.00  0.00     0.029 A 
ATOM     53  N   UNL A   1      42.706  29.899  29.037  1.00  0.00    -0.354 N 
ATOM     54  N   UNL A   1      45.310  29.229  27.926  1.00  0.00    -0.248 NA
ATOM     55  C   UNL A   1      47.407  29.894  27.146  1.00  0.00     0.031 C 
ATOM     56  C   UNL A   1      42.414  31.920  29.916  1.00  0.00     0.029 A 
ATOM     57  C   UNL A   1      43.332  31.114  29.265  1.00  0.00     0.049 A 
ATOM     58  H   UNL A   1      43.122  29.122  28.599  1.00  0.00     0.167 HD
ATOM     59  C   UNL A   1      45.516  30.567  28.247  1.00  0.00     0.074 A 
ATOM     60  C   UNL A   1      46.845  30.909  27.788  1.00  0.00     0.031 C 
ATOM     61  C   UNL A   1      44.671  31.439  28.849  1.00  0.00     0.034 A 
BRANCH  48  62
ATOM     62  C   UNL A   1      39.044  29.165  29.859  1.00  0.00     0.023 A 
ATOM     63  C   UNL A   1      38.653  28.822  31.169  1.00  0.00     0.012 A 
ATOM     64  C   UNL A   1      38.160  29.902  29.043  1.00  0.00     0.148 A 
ATOM     65  C   UNL A   1      37.402  29.196  31.656  1.00  0.00     0.002 A 
ATOM     66  C   UNL A   1      36.930  30.305  29.550  1.00  0.00     0.091 A 
ATOM     67  F   UNL A   1      38.548  30.209  27.798  1.00  0.00    -0.205 F 
ATOM     68  C   UNL A   1      36.546  29.946  30.854  1.00  0.00     0.022 A 
BRANCH  66  69
ATOM     69  S   UNL A   1      35.789  31.343  28.630  1.00  0.00     0.127 S 
ATOM     70  O   UNL A   1      34.806  31.684  29.656  1.00  0.00    -0.237 OA
ATOM     71  O   UNL A   1      36.648  32.451  28.215  1.00  0.00    -0.237 OA
ATOM     72  O   UNL A   1      35.285  30.519  27.537  1.00  0.00    -0.744 OA
ENDBRANCH  66  69
ENDBRANCH  48  62
BRANCH  49  73
ATOM     73  C   UNL A   1      48.064  27.231  26.124  1.00  0.00     0.023 A 
ATOM     74  C   UNL A   1      49.150  26.777  26.897  1.00  0.00     0.012 A 
ATOM     75  C   UNL A   1      48.250  27.457  24.746  1.00  0.00     0.148 A 
ATOM     76  C   UNL A   1      50.406  26.594  26.317  1.00  0.00     0.002 A 
ATOM     77  C   UNL A   1      49.488  27.212  24.164  1.00  0.00     0.091 A 
ATOM     78  F   UNL A   1      47.212  27.909  24.028  1.00  0.00    -0.205 F 
ATOM     79  C   UNL A   1      50.574  26.802  24.951  1.00  0.00     0.022 A 
BRANCH  77  80
ATOM     80  S   UNL A   1      49.741  27.316  22.388  1.00  0.00     0.127 S 
ATOM     81  O   UNL A   1      51.155  26.976  22.265  1.00  0.00    -0.237 OA
ATOM     82  O   UNL A   1      48.815  26.299  21.886  1.00  0.00    -0.237 OA
ATOM     83  O   UNL A   1      49.376  28.679  22.025  1.00  0.00    -0.744 OA
ENDBRANCH  77  80
ENDBRANCH  49  73
BRANCH  61  84
ATOM     84  C   UNL A   1      45.152  32.850  29.062  1.00  0.00     0.023 A 
ATOM     85  C   UNL A   1      45.886  33.167  30.223  1.00  0.00     0.012 A 
ATOM     86  C   UNL A   1      44.949  33.842  28.082  1.00  0.00     0.148 A 
ATOM     87  C   UNL A   1      46.383  34.455  30.419  1.00  0.00     0.002 A 
ATOM     88  C   UNL A   1      45.489  35.111  28.261  1.00  0.00     0.091 A 
ATOM     89  F   UNL A   1      44.237  33.525  26.991  1.00  0.00    -0.205 F 
ATOM     90  C   UNL A   1      46.195  35.422  29.435  1.00  0.00     0.022 A 
BRANCH  88  91
ATOM     91  S   UNL A   1      45.379  36.396  27.011  1.00  0.00     0.127 S 
ATOM     92  O   UNL A   1      46.050  37.515  27.673  1.00  0.00    -0.237 OA
ATOM     93  O   UNL A   1      46.126  35.809  25.899  1.00  0.00    -0.237 OA
ATOM     94  O   UNL A   1      43.959  36.589  26.753  1.00  0.00    -0.744 OA
ENDBRANCH  88  91
ENDBRANCH  61  84
ENDBRANCH  35  36
ENDBRANCH  27  30
ENDBRANCH  25  26
ENDBRANCH   1  25
TORSDOF 16
ENDMDL
MODEL 2
REMARK VINA RESULT:     -11.8      5.194      8.358
REMARK SMILES CC(C)[NH2+][C@@H](C(=O)NCCCNC(=O)c1ccc(-c2c3nc(c(-c4cccc(S(=O)(=O)[O-])c4F)c4ccc([nH]4)c(-c4cccc(S(=O)(=O)[O-])c4F)c4nc(c(-c5cccc(S(=O)(=O)[O-])c5F)c5ccc2[nH]5)C=C4)C=C3)cc1)c1c[nH]c2ccc(Br)cc12
REMARK SMILES IDX 10 1 9 2 8 3 6 4 7 5 5 7 4 8 2 11 1 12 3 13 78 14 79 15
REMARK SMILES IDX 87 16 80 17 81 18 86 19 82 21 84 22 83 23 85 24 11 25 12 26
REMARK SMILES IDX 13 27 14 29 15 30 16 31 77 32 17 33 76 34 18 35 19 36 20 37
REMARK SMILES IDX 70 38 21 39 75 40 69 41 71 42 22 43 74 44 68 45 67 46 23 48
REMARK SMILES IDX 55 49 35 50 54 51 36 52 39 53 53 54 72 55 37 56 38 57 52 59
REMARK SMILES IDX 73 60 40 61 24 62 25 63 33 64 26 65 28 66 34 67 27 68 29 69
REMARK SMILES IDX 30 70 31 71 32 72 56 73 57 74 65 75 58 76 60 77 66 78 59 79
REMARK SMILES IDX 61 80 62 81 63 82 64 83 41 84 42 85 50 86 43 87 45 88 51 89
REMARK SMILES IDX 44 90 46 91 47 92 48 93 49 94
REMARK H PARENT 8 6 4 9 4 10 80 20 12 28 71 47 39 58
REMARK Flexibility Score: inf
ROOT
ATOM      1  C   UNL A   1      32.050  28.112  27.096  1.00  0.00     0.042 C 
ENDROOT
BRANCH   1   2
ATOM      2  C   UNL A   1      31.455  27.213  25.981  1.00  0.00     0.118 C 
BRANCH   2   3
ATOM      3  N   UNL A   1      30.744  26.016  26.426  1.00  0.00    -0.351 N 
ATOM      4  C   UNL A   1      31.028  24.674  26.503  1.00  0.00     0.283 C 
ATOM      5  O   UNL A   1      30.214  24.033  27.186  1.00  0.00    -0.268 OA
ATOM      6  H   UNL A   1      29.838  26.223  26.752  1.00  0.00     0.163 HD
BRANCH   4   7
ATOM      7  C   UNL A   1      32.301  24.004  25.930  1.00  0.00     0.306 C 
BRANCH   7   8
ATOM      8  N   UNL A   1      32.445  23.867  24.467  1.00  0.00    -0.330 N 
ATOM      9  H   UNL A   1      32.417  22.864  24.283  1.00  0.00     0.347 HD
ATOM     10  H   UNL A   1      31.703  24.491  24.149  1.00  0.00     0.347 HD
BRANCH   8  11
ATOM     11  C   UNL A   1      33.556  24.368  23.694  1.00  0.00     0.176 C 
ATOM     12  C   UNL A   1      34.526  25.129  24.604  1.00  0.00     0.075 C 
ATOM     13  C   UNL A   1      34.343  23.409  22.804  1.00  0.00     0.075 C 
ENDBRANCH   8  11
ENDBRANCH   7   8
BRANCH   7  14
ATOM     14  C   UNL A   1      32.719  22.623  26.505  1.00  0.00     0.044 A 
ATOM     15  C   UNL A   1      33.448  22.528  27.709  1.00  0.00     0.094 A 
ATOM     16  C   UNL A   1      33.247  21.452  25.843  1.00  0.00     0.010 A 
ATOM     17  N   UNL A   1      34.740  22.458  27.124  1.00  0.00    -0.361 N 
ATOM     18  C   UNL A   1      34.620  21.498  26.130  1.00  0.00     0.046 A 
ATOM     19  C   UNL A   1      32.780  20.376  25.064  1.00  0.00     0.026 A 
ATOM     20  H   UNL A   1      35.540  22.975  27.369  1.00  0.00     0.166 HD
ATOM     21  C   UNL A   1      35.581  20.724  25.481  1.00  0.00     0.028 A 
ATOM     22  C   UNL A   1      33.722  19.442  24.597  1.00  0.00     0.018 A 
ATOM     23  C   UNL A   1      35.097  19.651  24.736  1.00  0.00     0.018 A 
ATOM     24  Br  UNL A   1      33.125  17.810  23.837  1.00  0.00    -0.051 Br
ENDBRANCH   7  14
ENDBRANCH   4   7
ENDBRANCH   2   3
ENDBRANCH   1   2
BRANCH   1  25
ATOM     25  C   UNL A   1      33.491  28.591  26.924  1.00  0.00     0.118 C 
BRANCH  25  26
ATOM     26  N   UNL A   1      33.584  30.036  27.035  1.00  0.00    -0.352 N 
ATOM     27  C   UNL A   1      34.485  30.802  27.736  1.00  0.00     0.251 C 
ATOM     28  H   UNL A   1      32.902  30.540  26.536  1.00  0.00     0.163 HD
ATOM     29  O   UNL A   1      34.219  31.984  27.947  1.00  0.00    -0.269 OA
BRANCH  27  30
ATOM     30  C   UNL A   1      35.761  30.237  28.247  1.00  0.00     0.039 A 
ATOM     31  C   UNL A   1      36.873  30.211  27.395  1.00  0.00     0.014 A 
ATOM     32  C   UNL A   1      35.860  29.659  29.516  1.00  0.00     0.014 A 
ATOM     33  C   UNL A   1      38.084  29.657  27.829  1.00  0.00     0.010 A 
ATOM     34  C   UNL A   1      37.082  29.144  29.964  1.00  0.00     0.010 A 
ATOM     35  C   UNL A   1      38.211  29.139  29.128  1.00  0.00    -0.014 A 
BRANCH  35  36
ATOM     36  C   UNL A   1      39.525  28.652  29.640  1.00  0.00     0.031 A 
ATOM     37  C   UNL A   1      40.262  29.389  30.728  1.00  0.00     0.074 A 
ATOM     38  C   UNL A   1      40.103  27.582  29.055  1.00  0.00     0.049 A 
ATOM     39  N   UNL A   1      41.439  29.136  31.241  1.00  0.00    -0.248 NA
ATOM     40  C   UNL A   1      39.601  30.568  31.309  1.00  0.00     0.031 C 
ATOM     41  C   UNL A   1      39.529  26.814  27.948  1.00  0.00     0.029 A 
ATOM     42  N   UNL A   1      41.318  26.979  29.280  1.00  0.00    -0.354 N 
ATOM     43  C   UNL A   1      41.680  30.140  32.172  1.00  0.00     0.074 A 
ATOM     44  C   UNL A   1      40.524  31.012  32.153  1.00  0.00     0.031 C 
ATOM     45  C   UNL A   1      40.395  25.859  27.577  1.00  0.00     0.029 A 
ATOM     46  C   UNL A   1      41.602  25.965  28.392  1.00  0.00     0.049 A 
ATOM     47  H   UNL A   1      41.926  27.246  30.006  1.00  0.00     0.167 HD
ATOM     48  C   UNL A   1      42.756  30.312  32.978  1.00  0.00     0.034 A 
ATOM     49  C   UNL A   1      42.716  25.222  28.228  1.00  0.00     0.034 A 
ATOM     50  C   UNL A   1      43.886  29.422  33.030  1.00  0.00     0.049 A 
ATOM     51  C   UNL A   1      43.889  25.434  29.147  1.00  0.00     0.074 A 
ATOM     52  C   UNL A   1      44.962  29.452  33.903  1.00  0.00     0.029 A 
ATOM     53  N   UNL A   1      44.107  28.364  32.164  1.00  0.00    -0.354 N 
ATOM     54  N   UNL A   1      44.007  26.263  30.154  1.00  0.00    -0.248 NA
ATOM     55  C   UNL A   1      45.074  24.590  28.924  1.00  0.00     0.031 C 
ATOM     56  C   UNL A   1      45.852  28.438  33.538  1.00  0.00     0.029 A 
ATOM     57  C   UNL A   1      45.318  27.758  32.458  1.00  0.00     0.049 A 
ATOM     58  H   UNL A   1      43.494  28.085  31.446  1.00  0.00     0.167 HD
ATOM     59  C   UNL A   1      45.266  26.025  30.697  1.00  0.00     0.074 A 
ATOM     60  C   UNL A   1      45.858  24.950  29.931  1.00  0.00     0.031 C 
ATOM     61  C   UNL A   1      45.884  26.657  31.724  1.00  0.00     0.034 A 
BRANCH  48  62
ATOM     62  C   UNL A   1      42.771  31.490  33.917  1.00  0.00     0.023 A 
ATOM     63  C   UNL A   1      43.228  32.741  33.459  1.00  0.00     0.012 A 
ATOM     64  C   UNL A   1      42.204  31.389  35.205  1.00  0.00     0.148 A 
ATOM     65  C   UNL A   1      43.132  33.872  34.269  1.00  0.00     0.002 A 
ATOM     66  C   UNL A   1      42.076  32.527  35.992  1.00  0.00     0.091 A 
ATOM     67  F   UNL A   1      41.785  30.187  35.624  1.00  0.00    -0.205 F 
ATOM     68  C   UNL A   1      42.547  33.768  35.529  1.00  0.00     0.022 A 
BRANCH  66  69
ATOM     69  S   UNL A   1      41.264  32.519  37.594  1.00  0.00     0.127 S 
ATOM     70  O   UNL A   1      41.304  33.935  37.953  1.00  0.00    -0.237 OA
ATOM     71  O   UNL A   1      39.934  32.012  37.261  1.00  0.00    -0.237 OA
ATOM     72  O   UNL A   1      42.058  31.640  38.445  1.00  0.00    -0.744 OA
ENDBRANCH  66  69
ENDBRANCH  48  62
BRANCH  49  73
ATOM     73  C   UNL A   1      42.779  24.192  27.151  1.00  0.00     0.023 A 
ATOM     74  C   UNL A   1      43.453  24.480  25.948  1.00  0.00     0.012 A 
ATOM     75  C   UNL A   1      42.168  22.932  27.308  1.00  0.00     0.148 A 
ATOM     76  C   UNL A   1      43.479  23.550  24.908  1.00  0.00     0.002 A 
ATOM     77  C   UNL A   1      42.253  21.987  26.293  1.00  0.00     0.091 A 
ATOM     78  F   UNL A   1      41.512  22.680  28.450  1.00  0.00    -0.205 F 
ATOM     79  C   UNL A   1      42.889  22.301  25.082  1.00  0.00     0.022 A 
BRANCH  77  80
ATOM     80  S   UNL A   1      41.645  20.310  26.500  1.00  0.00     0.127 S 
ATOM     81  O   UNL A   1      42.228  19.935  27.785  1.00  0.00    -0.237 OA
ATOM     82  O   UNL A   1      40.194  20.510  26.516  1.00  0.00    -0.237 OA
ATOM     83  O   UNL A   1      42.129  19.576  25.339  1.00  0.00    -0.744 OA
ENDBRANCH  77  80
ENDBRANCH  49  73
BRANCH  61  84
ATOM     84  C   UNL A   1      47.271  26.201  32.098  1.00  0.00     0.023 A 
ATOM     85  C   UNL A   1      48.388  26.775  31.456  1.00  0.00     0.012 A 
ATOM     86  C   UNL A   1      47.473  25.268  33.133  1.00  0.00     0.148 A 
ATOM     87  C   UNL A   1      49.682  26.403  31.819  1.00  0.00     0.002 A 
ATOM     88  C   UNL A   1      48.767  24.939  33.523  1.00  0.00     0.091 A 
ATOM     89  F   UNL A   1      46.399  24.724  33.721  1.00  0.00    -0.205 F 
ATOM     90  C   UNL A   1      49.872  25.497  32.859  1.00  0.00     0.022 A 
BRANCH  88  91
ATOM     91  S   UNL A   1      49.114  23.851  34.909  1.00  0.00     0.127 S 
ATOM     92  O   UNL A   1      48.609  22.569  34.416  1.00  0.00    -0.237 OA
ATOM     93  O   UNL A   1      50.571  23.934  35.009  1.00  0.00    -0.237 OA
ATOM     94  O   UNL A   1      48.396  24.404  36.048  1.00  0.00    -0.744 OA
ENDBRANCH  88  91
ENDBRANCH  61  84
ENDBRANCH  35  36
ENDBRANCH  27  30
ENDBRANCH  25  26
ENDBRANCH   1  25
TORSDOF 16
ENDMDL
MODEL 3
REMARK VINA RESULT:     -11.6      5.246      8.261
REMARK SMILES CC(C)[NH2+][C@@H](C(=O)NCCCNC(=O)c1ccc(-c2c3nc(c(-c4cccc(S(=O)(=O)[O-])c4F)c4ccc([nH]4)c(-c4cccc(S(=O)(=O)[O-])c4F)c4nc(c(-c5cccc(S(=O)(=O)[O-])c5F)c5ccc2[nH]5)C=C4)C=C3)cc1)c1c[nH]c2ccc(Br)cc12
REMARK SMILES IDX 10 1 9 2 8 3 6 4 7 5 5 7 4 8 2 11 1 12 3 13 78 14 79 15
REMARK SMILES IDX 87 16 80 17 81 18 86 19 82 21 84 22 83 23 85 24 11 25 12 26
REMARK SMILES IDX 13 27 14 29 15 30 16 31 77 32 17 33 76 34 18 35 19 36 20 37
REMARK SMILES IDX 70 38 21 39 75 40 69 41 71 42 22 43 74 44 68 45 67 46 23 48
REMARK SMILES IDX 55 49 35 50 54 51 36 52 39 53 53 54 72 55 37 56 38 57 52 59
REMARK SMILES IDX 73 60 40 61 24 62 25 63 33 64 26 65 28 66 34 67 27 68 29 69
REMARK SMILES IDX 30 70 31 71 32 72 56 73 57 74 65 75 58 76 60 77 66 78 59 79
REMARK SMILES IDX 61 80 62 81 63 82 64 83 41 84 42 85 50 86 43 87 45 88 51 89
REMARK SMILES IDX 44 90 46 91 47 92 48 93 49 94
REMARK H PARENT 8 6 4 9 4 10 80 20 12 28 71 47 39 58
REMARK Flexibility Score: inf
ROOT
ATOM      1  C   UNL A   1      32.996  28.140  26.952  1.00  0.00     0.042 C 
ENDROOT
BRANCH   1   2
ATOM      2  C   UNL A   1      32.837  26.692  26.419  1.00  0.00     0.118 C 
BRANCH   2   3
ATOM      3  N   UNL A   1      31.551  26.048  26.672  1.00  0.00    -0.351 N 
ATOM      4  C   UNL A   1      30.788  25.092  26.046  1.00  0.00     0.283 C 
ATOM      5  O   UNL A   1      29.862  24.657  26.748  1.00  0.00    -0.268 OA
ATOM      6  H   UNL A   1      31.125  26.381  27.496  1.00  0.00     0.163 HD
BRANCH   4   7
ATOM      7  C   UNL A   1      31.097  24.484  24.656  1.00  0.00     0.306 C 
BRANCH   7   8
ATOM      8  N   UNL A   1      32.397  23.821  24.433  1.00  0.00    -0.330 N 
ATOM      9  H   UNL A   1      32.796  24.273  23.611  1.00  0.00     0.347 HD
ATOM     10  H   UNL A   1      32.816  23.922  25.358  1.00  0.00     0.347 HD
BRANCH   8  11
ATOM     11  C   UNL A   1      32.577  22.405  24.219  1.00  0.00     0.176 C 
ATOM     12  C   UNL A   1      31.899  21.615  25.342  1.00  0.00     0.075 C 
ATOM     13  C   UNL A   1      32.197  21.797  22.871  1.00  0.00     0.075 C 
ENDBRANCH   8  11
ENDBRANCH   7   8
BRANCH   7  14
ATOM     14  C   UNL A   1      30.886  25.382  23.405  1.00  0.00     0.044 A 
ATOM     15  C   UNL A   1      31.849  25.429  22.374  1.00  0.00     0.094 A 
ATOM     16  C   UNL A   1      30.388  26.733  23.292  1.00  0.00     0.010 A 
ATOM     17  N   UNL A   1      32.544  26.575  22.840  1.00  0.00    -0.361 N 
ATOM     18  C   UNL A   1      31.547  27.502  23.109  1.00  0.00     0.046 A 
ATOM     19  C   UNL A   1      29.153  27.410  23.312  1.00  0.00     0.026 A 
ATOM     20  H   UNL A   1      33.516  26.688  22.947  1.00  0.00     0.166 HD
ATOM     21  C   UNL A   1      31.591  28.891  23.220  1.00  0.00     0.028 A 
ATOM     22  C   UNL A   1      29.168  28.810  23.182  1.00  0.00     0.018 A 
ATOM     23  C   UNL A   1      30.358  29.541  23.212  1.00  0.00     0.018 A 
ATOM     24  Br  UNL A   1      27.544  29.738  22.867  1.00  0.00    -0.051 Br
ENDBRANCH   7  14
ENDBRANCH   4   7
ENDBRANCH   2   3
ENDBRANCH   1   2
BRANCH   1  25
ATOM     25  C   UNL A   1      33.906  29.086  26.169  1.00  0.00     0.118 C 
BRANCH  25  26
ATOM     26  N   UNL A   1      33.831  30.440  26.688  1.00  0.00    -0.352 N 
ATOM     27  C   UNL A   1      34.549  31.028  27.704  1.00  0.00     0.251 C 
ATOM     28  H   UNL A   1      33.170  31.023  26.250  1.00  0.00     0.163 HD
ATOM     29  O   UNL A   1      34.136  32.078  28.190  1.00  0.00    -0.269 OA
BRANCH  27  30
ATOM     30  C   UNL A   1      35.802  30.422  28.226  1.00  0.00     0.039 A 
ATOM     31  C   UNL A   1      36.975  30.549  27.471  1.00  0.00     0.014 A 
ATOM     32  C   UNL A   1      35.824  29.664  29.401  1.00  0.00     0.014 A 
ATOM     33  C   UNL A   1      38.169  29.964  27.914  1.00  0.00     0.010 A 
ATOM     34  C   UNL A   1      37.027  29.117  29.865  1.00  0.00     0.010 A 
ATOM     35  C   UNL A   1      38.214  29.262  29.130  1.00  0.00    -0.014 A 
BRANCH  35  36
ATOM     36  C   UNL A   1      39.502  28.734  29.668  1.00  0.00     0.031 A 
ATOM     37  C   UNL A   1      40.242  29.452  30.767  1.00  0.00     0.074 A 
ATOM     38  C   UNL A   1      40.057  27.645  29.098  1.00  0.00     0.049 A 
ATOM     39  N   UNL A   1      41.401  29.163  31.303  1.00  0.00    -0.248 NA
ATOM     40  C   UNL A   1      39.609  30.654  31.332  1.00  0.00     0.031 C 
ATOM     41  C   UNL A   1      39.479  26.891  27.982  1.00  0.00     0.029 A 
ATOM     42  N   UNL A   1      41.247  27.003  29.347  1.00  0.00    -0.354 N 
ATOM     43  C   UNL A   1      41.657  30.162  32.236  1.00  0.00     0.074 A 
ATOM     44  C   UNL A   1      40.530  31.071  32.192  1.00  0.00     0.031 C 
ATOM     45  C   UNL A   1      40.321  25.907  27.631  1.00  0.00     0.029 A 
ATOM     46  C   UNL A   1      41.515  25.978  28.468  1.00  0.00     0.049 A 
ATOM     47  H   UNL A   1      41.850  27.253  30.084  1.00  0.00     0.167 HD
ATOM     48  C   UNL A   1      42.722  30.302  33.061  1.00  0.00     0.034 A 
ATOM     49  C   UNL A   1      42.607  25.199  28.327  1.00  0.00     0.034 A 
ATOM     50  C   UNL A   1      43.822  29.376  33.138  1.00  0.00     0.049 A 
ATOM     51  C   UNL A   1      43.769  25.376  29.267  1.00  0.00     0.074 A 
ATOM     52  C   UNL A   1      44.881  29.375  34.031  1.00  0.00     0.029 A 
ATOM     53  N   UNL A   1      44.025  28.309  32.279  1.00  0.00    -0.354 N 
ATOM     54  N   UNL A   1      43.895  26.205  30.275  1.00  0.00    -0.248 NA
ATOM     55  C   UNL A   1      44.930  24.494  29.069  1.00  0.00     0.031 C 
ATOM     56  C   UNL A   1      45.745  28.332  33.686  1.00  0.00     0.029 A 
ATOM     57  C   UNL A   1      45.209  27.665  32.598  1.00  0.00     0.049 A 
ATOM     58  H   UNL A   1      43.417  28.046  31.550  1.00  0.00     0.167 HD
ATOM     59  C   UNL A   1      45.135  25.928  30.842  1.00  0.00     0.074 A 
ATOM     60  C   UNL A   1      45.706  24.831  30.090  1.00  0.00     0.031 C 
ATOM     61  C   UNL A   1      45.754  26.544  31.879  1.00  0.00     0.034 A 
BRANCH  48  62
ATOM     62  C   UNL A   1      42.757  31.482  33.997  1.00  0.00     0.023 A 
ATOM     63  C   UNL A   1      43.234  32.724  33.535  1.00  0.00     0.012 A 
ATOM     64  C   UNL A   1      42.189  31.394  35.285  1.00  0.00     0.148 A 
ATOM     65  C   UNL A   1      43.158  33.859  34.342  1.00  0.00     0.002 A 
ATOM     66  C   UNL A   1      42.081  32.537  36.069  1.00  0.00     0.091 A 
ATOM     67  F   UNL A   1      41.750  30.201  35.709  1.00  0.00    -0.205 F 
ATOM     68  C   UNL A   1      42.572  33.768  35.602  1.00  0.00     0.022 A 
BRANCH  66  69
ATOM     69  S   UNL A   1      41.269  32.548  37.671  1.00  0.00     0.127 S 
ATOM     70  O   UNL A   1      41.345  33.962  38.032  1.00  0.00    -0.237 OA
ATOM     71  O   UNL A   1      39.927  32.074  37.339  1.00  0.00    -0.237 OA
ATOM     72  O   UNL A   1      42.041  31.648  38.521  1.00  0.00    -0.744 OA
ENDBRANCH  66  69
ENDBRANCH  48  62
BRANCH  49  73
ATOM     73  C   UNL A   1      42.657  24.163  27.254  1.00  0.00     0.023 A 
ATOM     74  C   UNL A   1      43.300  24.452  26.035  1.00  0.00     0.012 A 
ATOM     75  C   UNL A   1      42.065  22.897  27.433  1.00  0.00     0.148 A 
ATOM     76  C   UNL A   1      43.313  23.516  25.000  1.00  0.00     0.002 A 
ATOM     77  C   UNL A   1      42.137  21.948  26.421  1.00  0.00     0.091 A 
ATOM     78  F   UNL A   1      41.438  22.644  28.592  1.00  0.00    -0.205 F 
ATOM     79  C   UNL A   1      42.741  22.262  25.195  1.00  0.00     0.022 A 
BRANCH  77  80
ATOM     80  S   UNL A   1      41.553  20.265  26.652  1.00  0.00     0.127 S 
ATOM     81  O   UNL A   1      42.300  19.846  27.834  1.00  0.00    -0.237 OA
ATOM     82  O   UNL A   1      40.119  20.465  26.867  1.00  0.00    -0.237 OA
ATOM     83  O   UNL A   1      41.875  19.570  25.412  1.00  0.00    -0.744 OA
ENDBRANCH  77  80
ENDBRANCH  49  73
BRANCH  61  84
ATOM     84  C   UNL A   1      47.117  26.045  32.280  1.00  0.00     0.023 A 
ATOM     85  C   UNL A   1      48.266  26.606  31.685  1.00  0.00     0.012 A 
ATOM     86  C   UNL A   1      47.267  25.081  33.297  1.00  0.00     0.148 A 
ATOM     87  C   UNL A   1      49.540  26.194  32.075  1.00  0.00     0.002 A 
ATOM     88  C   UNL A   1      48.541  24.712  33.715  1.00  0.00     0.091 A 
ATOM     89  F   UNL A   1      46.163  24.550  33.840  1.00  0.00    -0.205 F 
ATOM     90  C   UNL A   1      49.677  25.258  33.096  1.00  0.00     0.022 A 
BRANCH  88  91
ATOM     91  S   UNL A   1      48.822  23.581  35.082  1.00  0.00     0.127 S 
ATOM     92  O   UNL A   1      50.283  23.522  35.126  1.00  0.00    -0.237 OA
ATOM     93  O   UNL A   1      48.207  24.294  36.202  1.00  0.00    -0.237 OA
ATOM     94  O   UNL A   1      48.160  22.335  34.720  1.00  0.00    -0.744 OA
ENDBRANCH  88  91
ENDBRANCH  61  84
ENDBRANCH  35  36
ENDBRANCH  27  30
ENDBRANCH  25  26
ENDBRANCH   1  25
TORSDOF 16
ENDMDL
