MODEL 1
REMARK VINA RESULT:     -10.2      0.000      0.000
REMARK SMILES C[C@@H]([N@@H+](C)[C@@H]1COC[C@@H]1C(=O)NCCCNC(=O)c1ccc(-c2c3nc(c(-c4cccc(S(=O)(=O)[O-])c4F)c4ccc([nH]4)c(-c4cccc(S(=O)(=O)[O-])c4F)c4nc(c(-c5cccc(S(=O)(=O)[O-])c5F)c5ccc2[nH]5)C=C4)C=C3)cc1)C1(C)CC1
REMARK SMILES IDX 14 1 13 2 12 3 10 4 11 5 9 7 5 8 6 9 7 10 8 11 3 12 4 13
REMARK SMILES IDX 2 15 1 16 82 17 83 18 84 19 85 20 15 21 16 22 17 23 18 25
REMARK SMILES IDX 19 26 20 27 81 28 21 29 80 30 22 31 23 32 24 33 74 34 25 35
REMARK SMILES IDX 79 36 73 37 75 38 26 39 78 40 72 41 71 42 27 44 59 45 39 46
REMARK SMILES IDX 58 47 40 48 43 49 57 50 76 51 41 52 42 53 56 55 77 56 44 57
REMARK SMILES IDX 28 58 29 59 37 60 30 61 32 62 38 63 31 64 33 65 34 66 35 67
REMARK SMILES IDX 36 68 60 69 61 70 69 71 62 72 64 73 70 74 63 75 65 76 66 77
REMARK SMILES IDX 67 78 68 79 45 80 46 81 54 82 47 83 49 84 55 85 48 86 50 87
REMARK SMILES IDX 51 88 52 89 53 90
REMARK H PARENT 12 6 3 14 16 24 75 43 43 54
REMARK Flexibility Score: inf
ROOT
ATOM      1  C   UNL A   1      34.123  34.139  27.824  1.00  0.00     0.042 C 
ENDROOT
BRANCH   1   2
ATOM      2  C   UNL A   1      33.771  35.382  28.657  1.00  0.00     0.117 C 
BRANCH   2   3
ATOM      3  N   UNL A   1      32.921  35.146  29.820  1.00  0.00    -0.356 N 
ATOM      4  C   UNL A   1      33.088  35.361  31.161  1.00  0.00     0.231 C 
ATOM      5  O   UNL A   1      32.099  35.151  31.868  1.00  0.00    -0.274 OA
ATOM      6  H   UNL A   1      32.047  34.751  29.592  1.00  0.00     0.163 HD
BRANCH   4   7
ATOM      7  C   UNL A   1      34.412  35.857  31.733  1.00  0.00     0.164 C 
ATOM      8  C   UNL A   1      35.387  34.903  32.451  1.00  0.00     0.225 C 
ATOM      9  C   UNL A   1      35.159  35.114  33.956  1.00  0.00     0.226 C 
ATOM     10  O   UNL A   1      34.367  36.293  34.122  1.00  0.00    -0.374 OA
ATOM     11  C   UNL A   1      34.126  36.883  32.840  1.00  0.00     0.180 C 
BRANCH   8  12
ATOM     12  N   UNL A   1      35.702  33.492  32.078  1.00  0.00    -0.330 N 
ATOM     13  C   UNL A   1      34.952  32.604  32.967  1.00  0.00     0.333 C 
ATOM     14  H   UNL A   1      35.373  33.317  31.129  1.00  0.00     0.348 HD
BRANCH  12  15
ATOM     15  C   UNL A   1      37.138  33.177  31.831  1.00  0.00     0.186 C 
ATOM     16  C   UNL A   1      37.950  33.445  33.125  1.00  0.00     0.076 C 
BRANCH  15  17
ATOM     17  C   UNL A   1      37.958  33.777  30.646  1.00  0.00     0.019 C 
ATOM     18  C   UNL A   1      39.257  34.453  31.078  1.00  0.00     0.018 C 
ATOM     19  C   UNL A   1      38.066  33.107  29.286  1.00  0.00     0.013 C 
ATOM     20  C   UNL A   1      37.263  34.369  29.442  1.00  0.00     0.013 C 
ENDBRANCH  15  17
ENDBRANCH  12  15
ENDBRANCH   8  12
ENDBRANCH   4   7
ENDBRANCH   2   3
ENDBRANCH   1   2
BRANCH   1  21
ATOM     21  C   UNL A   1      34.425  32.844  28.586  1.00  0.00     0.118 C 
BRANCH  21  22
ATOM     22  N   UNL A   1      33.773  31.677  28.021  1.00  0.00    -0.352 N 
ATOM     23  C   UNL A   1      34.262  30.425  27.725  1.00  0.00     0.251 C 
ATOM     24  H   UNL A   1      32.819  31.802  27.814  1.00  0.00     0.163 HD
ATOM     25  O   UNL A   1      33.526  29.651  27.111  1.00  0.00    -0.269 OA
BRANCH  23  26
ATOM     26  C   UNL A   1      35.634  29.970  28.089  1.00  0.00     0.039 A 
ATOM     27  C   UNL A   1      35.822  29.416  29.363  1.00  0.00     0.014 A 
ATOM     28  C   UNL A   1      36.755  30.179  27.279  1.00  0.00     0.014 A 
ATOM     29  C   UNL A   1      37.101  29.045  29.805  1.00  0.00     0.010 A 
ATOM     30  C   UNL A   1      38.031  29.761  27.706  1.00  0.00     0.010 A 
ATOM     31  C   UNL A   1      38.224  29.195  28.976  1.00  0.00    -0.014 A 
BRANCH  31  32
ATOM     32  C   UNL A   1      39.578  28.753  29.440  1.00  0.00     0.031 A 
ATOM     33  C   UNL A   1      40.307  29.480  30.545  1.00  0.00     0.074 A 
ATOM     34  C   UNL A   1      40.184  27.700  28.849  1.00  0.00     0.049 A 
ATOM     35  N   UNL A   1      41.487  29.232  31.061  1.00  0.00    -0.248 NA
ATOM     36  C   UNL A   1      39.629  30.639  31.144  1.00  0.00     0.031 C 
ATOM     37  C   UNL A   1      39.628  26.918  27.747  1.00  0.00     0.029 A 
ATOM     38  N   UNL A   1      41.410  27.118  29.082  1.00  0.00    -0.354 N 
ATOM     39  C   UNL A   1      41.708  30.217  32.018  1.00  0.00     0.074 A 
ATOM     40  C   UNL A   1      40.543  31.079  31.999  1.00  0.00     0.031 C 
ATOM     41  C   UNL A   1      40.503  25.961  27.398  1.00  0.00     0.029 A 
ATOM     42  C   UNL A   1      41.702  26.081  28.224  1.00  0.00     0.049 A 
ATOM     43  H   UNL A   1      42.020  27.414  29.795  1.00  0.00     0.167 HD
ATOM     44  C   UNL A   1      42.767  30.385  32.848  1.00  0.00     0.034 A 
ATOM     45  C   UNL A   1      42.810  25.319  28.097  1.00  0.00     0.034 A 
ATOM     46  C   UNL A   1      43.917  29.517  32.899  1.00  0.00     0.049 A 
ATOM     47  C   UNL A   1      43.974  25.530  29.029  1.00  0.00     0.074 A 
ATOM     48  C   UNL A   1      44.995  29.572  33.767  1.00  0.00     0.029 A 
ATOM     49  N   UNL A   1      44.152  28.454  32.043  1.00  0.00    -0.354 N 
ATOM     50  N   UNL A   1      44.095  26.377  30.021  1.00  0.00    -0.248 NA
ATOM     51  C   UNL A   1      45.146  24.658  28.842  1.00  0.00     0.031 C 
ATOM     52  C   UNL A   1      45.900  28.567  33.410  1.00  0.00     0.029 A 
ATOM     53  C   UNL A   1      45.365  27.858  32.347  1.00  0.00     0.049 A 
ATOM     54  H   UNL A   1      43.545  28.164  31.324  1.00  0.00     0.167 HD
ATOM     55  C   UNL A   1      45.332  26.112  30.602  1.00  0.00     0.074 A 
ATOM     56  C   UNL A   1      45.917  25.016  29.859  1.00  0.00     0.031 C 
ATOM     57  C   UNL A   1      45.929  26.731  31.649  1.00  0.00     0.034 A 
BRANCH  44  58
ATOM     58  C   UNL A   1      42.734  31.547  33.812  1.00  0.00     0.023 A 
ATOM     59  C   UNL A   1      43.218  32.807  33.405  1.00  0.00     0.012 A 
ATOM     60  C   UNL A   1      42.146  31.412  35.086  1.00  0.00     0.148 A 
ATOM     61  C   UNL A   1      43.149  33.905  34.263  1.00  0.00     0.002 A 
ATOM     62  C   UNL A   1      42.039  32.520  35.917  1.00  0.00     0.091 A 
ATOM     63  F   UNL A   1      41.700  30.204  35.459  1.00  0.00    -0.205 F 
ATOM     64  C   UNL A   1      42.552  33.765  35.513  1.00  0.00     0.022 A 
BRANCH  62  65
ATOM     65  S   UNL A   1      41.211  32.464  37.511  1.00  0.00     0.127 S 
ATOM     66  O   UNL A   1      41.206  33.876  37.890  1.00  0.00    -0.237 OA
ATOM     67  O   UNL A   1      39.899  31.923  37.158  1.00  0.00    -0.237 OA
ATOM     68  O   UNL A   1      42.021  31.595  38.354  1.00  0.00    -0.744 OA
ENDBRANCH  62  65
ENDBRANCH  44  58
BRANCH  45  69
ATOM     69  C   UNL A   1      42.862  24.248  27.060  1.00  0.00     0.023 A 
ATOM     70  C   UNL A   1      43.574  24.471  25.864  1.00  0.00     0.012 A 
ATOM     71  C   UNL A   1      42.215  23.012  27.252  1.00  0.00     0.148 A 
ATOM     72  C   UNL A   1      43.613  23.495  24.867  1.00  0.00     0.002 A 
ATOM     73  C   UNL A   1      42.309  22.022  26.282  1.00  0.00     0.091 A 
ATOM     74  F   UNL A   1      41.529  22.825  28.389  1.00  0.00    -0.205 F 
ATOM     75  C   UNL A   1      42.990  22.269  25.080  1.00  0.00     0.022 A 
BRANCH  73  76
ATOM     76  S   UNL A   1      41.655  20.367  26.524  1.00  0.00     0.127 S 
ATOM     77  O   UNL A   1      42.303  19.967  27.768  1.00  0.00    -0.237 OA
ATOM     78  O   UNL A   1      40.219  20.624  26.627  1.00  0.00    -0.237 OA
ATOM     79  O   UNL A   1      42.045  19.612  25.337  1.00  0.00    -0.744 OA
ENDBRANCH  73  76
ENDBRANCH  45  69
BRANCH  57  80
ATOM     80  C   UNL A   1      47.272  26.219  32.108  1.00  0.00     0.023 A 
ATOM     81  C   UNL A   1      48.457  26.755  31.567  1.00  0.00     0.012 A 
ATOM     82  C   UNL A   1      47.358  25.265  33.141  1.00  0.00     0.148 A 
ATOM     83  C   UNL A   1      49.704  26.329  32.025  1.00  0.00     0.002 A 
ATOM     84  C   UNL A   1      48.602  24.882  33.629  1.00  0.00     0.091 A 
ATOM     85  F   UNL A   1      46.220  24.751  33.633  1.00  0.00    -0.205 F 
ATOM     86  C   UNL A   1      49.776  25.403  33.064  1.00  0.00     0.022 A 
BRANCH  84  87
ATOM     87  S   UNL A   1      48.794  23.769  35.027  1.00  0.00     0.127 S 
ATOM     88  O   UNL A   1      48.204  22.535  34.509  1.00  0.00    -0.237 OA
ATOM     89  O   UNL A   1      50.247  23.728  35.191  1.00  0.00    -0.237 OA
ATOM     90  O   UNL A   1      48.076  24.384  36.135  1.00  0.00    -0.744 OA
ENDBRANCH  84  87
ENDBRANCH  57  80
ENDBRANCH  31  32
ENDBRANCH  23  26
ENDBRANCH  21  22
ENDBRANCH   1  21
TORSDOF 16
ENDMDL
MODEL 2
REMARK VINA RESULT:     -10.1      5.624     10.956
REMARK SMILES C[C@@H]([N@@H+](C)[C@@H]1COC[C@@H]1C(=O)NCCCNC(=O)c1ccc(-c2c3nc(c(-c4cccc(S(=O)(=O)[O-])c4F)c4ccc([nH]4)c(-c4cccc(S(=O)(=O)[O-])c4F)c4nc(c(-c5cccc(S(=O)(=O)[O-])c5F)c5ccc2[nH]5)C=C4)C=C3)cc1)C1(C)CC1
REMARK SMILES IDX 14 1 13 2 12 3 10 4 11 5 9 7 5 8 6 9 7 10 8 11 3 12 4 13
REMARK SMILES IDX 2 15 1 16 82 17 83 18 84 19 85 20 15 21 16 22 17 23 18 25
REMARK SMILES IDX 19 26 20 27 81 28 21 29 80 30 22 31 23 32 24 33 74 34 25 35
REMARK SMILES IDX 79 36 73 37 75 38 26 39 78 40 72 41 71 42 27 44 59 45 39 46
REMARK SMILES IDX 58 47 40 48 43 49 57 50 76 51 41 52 42 53 56 55 77 56 44 57
REMARK SMILES IDX 28 58 29 59 37 60 30 61 32 62 38 63 31 64 33 65 34 66 35 67
REMARK SMILES IDX 36 68 60 69 61 70 69 71 62 72 64 73 70 74 63 75 65 76 66 77
REMARK SMILES IDX 67 78 68 79 45 80 46 81 54 82 47 83 49 84 55 85 48 86 50 87
REMARK SMILES IDX 51 88 52 89 53 90
REMARK H PARENT 12 6 3 14 16 24 75 43 43 54
REMARK Flexibility Score: inf
ROOT
ATOM      1  C   UNL A   1      35.131  21.799  26.247  1.00  0.00     0.042 C 
ENDROOT
BRANCH   1   2
ATOM      2  C   UNL A   1      34.336  22.997  26.791  1.00  0.00     0.117 C 
BRANCH   2   3
ATOM      3  N   UNL A   1      33.029  23.219  26.181  1.00  0.00    -0.356 N 
ATOM      4  C   UNL A   1      32.605  23.979  25.124  1.00  0.00     0.231 C 
ATOM      5  O   UNL A   1      31.424  23.839  24.798  1.00  0.00    -0.274 OA
ATOM      6  H   UNL A   1      32.302  22.718  26.619  1.00  0.00     0.163 HD
BRANCH   4   7
ATOM      7  C   UNL A   1      33.552  24.918  24.384  1.00  0.00     0.164 C 
ATOM      8  C   UNL A   1      33.026  26.118  23.574  1.00  0.00     0.225 C 
ATOM      9  C   UNL A   1      33.023  25.670  22.104  1.00  0.00     0.226 C 
ATOM     10  O   UNL A   1      33.767  24.454  22.011  1.00  0.00    -0.374 OA
ATOM     11  C   UNL A   1      34.297  24.125  23.300  1.00  0.00     0.180 C 
BRANCH   8  12
ATOM     12  N   UNL A   1      31.892  27.019  23.934  1.00  0.00    -0.330 N 
ATOM     13  C   UNL A   1      30.994  27.110  22.783  1.00  0.00     0.333 C 
ATOM     14  H   UNL A   1      31.362  26.599  24.698  1.00  0.00     0.348 HD
BRANCH  12  15
ATOM     15  C   UNL A   1      32.249  28.284  24.638  1.00  0.00     0.186 C 
ATOM     16  C   UNL A   1      33.410  28.980  23.882  1.00  0.00     0.076 C 
BRANCH  15  17
ATOM     17  C   UNL A   1      32.589  28.354  26.160  1.00  0.00     0.019 C 
ATOM     18  C   UNL A   1      34.085  28.295  26.459  1.00  0.00     0.018 C 
ATOM     19  C   UNL A   1      31.824  29.224  27.145  1.00  0.00     0.013 C 
ATOM     20  C   UNL A   1      31.676  27.728  27.190  1.00  0.00     0.013 C 
ENDBRANCH  15  17
ENDBRANCH  12  15
ENDBRANCH   8  12
ENDBRANCH   4   7
ENDBRANCH   2   3
ENDBRANCH   1   2
BRANCH   1  21
ATOM     21  C   UNL A   1      36.415  22.102  25.468  1.00  0.00     0.118 C 
BRANCH  21  22
ATOM     22  N   UNL A   1      37.434  21.079  25.615  1.00  0.00    -0.352 N 
ATOM     23  C   UNL A   1      38.758  21.170  25.981  1.00  0.00     0.251 C 
ATOM     24  H   UNL A   1      37.126  20.165  25.420  1.00  0.00     0.163 HD
ATOM     25  O   UNL A   1      39.451  20.156  25.888  1.00  0.00    -0.269 OA
BRANCH  23  26
ATOM     26  C   UNL A   1      39.394  22.430  26.460  1.00  0.00     0.039 A 
ATOM     27  C   UNL A   1      39.023  23.629  25.836  1.00  0.00     0.014 A 
ATOM     28  C   UNL A   1      40.423  22.461  27.407  1.00  0.00     0.014 A 
ATOM     29  C   UNL A   1      39.642  24.841  26.177  1.00  0.00     0.010 A 
ATOM     30  C   UNL A   1      41.010  23.685  27.783  1.00  0.00     0.010 A 
ATOM     31  C   UNL A   1      40.633  24.891  27.170  1.00  0.00    -0.014 A 
BRANCH  31  32
ATOM     32  C   UNL A   1      41.256  26.196  27.560  1.00  0.00     0.031 A 
ATOM     33  C   UNL A   1      42.684  26.526  27.195  1.00  0.00     0.074 A 
ATOM     34  C   UNL A   1      40.547  27.097  28.274  1.00  0.00     0.049 A 
ATOM     35  N   UNL A   1      43.377  27.607  27.461  1.00  0.00    -0.248 NA
ATOM     36  C   UNL A   1      43.434  25.510  26.443  1.00  0.00     0.031 C 
ATOM     37  C   UNL A   1      39.171  26.912  28.733  1.00  0.00     0.029 A 
ATOM     38  N   UNL A   1      40.891  28.340  28.755  1.00  0.00    -0.354 N 
ATOM     39  C   UNL A   1      44.649  27.392  26.941  1.00  0.00     0.074 A 
ATOM     40  C   UNL A   1      44.636  26.066  26.357  1.00  0.00     0.031 C 
ATOM     41  C   UNL A   1      38.787  27.996  29.427  1.00  0.00     0.029 A 
ATOM     42  C   UNL A   1      39.899  28.941  29.498  1.00  0.00     0.049 A 
ATOM     43  H   UNL A   1      41.765  28.760  28.585  1.00  0.00     0.167 HD
ATOM     44  C   UNL A   1      45.724  28.219  26.931  1.00  0.00     0.034 A 
ATOM     45  C   UNL A   1      39.881  30.109  30.174  1.00  0.00     0.034 A 
ATOM     46  C   UNL A   1      45.740  29.552  27.479  1.00  0.00     0.049 A 
ATOM     47  C   UNL A   1      41.090  31.007  30.151  1.00  0.00     0.074 A 
ATOM     48  C   UNL A   1      46.764  30.484  27.438  1.00  0.00     0.029 A 
ATOM     49  N   UNL A   1      44.701  30.137  28.182  1.00  0.00    -0.354 N 
ATOM     50  N   UNL A   1      42.230  30.841  29.527  1.00  0.00    -0.248 NA
ATOM     51  C   UNL A   1      41.000  32.271  30.902  1.00  0.00     0.031 C 
ATOM     52  C   UNL A   1      46.358  31.617  28.150  1.00  0.00     0.029 A 
ATOM     53  C   UNL A   1      45.065  31.408  28.598  1.00  0.00     0.049 A 
ATOM     54  H   UNL A   1      43.830  29.713  28.361  1.00  0.00     0.167 HD
ATOM     55  C   UNL A   1      42.973  31.992  29.774  1.00  0.00     0.074 A 
ATOM     56  C   UNL A   1      42.149  32.855  30.592  1.00  0.00     0.031 C 
ATOM     57  C   UNL A   1      44.229  32.296  29.365  1.00  0.00     0.034 A 
BRANCH  44  58
ATOM     58  C   UNL A   1      46.990  27.726  26.272  1.00  0.00     0.023 A 
ATOM     59  C   UNL A   1      47.913  26.962  27.016  1.00  0.00     0.012 A 
ATOM     60  C   UNL A   1      47.223  27.945  24.900  1.00  0.00     0.148 A 
ATOM     61  C   UNL A   1      49.064  26.454  26.412  1.00  0.00     0.002 A 
ATOM     62  C   UNL A   1      48.348  27.397  24.295  1.00  0.00     0.091 A 
ATOM     63  F   UNL A   1      46.340  28.682  24.211  1.00  0.00    -0.205 F 
ATOM     64  C   UNL A   1      49.276  26.663  25.052  1.00  0.00     0.022 A 
BRANCH  62  65
ATOM     65  S   UNL A   1      48.670  27.537  22.532  1.00  0.00     0.127 S 
ATOM     66  O   UNL A   1      48.709  26.131  22.129  1.00  0.00    -0.237 OA
ATOM     67  O   UNL A   1      47.496  28.272  22.062  1.00  0.00    -0.237 OA
ATOM     68  O   UNL A   1      49.930  28.257  22.408  1.00  0.00    -0.744 OA
ENDBRANCH  62  65
ENDBRANCH  44  58
BRANCH  45  69
ATOM     69  C   UNL A   1      38.652  30.523  30.912  1.00  0.00     0.023 A 
ATOM     70  C   UNL A   1      38.526  30.215  32.282  1.00  0.00     0.012 A 
ATOM     71  C   UNL A   1      37.613  31.222  30.268  1.00  0.00     0.148 A 
ATOM     72  C   UNL A   1      37.373  30.566  32.987  1.00  0.00     0.002 A 
ATOM     73  C   UNL A   1      36.495  31.623  30.990  1.00  0.00     0.091 A 
ATOM     74  F   UNL A   1      37.745  31.492  28.961  1.00  0.00    -0.205 F 
ATOM     75  C   UNL A   1      36.364  31.279  32.344  1.00  0.00     0.022 A 
BRANCH  73  76
ATOM     76  S   UNL A   1      35.209  32.657  30.283  1.00  0.00     0.127 S 
ATOM     77  O   UNL A   1      34.732  31.831  29.180  1.00  0.00    -0.237 OA
ATOM     78  O   UNL A   1      34.281  32.791  31.404  1.00  0.00    -0.237 OA
ATOM     79  O   UNL A   1      35.870  33.901  29.901  1.00  0.00    -0.744 OA
ENDBRANCH  73  76
ENDBRANCH  45  69
BRANCH  57  80
ATOM     80  C   UNL A   1      44.794  33.643  29.744  1.00  0.00     0.023 A 
ATOM     81  C   UNL A   1      45.550  33.786  30.924  1.00  0.00     0.012 A 
ATOM     82  C   UNL A   1      44.647  34.748  28.882  1.00  0.00     0.148 A 
ATOM     83  C   UNL A   1      46.125  35.014  31.254  1.00  0.00     0.002 A 
ATOM     84  C   UNL A   1      45.264  35.955  29.191  1.00  0.00     0.091 A 
ATOM     85  F   UNL A   1      43.909  34.599  27.772  1.00  0.00    -0.205 F 
ATOM     86  C   UNL A   1      45.993  36.094  30.382  1.00  0.00     0.022 A 
BRANCH  84  87
ATOM     87  S   UNL A   1      45.231  37.371  28.085  1.00  0.00     0.127 S 
ATOM     88  O   UNL A   1      45.964  38.372  28.860  1.00  0.00    -0.237 OA
ATOM     89  O   UNL A   1      45.946  36.864  26.914  1.00  0.00    -0.237 OA
ATOM     90  O   UNL A   1      43.825  37.671  27.855  1.00  0.00    -0.744 OA
ENDBRANCH  84  87
ENDBRANCH  57  80
ENDBRANCH  31  32
ENDBRANCH  23  26
ENDBRANCH  21  22
ENDBRANCH   1  21
TORSDOF 16
ENDMDL
MODEL 3
REMARK VINA RESULT:     -10.0      3.463      6.253
REMARK SMILES C[C@@H]([N@@H+](C)[C@@H]1COC[C@@H]1C(=O)NCCCNC(=O)c1ccc(-c2c3nc(c(-c4cccc(S(=O)(=O)[O-])c4F)c4ccc([nH]4)c(-c4cccc(S(=O)(=O)[O-])c4F)c4nc(c(-c5cccc(S(=O)(=O)[O-])c5F)c5ccc2[nH]5)C=C4)C=C3)cc1)C1(C)CC1
REMARK SMILES IDX 14 1 13 2 12 3 10 4 11 5 9 7 5 8 6 9 7 10 8 11 3 12 4 13
REMARK SMILES IDX 2 15 1 16 82 17 83 18 84 19 85 20 15 21 16 22 17 23 18 25
REMARK SMILES IDX 19 26 20 27 81 28 21 29 80 30 22 31 23 32 24 33 74 34 25 35
REMARK SMILES IDX 79 36 73 37 75 38 26 39 78 40 72 41 71 42 27 44 59 45 39 46
REMARK SMILES IDX 58 47 40 48 43 49 57 50 76 51 41 52 42 53 56 55 77 56 44 57
REMARK SMILES IDX 28 58 29 59 37 60 30 61 32 62 38 63 31 64 33 65 34 66 35 67
REMARK SMILES IDX 36 68 60 69 61 70 69 71 62 72 64 73 70 74 63 75 65 76 66 77
REMARK SMILES IDX 67 78 68 79 45 80 46 81 54 82 47 83 49 84 55 85 48 86 50 87
REMARK SMILES IDX 51 88 52 89 53 90
REMARK H PARENT 12 6 3 14 16 24 75 43 43 54
REMARK Flexibility Score: inf
ROOT
ATOM      1  C   UNL A   1      34.044  28.082  25.812  1.00  0.00     0.042 C 
ENDROOT
BRANCH   1   2
ATOM      2  C   UNL A   1      33.472  28.527  24.456  1.00  0.00     0.117 C 
BRANCH   2   3
ATOM      3  N   UNL A   1      33.735  27.632  23.334  1.00  0.00    -0.356 N 
ATOM      4  C   UNL A   1      33.356  26.347  23.052  1.00  0.00     0.231 C 
ATOM      5  O   UNL A   1      33.664  25.927  21.933  1.00  0.00    -0.274 OA
ATOM      6  H   UNL A   1      34.300  28.036  22.635  1.00  0.00     0.163 HD
BRANCH   4   7
ATOM      7  C   UNL A   1      32.576  25.505  24.055  1.00  0.00     0.164 C 
ATOM      8  C   UNL A   1      32.336  23.999  23.829  1.00  0.00     0.225 C 
ATOM      9  C   UNL A   1      30.908  23.874  23.276  1.00  0.00     0.226 C 
ATOM     10  O   UNL A   1      30.253  25.132  23.455  1.00  0.00    -0.374 OA
ATOM     11  C   UNL A   1      31.135  26.031  24.137  1.00  0.00     0.180 C 
BRANCH   8  12
ATOM     12  N   UNL A   1      33.297  23.012  23.254  1.00  0.00    -0.330 N 
ATOM     13  C   UNL A   1      32.555  22.110  22.372  1.00  0.00     0.333 C 
ATOM     14  H   UNL A   1      33.977  23.507  22.676  1.00  0.00     0.348 HD
BRANCH  12  15
ATOM     15  C   UNL A   1      34.274  22.408  24.204  1.00  0.00     0.186 C 
ATOM     16  C   UNL A   1      33.662  22.397  25.628  1.00  0.00     0.076 C 
BRANCH  15  17
ATOM     17  C   UNL A   1      35.750  22.895  24.345  1.00  0.00     0.019 C 
ATOM     18  C   UNL A   1      35.939  23.981  25.402  1.00  0.00     0.018 C 
ATOM     19  C   UNL A   1      36.948  21.966  24.231  1.00  0.00     0.013 C 
ATOM     20  C   UNL A   1      36.663  22.964  23.143  1.00  0.00     0.013 C 
ENDBRANCH  15  17
ENDBRANCH  12  15
ENDBRANCH   8  12
ENDBRANCH   4   7
ENDBRANCH   2   3
ENDBRANCH   1   2
BRANCH   1  21
ATOM     21  C   UNL A   1      33.281  28.506  27.072  1.00  0.00     0.118 C 
BRANCH  21  22
ATOM     22  N   UNL A   1      33.313  29.937  27.311  1.00  0.00    -0.352 N 
ATOM     23  C   UNL A   1      34.285  30.737  27.869  1.00  0.00     0.251 C 
ATOM     24  H   UNL A   1      32.503  30.418  27.025  1.00  0.00     0.163 HD
ATOM     25  O   UNL A   1      34.001  31.915  28.091  1.00  0.00    -0.269 OA
BRANCH  23  26
ATOM     26  C   UNL A   1      35.644  30.247  28.235  1.00  0.00     0.039 A 
ATOM     27  C   UNL A   1      35.818  29.695  29.511  1.00  0.00     0.014 A 
ATOM     28  C   UNL A   1      36.769  30.422  27.423  1.00  0.00     0.014 A 
ATOM     29  C   UNL A   1      37.087  29.291  29.955  1.00  0.00     0.010 A 
ATOM     30  C   UNL A   1      38.034  29.972  27.851  1.00  0.00     0.010 A 
ATOM     31  C   UNL A   1      38.213  29.407  29.124  1.00  0.00    -0.014 A 
BRANCH  31  32
ATOM     32  C   UNL A   1      39.555  28.931  29.589  1.00  0.00     0.031 A 
ATOM     33  C   UNL A   1      40.293  29.629  30.706  1.00  0.00     0.074 A 
ATOM     34  C   UNL A   1      40.142  27.873  28.989  1.00  0.00     0.049 A 
ATOM     35  N   UNL A   1      41.465  29.350  31.225  1.00  0.00    -0.248 NA
ATOM     36  C   UNL A   1      39.637  30.795  31.315  1.00  0.00     0.031 C 
ATOM     37  C   UNL A   1      39.575  27.115  27.874  1.00  0.00     0.029 A 
ATOM     38  N   UNL A   1      41.354  27.262  29.221  1.00  0.00    -0.354 N 
ATOM     39  C   UNL A   1      41.702  30.319  32.194  1.00  0.00     0.074 A 
ATOM     40  C   UNL A   1      40.556  31.205  32.180  1.00  0.00     0.031 C 
ATOM     41  C   UNL A   1      40.431  26.145  27.518  1.00  0.00     0.029 A 
ATOM     42  C   UNL A   1      41.629  26.229  28.351  1.00  0.00     0.049 A 
ATOM     43  H   UNL A   1      41.967  27.537  29.940  1.00  0.00     0.167 HD
ATOM     44  C   UNL A   1      42.761  30.454  33.032  1.00  0.00     0.034 A 
ATOM     45  C   UNL A   1      42.720  25.446  28.221  1.00  0.00     0.034 A 
ATOM     46  C   UNL A   1      43.891  29.561  33.078  1.00  0.00     0.049 A 
ATOM     47  C   UNL A   1      43.884  25.621  29.161  1.00  0.00     0.074 A 
ATOM     48  C   UNL A   1      44.966  29.583  33.951  1.00  0.00     0.029 A 
ATOM     49  N   UNL A   1      44.108  28.504  32.211  1.00  0.00    -0.354 N 
ATOM     50  N   UNL A   1      44.018  26.453  30.164  1.00  0.00    -0.248 NA
ATOM     51  C   UNL A   1      45.039  24.726  28.969  1.00  0.00     0.031 C 
ATOM     52  C   UNL A   1      45.851  28.564  33.587  1.00  0.00     0.029 A 
ATOM     53  C   UNL A   1      45.307  27.879  32.513  1.00  0.00     0.049 A 
ATOM     54  H   UNL A   1      43.499  28.235  31.485  1.00  0.00     0.167 HD
ATOM     55  C   UNL A   1      45.246  26.155  30.747  1.00  0.00     0.074 A 
ATOM     56  C   UNL A   1      45.812  25.056  29.994  1.00  0.00     0.031 C 
ATOM     57  C   UNL A   1      45.850  26.749  31.805  1.00  0.00     0.034 A 
BRANCH  44  58
ATOM     58  C   UNL A   1      42.747  31.605  34.009  1.00  0.00     0.023 A 
ATOM     59  C   UNL A   1      43.285  32.851  33.630  1.00  0.00     0.012 A 
ATOM     60  C   UNL A   1      42.125  31.476  35.268  1.00  0.00     0.148 A 
ATOM     61  C   UNL A   1      43.236  33.941  34.500  1.00  0.00     0.002 A 
ATOM     62  C   UNL A   1      42.039  32.578  36.110  1.00  0.00     0.091 A 
ATOM     63  F   UNL A   1      41.628  30.281  35.615  1.00  0.00    -0.205 F 
ATOM     64  C   UNL A   1      42.606  33.807  35.734  1.00  0.00     0.022 A 
BRANCH  62  65
ATOM     65  S   UNL A   1      41.173  32.533  37.684  1.00  0.00     0.127 S 
ATOM     66  O   UNL A   1      39.874  31.990  37.289  1.00  0.00    -0.237 OA
ATOM     67  O   UNL A   1      42.003  31.617  38.467  1.00  0.00    -0.237 OA
ATOM     68  O   UNL A   1      41.153  33.905  38.173  1.00  0.00    -0.744 OA
ENDBRANCH  62  65
ENDBRANCH  44  58
BRANCH  45  69
ATOM     69  C   UNL A   1      42.755  24.386  27.171  1.00  0.00     0.023 A 
ATOM     70  C   UNL A   1      43.417  24.636  25.952  1.00  0.00     0.012 A 
ATOM     71  C   UNL A   1      42.141  23.135  27.374  1.00  0.00     0.148 A 
ATOM     72  C   UNL A   1      43.438  23.671  24.943  1.00  0.00     0.002 A 
ATOM     73  C   UNL A   1      42.219  22.157  26.390  1.00  0.00     0.091 A 
ATOM     74  F   UNL A   1      41.502  22.923  28.534  1.00  0.00    -0.205 F 
ATOM     75  C   UNL A   1      42.849  22.429  25.166  1.00  0.00     0.022 A 
BRANCH  73  76
ATOM     76  S   UNL A   1      41.608  20.487  26.639  1.00  0.00     0.127 S 
ATOM     77  O   UNL A   1      40.164  20.696  26.663  1.00  0.00    -0.237 OA
ATOM     78  O   UNL A   1      42.114  19.801  25.451  1.00  0.00    -0.237 OA
ATOM     79  O   UNL A   1      42.202  20.033  27.892  1.00  0.00    -0.744 OA
ENDBRANCH  73  76
ENDBRANCH  45  69
BRANCH  57  80
ATOM     80  C   UNL A   1      47.180  26.203  32.264  1.00  0.00     0.023 A 
ATOM     81  C   UNL A   1      47.234  25.228  33.278  1.00  0.00     0.012 A 
ATOM     82  C   UNL A   1      48.373  26.599  31.625  1.00  0.00     0.148 A 
ATOM     83  C   UNL A   1      48.454  24.676  33.669  1.00  0.00     0.002 A 
ATOM     84  C   UNL A   1      49.580  26.009  31.985  1.00  0.00     0.091 A 
ATOM     85  F   UNL A   1      48.307  27.543  30.674  1.00  0.00    -0.205 F 
ATOM     86  C   UNL A   1      49.624  25.057  33.015  1.00  0.00     0.022 A 
BRANCH  84  87
ATOM     87  S   UNL A   1      51.123  26.364  31.135  1.00  0.00     0.127 S 
ATOM     88  O   UNL A   1      51.508  27.640  31.737  1.00  0.00    -0.237 OA
ATOM     89  O   UNL A   1      51.958  25.229  31.525  1.00  0.00    -0.237 OA
ATOM     90  O   UNL A   1      50.799  26.420  29.716  1.00  0.00    -0.744 OA
ENDBRANCH  84  87
ENDBRANCH  57  80
ENDBRANCH  31  32
ENDBRANCH  23  26
ENDBRANCH  21  22
ENDBRANCH   1  21
TORSDOF 16
ENDMDL
