MODEL 1
REMARK VINA RESULT:     -12.3      0.000      0.000
REMARK SMILES O=C(NCCCNC(=O)[C@H]1CCC[C@@H]1C[NH2+][C@@H]1CCOC2(CCC2)C1)c1ccc(-c2c3nc(c(-c4cccc(S(=O)(=O)[O-])c4F)c4ccc([nH]4)c(-c4cccc(S(=O)(=O)[O-])c4F)c4nc(c(-c5cccc(S(=O)(=O)[O-])c5F)c5ccc2[nH]5)C=C4)C=C3)cc1
REMARK SMILES IDX 5 1 4 2 3 3 1 4 2 5 26 7 27 8 88 9 28 10 87 11 29 12 30 13
REMARK SMILES IDX 31 14 81 15 32 16 86 17 80 18 82 19 33 20 85 21 79 22 78 23
REMARK SMILES IDX 34 25 66 26 46 27 65 28 47 29 50 30 64 31 83 32 48 33 49 34
REMARK SMILES IDX 63 36 84 37 51 38 35 39 36 40 44 41 37 42 39 43 45 44 38 45
REMARK SMILES IDX 40 46 41 47 42 48 43 49 67 50 68 51 76 52 69 53 71 54 77 55
REMARK SMILES IDX 70 56 72 57 73 58 74 59 75 60 52 61 53 62 61 63 54 64 56 65
REMARK SMILES IDX 62 66 55 67 57 68 58 69 59 70 60 71 6 72 7 73 8 74 9 76
REMARK SMILES IDX 10 77 11 78 14 79 12 80 13 81 15 82 16 83 17 86 18 87 25 88
REMARK SMILES IDX 19 89 21 90 20 91 22 92 24 93 23 94
REMARK H PARENT 3 6 82 24 50 35 7 75 16 84 16 85
REMARK Flexibility Score: inf
ROOT
ATOM      1  C   UNL A   1      36.357  22.740  23.908  1.00  0.00     0.042 C 
ENDROOT
BRANCH   1   2
ATOM      2  C   UNL A   1      36.378  22.200  25.333  1.00  0.00     0.118 C 
BRANCH   2   3
ATOM      3  N   UNL A   1      37.345  21.127  25.518  1.00  0.00    -0.352 N 
ATOM      4  O   UNL A   1      39.335  20.140  25.834  1.00  0.00    -0.269 OA
ATOM      5  C   UNL A   1      38.660  21.166  25.919  1.00  0.00     0.251 C 
ATOM      6  H   UNL A   1      37.000  20.226  25.325  1.00  0.00     0.163 HD
BRANCH   5   7
ATOM      7  C   UNL A   1      39.277  22.420  26.416  1.00  0.00     0.039 A 
ATOM      8  C   UNL A   1      38.799  23.670  26.026  1.00  0.00     0.014 A 
ATOM      9  C   UNL A   1      40.338  22.344  27.326  1.00  0.00     0.014 A 
ATOM     10  C   UNL A   1      39.485  24.825  26.395  1.00  0.00     0.010 A 
ATOM     11  C   UNL A   1      40.962  23.512  27.779  1.00  0.00     0.010 A 
ATOM     12  C   UNL A   1      40.572  24.765  27.281  1.00  0.00    -0.014 A 
BRANCH  12  13
ATOM     13  C   UNL A   1      41.242  26.026  27.701  1.00  0.00     0.031 A 
ATOM     14  C   UNL A   1      42.644  26.356  27.263  1.00  0.00     0.074 A 
ATOM     15  C   UNL A   1      40.561  26.899  28.472  1.00  0.00     0.049 A 
ATOM     16  N   UNL A   1      43.335  27.449  27.473  1.00  0.00    -0.248 NA
ATOM     17  C   UNL A   1      43.375  25.331  26.500  1.00  0.00     0.031 C 
ATOM     18  C   UNL A   1      39.216  26.675  29.009  1.00  0.00     0.029 A 
ATOM     19  N   UNL A   1      40.893  28.150  28.928  1.00  0.00    -0.354 N 
ATOM     20  C   UNL A   1      44.589  27.228  26.915  1.00  0.00     0.074 A 
ATOM     21  C   UNL A   1      44.569  25.891  26.360  1.00  0.00     0.031 C 
ATOM     22  C   UNL A   1      38.821  27.767  29.678  1.00  0.00     0.029 A 
ATOM     23  C   UNL A   1      39.898  28.750  29.662  1.00  0.00     0.049 A 
ATOM     24  H   UNL A   1      41.762  28.576  28.748  1.00  0.00     0.167 HD
ATOM     25  C   UNL A   1      45.654  28.065  26.853  1.00  0.00     0.034 A 
ATOM     26  C   UNL A   1      39.849  29.959  30.257  1.00  0.00     0.034 A 
ATOM     27  C   UNL A   1      45.656  29.413  27.360  1.00  0.00     0.049 A 
ATOM     28  C   UNL A   1      41.027  30.882  30.130  1.00  0.00     0.074 A 
ATOM     29  C   UNL A   1      46.656  30.365  27.267  1.00  0.00     0.029 A 
ATOM     30  N   UNL A   1      44.613  29.998  28.060  1.00  0.00    -0.354 N 
ATOM     31  N   UNL A   1      42.144  30.707  29.467  1.00  0.00    -0.248 NA
ATOM     32  C   UNL A   1      40.926  32.181  30.810  1.00  0.00     0.031 C 
ATOM     33  C   UNL A   1      46.225  31.520  27.928  1.00  0.00     0.029 A 
ATOM     34  C   UNL A   1      44.948  31.294  28.416  1.00  0.00     0.049 A 
ATOM     35  H   UNL A   1      43.758  29.558  28.274  1.00  0.00     0.167 HD
ATOM     36  C   UNL A   1      42.868  31.882  29.626  1.00  0.00     0.074 A 
ATOM     37  C   UNL A   1      42.050  32.772  30.425  1.00  0.00     0.031 C 
ATOM     38  C   UNL A   1      44.105  32.190  29.167  1.00  0.00     0.034 A 
BRANCH  25  39
ATOM     39  C   UNL A   1      46.904  27.564  26.175  1.00  0.00     0.023 A 
ATOM     40  C   UNL A   1      47.803  26.746  26.888  1.00  0.00     0.012 A 
ATOM     41  C   UNL A   1      47.153  27.842  24.815  1.00  0.00     0.148 A 
ATOM     42  C   UNL A   1      48.946  26.238  26.269  1.00  0.00     0.002 A 
ATOM     43  C   UNL A   1      48.273  27.300  24.195  1.00  0.00     0.091 A 
ATOM     44  F   UNL A   1      46.298  28.639  24.158  1.00  0.00    -0.205 F 
ATOM     45  C   UNL A   1      49.175  26.506  24.922  1.00  0.00     0.022 A 
BRANCH  43  46
ATOM     46  S   UNL A   1      48.608  27.524  22.444  1.00  0.00     0.127 S 
ATOM     47  O   UNL A   1      49.904  28.201  22.476  1.00  0.00    -0.237 OA
ATOM     48  O   UNL A   1      48.653  26.146  21.955  1.00  0.00    -0.237 OA
ATOM     49  O   UNL A   1      47.498  28.312  21.926  1.00  0.00    -0.744 OA
ENDBRANCH  43  46
ENDBRANCH  25  39
BRANCH  26  50
ATOM     50  C   UNL A   1      38.609  30.387  30.962  1.00  0.00     0.023 A 
ATOM     51  C   UNL A   1      38.460  30.101  32.333  1.00  0.00     0.012 A 
ATOM     52  C   UNL A   1      37.601  31.114  30.299  1.00  0.00     0.148 A 
ATOM     53  C   UNL A   1      37.322  30.512  33.026  1.00  0.00     0.002 A 
ATOM     54  C   UNL A   1      36.497  31.572  31.009  1.00  0.00     0.091 A 
ATOM     55  F   UNL A   1      37.752  31.361  28.990  1.00  0.00    -0.205 F 
ATOM     56  C   UNL A   1      36.348  31.259  32.368  1.00  0.00     0.022 A 
BRANCH  54  57
ATOM     57  S   UNL A   1      35.271  32.658  30.273  1.00  0.00     0.127 S 
ATOM     58  O   UNL A   1      36.084  33.803  29.876  1.00  0.00    -0.237 OA
ATOM     59  O   UNL A   1      34.769  31.843  29.164  1.00  0.00    -0.237 OA
ATOM     60  O   UNL A   1      34.290  32.904  31.322  1.00  0.00    -0.744 OA
ENDBRANCH  54  57
ENDBRANCH  26  50
BRANCH  38  61
ATOM     61  C   UNL A   1      44.646  33.557  29.493  1.00  0.00     0.023 A 
ATOM     62  C   UNL A   1      45.312  33.771  30.716  1.00  0.00     0.012 A 
ATOM     63  C   UNL A   1      44.543  34.613  28.568  1.00  0.00     0.148 A 
ATOM     64  C   UNL A   1      45.838  35.025  31.028  1.00  0.00     0.002 A 
ATOM     65  C   UNL A   1      45.109  35.848  28.865  1.00  0.00     0.091 A 
ATOM     66  F   UNL A   1      43.884  34.399  27.420  1.00  0.00    -0.205 F 
ATOM     67  C   UNL A   1      45.747  36.058  30.098  1.00  0.00     0.022 A 
BRANCH  65  68
ATOM     68  S   UNL A   1      45.117  37.203  27.686  1.00  0.00     0.127 S 
ATOM     69  O   UNL A   1      45.748  38.269  28.460  1.00  0.00    -0.237 OA
ATOM     70  O   UNL A   1      45.939  36.671  26.599  1.00  0.00    -0.237 OA
ATOM     71  O   UNL A   1      43.722  37.424  27.330  1.00  0.00    -0.744 OA
ENDBRANCH  65  68
ENDBRANCH  38  61
ENDBRANCH  12  13
ENDBRANCH   5   7
ENDBRANCH   2   3
ENDBRANCH   1   2
BRANCH   1  72
ATOM     72  C   UNL A   1      34.965  22.959  23.329  1.00  0.00     0.117 C 
BRANCH  72  73
ATOM     73  N   UNL A   1      34.514  24.331  23.488  1.00  0.00    -0.356 N 
ATOM     74  C   UNL A   1      33.739  24.902  24.454  1.00  0.00     0.223 C 
ATOM     75  H   UNL A   1      34.818  24.949  22.785  1.00  0.00     0.163 HD
ATOM     76  O   UNL A   1      33.533  26.114  24.376  1.00  0.00    -0.275 OA
BRANCH  74  77
ATOM     77  C   UNL A   1      33.155  24.040  25.572  1.00  0.00     0.087 C 
ATOM     78  C   UNL A   1      32.109  24.805  26.392  1.00  0.00     0.014 C 
ATOM     79  C   UNL A   1      32.362  22.849  25.009  1.00  0.00     0.056 C 
ATOM     80  C   UNL A   1      30.760  24.537  25.724  1.00  0.00     0.001 C 
ATOM     81  C   UNL A   1      31.006  23.472  24.659  1.00  0.00     0.010 C 
BRANCH  79  82
ATOM     82  C   UNL A   1      32.188  21.690  26.014  1.00  0.00     0.265 C 
BRANCH  82  83
ATOM     83  N   UNL A   1      32.187  20.416  25.299  1.00  0.00    -0.343 N 
ATOM     84  H   UNL A   1      31.294  20.327  24.813  1.00  0.00     0.346 HD
ATOM     85  H   UNL A   1      32.335  19.693  26.003  1.00  0.00     0.346 HD
BRANCH  83  86
ATOM     86  C   UNL A   1      33.265  20.261  24.312  1.00  0.00     0.187 C 
ATOM     87  C   UNL A   1      32.622  20.025  22.935  1.00  0.00     0.093 C 
ATOM     88  C   UNL A   1      34.250  19.113  24.599  1.00  0.00     0.100 C 
ATOM     89  C   UNL A   1      31.980  18.646  22.843  1.00  0.00     0.167 C 
ATOM     90  C   UNL A   1      33.565  17.749  24.488  1.00  0.00     0.074 C 
ATOM     91  O   UNL A   1      32.919  17.633  23.192  1.00  0.00    -0.375 OA
ATOM     92  C   UNL A   1      34.509  16.555  24.827  1.00  0.00     0.036 C 
ATOM     93  C   UNL A   1      32.724  17.295  25.721  1.00  0.00     0.036 C 
ATOM     94  C   UNL A   1      33.328  15.895  25.560  1.00  0.00     0.006 C 
ENDBRANCH  83  86
ENDBRANCH  82  83
ENDBRANCH  79  82
ENDBRANCH  74  77
ENDBRANCH  72  73
ENDBRANCH   1  72
TORSDOF 16
ENDMDL
MODEL 2
REMARK VINA RESULT:     -12.2      5.298     10.198
REMARK SMILES O=C(NCCCNC(=O)[C@H]1CCC[C@@H]1C[NH2+][C@@H]1CCOC2(CCC2)C1)c1ccc(-c2c3nc(c(-c4cccc(S(=O)(=O)[O-])c4F)c4ccc([nH]4)c(-c4cccc(S(=O)(=O)[O-])c4F)c4nc(c(-c5cccc(S(=O)(=O)[O-])c5F)c5ccc2[nH]5)C=C4)C=C3)cc1
REMARK SMILES IDX 5 1 4 2 3 3 1 4 2 5 26 7 27 8 88 9 28 10 87 11 29 12 30 13
REMARK SMILES IDX 31 14 81 15 32 16 86 17 80 18 82 19 33 20 85 21 79 22 78 23
REMARK SMILES IDX 34 25 66 26 46 27 65 28 47 29 50 30 64 31 83 32 48 33 49 34
REMARK SMILES IDX 63 36 84 37 51 38 35 39 36 40 44 41 37 42 39 43 45 44 38 45
REMARK SMILES IDX 40 46 41 47 42 48 43 49 67 50 68 51 76 52 69 53 71 54 77 55
REMARK SMILES IDX 70 56 72 57 73 58 74 59 75 60 52 61 53 62 61 63 54 64 56 65
REMARK SMILES IDX 62 66 55 67 57 68 58 69 59 70 60 71 6 72 7 73 8 74 9 76
REMARK SMILES IDX 10 77 11 78 14 79 12 80 13 81 15 82 16 83 17 86 18 87 25 88
REMARK SMILES IDX 19 89 21 90 20 91 22 92 24 93 23 94
REMARK H PARENT 3 6 82 24 50 35 7 75 16 84 16 85
REMARK Flexibility Score: inf
ROOT
ATOM      1  C   UNL A   1      31.807  28.532  26.842  1.00  0.00     0.042 C 
ENDROOT
BRANCH   1   2
ATOM      2  C   UNL A   1      32.608  29.469  25.946  1.00  0.00     0.118 C 
BRANCH   2   3
ATOM      3  N   UNL A   1      32.388  30.875  26.254  1.00  0.00    -0.352 N 
ATOM      4  O   UNL A   1      32.591  32.835  27.328  1.00  0.00    -0.269 OA
ATOM      5  C   UNL A   1      33.070  31.727  27.092  1.00  0.00     0.251 C 
ATOM      6  H   UNL A   1      31.624  31.282  25.787  1.00  0.00     0.163 HD
BRANCH   5   7
ATOM      7  C   UNL A   1      34.345  31.320  27.731  1.00  0.00     0.039 A 
ATOM      8  C   UNL A   1      34.601  29.990  28.063  1.00  0.00     0.014 A 
ATOM      9  C   UNL A   1      35.327  32.288  27.973  1.00  0.00     0.014 A 
ATOM     10  C   UNL A   1      35.743  29.659  28.789  1.00  0.00     0.010 A 
ATOM     11  C   UNL A   1      36.522  31.935  28.611  1.00  0.00     0.010 A 
ATOM     12  C   UNL A   1      36.722  30.624  29.069  1.00  0.00    -0.014 A 
BRANCH  12  13
ATOM     13  C   UNL A   1      37.958  30.220  29.794  1.00  0.00     0.031 A 
ATOM     14  C   UNL A   1      38.217  30.657  31.212  1.00  0.00     0.074 A 
ATOM     15  C   UNL A   1      38.850  29.425  29.167  1.00  0.00     0.049 A 
ATOM     16  N   UNL A   1      39.202  30.322  32.008  1.00  0.00    -0.248 NA
ATOM     17  C   UNL A   1      37.259  31.597  31.817  1.00  0.00     0.031 C 
ATOM     18  C   UNL A   1      38.744  28.976  27.776  1.00  0.00     0.029 A 
ATOM     19  N   UNL A   1      40.009  28.842  29.614  1.00  0.00    -0.354 N 
ATOM     20  C   UNL A   1      39.012  31.041  33.183  1.00  0.00     0.074 A 
ATOM     21  C   UNL A   1      37.818  31.838  32.995  1.00  0.00     0.031 C 
ATOM     22  C   UNL A   1      39.765  28.153  27.500  1.00  0.00     0.029 A 
ATOM     23  C   UNL A   1      40.626  28.052  28.673  1.00  0.00     0.049 A 
ATOM     24  H   UNL A   1      40.366  28.979  30.522  1.00  0.00     0.167 HD
ATOM     25  C   UNL A   1      39.750  31.027  34.320  1.00  0.00     0.034 A 
ATOM     26  C   UNL A   1      41.757  27.322  28.741  1.00  0.00     0.034 A 
ATOM     27  C   UNL A   1      40.908  30.195  34.523  1.00  0.00     0.049 A 
ATOM     28  C   UNL A   1      42.528  27.289  30.030  1.00  0.00     0.074 A 
ATOM     29  C   UNL A   1      41.669  30.047  35.670  1.00  0.00     0.029 A 
ATOM     30  N   UNL A   1      41.476  29.376  33.560  1.00  0.00    -0.354 N 
ATOM     31  N   UNL A   1      42.243  27.859  31.175  1.00  0.00    -0.248 NA
ATOM     32  C   UNL A   1      43.761  26.490  30.043  1.00  0.00     0.031 C 
ATOM     33  C   UNL A   1      42.710  29.153  35.393  1.00  0.00     0.029 A 
ATOM     34  C   UNL A   1      42.585  28.729  34.080  1.00  0.00     0.049 A 
ATOM     35  H   UNL A   1      41.142  29.270  32.640  1.00  0.00     0.167 HD
ATOM     36  C   UNL A   1      43.245  27.466  32.054  1.00  0.00     0.074 A 
ATOM     37  C   UNL A   1      44.128  26.587  31.314  1.00  0.00     0.031 C 
ATOM     38  C   UNL A   1      43.427  27.816  33.350  1.00  0.00     0.034 A 
BRANCH  25  39
ATOM     39  C   UNL A   1      39.308  31.911  35.457  1.00  0.00     0.023 A 
ATOM     40  C   UNL A   1      39.606  33.288  35.426  1.00  0.00     0.012 A 
ATOM     41  C   UNL A   1      38.537  31.396  36.520  1.00  0.00     0.148 A 
ATOM     42  C   UNL A   1      39.171  34.133  36.448  1.00  0.00     0.002 A 
ATOM     43  C   UNL A   1      38.074  32.251  37.514  1.00  0.00     0.091 A 
ATOM     44  F   UNL A   1      38.281  30.080  36.544  1.00  0.00    -0.205 F 
ATOM     45  C   UNL A   1      38.398  33.617  37.485  1.00  0.00     0.022 A 
BRANCH  43  46
ATOM     46  S   UNL A   1      37.006  31.691  38.845  1.00  0.00     0.127 S 
ATOM     47  O   UNL A   1      37.880  31.840  40.008  1.00  0.00    -0.237 OA
ATOM     48  O   UNL A   1      35.903  32.651  38.785  1.00  0.00    -0.237 OA
ATOM     49  O   UNL A   1      36.633  30.324  38.507  1.00  0.00    -0.744 OA
ENDBRANCH  43  46
ENDBRANCH  25  39
BRANCH  26  50
ATOM     50  C   UNL A   1      42.182  26.506  27.569  1.00  0.00     0.023 A 
ATOM     51  C   UNL A   1      43.000  27.089  26.582  1.00  0.00     0.012 A 
ATOM     52  C   UNL A   1      41.824  25.149  27.451  1.00  0.00     0.148 A 
ATOM     53  C   UNL A   1      43.435  26.343  25.487  1.00  0.00     0.002 A 
ATOM     54  C   UNL A   1      42.310  24.396  26.389  1.00  0.00     0.091 A 
ATOM     55  F   UNL A   1      41.030  24.617  28.391  1.00  0.00    -0.205 F 
ATOM     56  C   UNL A   1      43.102  24.994  25.398  1.00  0.00     0.022 A 
BRANCH  54  57
ATOM     57  S   UNL A   1      42.046  22.623  26.276  1.00  0.00     0.127 S 
ATOM     58  O   UNL A   1      42.719  22.142  27.479  1.00  0.00    -0.237 OA
ATOM     59  O   UNL A   1      40.585  22.530  26.307  1.00  0.00    -0.237 OA
ATOM     60  O   UNL A   1      42.641  22.221  25.008  1.00  0.00    -0.744 OA
ENDBRANCH  54  57
ENDBRANCH  26  50
BRANCH  38  61
ATOM     61  C   UNL A   1      44.614  27.227  34.067  1.00  0.00     0.023 A 
ATOM     62  C   UNL A   1      45.855  27.893  34.027  1.00  0.00     0.012 A 
ATOM     63  C   UNL A   1      44.486  26.047  34.825  1.00  0.00     0.148 A 
ATOM     64  C   UNL A   1      46.960  27.374  34.701  1.00  0.00     0.002 A 
ATOM     65  C   UNL A   1      45.580  25.561  35.532  1.00  0.00     0.091 A 
ATOM     66  F   UNL A   1      43.304  25.414  34.832  1.00  0.00    -0.205 F 
ATOM     67  C   UNL A   1      46.819  26.216  35.462  1.00  0.00     0.022 A 
BRANCH  65  68
ATOM     68  S   UNL A   1      45.460  24.128  36.609  1.00  0.00     0.127 S 
ATOM     69  O   UNL A   1      46.842  23.974  37.058  1.00  0.00    -0.237 OA
ATOM     70  O   UNL A   1      44.531  24.588  37.642  1.00  0.00    -0.237 OA
ATOM     71  O   UNL A   1      44.943  23.050  35.776  1.00  0.00    -0.744 OA
ENDBRANCH  65  68
ENDBRANCH  38  61
ENDBRANCH  12  13
ENDBRANCH   5   7
ENDBRANCH   2   3
ENDBRANCH   1   2
BRANCH   1  72
ATOM     72  C   UNL A   1      31.085  27.409  26.108  1.00  0.00     0.117 C 
BRANCH  72  73
ATOM     73  N   UNL A   1      30.663  27.807  24.776  1.00  0.00    -0.356 N 
ATOM     74  C   UNL A   1      30.877  27.217  23.566  1.00  0.00     0.223 C 
ATOM     75  H   UNL A   1      30.135  28.637  24.743  1.00  0.00     0.163 HD
ATOM     76  O   UNL A   1      30.368  27.746  22.576  1.00  0.00    -0.275 OA
BRANCH  74  77
ATOM     77  C   UNL A   1      31.730  25.952  23.473  1.00  0.00     0.087 C 
ATOM     78  C   UNL A   1      31.676  25.332  22.072  1.00  0.00     0.014 C 
ATOM     79  C   UNL A   1      33.224  26.266  23.665  1.00  0.00     0.056 C 
ATOM     80  C   UNL A   1      32.830  25.953  21.283  1.00  0.00     0.001 C 
ATOM     81  C   UNL A   1      33.651  26.764  22.281  1.00  0.00     0.010 C 
BRANCH  79  82
ATOM     82  C   UNL A   1      34.064  25.043  24.090  1.00  0.00     0.265 C 
BRANCH  82  83
ATOM     83  N   UNL A   1      33.572  24.528  25.366  1.00  0.00    -0.343 N 
ATOM     84  H   UNL A   1      32.888  25.191  25.732  1.00  0.00     0.346 HD
ATOM     85  H   UNL A   1      34.390  24.422  25.965  1.00  0.00     0.346 HD
BRANCH  83  86
ATOM     86  C   UNL A   1      32.936  23.205  25.294  1.00  0.00     0.187 C 
ATOM     87  C   UNL A   1      32.524  22.795  26.717  1.00  0.00     0.093 C 
ATOM     88  C   UNL A   1      33.815  22.091  24.695  1.00  0.00     0.100 C 
ATOM     89  C   UNL A   1      33.735  22.459  27.579  1.00  0.00     0.167 C 
ATOM     90  C   UNL A   1      35.013  21.783  25.596  1.00  0.00     0.074 C 
ATOM     91  O   UNL A   1      34.548  21.479  26.938  1.00  0.00    -0.375 OA
ATOM     92  C   UNL A   1      35.967  20.699  25.004  1.00  0.00     0.036 C 
ATOM     93  C   UNL A   1      36.227  22.756  25.491  1.00  0.00     0.036 C 
ATOM     94  C   UNL A   1      37.152  21.533  25.521  1.00  0.00     0.006 C 
ENDBRANCH  83  86
ENDBRANCH  82  83
ENDBRANCH  79  82
ENDBRANCH  74  77
ENDBRANCH  72  73
ENDBRANCH   1  72
TORSDOF 16
ENDMDL
MODEL 3
REMARK VINA RESULT:     -12.1      2.013      4.011
REMARK SMILES O=C(NCCCNC(=O)[C@H]1CCC[C@@H]1C[NH2+][C@@H]1CCOC2(CCC2)C1)c1ccc(-c2c3nc(c(-c4cccc(S(=O)(=O)[O-])c4F)c4ccc([nH]4)c(-c4cccc(S(=O)(=O)[O-])c4F)c4nc(c(-c5cccc(S(=O)(=O)[O-])c5F)c5ccc2[nH]5)C=C4)C=C3)cc1
REMARK SMILES IDX 5 1 4 2 3 3 1 4 2 5 26 7 27 8 88 9 28 10 87 11 29 12 30 13
REMARK SMILES IDX 31 14 81 15 32 16 86 17 80 18 82 19 33 20 85 21 79 22 78 23
REMARK SMILES IDX 34 25 66 26 46 27 65 28 47 29 50 30 64 31 83 32 48 33 49 34
REMARK SMILES IDX 63 36 84 37 51 38 35 39 36 40 44 41 37 42 39 43 45 44 38 45
REMARK SMILES IDX 40 46 41 47 42 48 43 49 67 50 68 51 76 52 69 53 71 54 77 55
REMARK SMILES IDX 70 56 72 57 73 58 74 59 75 60 52 61 53 62 61 63 54 64 56 65
REMARK SMILES IDX 62 66 55 67 57 68 58 69 59 70 60 71 6 72 7 73 8 74 9 76
REMARK SMILES IDX 10 77 11 78 14 79 12 80 13 81 15 82 16 83 17 86 18 87 25 88
REMARK SMILES IDX 19 89 21 90 20 91 22 92 24 93 23 94
REMARK H PARENT 3 6 82 24 50 35 7 75 16 84 16 85
REMARK Flexibility Score: inf
ROOT
ATOM      1  C   UNL A   1      36.314  22.597  23.797  1.00  0.00     0.042 C 
ENDROOT
BRANCH   1   2
ATOM      2  C   UNL A   1      36.383  22.097  25.235  1.00  0.00     0.118 C 
BRANCH   2   3
ATOM      3  N   UNL A   1      37.342  21.017  25.416  1.00  0.00    -0.352 N 
ATOM      4  O   UNL A   1      39.326  20.016  25.728  1.00  0.00    -0.269 OA
ATOM      5  C   UNL A   1      38.657  21.045  25.818  1.00  0.00     0.251 C 
ATOM      6  H   UNL A   1      36.992  20.119  25.216  1.00  0.00     0.163 HD
BRANCH   5   7
ATOM      7  C   UNL A   1      39.281  22.292  26.325  1.00  0.00     0.039 A 
ATOM      8  C   UNL A   1      38.859  23.547  25.889  1.00  0.00     0.014 A 
ATOM      9  C   UNL A   1      40.292  22.205  27.290  1.00  0.00     0.014 A 
ATOM     10  C   UNL A   1      39.556  24.690  26.272  1.00  0.00     0.010 A 
ATOM     11  C   UNL A   1      40.923  23.365  27.754  1.00  0.00     0.010 A 
ATOM     12  C   UNL A   1      40.594  24.618  27.214  1.00  0.00    -0.014 A 
BRANCH  12  13
ATOM     13  C   UNL A   1      41.274  25.869  27.647  1.00  0.00     0.031 A 
ATOM     14  C   UNL A   1      42.685  26.184  27.223  1.00  0.00     0.074 A 
ATOM     15  C   UNL A   1      40.597  26.747  28.415  1.00  0.00     0.049 A 
ATOM     16  N   UNL A   1      43.387  27.267  27.445  1.00  0.00    -0.248 NA
ATOM     17  C   UNL A   1      43.410  25.153  26.462  1.00  0.00     0.031 C 
ATOM     18  C   UNL A   1      39.244  26.537  28.939  1.00  0.00     0.029 A 
ATOM     19  N   UNL A   1      40.940  27.992  28.880  1.00  0.00    -0.354 N 
ATOM     20  C   UNL A   1      44.643  27.033  26.897  1.00  0.00     0.074 A 
ATOM     21  C   UNL A   1      44.612  25.699  26.336  1.00  0.00     0.031 C 
ATOM     22  C   UNL A   1      38.856  27.631  29.609  1.00  0.00     0.029 A 
ATOM     23  C   UNL A   1      39.945  28.601  29.607  1.00  0.00     0.049 A 
ATOM     24  H   UNL A   1      41.816  28.408  28.710  1.00  0.00     0.167 HD
ATOM     25  C   UNL A   1      45.719  27.857  26.849  1.00  0.00     0.034 A 
ATOM     26  C   UNL A   1      39.906  29.807  30.207  1.00  0.00     0.034 A 
ATOM     27  C   UNL A   1      45.732  29.203  27.362  1.00  0.00     0.049 A 
ATOM     28  C   UNL A   1      41.096  30.717  30.096  1.00  0.00     0.074 A 
ATOM     29  C   UNL A   1      46.745  30.143  27.282  1.00  0.00     0.029 A 
ATOM     30  N   UNL A   1      44.690  29.797  28.055  1.00  0.00    -0.354 N 
ATOM     31  N   UNL A   1      42.217  30.531  29.443  1.00  0.00    -0.248 NA
ATOM     32  C   UNL A   1      41.005  32.013  30.781  1.00  0.00     0.031 C 
ATOM     33  C   UNL A   1      46.322  31.300  27.945  1.00  0.00     0.029 A 
ATOM     34  C   UNL A   1      45.038  31.088  28.420  1.00  0.00     0.049 A 
ATOM     35  H   UNL A   1      43.828  29.367  28.259  1.00  0.00     0.167 HD
ATOM     36  C   UNL A   1      42.954  31.696  29.613  1.00  0.00     0.074 A 
ATOM     37  C   UNL A   1      42.139  32.592  30.409  1.00  0.00     0.031 C 
ATOM     38  C   UNL A   1      44.199  31.991  29.167  1.00  0.00     0.034 A 
BRANCH  25  39
ATOM     39  C   UNL A   1      46.969  27.344  26.180  1.00  0.00     0.023 A 
ATOM     40  C   UNL A   1      47.186  27.607  24.812  1.00  0.00     0.012 A 
ATOM     41  C   UNL A   1      47.960  26.667  26.918  1.00  0.00     0.148 A 
ATOM     42  C   UNL A   1      48.354  27.177  24.182  1.00  0.00     0.002 A 
ATOM     43  C   UNL A   1      49.139  26.276  26.293  1.00  0.00     0.091 A 
ATOM     44  F   UNL A   1      47.729  26.407  28.213  1.00  0.00    -0.205 F 
ATOM     45  C   UNL A   1      49.334  26.522  24.924  1.00  0.00     0.022 A 
BRANCH  43  46
ATOM     46  S   UNL A   1      50.491  25.498  27.184  1.00  0.00     0.127 S 
ATOM     47  O   UNL A   1      49.848  24.288  27.696  1.00  0.00    -0.237 OA
ATOM     48  O   UNL A   1      51.471  25.263  26.123  1.00  0.00    -0.237 OA
ATOM     49  O   UNL A   1      50.911  26.463  28.190  1.00  0.00    -0.744 OA
ENDBRANCH  43  46
ENDBRANCH  25  39
BRANCH  26  50
ATOM     50  C   UNL A   1      38.664  30.247  30.903  1.00  0.00     0.023 A 
ATOM     51  C   UNL A   1      38.517  29.993  32.280  1.00  0.00     0.012 A 
ATOM     52  C   UNL A   1      37.654  30.955  30.224  1.00  0.00     0.148 A 
ATOM     53  C   UNL A   1      37.378  30.416  32.965  1.00  0.00     0.002 A 
ATOM     54  C   UNL A   1      36.549  31.426  30.924  1.00  0.00     0.091 A 
ATOM     55  F   UNL A   1      37.803  31.172  28.909  1.00  0.00    -0.205 F 
ATOM     56  C   UNL A   1      36.401  31.143  32.290  1.00  0.00     0.022 A 
BRANCH  54  57
ATOM     57  S   UNL A   1      35.318  32.490  30.163  1.00  0.00     0.127 S 
ATOM     58  O   UNL A   1      34.857  31.666  29.050  1.00  0.00    -0.237 OA
ATOM     59  O   UNL A   1      34.350  32.659  31.248  1.00  0.00    -0.237 OA
ATOM     60  O   UNL A   1      36.028  33.710  29.803  1.00  0.00    -0.744 OA
ENDBRANCH  54  57
ENDBRANCH  26  50
BRANCH  38  61
ATOM     61  C   UNL A   1      44.753  33.350  29.505  1.00  0.00     0.023 A 
ATOM     62  C   UNL A   1      45.565  33.509  30.645  1.00  0.00     0.012 A 
ATOM     63  C   UNL A   1      44.517  34.454  28.664  1.00  0.00     0.148 A 
ATOM     64  C   UNL A   1      46.104  34.755  30.964  1.00  0.00     0.002 A 
ATOM     65  C   UNL A   1      45.095  35.683  28.962  1.00  0.00     0.091 A 
ATOM     66  F   UNL A   1      43.723  34.290  27.596  1.00  0.00    -0.205 F 
ATOM     67  C   UNL A   1      45.879  35.838  30.116  1.00  0.00     0.022 A 
BRANCH  65  68
ATOM     68  S   UNL A   1      44.932  37.104  27.874  1.00  0.00     0.127 S 
ATOM     69  O   UNL A   1      45.688  38.123  28.598  1.00  0.00    -0.237 OA
ATOM     70  O   UNL A   1      45.567  36.633  26.643  1.00  0.00    -0.237 OA
ATOM     71  O   UNL A   1      43.500  37.346  27.755  1.00  0.00    -0.744 OA
ENDBRANCH  65  68
ENDBRANCH  38  61
ENDBRANCH  12  13
ENDBRANCH   5   7
ENDBRANCH   2   3
ENDBRANCH   1   2
BRANCH   1  72
ATOM     72  C   UNL A   1      34.908  22.895  23.291  1.00  0.00     0.117 C 
BRANCH  72  73
ATOM     73  N   UNL A   1      33.948  21.892  23.718  1.00  0.00    -0.356 N 
ATOM     74  C   UNL A   1      32.741  22.027  24.338  1.00  0.00     0.223 C 
ATOM     75  H   UNL A   1      34.211  20.963  23.526  1.00  0.00     0.163 HD
ATOM     76  O   UNL A   1      32.095  21.002  24.558  1.00  0.00    -0.275 OA
BRANCH  74  77
ATOM     77  C   UNL A   1      32.243  23.414  24.743  1.00  0.00     0.087 C 
ATOM     78  C   UNL A   1      30.793  23.375  25.240  1.00  0.00     0.014 C 
ATOM     79  C   UNL A   1      33.019  23.960  25.953  1.00  0.00     0.056 C 
ATOM     80  C   UNL A   1      30.864  23.155  26.752  1.00  0.00     0.001 C 
ATOM     81  C   UNL A   1      32.335  23.271  27.139  1.00  0.00     0.010 C 
BRANCH  79  82
ATOM     82  C   UNL A   1      32.944  25.495  26.096  1.00  0.00     0.265 C 
BRANCH  82  83
ATOM     83  N   UNL A   1      32.514  26.086  24.831  1.00  0.00    -0.343 N 
ATOM     84  H   UNL A   1      31.514  26.274  24.893  1.00  0.00     0.346 HD
ATOM     85  H   UNL A   1      32.752  25.410  24.105  1.00  0.00     0.346 HD
BRANCH  83  86
ATOM     86  C   UNL A   1      33.196  27.338  24.471  1.00  0.00     0.187 C 
ATOM     87  C   UNL A   1      33.168  28.266  25.696  1.00  0.00     0.093 C 
ATOM     88  C   UNL A   1      32.589  28.087  23.270  1.00  0.00     0.100 C 
ATOM     89  C   UNL A   1      31.765  28.798  25.967  1.00  0.00     0.167 C 
ATOM     90  C   UNL A   1      31.186  28.609  23.590  1.00  0.00     0.074 C 
ATOM     91  O   UNL A   1      31.229  29.413  24.799  1.00  0.00    -0.375 OA
ATOM     92  C   UNL A   1      30.505  29.327  22.384  1.00  0.00     0.036 C 
ATOM     93  C   UNL A   1      30.024  27.573  23.492  1.00  0.00     0.036 C 
ATOM     94  C   UNL A   1      29.185  28.648  22.791  1.00  0.00     0.006 C 
ENDBRANCH  83  86
ENDBRANCH  82  83
ENDBRANCH  79  82
ENDBRANCH  74  77
ENDBRANCH  72  73
ENDBRANCH   1  72
TORSDOF 16
ENDMDL
