MODEL 1
REMARK VINA RESULT:     -11.2      0.000      0.000
REMARK SMILES CC(C)C[C@H](NS(=O)(=O)N1C[C@@H](C)C[C@H](C)C1)C(=O)NCCCNC(=O)c1ccc(-c2c3nc(c(-c4cccc(S(=O)(=O)[O-])c4F)c4ccc([nH]4)c(-c4cccc(S(=O)(=O)[O-])c4F)c4nc(c(-c5cccc(S(=O)(=O)[O-])c5F)c5ccc2[nH]5)C=C4)C=C3)cc1
REMARK SMILES IDX 22 1 21 2 20 3 18 4 19 5 5 7 4 8 2 9 1 10 3 11 6 12 7 14
REMARK SMILES IDX 8 15 9 16 10 17 11 18 17 19 12 20 15 21 13 22 14 23 16 24
REMARK SMILES IDX 23 25 24 26 25 27 26 29 27 30 28 31 89 32 29 33 88 34 30 35
REMARK SMILES IDX 31 36 32 37 82 38 33 39 87 40 81 41 83 42 34 43 86 44 80 45
REMARK SMILES IDX 79 46 35 48 67 49 47 50 66 51 48 52 51 53 65 54 84 55 49 56
REMARK SMILES IDX 50 57 64 59 85 60 52 61 36 62 37 63 45 64 38 65 40 66 46 67
REMARK SMILES IDX 39 68 41 69 42 70 43 71 44 72 68 73 69 74 77 75 70 76 72 77
REMARK SMILES IDX 78 78 71 79 73 80 74 81 75 82 76 83 53 84 54 85 62 86 55 87
REMARK SMILES IDX 57 88 63 89 56 90 58 91 59 92 60 93 61 94
REMARK H PARENT 20 6 6 13 24 28 83 47 51 58
REMARK Flexibility Score: inf
ROOT
ATOM      1  C   UNL A   1      33.125  27.959  27.193  1.00  0.00     0.042 C 
ENDROOT
BRANCH   1   2
ATOM      2  C   UNL A   1      31.622  27.901  26.978  1.00  0.00     0.117 C 
BRANCH   2   3
ATOM      3  N   UNL A   1      31.062  26.584  26.776  1.00  0.00    -0.355 N 
ATOM      4  C   UNL A   1      30.929  25.898  25.589  1.00  0.00     0.238 C 
ATOM      5  O   UNL A   1      30.620  24.705  25.654  1.00  0.00    -0.273 OA
ATOM      6  H   UNL A   1      30.739  26.122  27.582  1.00  0.00     0.163 HD
BRANCH   4   7
ATOM      7  C   UNL A   1      31.176  26.588  24.205  1.00  0.00     0.160 C 
BRANCH   7   8
ATOM      8  C   UNL A   1      29.882  26.965  23.495  1.00  0.00     0.033 C 
BRANCH   8   9
ATOM      9  C   UNL A   1      29.774  28.312  22.775  1.00  0.00    -0.015 C 
ATOM     10  C   UNL A   1      28.390  28.934  22.914  1.00  0.00     0.007 C 
ATOM     11  C   UNL A   1      30.830  29.241  23.398  1.00  0.00     0.007 C 
ENDBRANCH   8   9
ENDBRANCH   7   8
BRANCH   7  12
ATOM     12  N   UNL A   1      31.973  25.606  23.425  1.00  0.00    -0.190 NA
ATOM     13  H   UNL A   1      31.393  25.382  22.617  1.00  0.00     0.143 HD
BRANCH  12  14
ATOM     14  S   UNL A   1      33.488  25.811  22.814  1.00  0.00     0.280 S 
ATOM     15  O   UNL A   1      33.306  26.361  21.490  1.00  0.00    -0.195 OA
ATOM     16  O   UNL A   1      34.175  26.553  23.838  1.00  0.00    -0.195 OA
BRANCH  14  17
ATOM     17  N   UNL A   1      34.207  24.299  22.656  1.00  0.00    -0.188 NA
ATOM     18  C   UNL A   1      35.269  24.000  23.654  1.00  0.00     0.106 C 
ATOM     19  C   UNL A   1      33.492  23.054  22.303  1.00  0.00     0.106 C 
ATOM     20  C   UNL A   1      34.747  23.249  24.893  1.00  0.00     0.001 C 
ATOM     21  C   UNL A   1      32.800  22.399  23.485  1.00  0.00     0.001 C 
ATOM     22  C   UNL A   1      34.031  24.160  25.891  1.00  0.00     0.009 C 
ATOM     23  C   UNL A   1      33.865  22.043  24.526  1.00  0.00     0.009 C 
ATOM     24  C   UNL A   1      32.021  21.157  23.033  1.00  0.00     0.009 C 
ENDBRANCH  14  17
ENDBRANCH  12  14
ENDBRANCH   7  12
ENDBRANCH   4   7
ENDBRANCH   2   3
ENDBRANCH   1   2
BRANCH   1  25
ATOM     25  C   UNL A   1      33.800  28.943  26.257  1.00  0.00     0.118 C 
BRANCH  25  26
ATOM     26  N   UNL A   1      33.761  30.314  26.767  1.00  0.00    -0.352 N 
ATOM     27  C   UNL A   1      34.589  30.963  27.649  1.00  0.00     0.251 C 
ATOM     28  H   UNL A   1      33.019  30.862  26.421  1.00  0.00     0.163 HD
ATOM     29  O   UNL A   1      34.263  32.070  28.072  1.00  0.00    -0.269 OA
BRANCH  27  30
ATOM     30  C   UNL A   1      35.850  30.335  28.095  1.00  0.00     0.039 A 
ATOM     31  C   UNL A   1      36.990  30.446  27.295  1.00  0.00     0.014 A 
ATOM     32  C   UNL A   1      35.910  29.630  29.297  1.00  0.00     0.014 A 
ATOM     33  C   UNL A   1      38.199  29.905  27.737  1.00  0.00     0.010 A 
ATOM     34  C   UNL A   1      37.135  29.212  29.794  1.00  0.00     0.010 A 
ATOM     35  C   UNL A   1      38.290  29.315  29.008  1.00  0.00    -0.014 A 
BRANCH  35  36
ATOM     36  C   UNL A   1      39.565  28.764  29.531  1.00  0.00     0.031 A 
ATOM     37  C   UNL A   1      40.274  29.466  30.662  1.00  0.00     0.074 A 
ATOM     38  C   UNL A   1      40.131  27.700  28.930  1.00  0.00     0.049 A 
ATOM     39  N   UNL A   1      41.434  29.198  31.200  1.00  0.00    -0.248 NA
ATOM     40  C   UNL A   1      39.610  30.650  31.237  1.00  0.00     0.031 C 
ATOM     41  C   UNL A   1      39.588  26.991  27.769  1.00  0.00     0.029 A 
ATOM     42  N   UNL A   1      41.306  27.044  29.196  1.00  0.00    -0.354 N 
ATOM     43  C   UNL A   1      41.659  30.202  32.136  1.00  0.00     0.074 A 
ATOM     44  C   UNL A   1      40.539  31.112  32.059  1.00  0.00     0.031 C 
ATOM     45  C   UNL A   1      40.420  25.992  27.433  1.00  0.00     0.029 A 
ATOM     46  C   UNL A   1      41.571  26.010  28.328  1.00  0.00     0.049 A 
ATOM     47  H   UNL A   1      41.904  27.291  29.939  1.00  0.00     0.167 HD
ATOM     48  C   UNL A   1      42.684  30.337  33.007  1.00  0.00     0.034 A 
ATOM     49  C   UNL A   1      42.627  25.177  28.259  1.00  0.00     0.034 A 
ATOM     50  C   UNL A   1      43.764  29.396  33.119  1.00  0.00     0.049 A 
ATOM     51  C   UNL A   1      43.728  25.315  29.274  1.00  0.00     0.074 A 
ATOM     52  C   UNL A   1      44.801  29.381  34.034  1.00  0.00     0.029 A 
ATOM     53  N   UNL A   1      43.948  28.304  32.285  1.00  0.00    -0.354 N 
ATOM     54  N   UNL A   1      43.844  26.177  30.257  1.00  0.00    -0.248 NA
ATOM     55  C   UNL A   1      44.827  24.342  29.198  1.00  0.00     0.031 C 
ATOM     56  C   UNL A   1      45.629  28.295  33.735  1.00  0.00     0.029 A 
ATOM     57  C   UNL A   1      45.087  27.612  32.657  1.00  0.00     0.049 A 
ATOM     58  H   UNL A   1      43.355  28.057  31.538  1.00  0.00     0.167 HD
ATOM     59  C   UNL A   1      45.005  25.827  30.936  1.00  0.00     0.074 A 
ATOM     60  C   UNL A   1      45.545  24.663  30.266  1.00  0.00     0.031 C 
ATOM     61  C   UNL A   1      45.580  26.423  32.010  1.00  0.00     0.034 A 
BRANCH  48  62
ATOM     62  C   UNL A   1      42.657  31.516  33.946  1.00  0.00     0.023 A 
ATOM     63  C   UNL A   1      43.160  32.762  33.519  1.00  0.00     0.012 A 
ATOM     64  C   UNL A   1      42.092  31.404  35.231  1.00  0.00     0.148 A 
ATOM     65  C   UNL A   1      43.142  33.867  34.369  1.00  0.00     0.002 A 
ATOM     66  C   UNL A   1      42.031  32.523  36.055  1.00  0.00     0.091 A 
ATOM     67  F   UNL A   1      41.638  30.208  35.630  1.00  0.00    -0.205 F 
ATOM     68  C   UNL A   1      42.568  33.750  35.632  1.00  0.00     0.022 A 
BRANCH  66  69
ATOM     69  S   UNL A   1      41.238  32.500  37.666  1.00  0.00     0.127 S 
ATOM     70  O   UNL A   1      39.905  32.002  37.331  1.00  0.00    -0.237 OA
ATOM     71  O   UNL A   1      42.074  31.554  38.405  1.00  0.00    -0.237 OA
ATOM     72  O   UNL A   1      41.287  33.870  38.159  1.00  0.00    -0.744 OA
ENDBRANCH  66  69
ENDBRANCH  48  62
BRANCH  49  73
ATOM     73  C   UNL A   1      42.660  24.095  27.234  1.00  0.00     0.023 A 
ATOM     74  C   UNL A   1      43.343  24.313  26.021  1.00  0.00     0.012 A 
ATOM     75  C   UNL A   1      42.040  22.852  27.459  1.00  0.00     0.148 A 
ATOM     76  C   UNL A   1      43.377  23.326  25.036  1.00  0.00     0.002 A 
ATOM     77  C   UNL A   1      42.125  21.852  26.496  1.00  0.00     0.091 A 
ATOM     78  F   UNL A   1      41.390  22.666  28.616  1.00  0.00    -0.205 F 
ATOM     79  C   UNL A   1      42.776  22.093  25.276  1.00  0.00     0.022 A 
BRANCH  77  80
ATOM     80  S   UNL A   1      41.490  20.194  26.766  1.00  0.00     0.127 S 
ATOM     81  O   UNL A   1      40.106  20.463  27.149  1.00  0.00    -0.237 OA
ATOM     82  O   UNL A   1      41.658  19.589  25.444  1.00  0.00    -0.237 OA
ATOM     83  O   UNL A   1      42.331  19.614  27.804  1.00  0.00    -0.744 OA
ENDBRANCH  77  80
ENDBRANCH  49  73
BRANCH  61  84
ATOM     84  C   UNL A   1      46.836  25.805  32.563  1.00  0.00     0.023 A 
ATOM     85  C   UNL A   1      48.096  26.268  32.138  1.00  0.00     0.012 A 
ATOM     86  C   UNL A   1      46.762  24.818  33.566  1.00  0.00     0.148 A 
ATOM     87  C   UNL A   1      49.265  25.733  32.678  1.00  0.00     0.002 A 
ATOM     88  C   UNL A   1      47.930  24.329  34.137  1.00  0.00     0.091 A 
ATOM     89  F   UNL A   1      45.553  24.380  33.944  1.00  0.00    -0.205 F 
ATOM     90  C   UNL A   1      49.182  24.775  33.685  1.00  0.00     0.022 A 
BRANCH  88  91
ATOM     91  S   UNL A   1      47.917  23.170  35.510  1.00  0.00     0.127 S 
ATOM     92  O   UNL A   1      49.345  22.911  35.693  1.00  0.00    -0.237 OA
ATOM     93  O   UNL A   1      47.300  23.960  36.576  1.00  0.00    -0.237 OA
ATOM     94  O   UNL A   1      47.127  22.029  35.068  1.00  0.00    -0.744 OA
ENDBRANCH  88  91
ENDBRANCH  61  84
ENDBRANCH  35  36
ENDBRANCH  27  30
ENDBRANCH  25  26
ENDBRANCH   1  25
TORSDOF 18
ENDMDL
MODEL 2
REMARK VINA RESULT:     -11.0      2.489      3.763
REMARK SMILES CC(C)C[C@H](NS(=O)(=O)N1C[C@@H](C)C[C@H](C)C1)C(=O)NCCCNC(=O)c1ccc(-c2c3nc(c(-c4cccc(S(=O)(=O)[O-])c4F)c4ccc([nH]4)c(-c4cccc(S(=O)(=O)[O-])c4F)c4nc(c(-c5cccc(S(=O)(=O)[O-])c5F)c5ccc2[nH]5)C=C4)C=C3)cc1
REMARK SMILES IDX 22 1 21 2 20 3 18 4 19 5 5 7 4 8 2 9 1 10 3 11 6 12 7 14
REMARK SMILES IDX 8 15 9 16 10 17 11 18 17 19 12 20 15 21 13 22 14 23 16 24
REMARK SMILES IDX 23 25 24 26 25 27 26 29 27 30 28 31 89 32 29 33 88 34 30 35
REMARK SMILES IDX 31 36 32 37 82 38 33 39 87 40 81 41 83 42 34 43 86 44 80 45
REMARK SMILES IDX 79 46 35 48 67 49 47 50 66 51 48 52 51 53 65 54 84 55 49 56
REMARK SMILES IDX 50 57 64 59 85 60 52 61 36 62 37 63 45 64 38 65 40 66 46 67
REMARK SMILES IDX 39 68 41 69 42 70 43 71 44 72 68 73 69 74 77 75 70 76 72 77
REMARK SMILES IDX 78 78 71 79 73 80 74 81 75 82 76 83 53 84 54 85 62 86 55 87
REMARK SMILES IDX 57 88 63 89 56 90 58 91 59 92 60 93 61 94
REMARK H PARENT 20 6 6 13 24 28 83 47 51 58
REMARK Flexibility Score: inf
ROOT
ATOM      1  C   UNL A   1      31.347  31.876  26.472  1.00  0.00     0.042 C 
ENDROOT
BRANCH   1   2
ATOM      2  C   UNL A   1      31.433  30.451  25.952  1.00  0.00     0.117 C 
BRANCH   2   3
ATOM      3  N   UNL A   1      31.105  30.266  24.556  1.00  0.00    -0.355 N 
ATOM      4  C   UNL A   1      31.438  29.204  23.746  1.00  0.00     0.238 C 
ATOM      5  O   UNL A   1      30.885  29.135  22.644  1.00  0.00    -0.273 OA
ATOM      6  H   UNL A   1      30.579  30.984  24.137  1.00  0.00     0.163 HD
BRANCH   4   7
ATOM      7  C   UNL A   1      32.461  28.109  24.199  1.00  0.00     0.160 C 
BRANCH   7   8
ATOM      8  C   UNL A   1      33.676  28.695  24.909  1.00  0.00     0.033 C 
BRANCH   8   9
ATOM      9  C   UNL A   1      34.162  28.073  26.221  1.00  0.00    -0.015 C 
ATOM     10  C   UNL A   1      34.661  29.121  27.208  1.00  0.00     0.007 C 
ATOM     11  C   UNL A   1      32.972  27.309  26.826  1.00  0.00     0.007 C 
ENDBRANCH   8   9
ENDBRANCH   7   8
BRANCH   7  12
ATOM     12  N   UNL A   1      32.837  27.396  22.951  1.00  0.00    -0.190 NA
ATOM     13  H   UNL A   1      33.813  27.644  22.792  1.00  0.00     0.143 HD
BRANCH  12  14
ATOM     14  S   UNL A   1      32.760  25.777  22.664  1.00  0.00     0.280 S 
ATOM     15  O   UNL A   1      31.361  25.482  22.449  1.00  0.00    -0.195 OA
ATOM     16  O   UNL A   1      33.731  25.566  21.622  1.00  0.00    -0.195 OA
BRANCH  14  17
ATOM     17  N   UNL A   1      33.258  24.966  24.050  1.00  0.00    -0.188 NA
ATOM     18  C   UNL A   1      32.391  23.829  24.460  1.00  0.00     0.106 C 
ATOM     19  C   UNL A   1      34.664  24.671  24.399  1.00  0.00     0.106 C 
ATOM     20  C   UNL A   1      32.863  22.472  23.905  1.00  0.00     0.001 C 
ATOM     21  C   UNL A   1      35.213  23.438  23.702  1.00  0.00     0.001 C 
ATOM     22  C   UNL A   1      32.489  22.260  22.437  1.00  0.00     0.009 C 
ATOM     23  C   UNL A   1      34.367  22.233  24.124  1.00  0.00     0.009 C 
ATOM     24  C   UNL A   1      36.692  23.235  24.054  1.00  0.00     0.009 C 
ENDBRANCH  14  17
ENDBRANCH  12  14
ENDBRANCH   7  12
ENDBRANCH   4   7
ENDBRANCH   2   3
ENDBRANCH   1   2
BRANCH   1  25
ATOM     25  C   UNL A   1      32.672  32.365  27.026  1.00  0.00     0.118 C 
BRANCH  25  26
ATOM     26  N   UNL A   1      32.602  33.749  27.498  1.00  0.00    -0.352 N 
ATOM     27  C   UNL A   1      33.299  34.390  28.493  1.00  0.00     0.251 C 
ATOM     28  H   UNL A   1      31.949  34.313  27.024  1.00  0.00     0.163 HD
ATOM     29  O   UNL A   1      32.951  35.517  28.836  1.00  0.00    -0.269 OA
BRANCH  27  30
ATOM     30  C   UNL A   1      34.444  33.728  29.152  1.00  0.00     0.039 A 
ATOM     31  C   UNL A   1      34.206  32.693  30.061  1.00  0.00     0.014 A 
ATOM     32  C   UNL A   1      35.752  34.128  28.880  1.00  0.00     0.014 A 
ATOM     33  C   UNL A   1      35.284  32.024  30.643  1.00  0.00     0.010 A 
ATOM     34  C   UNL A   1      36.818  33.377  29.355  1.00  0.00     0.010 A 
ATOM     35  C   UNL A   1      36.600  32.337  30.267  1.00  0.00    -0.014 A 
BRANCH  35  36
ATOM     36  C   UNL A   1      37.771  31.622  30.832  1.00  0.00     0.031 A 
ATOM     37  C   UNL A   1      38.308  32.018  32.184  1.00  0.00     0.074 A 
ATOM     38  C   UNL A   1      38.409  30.693  30.094  1.00  0.00     0.049 A 
ATOM     39  N   UNL A   1      39.368  31.581  32.811  1.00  0.00    -0.248 NA
ATOM     40  C   UNL A   1      37.581  33.075  32.910  1.00  0.00     0.031 C 
ATOM     41  C   UNL A   1      38.039  30.288  28.735  1.00  0.00     0.029 A 
ATOM     42  N   UNL A   1      39.520  29.938  30.372  1.00  0.00    -0.354 N 
ATOM     43  C   UNL A   1      39.462  32.340  33.973  1.00  0.00     0.074 A 
ATOM     44  C   UNL A   1      38.380  33.297  33.942  1.00  0.00     0.031 C 
ATOM     45  C   UNL A   1      38.899  29.349  28.306  1.00  0.00     0.029 A 
ATOM     46  C   UNL A   1      39.899  29.112  29.340  1.00  0.00     0.049 A 
ATOM     47  H   UNL A   1      40.000  29.983  31.231  1.00  0.00     0.167 HD
ATOM     48  C   UNL A   1      40.343  32.227  34.993  1.00  0.00     0.034 A 
ATOM     49  C   UNL A   1      40.942  28.264  29.238  1.00  0.00     0.034 A 
ATOM     50  C   UNL A   1      41.379  31.233  35.043  1.00  0.00     0.049 A 
ATOM     51  C   UNL A   1      41.876  28.119  30.408  1.00  0.00     0.074 A 
ATOM     52  C   UNL A   1      42.263  30.964  36.073  1.00  0.00     0.029 A 
ATOM     53  N   UNL A   1      41.673  30.347  34.019  1.00  0.00    -0.354 N 
ATOM     54  N   UNL A   1      41.851  28.733  31.567  1.00  0.00    -0.248 NA
ATOM     55  C   UNL A   1      42.960  27.135  30.274  1.00  0.00     0.031 C 
ATOM     56  C   UNL A   1      43.111  29.933  35.658  1.00  0.00     0.029 A 
ATOM     57  C   UNL A   1      42.731  29.535  34.386  1.00  0.00     0.049 A 
ATOM     58  H   UNL A   1      41.198  30.302  33.157  1.00  0.00     0.167 HD
ATOM     59  C   UNL A   1      42.889  28.185  32.311  1.00  0.00     0.074 A 
ATOM     60  C   UNL A   1      43.510  27.174  31.480  1.00  0.00     0.031 C 
ATOM     61  C   UNL A   1      43.301  28.498  33.565  1.00  0.00     0.034 A 
BRANCH  48  62
ATOM     62  C   UNL A   1      40.189  33.166  36.161  1.00  0.00     0.023 A 
ATOM     63  C   UNL A   1      40.762  34.454  36.105  1.00  0.00     0.012 A 
ATOM     64  C   UNL A   1      39.438  32.796  37.293  1.00  0.00     0.148 A 
ATOM     65  C   UNL A   1      40.630  35.341  37.172  1.00  0.00     0.002 A 
ATOM     66  C   UNL A   1      39.267  33.704  38.333  1.00  0.00     0.091 A 
ATOM     67  F   UNL A   1      38.917  31.562  37.341  1.00  0.00    -0.205 F 
ATOM     68  C   UNL A   1      39.873  34.970  38.280  1.00  0.00     0.022 A 
BRANCH  66  69
ATOM     69  S   UNL A   1      38.243  33.357  39.766  1.00  0.00     0.127 S 
ATOM     70  O   UNL A   1      38.349  34.608  40.515  1.00  0.00    -0.237 OA
ATOM     71  O   UNL A   1      36.934  33.121  39.157  1.00  0.00    -0.237 OA
ATOM     72  O   UNL A   1      38.834  32.192  40.411  1.00  0.00    -0.744 OA
ENDBRANCH  66  69
ENDBRANCH  48  62
BRANCH  49  73
ATOM     73  C   UNL A   1      41.116  27.438  28.009  1.00  0.00     0.023 A 
ATOM     74  C   UNL A   1      41.645  28.032  26.847  1.00  0.00     0.012 A 
ATOM     75  C   UNL A   1      40.783  26.071  27.991  1.00  0.00     0.148 A 
ATOM     76  C   UNL A   1      41.805  27.289  25.677  1.00  0.00     0.002 A 
ATOM     77  C   UNL A   1      40.996  25.322  26.839  1.00  0.00     0.091 A 
ATOM     78  F   UNL A   1      40.274  25.526  29.105  1.00  0.00    -0.205 F 
ATOM     79  C   UNL A   1      41.489  25.933  25.675  1.00  0.00     0.022 A 
BRANCH  77  80
ATOM     80  S   UNL A   1      40.736  23.546  26.779  1.00  0.00     0.127 S 
ATOM     81  O   UNL A   1      39.308  23.463  26.481  1.00  0.00    -0.237 OA
ATOM     82  O   UNL A   1      41.618  23.151  25.680  1.00  0.00    -0.237 OA
ATOM     83  O   UNL A   1      41.139  23.044  28.085  1.00  0.00    -0.744 OA
ENDBRANCH  77  80
ENDBRANCH  49  73
BRANCH  61  84
ATOM     84  C   UNL A   1      44.449  27.712  34.140  1.00  0.00     0.023 A 
ATOM     85  C   UNL A   1      45.767  28.190  34.009  1.00  0.00     0.012 A 
ATOM     86  C   UNL A   1      44.207  26.537  34.880  1.00  0.00     0.148 A 
ATOM     87  C   UNL A   1      46.832  27.492  34.578  1.00  0.00     0.002 A 
ATOM     88  C   UNL A   1      45.267  25.878  35.489  1.00  0.00     0.091 A 
ATOM     89  F   UNL A   1      42.947  26.091  34.979  1.00  0.00    -0.205 F 
ATOM     90  C   UNL A   1      46.581  26.345  35.328  1.00  0.00     0.022 A 
BRANCH  88  91
ATOM     91  S   UNL A   1      45.028  24.454  36.558  1.00  0.00     0.127 S 
ATOM     92  O   UNL A   1      44.182  25.012  37.612  1.00  0.00    -0.237 OA
ATOM     93  O   UNL A   1      44.349  23.510  35.669  1.00  0.00    -0.237 OA
ATOM     94  O   UNL A   1      46.358  24.037  36.979  1.00  0.00    -0.744 OA
ENDBRANCH  88  91
ENDBRANCH  61  84
ENDBRANCH  35  36
ENDBRANCH  27  30
ENDBRANCH  25  26
ENDBRANCH   1  25
TORSDOF 18
ENDMDL
MODEL 3
REMARK VINA RESULT:     -11.0      2.031      2.635
REMARK SMILES CC(C)C[C@H](NS(=O)(=O)N1C[C@@H](C)C[C@H](C)C1)C(=O)NCCCNC(=O)c1ccc(-c2c3nc(c(-c4cccc(S(=O)(=O)[O-])c4F)c4ccc([nH]4)c(-c4cccc(S(=O)(=O)[O-])c4F)c4nc(c(-c5cccc(S(=O)(=O)[O-])c5F)c5ccc2[nH]5)C=C4)C=C3)cc1
REMARK SMILES IDX 22 1 21 2 20 3 18 4 19 5 5 7 4 8 2 9 1 10 3 11 6 12 7 14
REMARK SMILES IDX 8 15 9 16 10 17 11 18 17 19 12 20 15 21 13 22 14 23 16 24
REMARK SMILES IDX 23 25 24 26 25 27 26 29 27 30 28 31 89 32 29 33 88 34 30 35
REMARK SMILES IDX 31 36 32 37 82 38 33 39 87 40 81 41 83 42 34 43 86 44 80 45
REMARK SMILES IDX 79 46 35 48 67 49 47 50 66 51 48 52 51 53 65 54 84 55 49 56
REMARK SMILES IDX 50 57 64 59 85 60 52 61 36 62 37 63 45 64 38 65 40 66 46 67
REMARK SMILES IDX 39 68 41 69 42 70 43 71 44 72 68 73 69 74 77 75 70 76 72 77
REMARK SMILES IDX 78 78 71 79 73 80 74 81 75 82 76 83 53 84 54 85 62 86 55 87
REMARK SMILES IDX 57 88 63 89 56 90 58 91 59 92 60 93 61 94
REMARK H PARENT 20 6 6 13 24 28 83 47 51 58
REMARK Flexibility Score: inf
ROOT
ATOM      1  C   UNL A   1      31.874  29.076  26.928  1.00  0.00     0.042 C 
ENDROOT
BRANCH   1   2
ATOM      2  C   UNL A   1      32.113  27.575  26.921  1.00  0.00     0.117 C 
BRANCH   2   3
ATOM      3  N   UNL A   1      30.937  26.747  27.060  1.00  0.00    -0.355 N 
ATOM      4  C   UNL A   1      30.475  25.785  26.189  1.00  0.00     0.238 C 
ATOM      5  O   UNL A   1      29.572  25.044  26.588  1.00  0.00    -0.273 OA
ATOM      6  H   UNL A   1      30.403  26.886  27.875  1.00  0.00     0.163 HD
BRANCH   4   7
ATOM      7  C   UNL A   1      31.076  25.616  24.753  1.00  0.00     0.160 C 
BRANCH   7   8
ATOM      8  C   UNL A   1      30.572  26.671  23.775  1.00  0.00     0.033 C 
BRANCH   8   9
ATOM      9  C   UNL A   1      31.545  27.310  22.780  1.00  0.00    -0.015 C 
ATOM     10  C   UNL A   1      31.253  28.789  22.554  1.00  0.00     0.007 C 
ATOM     11  C   UNL A   1      32.959  27.137  23.357  1.00  0.00     0.007 C 
ENDBRANCH   8   9
ENDBRANCH   7   8
BRANCH   7  12
ATOM     12  N   UNL A   1      30.690  24.243  24.337  1.00  0.00    -0.190 NA
ATOM     13  H   UNL A   1      30.570  24.301  23.326  1.00  0.00     0.143 HD
BRANCH  12  14
ATOM     14  S   UNL A   1      31.535  22.851  24.584  1.00  0.00     0.280 S 
ATOM     15  O   UNL A   1      30.758  22.085  25.532  1.00  0.00    -0.195 OA
ATOM     16  O   UNL A   1      31.779  22.357  23.254  1.00  0.00    -0.195 OA
BRANCH  14  17
ATOM     17  N   UNL A   1      33.003  23.240  25.303  1.00  0.00    -0.188 NA
ATOM     18  C   UNL A   1      33.388  22.379  26.454  1.00  0.00     0.106 C 
ATOM     19  C   UNL A   1      34.217  23.667  24.574  1.00  0.00     0.106 C 
ATOM     20  C   UNL A   1      34.284  21.191  26.052  1.00  0.00     0.001 C 
ATOM     21  C   UNL A   1      35.013  22.510  23.998  1.00  0.00     0.001 C 
ATOM     22  C   UNL A   1      33.505  20.038  25.418  1.00  0.00     0.009 C 
ATOM     23  C   UNL A   1      35.460  21.613  25.155  1.00  0.00     0.009 C 
ATOM     24  C   UNL A   1      36.214  23.030  23.196  1.00  0.00     0.009 C 
ENDBRANCH  14  17
ENDBRANCH  12  14
ENDBRANCH   7  12
ENDBRANCH   4   7
ENDBRANCH   2   3
ENDBRANCH   1   2
BRANCH   1  25
ATOM     25  C   UNL A   1      33.061  29.847  26.385  1.00  0.00     0.118 C 
BRANCH  25  26
ATOM     26  N   UNL A   1      32.995  31.273  26.709  1.00  0.00    -0.352 N 
ATOM     27  C   UNL A   1      33.787  32.041  27.527  1.00  0.00     0.251 C 
ATOM     28  H   UNL A   1      32.263  31.762  26.268  1.00  0.00     0.163 HD
ATOM     29  O   UNL A   1      33.439  33.190  27.790  1.00  0.00    -0.269 OA
BRANCH  27  30
ATOM     30  C   UNL A   1      35.035  31.490  28.096  1.00  0.00     0.039 A 
ATOM     31  C   UNL A   1      36.118  32.343  28.323  1.00  0.00     0.014 A 
ATOM     32  C   UNL A   1      35.142  30.133  28.400  1.00  0.00     0.014 A 
ATOM     33  C   UNL A   1      37.280  31.841  28.913  1.00  0.00     0.010 A 
ATOM     34  C   UNL A   1      36.241  29.667  29.106  1.00  0.00     0.010 A 
ATOM     35  C   UNL A   1      37.337  30.506  29.343  1.00  0.00    -0.014 A 
BRANCH  35  36
ATOM     36  C   UNL A   1      38.537  29.945  30.012  1.00  0.00     0.031 A 
ATOM     37  C   UNL A   1      38.924  30.431  31.386  1.00  0.00     0.074 A 
ATOM     38  C   UNL A   1      39.329  29.078  29.350  1.00  0.00     0.049 A 
ATOM     39  N   UNL A   1      39.978  30.134  32.099  1.00  0.00    -0.248 NA
ATOM     40  C   UNL A   1      38.030  31.413  32.025  1.00  0.00     0.031 C 
ATOM     41  C   UNL A   1      39.109  28.603  27.981  1.00  0.00     0.029 A 
ATOM     42  N   UNL A   1      40.495  28.464  29.729  1.00  0.00    -0.354 N 
ATOM     43  C   UNL A   1      39.898  30.924  33.241  1.00  0.00     0.074 A 
ATOM     44  C   UNL A   1      38.720  31.749  33.104  1.00  0.00     0.031 C 
ATOM     45  C   UNL A   1      40.099  27.761  27.644  1.00  0.00     0.029 A 
ATOM     46  C   UNL A   1      41.041  27.664  28.753  1.00  0.00     0.049 A 
ATOM     47  H   UNL A   1      40.902  28.583  30.619  1.00  0.00     0.167 HD
ATOM     48  C   UNL A   1      40.709  30.937  34.323  1.00  0.00     0.034 A 
ATOM     49  C   UNL A   1      42.178  26.941  28.751  1.00  0.00     0.034 A 
ATOM     50  C   UNL A   1      41.845  30.072  34.478  1.00  0.00     0.049 A 
ATOM     51  C   UNL A   1      43.033  26.931  29.988  1.00  0.00     0.074 A 
ATOM     52  C   UNL A   1      42.675  29.930  35.575  1.00  0.00     0.029 A 
ATOM     53  N   UNL A   1      42.312  29.203  33.505  1.00  0.00    -0.354 N 
ATOM     54  N   UNL A   1      42.853  27.565  31.123  1.00  0.00    -0.248 NA
ATOM     55  C   UNL A   1      44.229  26.077  29.962  1.00  0.00     0.031 C 
ATOM     56  C   UNL A   1      43.663  28.995  35.254  1.00  0.00     0.029 A 
ATOM     57  C   UNL A   1      43.426  28.527  33.971  1.00  0.00     0.049 A 
ATOM     58  H   UNL A   1      41.911  29.083  32.614  1.00  0.00     0.167 HD
ATOM     59  C   UNL A   1      43.890  27.157  31.956  1.00  0.00     0.074 A 
ATOM     60  C   UNL A   1      44.680  26.207  31.202  1.00  0.00     0.031 C 
ATOM     61  C   UNL A   1      44.169  27.544  33.225  1.00  0.00     0.034 A 
BRANCH  48  62
ATOM     62  C   UNL A   1      40.363  31.879  35.448  1.00  0.00     0.023 A 
ATOM     63  C   UNL A   1      41.121  33.053  35.636  1.00  0.00     0.012 A 
ATOM     64  C   UNL A   1      39.260  31.629  36.288  1.00  0.00     0.148 A 
ATOM     65  C   UNL A   1      40.818  33.940  36.668  1.00  0.00     0.002 A 
ATOM     66  C   UNL A   1      38.932  32.543  37.283  1.00  0.00     0.091 A 
ATOM     67  F   UNL A   1      38.562  30.499  36.109  1.00  0.00    -0.205 F 
ATOM     68  C   UNL A   1      39.717  33.691  37.484  1.00  0.00     0.022 A 
BRANCH  66  69
ATOM     69  S   UNL A   1      37.486  32.359  38.332  1.00  0.00     0.127 S 
ATOM     70  O   UNL A   1      37.894  33.094  39.528  1.00  0.00    -0.237 OA
ATOM     71  O   UNL A   1      36.447  33.016  37.538  1.00  0.00    -0.237 OA
ATOM     72  O   UNL A   1      37.300  30.926  38.513  1.00  0.00    -0.744 OA
ENDBRANCH  66  69
ENDBRANCH  48  62
BRANCH  49  73
ATOM     73  C   UNL A   1      42.535  26.113  27.564  1.00  0.00     0.023 A 
ATOM     74  C   UNL A   1      43.305  26.682  26.531  1.00  0.00     0.012 A 
ATOM     75  C   UNL A   1      42.138  24.766  27.462  1.00  0.00     0.148 A 
ATOM     76  C   UNL A   1      43.641  25.937  25.400  1.00  0.00     0.002 A 
ATOM     77  C   UNL A   1      42.524  24.013  26.359  1.00  0.00     0.091 A 
ATOM     78  F   UNL A   1      41.400  24.245  28.453  1.00  0.00    -0.205 F 
ATOM     79  C   UNL A   1      43.258  24.601  25.318  1.00  0.00     0.022 A 
BRANCH  77  80
ATOM     80  S   UNL A   1      42.184  22.254  26.223  1.00  0.00     0.127 S 
ATOM     81  O   UNL A   1      42.775  21.740  27.457  1.00  0.00    -0.237 OA
ATOM     82  O   UNL A   1      40.721  22.234  26.186  1.00  0.00    -0.237 OA
ATOM     83  O   UNL A   1      42.824  21.823  24.989  1.00  0.00    -0.744 OA
ENDBRANCH  77  80
ENDBRANCH  49  73
BRANCH  61  84
ATOM     84  C   UNL A   1      45.353  26.909  33.904  1.00  0.00     0.023 A 
ATOM     85  C   UNL A   1      46.617  27.527  33.841  1.00  0.00     0.012 A 
ATOM     86  C   UNL A   1      45.191  25.739  34.671  1.00  0.00     0.148 A 
ATOM     87  C   UNL A   1      47.710  26.971  34.506  1.00  0.00     0.002 A 
ATOM     88  C   UNL A   1      46.271  25.221  35.373  1.00  0.00     0.091 A 
ATOM     89  F   UNL A   1      43.983  25.158  34.704  1.00  0.00    -0.205 F 
ATOM     90  C   UNL A   1      47.535  25.827  35.281  1.00  0.00     0.022 A 
BRANCH  88  91
ATOM     91  S   UNL A   1      46.116  23.813  36.478  1.00  0.00     0.127 S 
ATOM     92  O   UNL A   1      45.707  22.755  35.556  1.00  0.00    -0.237 OA
ATOM     93  O   UNL A   1      47.477  23.676  36.998  1.00  0.00    -0.237 OA
ATOM     94  O   UNL A   1      45.123  24.190  37.475  1.00  0.00    -0.744 OA
ENDBRANCH  88  91
ENDBRANCH  61  84
ENDBRANCH  35  36
ENDBRANCH  27  30
ENDBRANCH  25  26
ENDBRANCH   1  25
TORSDOF 18
ENDMDL
