MODEL 1
REMARK VINA RESULT:     -11.2      0.000      0.000
REMARK SMILES CC[C@](C)(NC(=O)CCSc1ccccc1Cl)C(=O)NCCCNC(=O)c1ccc(-c2c3nc(c(-c4cccc(S(=O)(=O)[O-])c4F)c4ccc([nH]4)c(-c4cccc(S(=O)(=O)[O-])c4F)c4nc(c(-c5cccc(S(=O)(=O)[O-])c5F)c5ccc2[nH]5)C=C4)C=C3)cc1
REMARK SMILES IDX 21 1 20 2 18 3 19 4 3 6 4 7 2 8 1 9 5 10 6 11 7 13 8 14 9 15
REMARK SMILES IDX 10 16 11 17 12 18 16 19 13 20 15 21 17 22 14 23 22 24 23 25
REMARK SMILES IDX 24 26 25 27 26 29 27 30 28 31 89 32 29 33 88 34 30 35 31 36
REMARK SMILES IDX 32 37 82 38 33 39 87 40 81 41 83 42 34 43 86 44 80 45 79 46
REMARK SMILES IDX 35 48 67 49 47 50 66 51 48 52 51 53 65 54 84 55 49 56 50 57
REMARK SMILES IDX 64 59 85 60 52 61 36 62 37 63 45 64 38 65 40 66 46 67 39 68
REMARK SMILES IDX 41 69 42 70 43 71 44 72 68 73 69 74 77 75 70 76 72 77 78 78
REMARK SMILES IDX 71 79 73 80 74 81 75 82 76 83 53 84 54 85 62 86 55 87 57 88
REMARK SMILES IDX 63 89 56 90 58 91 59 92 60 93 61 94
REMARK H PARENT 20 5 5 12 24 28 83 47 51 58
REMARK Flexibility Score: inf
ROOT
ATOM      1  C   UNL A   1      31.896  30.185  26.085  1.00  0.00     0.117 C 
ENDROOT
BRANCH   1   2
ATOM      2  N   UNL A   1      31.521  30.045  24.685  1.00  0.00    -0.354 N 
ATOM      3  C   UNL A   1      31.578  28.996  23.817  1.00  0.00     0.245 C 
ATOM      4  O   UNL A   1      31.149  29.204  22.677  1.00  0.00    -0.272 OA
ATOM      5  H   UNL A   1      31.155  30.868  24.288  1.00  0.00     0.163 HD
BRANCH   3   6
ATOM      6  C   UNL A   1      32.053  27.584  24.253  1.00  0.00     0.116 C 
ATOM      7  C   UNL A   1      33.478  27.628  24.816  1.00  0.00     0.045 C 
BRANCH   6   8
ATOM      8  C   UNL A   1      32.102  26.642  23.006  1.00  0.00     0.035 C 
ATOM      9  C   UNL A   1      33.496  26.246  22.536  1.00  0.00     0.007 C 
ENDBRANCH   6   8
BRANCH   6  10
ATOM     10  N   UNL A   1      31.092  26.996  25.209  1.00  0.00    -0.342 N 
ATOM     11  C   UNL A   1      30.943  25.797  25.817  1.00  0.00     0.221 C 
ATOM     12  H   UNL A   1      30.388  27.634  25.467  1.00  0.00     0.164 HD
ATOM     13  O   UNL A   1      30.050  25.765  26.669  1.00  0.00    -0.275 OA
BRANCH  11  14
ATOM     14  C   UNL A   1      31.857  24.604  25.642  1.00  0.00     0.111 C 
BRANCH  14  15
ATOM     15  C   UNL A   1      31.279  23.196  25.719  1.00  0.00     0.085 C 
BRANCH  15  16
ATOM     16  S   UNL A   1      32.295  21.767  25.178  1.00  0.00    -0.124 SA
BRANCH  16  17
ATOM     17  C   UNL A   1      33.925  22.485  25.001  1.00  0.00     0.026 A 
ATOM     18  C   UNL A   1      34.404  22.791  23.718  1.00  0.00     0.016 A 
ATOM     19  C   UNL A   1      34.740  22.782  26.107  1.00  0.00     0.054 A 
ATOM     20  C   UNL A   1      35.698  23.293  23.537  1.00  0.00     0.001 A 
ATOM     21  C   UNL A   1      36.048  23.242  25.918  1.00  0.00     0.022 A 
ATOM     22  Cl  UNL A   1      34.188  22.606  27.738  1.00  0.00    -0.083 Cl
ATOM     23  C   UNL A   1      36.531  23.486  24.635  1.00  0.00     0.002 A 
ENDBRANCH  16  17
ENDBRANCH  15  16
ENDBRANCH  14  15
ENDBRANCH  11  14
ENDBRANCH   6  10
ENDBRANCH   3   6
ENDBRANCH   1   2
BRANCH   1  24
ATOM     24  C   UNL A   1      31.653  31.583  26.641  1.00  0.00     0.042 C 
BRANCH  24  25
ATOM     25  C   UNL A   1      32.913  32.323  27.063  1.00  0.00     0.118 C 
BRANCH  25  26
ATOM     26  N   UNL A   1      32.646  33.708  27.423  1.00  0.00    -0.352 N 
ATOM     27  C   UNL A   1      33.147  34.454  28.462  1.00  0.00     0.251 C 
ATOM     28  H   UNL A   1      32.013  34.181  26.836  1.00  0.00     0.163 HD
ATOM     29  O   UNL A   1      32.625  35.527  28.746  1.00  0.00    -0.269 OA
BRANCH  27  30
ATOM     30  C   UNL A   1      34.300  33.955  29.242  1.00  0.00     0.039 A 
ATOM     31  C   UNL A   1      34.076  33.039  30.273  1.00  0.00     0.014 A 
ATOM     32  C   UNL A   1      35.594  34.400  28.965  1.00  0.00     0.014 A 
ATOM     33  C   UNL A   1      35.161  32.523  30.985  1.00  0.00     0.010 A 
ATOM     34  C   UNL A   1      36.678  33.824  29.618  1.00  0.00     0.010 A 
ATOM     35  C   UNL A   1      36.474  32.887  30.642  1.00  0.00    -0.014 A 
BRANCH  35  36
ATOM     36  C   UNL A   1      37.648  32.303  31.337  1.00  0.00     0.031 A 
ATOM     37  C   UNL A   1      38.410  31.167  30.708  1.00  0.00     0.074 A 
ATOM     38  C   UNL A   1      37.969  32.728  32.575  1.00  0.00     0.049 A 
ATOM     39  N   UNL A   1      39.412  30.479  31.191  1.00  0.00    -0.248 NA
ATOM     40  C   UNL A   1      37.970  30.727  29.373  1.00  0.00     0.031 C 
ATOM     41  C   UNL A   1      37.257  33.766  33.324  1.00  0.00     0.029 A 
ATOM     42  N   UNL A   1      38.957  32.319  33.435  1.00  0.00    -0.354 N 
ATOM     43  C   UNL A   1      39.696  29.505  30.241  1.00  0.00     0.074 A 
ATOM     44  C   UNL A   1      38.742  29.669  29.167  1.00  0.00     0.031 C 
ATOM     45  C   UNL A   1      37.830  33.911  34.529  1.00  0.00     0.029 A 
ATOM     46  C   UNL A   1      38.930  32.959  34.651  1.00  0.00     0.049 A 
ATOM     47  H   UNL A   1      39.623  31.630  33.202  1.00  0.00     0.167 HD
ATOM     48  C   UNL A   1      40.683  28.577  30.247  1.00  0.00     0.034 A 
ATOM     49  C   UNL A   1      39.698  32.792  35.746  1.00  0.00     0.034 A 
ATOM     50  C   UNL A   1      41.661  28.449  31.293  1.00  0.00     0.049 A 
ATOM     51  C   UNL A   1      40.809  31.778  35.710  1.00  0.00     0.074 A 
ATOM     52  C   UNL A   1      42.759  27.610  31.345  1.00  0.00     0.029 A 
ATOM     53  N   UNL A   1      41.654  29.174  32.474  1.00  0.00    -0.354 N 
ATOM     54  N   UNL A   1      41.172  30.983  34.733  1.00  0.00    -0.248 NA
ATOM     55  C   UNL A   1      41.641  31.661  36.918  1.00  0.00     0.031 C 
ATOM     56  C   UNL A   1      43.407  27.814  32.568  1.00  0.00     0.029 A 
ATOM     57  C   UNL A   1      42.722  28.793  33.270  1.00  0.00     0.049 A 
ATOM     58  H   UNL A   1      40.989  29.859  32.713  1.00  0.00     0.167 HD
ATOM     59  C   UNL A   1      42.286  30.293  35.194  1.00  0.00     0.074 A 
ATOM     60  C   UNL A   1      42.556  30.784  36.530  1.00  0.00     0.031 C 
ATOM     61  C   UNL A   1      43.009  29.326  34.577  1.00  0.00     0.034 A 
BRANCH  48  62
ATOM     62  C   UNL A   1      40.791  27.663  29.054  1.00  0.00     0.023 A 
ATOM     63  C   UNL A   1      39.955  26.530  28.972  1.00  0.00     0.012 A 
ATOM     64  C   UNL A   1      41.669  27.951  27.993  1.00  0.00     0.148 A 
ATOM     65  C   UNL A   1      40.015  25.679  27.869  1.00  0.00     0.002 A 
ATOM     66  C   UNL A   1      41.694  27.122  26.876  1.00  0.00     0.091 A 
ATOM     67  F   UNL A   1      42.472  29.019  28.098  1.00  0.00    -0.205 F 
ATOM     68  C   UNL A   1      40.876  25.981  26.818  1.00  0.00     0.022 A 
BRANCH  66  69
ATOM     69  S   UNL A   1      42.712  27.464  25.436  1.00  0.00     0.127 S 
ATOM     70  O   UNL A   1      42.611  26.207  24.698  1.00  0.00    -0.237 OA
ATOM     71  O   UNL A   1      42.008  28.590  24.821  1.00  0.00    -0.237 OA
ATOM     72  O   UNL A   1      44.037  27.784  25.949  1.00  0.00    -0.744 OA
ENDBRANCH  66  69
ENDBRANCH  48  62
BRANCH  49  73
ATOM     73  C   UNL A   1      39.483  33.651  36.945  1.00  0.00     0.023 A 
ATOM     74  C   UNL A   1      39.890  34.998  36.908  1.00  0.00     0.012 A 
ATOM     75  C   UNL A   1      38.857  33.155  38.105  1.00  0.00     0.148 A 
ATOM     76  C   UNL A   1      39.705  35.830  38.013  1.00  0.00     0.002 A 
ATOM     77  C   UNL A   1      38.627  34.002  39.183  1.00  0.00     0.091 A 
ATOM     78  F   UNL A   1      38.489  31.865  38.126  1.00  0.00    -0.205 F 
ATOM     79  C   UNL A   1      39.065  35.335  39.145  1.00  0.00     0.022 A 
BRANCH  77  80
ATOM     80  S   UNL A   1      37.697  33.491  40.633  1.00  0.00     0.127 S 
ATOM     81  O   UNL A   1      37.707  34.708  41.439  1.00  0.00    -0.237 OA
ATOM     82  O   UNL A   1      36.399  33.146  40.053  1.00  0.00    -0.237 OA
ATOM     83  O   UNL A   1      38.428  32.357  41.184  1.00  0.00    -0.744 OA
ENDBRANCH  77  80
ENDBRANCH  49  73
BRANCH  61  84
ATOM     84  C   UNL A   1      44.177  28.742  35.327  1.00  0.00     0.023 A 
ATOM     85  C   UNL A   1      45.462  29.293  35.152  1.00  0.00     0.012 A 
ATOM     86  C   UNL A   1      43.991  27.702  36.259  1.00  0.00     0.148 A 
ATOM     87  C   UNL A   1      46.549  28.796  35.870  1.00  0.00     0.002 A 
ATOM     88  C   UNL A   1      45.069  27.245  37.007  1.00  0.00     0.091 A 
ATOM     89  F   UNL A   1      42.763  27.178  36.397  1.00  0.00    -0.205 F 
ATOM     90  C   UNL A   1      46.350  27.783  36.806  1.00  0.00     0.022 A 
BRANCH  88  91
ATOM     91  S   UNL A   1      44.892  26.009  38.298  1.00  0.00     0.127 S 
ATOM     92  O   UNL A   1      44.401  24.858  37.543  1.00  0.00    -0.237 OA
ATOM     93  O   UNL A   1      46.263  25.875  38.791  1.00  0.00    -0.237 OA
ATOM     94  O   UNL A   1      43.957  26.570  39.264  1.00  0.00    -0.744 OA
ENDBRANCH  88  91
ENDBRANCH  61  84
ENDBRANCH  35  36
ENDBRANCH  27  30
ENDBRANCH  25  26
ENDBRANCH  24  25
ENDBRANCH   1  24
TORSDOF 19
ENDMDL
MODEL 2
REMARK VINA RESULT:     -11.2      5.819      8.740
REMARK SMILES CC[C@](C)(NC(=O)CCSc1ccccc1Cl)C(=O)NCCCNC(=O)c1ccc(-c2c3nc(c(-c4cccc(S(=O)(=O)[O-])c4F)c4ccc([nH]4)c(-c4cccc(S(=O)(=O)[O-])c4F)c4nc(c(-c5cccc(S(=O)(=O)[O-])c5F)c5ccc2[nH]5)C=C4)C=C3)cc1
REMARK SMILES IDX 21 1 20 2 18 3 19 4 3 6 4 7 2 8 1 9 5 10 6 11 7 13 8 14 9 15
REMARK SMILES IDX 10 16 11 17 12 18 16 19 13 20 15 21 17 22 14 23 22 24 23 25
REMARK SMILES IDX 24 26 25 27 26 29 27 30 28 31 89 32 29 33 88 34 30 35 31 36
REMARK SMILES IDX 32 37 82 38 33 39 87 40 81 41 83 42 34 43 86 44 80 45 79 46
REMARK SMILES IDX 35 48 67 49 47 50 66 51 48 52 51 53 65 54 84 55 49 56 50 57
REMARK SMILES IDX 64 59 85 60 52 61 36 62 37 63 45 64 38 65 40 66 46 67 39 68
REMARK SMILES IDX 41 69 42 70 43 71 44 72 68 73 69 74 77 75 70 76 72 77 78 78
REMARK SMILES IDX 71 79 73 80 74 81 75 82 76 83 53 84 54 85 62 86 55 87 57 88
REMARK SMILES IDX 63 89 56 90 58 91 59 92 60 93 61 94
REMARK H PARENT 20 5 5 12 24 28 83 47 51 58
REMARK Flexibility Score: inf
ROOT
ATOM      1  C   UNL A   1      34.411  21.746  26.671  1.00  0.00     0.117 C 
ENDROOT
BRANCH   1   2
ATOM      2  N   UNL A   1      32.987  21.507  26.480  1.00  0.00    -0.354 N 
ATOM      3  C   UNL A   1      31.999  22.245  25.903  1.00  0.00     0.245 C 
ATOM      4  O   UNL A   1      30.874  21.735  25.883  1.00  0.00    -0.272 OA
ATOM      5  H   UNL A   1      32.679  20.643  26.838  1.00  0.00     0.163 HD
BRANCH   3   6
ATOM      6  C   UNL A   1      32.277  23.606  25.210  1.00  0.00     0.116 C 
ATOM      7  C   UNL A   1      32.954  24.589  26.172  1.00  0.00     0.045 C 
BRANCH   6   8
ATOM      8  C   UNL A   1      30.923  24.264  24.790  1.00  0.00     0.035 C 
ATOM      9  C   UNL A   1      30.544  24.107  23.322  1.00  0.00     0.007 C 
ENDBRANCH   6   8
BRANCH   6  10
ATOM     10  N   UNL A   1      33.065  23.398  23.978  1.00  0.00    -0.342 N 
ATOM     11  C   UNL A   1      33.820  24.177  23.170  1.00  0.00     0.221 C 
ATOM     12  H   UNL A   1      33.031  22.464  23.669  1.00  0.00     0.164 HD
ATOM     13  O   UNL A   1      34.427  23.559  22.289  1.00  0.00    -0.275 OA
BRANCH  11  14
ATOM     14  C   UNL A   1      34.079  25.654  23.365  1.00  0.00     0.111 C 
BRANCH  14  15
ATOM     15  C   UNL A   1      33.412  26.664  22.439  1.00  0.00     0.085 C 
BRANCH  15  16
ATOM     16  S   UNL A   1      33.323  28.429  22.934  1.00  0.00    -0.124 SA
BRANCH  16  17
ATOM     17  C   UNL A   1      32.928  28.331  24.678  1.00  0.00     0.026 A 
ATOM     18  C   UNL A   1      33.930  28.597  25.623  1.00  0.00     0.016 A 
ATOM     19  C   UNL A   1      31.637  28.023  25.140  1.00  0.00     0.054 A 
ATOM     20  C   UNL A   1      33.674  28.468  26.994  1.00  0.00     0.001 A 
ATOM     21  C   UNL A   1      31.398  27.852  26.509  1.00  0.00     0.022 A 
ATOM     22  Cl  UNL A   1      30.288  27.844  24.071  1.00  0.00    -0.083 Cl
ATOM     23  C   UNL A   1      32.418  28.063  27.434  1.00  0.00     0.002 A 
ENDBRANCH  16  17
ENDBRANCH  15  16
ENDBRANCH  14  15
ENDBRANCH  11  14
ENDBRANCH   6  10
ENDBRANCH   3   6
ENDBRANCH   1   2
BRANCH   1  24
ATOM     24  C   UNL A   1      35.271  21.242  25.518  1.00  0.00     0.042 C 
BRANCH  24  25
ATOM     25  C   UNL A   1      36.681  21.810  25.486  1.00  0.00     0.118 C 
BRANCH  25  26
ATOM     26  N   UNL A   1      37.693  20.791  25.729  1.00  0.00    -0.352 N 
ATOM     27  C   UNL A   1      39.019  20.935  26.054  1.00  0.00     0.251 C 
ATOM     28  H   UNL A   1      37.380  19.861  25.648  1.00  0.00     0.163 HD
ATOM     29  O   UNL A   1      39.770  19.968  25.984  1.00  0.00    -0.269 OA
BRANCH  27  30
ATOM     30  C   UNL A   1      39.539  22.255  26.471  1.00  0.00     0.039 A 
ATOM     31  C   UNL A   1      40.565  22.313  27.417  1.00  0.00     0.014 A 
ATOM     32  C   UNL A   1      39.004  23.431  25.939  1.00  0.00     0.014 A 
ATOM     33  C   UNL A   1      41.098  23.552  27.782  1.00  0.00     0.010 A 
ATOM     34  C   UNL A   1      39.591  24.655  26.242  1.00  0.00     0.010 A 
ATOM     35  C   UNL A   1      40.636  24.731  27.174  1.00  0.00    -0.014 A 
BRANCH  35  36
ATOM     36  C   UNL A   1      41.230  26.053  27.494  1.00  0.00     0.031 A 
ATOM     37  C   UNL A   1      42.643  26.366  27.080  1.00  0.00     0.074 A 
ATOM     38  C   UNL A   1      40.533  26.933  28.239  1.00  0.00     0.049 A 
ATOM     39  N   UNL A   1      43.358  27.431  27.332  1.00  0.00    -0.248 NA
ATOM     40  C   UNL A   1      43.356  25.335  26.307  1.00  0.00     0.031 C 
ATOM     41  C   UNL A   1      39.186  26.713  28.769  1.00  0.00     0.029 A 
ATOM     42  N   UNL A   1      40.874  28.178  28.708  1.00  0.00    -0.354 N 
ATOM     43  C   UNL A   1      44.612  27.185  26.784  1.00  0.00     0.074 A 
ATOM     44  C   UNL A   1      44.571  25.857  26.214  1.00  0.00     0.031 C 
ATOM     45  C   UNL A   1      38.815  27.784  29.489  1.00  0.00     0.029 A 
ATOM     46  C   UNL A   1      39.906  28.753  29.498  1.00  0.00     0.049 A 
ATOM     47  H   UNL A   1      41.730  28.616  28.498  1.00  0.00     0.167 HD
ATOM     48  C   UNL A   1      45.691  28.002  26.732  1.00  0.00     0.034 A 
ATOM     49  C   UNL A   1      39.902  29.926  30.162  1.00  0.00     0.034 A 
ATOM     50  C   UNL A   1      45.712  29.341  27.256  1.00  0.00     0.049 A 
ATOM     51  C   UNL A   1      41.101  30.829  30.056  1.00  0.00     0.074 A 
ATOM     52  C   UNL A   1      46.719  30.285  27.164  1.00  0.00     0.029 A 
ATOM     53  N   UNL A   1      44.681  29.925  27.976  1.00  0.00    -0.354 N 
ATOM     54  N   UNL A   1      42.214  30.650  29.387  1.00  0.00    -0.248 NA
ATOM     55  C   UNL A   1      41.030  32.113  30.770  1.00  0.00     0.031 C 
ATOM     56  C   UNL A   1      46.305  31.433  27.847  1.00  0.00     0.029 A 
ATOM     57  C   UNL A   1      45.032  31.211  28.348  1.00  0.00     0.049 A 
ATOM     58  H   UNL A   1      43.825  29.488  28.192  1.00  0.00     0.167 HD
ATOM     59  C   UNL A   1      42.962  31.806  29.576  1.00  0.00     0.074 A 
ATOM     60  C   UNL A   1      42.164  32.690  30.400  1.00  0.00     0.031 C 
ATOM     61  C   UNL A   1      44.208  32.100  29.125  1.00  0.00     0.034 A 
BRANCH  48  62
ATOM     62  C   UNL A   1      46.922  27.491  26.031  1.00  0.00     0.023 A 
ATOM     63  C   UNL A   1      47.801  26.627  26.717  1.00  0.00     0.012 A 
ATOM     64  C   UNL A   1      47.182  27.814  24.686  1.00  0.00     0.148 A 
ATOM     65  C   UNL A   1      48.936  26.119  26.086  1.00  0.00     0.002 A 
ATOM     66  C   UNL A   1      48.293  27.270  24.050  1.00  0.00     0.091 A 
ATOM     67  F   UNL A   1      46.348  28.655  24.057  1.00  0.00    -0.205 F 
ATOM     68  C   UNL A   1      49.176  26.432  24.751  1.00  0.00     0.022 A 
BRANCH  66  69
ATOM     69  S   UNL A   1      48.649  27.551  22.311  1.00  0.00     0.127 S 
ATOM     70  O   UNL A   1      48.726  26.182  21.802  1.00  0.00    -0.237 OA
ATOM     71  O   UNL A   1      47.470  28.297  21.871  1.00  0.00    -0.237 OA
ATOM     72  O   UNL A   1      49.893  28.305  22.273  1.00  0.00    -0.744 OA
ENDBRANCH  66  69
ENDBRANCH  48  62
BRANCH  49  73
ATOM     73  C   UNL A   1      38.695  30.342  30.932  1.00  0.00     0.023 A 
ATOM     74  C   UNL A   1      38.605  30.017  32.299  1.00  0.00     0.012 A 
ATOM     75  C   UNL A   1      37.655  31.078  30.331  1.00  0.00     0.148 A 
ATOM     76  C   UNL A   1      37.489  30.391  33.049  1.00  0.00     0.002 A 
ATOM     77  C   UNL A   1      36.571  31.493  31.096  1.00  0.00     0.091 A 
ATOM     78  F   UNL A   1      37.752  31.365  29.025  1.00  0.00    -0.205 F 
ATOM     79  C   UNL A   1      36.478  31.136  32.451  1.00  0.00     0.022 A 
BRANCH  77  80
ATOM     80  S   UNL A   1      35.284  32.565  30.446  1.00  0.00     0.127 S 
ATOM     81  O   UNL A   1      34.367  32.653  31.580  1.00  0.00    -0.237 OA
ATOM     82  O   UNL A   1      36.029  33.790  30.158  1.00  0.00    -0.237 OA
ATOM     83  O   UNL A   1      34.770  31.883  29.265  1.00  0.00    -0.744 OA
ENDBRANCH  77  80
ENDBRANCH  49  73
BRANCH  61  84
ATOM     84  C   UNL A   1      44.783  33.442  29.493  1.00  0.00     0.023 A 
ATOM     85  C   UNL A   1      45.574  33.567  30.652  1.00  0.00     0.012 A 
ATOM     86  C   UNL A   1      44.604  34.560  28.654  1.00  0.00     0.148 A 
ATOM     87  C   UNL A   1      46.152  34.790  30.988  1.00  0.00     0.002 A 
ATOM     88  C   UNL A   1      45.224  35.764  28.968  1.00  0.00     0.091 A 
ATOM     89  F   UNL A   1      43.833  34.426  27.564  1.00  0.00    -0.205 F 
ATOM     90  C   UNL A   1      45.988  35.884  30.140  1.00  0.00     0.022 A 
BRANCH  88  91
ATOM     91  S   UNL A   1      45.145  37.198  27.889  1.00  0.00     0.127 S 
ATOM     92  O   UNL A   1      45.587  38.268  28.782  1.00  0.00    -0.237 OA
ATOM     93  O   UNL A   1      46.100  36.849  26.837  1.00  0.00    -0.237 OA
ATOM     94  O   UNL A   1      43.762  37.288  27.442  1.00  0.00    -0.744 OA
ENDBRANCH  88  91
ENDBRANCH  61  84
ENDBRANCH  35  36
ENDBRANCH  27  30
ENDBRANCH  25  26
ENDBRANCH  24  25
ENDBRANCH   1  24
TORSDOF 19
ENDMDL
MODEL 3
REMARK VINA RESULT:     -10.9      6.321     11.318
REMARK SMILES CC[C@](C)(NC(=O)CCSc1ccccc1Cl)C(=O)NCCCNC(=O)c1ccc(-c2c3nc(c(-c4cccc(S(=O)(=O)[O-])c4F)c4ccc([nH]4)c(-c4cccc(S(=O)(=O)[O-])c4F)c4nc(c(-c5cccc(S(=O)(=O)[O-])c5F)c5ccc2[nH]5)C=C4)C=C3)cc1
REMARK SMILES IDX 21 1 20 2 18 3 19 4 3 6 4 7 2 8 1 9 5 10 6 11 7 13 8 14 9 15
REMARK SMILES IDX 10 16 11 17 12 18 16 19 13 20 15 21 17 22 14 23 22 24 23 25
REMARK SMILES IDX 24 26 25 27 26 29 27 30 28 31 89 32 29 33 88 34 30 35 31 36
REMARK SMILES IDX 32 37 82 38 33 39 87 40 81 41 83 42 34 43 86 44 80 45 79 46
REMARK SMILES IDX 35 48 67 49 47 50 66 51 48 52 51 53 65 54 84 55 49 56 50 57
REMARK SMILES IDX 64 59 85 60 52 61 36 62 37 63 45 64 38 65 40 66 46 67 39 68
REMARK SMILES IDX 41 69 42 70 43 71 44 72 68 73 69 74 77 75 70 76 72 77 78 78
REMARK SMILES IDX 71 79 73 80 74 81 75 82 76 83 53 84 54 85 62 86 55 87 57 88
REMARK SMILES IDX 63 89 56 90 58 91 59 92 60 93 61 94
REMARK H PARENT 20 5 5 12 24 28 83 47 51 58
REMARK Flexibility Score: inf
ROOT
ATOM      1  C   UNL A   1      35.909  20.720  24.900  1.00  0.00     0.117 C 
ENDROOT
BRANCH   1   2
ATOM      2  N   UNL A   1      35.392  21.143  26.194  1.00  0.00    -0.354 N 
ATOM      3  C   UNL A   1      34.161  21.560  26.603  1.00  0.00     0.245 C 
ATOM      4  O   UNL A   1      34.044  21.831  27.802  1.00  0.00    -0.272 OA
ATOM      5  H   UNL A   1      36.063  21.125  26.915  1.00  0.00     0.163 HD
BRANCH   3   6
ATOM      6  C   UNL A   1      32.939  21.596  25.647  1.00  0.00     0.116 C 
ATOM      7  C   UNL A   1      32.590  20.192  25.140  1.00  0.00     0.045 C 
BRANCH   6   8
ATOM      8  C   UNL A   1      33.291  22.445  24.381  1.00  0.00     0.035 C 
ATOM      9  C   UNL A   1      32.302  22.343  23.226  1.00  0.00     0.007 C 
ENDBRANCH   6   8
BRANCH   6  10
ATOM     10  N   UNL A   1      31.793  22.252  26.309  1.00  0.00    -0.342 N 
ATOM     11  C   UNL A   1      31.455  23.523  26.623  1.00  0.00     0.221 C 
ATOM     12  H   UNL A   1      31.108  21.604  26.592  1.00  0.00     0.164 HD
ATOM     13  O   UNL A   1      30.312  23.650  27.074  1.00  0.00    -0.275 OA
BRANCH  11  14
ATOM     14  C   UNL A   1      32.284  24.753  26.324  1.00  0.00     0.111 C 
BRANCH  14  15
ATOM     15  C   UNL A   1      31.812  26.117  26.811  1.00  0.00     0.085 C 
BRANCH  15  16
ATOM     16  S   UNL A   1      31.826  27.546  25.661  1.00  0.00    -0.124 SA
BRANCH  16  17
ATOM     17  C   UNL A   1      32.137  26.776  24.075  1.00  0.00     0.026 A 
ATOM     18  C   UNL A   1      33.459  26.656  23.619  1.00  0.00     0.016 A 
ATOM     19  C   UNL A   1      31.105  26.256  23.275  1.00  0.00     0.054 A 
ATOM     20  C   UNL A   1      33.736  26.118  22.356  1.00  0.00     0.001 A 
ATOM     21  C   UNL A   1      31.382  25.760  21.997  1.00  0.00     0.022 A 
ATOM     22  Cl  UNL A   1      29.460  26.194  23.811  1.00  0.00    -0.083 Cl
ATOM     23  C   UNL A   1      32.694  25.701  21.532  1.00  0.00     0.002 A 
ENDBRANCH  16  17
ENDBRANCH  15  16
ENDBRANCH  14  15
ENDBRANCH  11  14
ENDBRANCH   6  10
ENDBRANCH   3   6
ENDBRANCH   1   2
BRANCH   1  24
ATOM     24  C   UNL A   1      37.113  19.791  25.002  1.00  0.00     0.042 C 
BRANCH  24  25
ATOM     25  C   UNL A   1      38.415  20.484  25.376  1.00  0.00     0.118 C 
BRANCH  25  26
ATOM     26  N   UNL A   1      39.427  19.544  25.839  1.00  0.00    -0.352 N 
ATOM     27  C   UNL A   1      40.694  19.785  26.310  1.00  0.00     0.251 C 
ATOM     28  H   UNL A   1      39.163  18.596  25.811  1.00  0.00     0.163 HD
ATOM     29  O   UNL A   1      41.486  18.855  26.428  1.00  0.00    -0.269 OA
BRANCH  27  30
ATOM     30  C   UNL A   1      41.104  21.163  26.657  1.00  0.00     0.039 A 
ATOM     31  C   UNL A   1      41.679  21.406  27.906  1.00  0.00     0.014 A 
ATOM     32  C   UNL A   1      40.908  22.212  25.757  1.00  0.00     0.014 A 
ATOM     33  C   UNL A   1      42.115  22.694  28.227  1.00  0.00     0.010 A 
ATOM     34  C   UNL A   1      41.417  23.474  26.044  1.00  0.00     0.010 A 
ATOM     35  C   UNL A   1      42.016  23.732  27.286  1.00  0.00    -0.014 A 
BRANCH  35  36
ATOM     36  C   UNL A   1      42.532  25.093  27.575  1.00  0.00     0.031 A 
ATOM     37  C   UNL A   1      41.637  26.121  28.212  1.00  0.00     0.074 A 
ATOM     38  C   UNL A   1      43.774  25.432  27.176  1.00  0.00     0.049 A 
ATOM     39  N   UNL A   1      41.881  27.379  28.474  1.00  0.00    -0.248 NA
ATOM     40  C   UNL A   1      40.278  25.687  28.578  1.00  0.00     0.031 C 
ATOM     41  C   UNL A   1      44.709  24.550  26.476  1.00  0.00     0.029 A 
ATOM     42  N   UNL A   1      44.453  26.622  27.274  1.00  0.00    -0.354 N 
ATOM     43  C   UNL A   1      40.701  27.894  28.996  1.00  0.00     0.074 A 
ATOM     44  C   UNL A   1      39.730  26.823  28.986  1.00  0.00     0.031 C 
ATOM     45  C   UNL A   1      45.838  25.226  26.208  1.00  0.00     0.029 A 
ATOM     46  C   UNL A   1      45.697  26.597  26.689  1.00  0.00     0.049 A 
ATOM     47  H   UNL A   1      44.083  27.418  27.722  1.00  0.00     0.167 HD
ATOM     48  C   UNL A   1      40.455  29.139  29.471  1.00  0.00     0.034 A 
ATOM     49  C   UNL A   1      46.617  27.571  26.547  1.00  0.00     0.034 A 
ATOM     50  C   UNL A   1      41.438  30.187  29.526  1.00  0.00     0.049 A 
ATOM     51  C   UNL A   1      46.331  28.935  27.117  1.00  0.00     0.074 A 
ATOM     52  C   UNL A   1      41.319  31.449  30.080  1.00  0.00     0.029 A 
ATOM     53  N   UNL A   1      42.718  30.099  29.001  1.00  0.00    -0.354 N 
ATOM     54  N   UNL A   1      45.271  29.354  27.763  1.00  0.00    -0.248 NA
ATOM     55  C   UNL A   1      47.383  29.951  26.967  1.00  0.00     0.031 C 
ATOM     56  C   UNL A   1      42.521  32.132  29.873  1.00  0.00     0.029 A 
ATOM     57  C   UNL A   1      43.396  31.289  29.205  1.00  0.00     0.049 A 
ATOM     58  H   UNL A   1      43.090  29.308  28.549  1.00  0.00     0.167 HD
ATOM     59  C   UNL A   1      45.537  30.670  28.121  1.00  0.00     0.074 A 
ATOM     60  C   UNL A   1      46.871  30.970  27.643  1.00  0.00     0.031 C 
ATOM     61  C   UNL A   1      44.742  31.558  28.769  1.00  0.00     0.034 A 
BRANCH  48  62
ATOM     62  C   UNL A   1      39.083  29.418  30.027  1.00  0.00     0.023 A 
ATOM     63  C   UNL A   1      38.770  29.005  31.339  1.00  0.00     0.012 A 
ATOM     64  C   UNL A   1      38.126  30.133  29.282  1.00  0.00     0.148 A 
ATOM     65  C   UNL A   1      37.517  29.269  31.889  1.00  0.00     0.002 A 
ATOM     66  C   UNL A   1      36.893  30.431  29.852  1.00  0.00     0.091 A 
ATOM     67  F   UNL A   1      38.433  30.498  28.029  1.00  0.00    -0.205 F 
ATOM     68  C   UNL A   1      36.584  29.991  31.150  1.00  0.00     0.022 A 
BRANCH  66  69
ATOM     69  S   UNL A   1      35.650  31.420  29.012  1.00  0.00     0.127 S 
ATOM     70  O   UNL A   1      36.473  32.444  28.370  1.00  0.00    -0.237 OA
ATOM     71  O   UNL A   1      35.056  30.450  28.091  1.00  0.00    -0.237 OA
ATOM     72  O   UNL A   1      34.751  31.900  30.051  1.00  0.00    -0.744 OA
ENDBRANCH  66  69
ENDBRANCH  48  62
BRANCH  49  73
ATOM     73  C   UNL A   1      47.923  27.273  25.893  1.00  0.00     0.023 A 
ATOM     74  C   UNL A   1      48.975  26.746  26.666  1.00  0.00     0.012 A 
ATOM     75  C   UNL A   1      48.121  27.479  24.514  1.00  0.00     0.148 A 
ATOM     76  C   UNL A   1      50.210  26.456  26.086  1.00  0.00     0.002 A 
ATOM     77  C   UNL A   1      49.336  27.138  23.931  1.00  0.00     0.091 A 
ATOM     78  F   UNL A   1      47.112  27.995  23.797  1.00  0.00    -0.205 F 
ATOM     79  C   UNL A   1      50.388  26.643  24.718  1.00  0.00     0.022 A 
BRANCH  77  80
ATOM     80  S   UNL A   1      49.616  27.223  22.159  1.00  0.00     0.127 S 
ATOM     81  O   UNL A   1      48.647  26.253  21.656  1.00  0.00    -0.237 OA
ATOM     82  O   UNL A   1      49.297  28.621  21.869  1.00  0.00    -0.237 OA
ATOM     83  O   UNL A   1      51.019  26.876  21.969  1.00  0.00    -0.744 OA
ENDBRANCH  77  80
ENDBRANCH  49  73
BRANCH  61  84
ATOM     84  C   UNL A   1      45.295  32.936  29.020  1.00  0.00     0.023 A 
ATOM     85  C   UNL A   1      46.036  33.186  30.191  1.00  0.00     0.012 A 
ATOM     86  C   UNL A   1      45.146  33.960  28.063  1.00  0.00     0.148 A 
ATOM     87  C   UNL A   1      46.595  34.442  30.422  1.00  0.00     0.002 A 
ATOM     88  C   UNL A   1      45.747  35.195  28.277  1.00  0.00     0.091 A 
ATOM     89  F   UNL A   1      44.422  33.707  26.962  1.00  0.00    -0.205 F 
ATOM     90  C   UNL A   1      46.461  35.441  29.460  1.00  0.00     0.022 A 
BRANCH  88  91
ATOM     91  S   UNL A   1      45.707  36.509  27.053  1.00  0.00     0.127 S 
ATOM     92  O   UNL A   1      44.273  36.767  26.939  1.00  0.00    -0.237 OA
ATOM     93  O   UNL A   1      46.466  37.572  27.713  1.00  0.00    -0.237 OA
ATOM     94  O   UNL A   1      46.343  35.967  25.861  1.00  0.00    -0.744 OA
ENDBRANCH  88  91
ENDBRANCH  61  84
ENDBRANCH  35  36
ENDBRANCH  27  30
ENDBRANCH  25  26
ENDBRANCH  24  25
ENDBRANCH   1  24
TORSDOF 19
ENDMDL
