MODEL 1
REMARK VINA RESULT:     -11.3      0.000      0.000
REMARK SMILES COc1cc(OC)cc(C(=O)C[C@H](C)CC(=O)NCCCNC(=O)c2ccc(-c3c4nc(c(-c5cccc(S(=O)(=O)[O-])c5F)c5ccc([nH]5)c(-c5cccc(S(=O)(=O)[O-])c5F)c5nc(c(-c6cccc(S(=O)(=O)[O-])c6F)c6ccc3[nH]6)C=C5)C=C4)cc2)c1
REMARK SMILES IDX 19 1 18 2 16 3 17 4 15 6 13 7 14 8 12 9 10 10 11 11 9 12
REMARK SMILES IDX 3 13 4 14 88 15 5 16 8 17 2 18 1 19 6 20 7 21 20 22 21 23
REMARK SMILES IDX 22 24 23 25 24 27 25 28 26 29 87 30 27 31 86 32 28 33 29 34
REMARK SMILES IDX 30 35 80 36 31 37 85 38 79 39 81 40 32 41 84 42 78 43 77 44
REMARK SMILES IDX 33 46 65 47 45 48 64 49 46 50 49 51 63 52 82 53 47 54 48 55
REMARK SMILES IDX 62 57 83 58 50 59 34 60 35 61 43 62 36 63 38 64 44 65 37 66
REMARK SMILES IDX 39 67 40 68 41 69 42 70 66 71 67 72 75 73 68 74 70 75 76 76
REMARK SMILES IDX 69 77 71 78 72 79 73 80 74 81 51 82 52 83 60 84 53 85 55 86
REMARK SMILES IDX 61 87 54 88 56 89 57 90 58 91 59 92
REMARK H PARENT 18 5 22 26 81 45 49 56
REMARK Flexibility Score: inf
ROOT
ATOM      1  C   UNL A   1      31.274  27.461  25.355  1.00  0.00     0.117 C 
ENDROOT
BRANCH   1   2
ATOM      2  N   UNL A   1      30.620  27.922  24.139  1.00  0.00    -0.356 N 
ATOM      3  C   UNL A   1      30.993  27.821  22.834  1.00  0.00     0.220 C 
ATOM      4  O   UNL A   1      30.235  28.269  21.969  1.00  0.00    -0.275 OA
ATOM      5  H   UNL A   1      29.764  28.385  24.284  1.00  0.00     0.163 HD
BRANCH   3   6
ATOM      6  C   UNL A   1      32.325  27.208  22.443  1.00  0.00     0.103 C 
BRANCH   6   7
ATOM      7  C   UNL A   1      32.151  25.753  21.973  1.00  0.00     0.003 C 
ATOM      8  C   UNL A   1      32.575  25.580  20.517  1.00  0.00     0.008 C 
BRANCH   7   9
ATOM      9  C   UNL A   1      32.909  24.776  22.890  1.00  0.00     0.085 C 
BRANCH   9  10
ATOM     10  C   UNL A   1      32.106  23.548  23.320  1.00  0.00     0.163 C 
ATOM     11  O   UNL A   1      30.878  23.538  23.267  1.00  0.00    -0.294 OA
BRANCH  10  12
ATOM     12  C   UNL A   1      32.824  22.346  23.829  1.00  0.00     0.025 A 
ATOM     13  C   UNL A   1      34.867  21.273  24.515  1.00  0.00     0.123 A 
ATOM     14  C   UNL A   1      34.132  20.188  24.989  1.00  0.00     0.092 A 
ATOM     15  C   UNL A   1      34.219  22.327  23.882  1.00  0.00     0.058 A 
ATOM     16  C   UNL A   1      32.737  20.168  24.874  1.00  0.00     0.123 A 
ATOM     17  C   UNL A   1      32.078  21.262  24.313  1.00  0.00     0.058 A 
BRANCH  13  18
ATOM     18  O   UNL A   1      36.228  21.222  24.651  1.00  0.00    -0.497 OA
ATOM     19  C   UNL A   1      36.708  22.008  25.746  1.00  0.00     0.278 C 
ENDBRANCH  13  18
BRANCH  16  20
ATOM     20  O   UNL A   1      32.143  19.039  25.365  1.00  0.00    -0.497 OA
ATOM     21  C   UNL A   1      32.801  17.801  25.117  1.00  0.00     0.278 C 
ENDBRANCH  16  20
ENDBRANCH  10  12
ENDBRANCH   9  10
ENDBRANCH   7   9
ENDBRANCH   6   7
ENDBRANCH   3   6
ENDBRANCH   1   2
BRANCH   1  22
ATOM     22  C   UNL A   1      31.722  28.602  26.267  1.00  0.00     0.042 C 
BRANCH  22  23
ATOM     23  C   UNL A   1      32.747  29.538  25.648  1.00  0.00     0.118 C 
BRANCH  23  24
ATOM     24  N   UNL A   1      32.520  30.911  26.058  1.00  0.00    -0.352 N 
ATOM     25  C   UNL A   1      33.138  31.643  27.043  1.00  0.00     0.251 C 
ATOM     26  H   UNL A   1      31.821  31.389  25.557  1.00  0.00     0.163 HD
ATOM     27  O   UNL A   1      32.586  32.665  27.446  1.00  0.00    -0.269 OA
BRANCH  25  28
ATOM     28  C   UNL A   1      34.443  31.230  27.619  1.00  0.00     0.039 A 
ATOM     29  C   UNL A   1      34.612  29.895  28.002  1.00  0.00     0.014 A 
ATOM     30  C   UNL A   1      35.464  32.150  27.879  1.00  0.00     0.014 A 
ATOM     31  C   UNL A   1      35.791  29.490  28.637  1.00  0.00     0.010 A 
ATOM     32  C   UNL A   1      36.676  31.725  28.426  1.00  0.00     0.010 A 
ATOM     33  C   UNL A   1      36.837  30.401  28.855  1.00  0.00    -0.014 A 
BRANCH  33  34
ATOM     34  C   UNL A   1      38.066  29.993  29.587  1.00  0.00     0.031 A 
ATOM     35  C   UNL A   1      38.317  30.488  30.992  1.00  0.00     0.074 A 
ATOM     36  C   UNL A   1      38.980  29.205  28.987  1.00  0.00     0.049 A 
ATOM     37  N   UNL A   1      39.316  30.224  31.795  1.00  0.00    -0.248 NA
ATOM     38  C   UNL A   1      37.329  31.420  31.562  1.00  0.00     0.031 C 
ATOM     39  C   UNL A   1      38.903  28.725  27.605  1.00  0.00     0.029 A 
ATOM     40  N   UNL A   1      40.158  28.679  29.456  1.00  0.00    -0.354 N 
ATOM     41  C   UNL A   1      39.096  30.982  32.941  1.00  0.00     0.074 A 
ATOM     42  C   UNL A   1      37.893  31.749  32.715  1.00  0.00     0.031 C 
ATOM     43  C   UNL A   1      39.977  27.962  27.344  1.00  0.00     0.029 A 
ATOM     44  C   UNL A   1      40.829  27.914  28.530  1.00  0.00     0.049 A 
ATOM     45  H   UNL A   1      40.491  28.834  30.369  1.00  0.00     0.167 HD
ATOM     46  C   UNL A   1      39.806  31.010  34.095  1.00  0.00     0.034 A 
ATOM     47  C   UNL A   1      41.994  27.243  28.626  1.00  0.00     0.034 A 
ATOM     48  C   UNL A   1      40.969  30.203  34.344  1.00  0.00     0.049 A 
ATOM     49  C   UNL A   1      42.732  27.242  29.938  1.00  0.00     0.074 A 
ATOM     50  C   UNL A   1      41.702  30.086  35.511  1.00  0.00     0.029 A 
ATOM     51  N   UNL A   1      41.572  29.377  33.409  1.00  0.00    -0.354 N 
ATOM     52  N   UNL A   1      42.412  27.830  31.067  1.00  0.00    -0.248 NA
ATOM     53  C   UNL A   1      43.970  26.451  30.003  1.00  0.00     0.031 C 
ATOM     54  C   UNL A   1      42.760  29.201  35.277  1.00  0.00     0.029 A 
ATOM     55  C   UNL A   1      42.673  28.751  33.969  1.00  0.00     0.049 A 
ATOM     56  H   UNL A   1      41.263  29.252  32.483  1.00  0.00     0.167 HD
ATOM     57  C   UNL A   1      43.391  27.457  31.981  1.00  0.00     0.074 A 
ATOM     58  C   UNL A   1      44.298  26.569  31.283  1.00  0.00     0.031 C 
ATOM     59  C   UNL A   1      43.538  27.831  33.277  1.00  0.00     0.034 A 
BRANCH  46  60
ATOM     60  C   UNL A   1      39.303  31.899  35.205  1.00  0.00     0.023 A 
ATOM     61  C   UNL A   1      38.368  31.390  36.131  1.00  0.00     0.012 A 
ATOM     62  C   UNL A   1      39.792  33.211  35.369  1.00  0.00     0.148 A 
ATOM     63  C   UNL A   1      37.898  32.183  37.177  1.00  0.00     0.002 A 
ATOM     64  C   UNL A   1      39.352  33.980  36.441  1.00  0.00     0.091 A 
ATOM     65  F   UNL A   1      40.665  33.685  34.469  1.00  0.00    -0.205 F 
ATOM     66  C   UNL A   1      38.397  33.472  37.337  1.00  0.00     0.022 A 
BRANCH  64  67
ATOM     67  S   UNL A   1      39.990  35.625  36.782  1.00  0.00     0.127 S 
ATOM     68  O   UNL A   1      39.338  35.936  38.053  1.00  0.00    -0.237 OA
ATOM     69  O   UNL A   1      41.430  35.381  36.879  1.00  0.00    -0.237 OA
ATOM     70  O   UNL A   1      39.589  36.452  35.653  1.00  0.00    -0.744 OA
ENDBRANCH  64  67
ENDBRANCH  46  60
BRANCH  47  71
ATOM     71  C   UNL A   1      42.493  26.449  27.468  1.00  0.00     0.023 A 
ATOM     72  C   UNL A   1      43.372  27.049  26.545  1.00  0.00     0.012 A 
ATOM     73  C   UNL A   1      42.129  25.100  27.291  1.00  0.00     0.148 A 
ATOM     74  C   UNL A   1      43.853  26.333  25.449  1.00  0.00     0.002 A 
ATOM     75  C   UNL A   1      42.655  24.375  26.228  1.00  0.00     0.091 A 
ATOM     76  F   UNL A   1      41.281  24.550  28.170  1.00  0.00    -0.205 F 
ATOM     77  C   UNL A   1      43.504  24.993  25.296  1.00  0.00     0.022 A 
BRANCH  75  78
ATOM     78  S   UNL A   1      42.366  22.613  26.030  1.00  0.00     0.127 S 
ATOM     79  O   UNL A   1      43.020  22.343  24.754  1.00  0.00    -0.237 OA
ATOM     80  O   UNL A   1      43.045  22.060  27.201  1.00  0.00    -0.237 OA
ATOM     81  O   UNL A   1      40.917  22.451  26.049  1.00  0.00    -0.744 OA
ENDBRANCH  75  78
ENDBRANCH  47  71
BRANCH  59  82
ATOM     82  C   UNL A   1      44.711  27.268  34.036  1.00  0.00     0.023 A 
ATOM     83  C   UNL A   1      45.944  27.951  34.020  1.00  0.00     0.012 A 
ATOM     84  C   UNL A   1      44.577  26.104  34.817  1.00  0.00     0.148 A 
ATOM     85  C   UNL A   1      47.035  27.463  34.739  1.00  0.00     0.002 A 
ATOM     86  C   UNL A   1      45.653  25.650  35.570  1.00  0.00     0.091 A 
ATOM     87  F   UNL A   1      43.401  25.458  34.805  1.00  0.00    -0.205 F 
ATOM     88  C   UNL A   1      46.886  26.321  35.522  1.00  0.00     0.022 A 
BRANCH  86  89
ATOM     89  S   UNL A   1      45.523  24.244  36.679  1.00  0.00     0.127 S 
ATOM     90  O   UNL A   1      45.228  23.156  35.749  1.00  0.00    -0.237 OA
ATOM     91  O   UNL A   1      46.860  24.192  37.275  1.00  0.00    -0.237 OA
ATOM     92  O   UNL A   1      44.459  24.574  37.618  1.00  0.00    -0.744 OA
ENDBRANCH  86  89
ENDBRANCH  59  82
ENDBRANCH  33  34
ENDBRANCH  25  28
ENDBRANCH  23  24
ENDBRANCH  22  23
ENDBRANCH   1  22
TORSDOF 19
ENDMDL
MODEL 2
REMARK VINA RESULT:     -10.9      1.502      1.811
REMARK SMILES COc1cc(OC)cc(C(=O)C[C@H](C)CC(=O)NCCCNC(=O)c2ccc(-c3c4nc(c(-c5cccc(S(=O)(=O)[O-])c5F)c5ccc([nH]5)c(-c5cccc(S(=O)(=O)[O-])c5F)c5nc(c(-c6cccc(S(=O)(=O)[O-])c6F)c6ccc3[nH]6)C=C5)C=C4)cc2)c1
REMARK SMILES IDX 19 1 18 2 16 3 17 4 15 6 13 7 14 8 12 9 10 10 11 11 9 12
REMARK SMILES IDX 3 13 4 14 88 15 5 16 8 17 2 18 1 19 6 20 7 21 20 22 21 23
REMARK SMILES IDX 22 24 23 25 24 27 25 28 26 29 87 30 27 31 86 32 28 33 29 34
REMARK SMILES IDX 30 35 80 36 31 37 85 38 79 39 81 40 32 41 84 42 78 43 77 44
REMARK SMILES IDX 33 46 65 47 45 48 64 49 46 50 49 51 63 52 82 53 47 54 48 55
REMARK SMILES IDX 62 57 83 58 50 59 34 60 35 61 43 62 36 63 38 64 44 65 37 66
REMARK SMILES IDX 39 67 40 68 41 69 42 70 66 71 67 72 75 73 68 74 70 75 76 76
REMARK SMILES IDX 69 77 71 78 72 79 73 80 74 81 51 82 52 83 60 84 53 85 55 86
REMARK SMILES IDX 61 87 54 88 56 89 57 90 58 91 59 92
REMARK H PARENT 18 5 22 26 81 45 49 56
REMARK Flexibility Score: inf
ROOT
ATOM      1  C   UNL A   1      31.639  29.123  24.118  1.00  0.00     0.117 C 
ENDROOT
BRANCH   1   2
ATOM      2  N   UNL A   1      30.700  28.160  24.676  1.00  0.00    -0.356 N 
ATOM      3  C   UNL A   1      30.547  26.828  24.444  1.00  0.00     0.220 C 
ATOM      4  O   UNL A   1      29.686  26.215  25.081  1.00  0.00    -0.275 OA
ATOM      5  H   UNL A   1      30.071  28.535  25.333  1.00  0.00     0.163 HD
BRANCH   3   6
ATOM      6  C   UNL A   1      31.384  26.111  23.400  1.00  0.00     0.103 C 
BRANCH   6   7
ATOM      7  C   UNL A   1      32.535  25.326  24.053  1.00  0.00     0.003 C 
ATOM      8  C   UNL A   1      33.887  25.726  23.470  1.00  0.00     0.008 C 
BRANCH   7   9
ATOM      9  C   UNL A   1      32.522  25.486  25.583  1.00  0.00     0.085 C 
BRANCH   9  10
ATOM     10  C   UNL A   1      32.233  24.200  26.359  1.00  0.00     0.163 C 
ATOM     11  O   UNL A   1      31.477  24.196  27.329  1.00  0.00    -0.294 OA
BRANCH  10  12
ATOM     12  C   UNL A   1      32.892  22.931  25.944  1.00  0.00     0.025 A 
ATOM     13  C   UNL A   1      34.871  21.571  25.764  1.00  0.00     0.123 A 
ATOM     14  C   UNL A   1      34.084  20.486  25.382  1.00  0.00     0.092 A 
ATOM     15  C   UNL A   1      34.283  22.810  25.988  1.00  0.00     0.058 A 
ATOM     16  C   UNL A   1      32.696  20.619  25.265  1.00  0.00     0.123 A 
ATOM     17  C   UNL A   1      32.095  21.840  25.571  1.00  0.00     0.058 A 
BRANCH  13  18
ATOM     18  O   UNL A   1      36.223  21.373  25.848  1.00  0.00    -0.497 OA
ATOM     19  C   UNL A   1      36.916  21.753  24.656  1.00  0.00     0.278 C 
ENDBRANCH  13  18
BRANCH  16  20
ATOM     20  O   UNL A   1      32.048  19.483  24.869  1.00  0.00    -0.497 OA
ATOM     21  C   UNL A   1      32.694  18.679  23.886  1.00  0.00     0.278 C 
ENDBRANCH  16  20
ENDBRANCH  10  12
ENDBRANCH   9  10
ENDBRANCH   7   9
ENDBRANCH   6   7
ENDBRANCH   3   6
ENDBRANCH   1   2
BRANCH   1  22
ATOM     22  C   UNL A   1      32.967  29.173  24.870  1.00  0.00     0.042 C 
BRANCH  22  23
ATOM     23  C   UNL A   1      32.840  29.482  26.353  1.00  0.00     0.118 C 
BRANCH  23  24
ATOM     24  N   UNL A   1      32.779  30.911  26.589  1.00  0.00    -0.352 N 
ATOM     25  C   UNL A   1      33.562  31.699  27.398  1.00  0.00     0.251 C 
ATOM     26  H   UNL A   1      32.073  31.388  26.095  1.00  0.00     0.163 HD
ATOM     27  O   UNL A   1      33.148  32.815  27.707  1.00  0.00    -0.269 OA
BRANCH  25  28
ATOM     28  C   UNL A   1      34.881  31.235  27.898  1.00  0.00     0.039 A 
ATOM     29  C   UNL A   1      35.003  29.909  28.330  1.00  0.00     0.014 A 
ATOM     30  C   UNL A   1      35.968  32.103  28.041  1.00  0.00     0.014 A 
ATOM     31  C   UNL A   1      36.202  29.463  28.897  1.00  0.00     0.010 A 
ATOM     32  C   UNL A   1      37.192  31.631  28.519  1.00  0.00     0.010 A 
ATOM     33  C   UNL A   1      37.310  30.319  28.996  1.00  0.00    -0.014 A 
BRANCH  33  34
ATOM     34  C   UNL A   1      38.566  29.871  29.657  1.00  0.00     0.031 A 
ATOM     35  C   UNL A   1      38.954  30.420  31.009  1.00  0.00     0.074 A 
ATOM     36  C   UNL A   1      39.380  28.995  29.035  1.00  0.00     0.049 A 
ATOM     37  N   UNL A   1      39.995  30.135  31.749  1.00  0.00    -0.248 NA
ATOM     38  C   UNL A   1      38.072  31.443  31.598  1.00  0.00     0.031 C 
ATOM     39  C   UNL A   1      39.168  28.451  27.693  1.00  0.00     0.029 A 
ATOM     40  N   UNL A   1      40.557  28.420  29.444  1.00  0.00    -0.354 N 
ATOM     41  C   UNL A   1      39.912  30.962  32.864  1.00  0.00     0.074 A 
ATOM     42  C   UNL A   1      38.743  31.793  32.685  1.00  0.00     0.031 C 
ATOM     43  C   UNL A   1      40.170  27.608  27.396  1.00  0.00     0.029 A 
ATOM     44  C   UNL A   1      41.107  27.566  28.515  1.00  0.00     0.049 A 
ATOM     45  H   UNL A   1      40.970  28.600  30.319  1.00  0.00     0.167 HD
ATOM     46  C   UNL A   1      40.710  31.004  33.958  1.00  0.00     0.034 A 
ATOM     47  C   UNL A   1      42.233  26.827  28.562  1.00  0.00     0.034 A 
ATOM     48  C   UNL A   1      41.838  30.138  34.164  1.00  0.00     0.049 A 
ATOM     49  C   UNL A   1      43.070  26.846  29.814  1.00  0.00     0.074 A 
ATOM     50  C   UNL A   1      42.650  30.034  35.279  1.00  0.00     0.029 A 
ATOM     51  N   UNL A   1      42.315  29.227  33.236  1.00  0.00    -0.354 N 
ATOM     52  N   UNL A   1      42.875  27.511  30.928  1.00  0.00    -0.248 NA
ATOM     53  C   UNL A   1      44.259  25.981  29.831  1.00  0.00     0.031 C 
ATOM     54  C   UNL A   1      43.632  29.071  35.017  1.00  0.00     0.029 A 
ATOM     55  C   UNL A   1      43.416  28.561  33.746  1.00  0.00     0.049 A 
ATOM     56  H   UNL A   1      41.927  29.075  32.344  1.00  0.00     0.167 HD
ATOM     57  C   UNL A   1      43.897  27.123  31.787  1.00  0.00     0.074 A 
ATOM     58  C   UNL A   1      44.692  26.144  31.074  1.00  0.00     0.031 C 
ATOM     59  C   UNL A   1      44.167  27.553  33.045  1.00  0.00     0.034 A 
BRANCH  46  60
ATOM     60  C   UNL A   1      40.349  31.980  35.051  1.00  0.00     0.023 A 
ATOM     61  C   UNL A   1      41.040  33.207  35.141  1.00  0.00     0.012 A 
ATOM     62  C   UNL A   1      39.298  31.714  35.950  1.00  0.00     0.148 A 
ATOM     63  C   UNL A   1      40.718  34.135  36.130  1.00  0.00     0.002 A 
ATOM     64  C   UNL A   1      38.953  32.664  36.906  1.00  0.00     0.091 A 
ATOM     65  F   UNL A   1      38.665  30.535  35.864  1.00  0.00    -0.205 F 
ATOM     66  C   UNL A   1      39.670  33.868  37.004  1.00  0.00     0.022 A 
BRANCH  64  67
ATOM     67  S   UNL A   1      37.568  32.450  38.031  1.00  0.00     0.127 S 
ATOM     68  O   UNL A   1      38.040  33.161  39.218  1.00  0.00    -0.237 OA
ATOM     69  O   UNL A   1      36.483  33.119  37.312  1.00  0.00    -0.237 OA
ATOM     70  O   UNL A   1      37.396  31.013  38.188  1.00  0.00    -0.744 OA
ENDBRANCH  64  67
ENDBRANCH  46  60
BRANCH  47  71
ATOM     71  C   UNL A   1      42.592  25.943  27.417  1.00  0.00     0.023 A 
ATOM     72  C   UNL A   1      43.395  26.452  26.376  1.00  0.00     0.012 A 
ATOM     73  C   UNL A   1      42.170  24.602  27.364  1.00  0.00     0.148 A 
ATOM     74  C   UNL A   1      43.743  25.650  25.289  1.00  0.00     0.002 A 
ATOM     75  C   UNL A   1      42.566  23.791  26.306  1.00  0.00     0.091 A 
ATOM     76  F   UNL A   1      41.395  24.140  28.355  1.00  0.00    -0.205 F 
ATOM     77  C   UNL A   1      43.339  24.318  25.259  1.00  0.00     0.022 A 
BRANCH  75  78
ATOM     78  S   UNL A   1      42.204  22.033  26.253  1.00  0.00     0.127 S 
ATOM     79  O   UNL A   1      40.753  22.030  26.096  1.00  0.00    -0.237 OA
ATOM     80  O   UNL A   1      42.954  21.603  25.073  1.00  0.00    -0.237 OA
ATOM     81  O   UNL A   1      42.709  21.492  27.509  1.00  0.00    -0.744 OA
ENDBRANCH  75  78
ENDBRANCH  47  71
BRANCH  59  82
ATOM     82  C   UNL A   1      45.360  26.956  33.745  1.00  0.00     0.023 A 
ATOM     83  C   UNL A   1      46.612  27.596  33.659  1.00  0.00     0.012 A 
ATOM     84  C   UNL A   1      45.228  25.801  34.540  1.00  0.00     0.148 A 
ATOM     85  C   UNL A   1      47.723  27.077  34.323  1.00  0.00     0.002 A 
ATOM     86  C   UNL A   1      46.327  25.315  35.238  1.00  0.00     0.091 A 
ATOM     87  F   UNL A   1      44.034  25.194  34.595  1.00  0.00    -0.205 F 
ATOM     88  C   UNL A   1      47.578  25.944  35.120  1.00  0.00     0.022 A 
BRANCH  86  89
ATOM     89  S   UNL A   1      46.210  23.920  36.363  1.00  0.00     0.127 S 
ATOM     90  O   UNL A   1      46.146  22.793  35.434  1.00  0.00    -0.237 OA
ATOM     91  O   UNL A   1      47.463  24.019  37.115  1.00  0.00    -0.237 OA
ATOM     92  O   UNL A   1      45.012  24.149  37.158  1.00  0.00    -0.744 OA
ENDBRANCH  86  89
ENDBRANCH  59  82
ENDBRANCH  33  34
ENDBRANCH  25  28
ENDBRANCH  23  24
ENDBRANCH  22  23
ENDBRANCH   1  22
TORSDOF 19
ENDMDL
MODEL 3
REMARK VINA RESULT:     -10.8      5.034     10.258
REMARK SMILES COc1cc(OC)cc(C(=O)C[C@H](C)CC(=O)NCCCNC(=O)c2ccc(-c3c4nc(c(-c5cccc(S(=O)(=O)[O-])c5F)c5ccc([nH]5)c(-c5cccc(S(=O)(=O)[O-])c5F)c5nc(c(-c6cccc(S(=O)(=O)[O-])c6F)c6ccc3[nH]6)C=C5)C=C4)cc2)c1
REMARK SMILES IDX 19 1 18 2 16 3 17 4 15 6 13 7 14 8 12 9 10 10 11 11 9 12
REMARK SMILES IDX 3 13 4 14 88 15 5 16 8 17 2 18 1 19 6 20 7 21 20 22 21 23
REMARK SMILES IDX 22 24 23 25 24 27 25 28 26 29 87 30 27 31 86 32 28 33 29 34
REMARK SMILES IDX 30 35 80 36 31 37 85 38 79 39 81 40 32 41 84 42 78 43 77 44
REMARK SMILES IDX 33 46 65 47 45 48 64 49 46 50 49 51 63 52 82 53 47 54 48 55
REMARK SMILES IDX 62 57 83 58 50 59 34 60 35 61 43 62 36 63 38 64 44 65 37 66
REMARK SMILES IDX 39 67 40 68 41 69 42 70 66 71 67 72 75 73 68 74 70 75 76 76
REMARK SMILES IDX 69 77 71 78 72 79 73 80 74 81 51 82 52 83 60 84 53 85 55 86
REMARK SMILES IDX 61 87 54 88 56 89 57 90 58 91 59 92
REMARK H PARENT 18 5 22 26 81 45 49 56
REMARK Flexibility Score: inf
ROOT
ATOM      1  C   UNL A   1      35.269  21.459  25.972  1.00  0.00     0.117 C 
ENDROOT
BRANCH   1   2
ATOM      2  N   UNL A   1      34.132  20.561  25.830  1.00  0.00    -0.356 N 
ATOM      3  C   UNL A   1      32.913  20.750  25.254  1.00  0.00     0.220 C 
ATOM      4  O   UNL A   1      32.121  19.805  25.230  1.00  0.00    -0.275 OA
ATOM      5  H   UNL A   1      34.267  19.664  26.214  1.00  0.00     0.163 HD
BRANCH   3   6
ATOM      6  C   UNL A   1      32.514  22.100  24.688  1.00  0.00     0.103 C 
BRANCH   6   7
ATOM      7  C   UNL A   1      32.823  22.186  23.183  1.00  0.00     0.003 C 
ATOM      8  C   UNL A   1      32.007  21.175  22.384  1.00  0.00     0.008 C 
BRANCH   7   9
ATOM      9  C   UNL A   1      32.611  23.615  22.651  1.00  0.00     0.085 C 
BRANCH   9  10
ATOM     10  C   UNL A   1      31.370  24.323  23.196  1.00  0.00     0.163 C 
ATOM     11  O   UNL A   1      30.265  23.786  23.170  1.00  0.00    -0.294 OA
BRANCH  10  12
ATOM     12  C   UNL A   1      31.499  25.698  23.753  1.00  0.00     0.025 A 
ATOM     13  C   UNL A   1      32.775  27.352  24.952  1.00  0.00     0.123 A 
ATOM     14  C   UNL A   1      31.840  28.323  24.597  1.00  0.00     0.092 A 
ATOM     15  C   UNL A   1      32.575  26.028  24.580  1.00  0.00     0.058 A 
ATOM     16  C   UNL A   1      30.720  27.986  23.828  1.00  0.00     0.123 A 
ATOM     17  C   UNL A   1      30.561  26.673  23.385  1.00  0.00     0.058 A 
BRANCH  13  18
ATOM     18  O   UNL A   1      33.841  27.749  25.712  1.00  0.00    -0.497 OA
ATOM     19  C   UNL A   1      33.760  29.121  26.111  1.00  0.00     0.278 C 
ENDBRANCH  13  18
BRANCH  16  20
ATOM     20  O   UNL A   1      29.877  29.029  23.566  1.00  0.00    -0.497 OA
ATOM     21  C   UNL A   1      30.041  29.697  22.318  1.00  0.00     0.278 C 
ENDBRANCH  16  20
ENDBRANCH  10  12
ENDBRANCH   9  10
ENDBRANCH   7   9
ENDBRANCH   6   7
ENDBRANCH   3   6
ENDBRANCH   1   2
BRANCH   1  22
ATOM     22  C   UNL A   1      36.052  21.648  24.674  1.00  0.00     0.042 C 
BRANCH  22  23
ATOM     23  C   UNL A   1      37.491  22.098  24.866  1.00  0.00     0.118 C 
BRANCH  23  24
ATOM     24  N   UNL A   1      38.275  21.077  25.535  1.00  0.00    -0.352 N 
ATOM     25  C   UNL A   1      39.445  21.198  26.245  1.00  0.00     0.251 C 
ATOM     26  H   UNL A   1      37.916  20.163  25.471  1.00  0.00     0.163 HD
ATOM     27  O   UNL A   1      40.112  20.186  26.451  1.00  0.00    -0.269 OA
BRANCH  25  28
ATOM     28  C   UNL A   1      39.910  22.509  26.765  1.00  0.00     0.039 A 
ATOM     29  C   UNL A   1      39.375  23.676  26.208  1.00  0.00     0.014 A 
ATOM     30  C   UNL A   1      40.929  22.611  27.717  1.00  0.00     0.014 A 
ATOM     31  C   UNL A   1      39.858  24.929  26.602  1.00  0.00     0.010 A 
ATOM     32  C   UNL A   1      41.343  23.863  28.178  1.00  0.00     0.010 A 
ATOM     33  C   UNL A   1      40.847  25.035  27.594  1.00  0.00    -0.014 A 
BRANCH  33  34
ATOM     34  C   UNL A   1      41.411  26.359  27.972  1.00  0.00     0.031 A 
ATOM     35  C   UNL A   1      42.839  26.708  27.621  1.00  0.00     0.074 A 
ATOM     36  C   UNL A   1      40.660  27.242  28.658  1.00  0.00     0.049 A 
ATOM     37  N   UNL A   1      43.497  27.816  27.847  1.00  0.00    -0.248 NA
ATOM     38  C   UNL A   1      43.639  25.668  26.952  1.00  0.00     0.031 C 
ATOM     39  C   UNL A   1      39.295  27.001  29.133  1.00  0.00     0.029 A 
ATOM     40  N   UNL A   1      40.940  28.515  29.089  1.00  0.00    -0.354 N 
ATOM     41  C   UNL A   1      44.790  27.594  27.384  1.00  0.00     0.074 A 
ATOM     42  C   UNL A   1      44.837  26.231  26.904  1.00  0.00     0.031 C 
ATOM     43  C   UNL A   1      38.852  28.095  29.772  1.00  0.00     0.029 A 
ATOM     44  C   UNL A   1      39.904  29.108  29.773  1.00  0.00     0.049 A 
ATOM     45  H   UNL A   1      41.801  28.962  28.923  1.00  0.00     0.167 HD
ATOM     46  C   UNL A   1      45.835  28.454  27.325  1.00  0.00     0.034 A 
ATOM     47  C   UNL A   1      39.809  30.331  30.331  1.00  0.00     0.034 A 
ATOM     48  C   UNL A   1      45.772  29.826  27.747  1.00  0.00     0.049 A 
ATOM     49  C   UNL A   1      40.963  31.289  30.198  1.00  0.00     0.074 A 
ATOM     50  C   UNL A   1      46.744  30.805  27.639  1.00  0.00     0.029 A 
ATOM     51  N   UNL A   1      44.678  30.415  28.359  1.00  0.00    -0.354 N 
ATOM     52  N   UNL A   1      42.118  31.113  29.601  1.00  0.00    -0.248 NA
ATOM     53  C   UNL A   1      40.785  32.628  30.779  1.00  0.00     0.031 C 
ATOM     54  C   UNL A   1      46.243  31.983  28.204  1.00  0.00     0.029 A 
ATOM     55  C   UNL A   1      44.951  31.742  28.644  1.00  0.00     0.049 A 
ATOM     56  H   UNL A   1      43.831  29.957  28.562  1.00  0.00     0.167 HD
ATOM     57  C   UNL A   1      42.790  32.325  29.708  1.00  0.00     0.074 A 
ATOM     58  C   UNL A   1      41.902  33.235  30.402  1.00  0.00     0.031 C 
ATOM     59  C   UNL A   1      44.039  32.651  29.290  1.00  0.00     0.034 A 
BRANCH  46  60
ATOM     60  C   UNL A   1      47.123  27.951  26.720  1.00  0.00     0.023 A 
ATOM     61  C   UNL A   1      48.133  27.442  27.563  1.00  0.00     0.012 A 
ATOM     62  C   UNL A   1      47.314  27.929  25.324  1.00  0.00     0.148 A 
ATOM     63  C   UNL A   1      49.326  26.955  27.031  1.00  0.00     0.002 A 
ATOM     64  C   UNL A   1      48.489  27.400  24.799  1.00  0.00     0.091 A 
ATOM     65  F   UNL A   1      46.353  28.434  24.539  1.00  0.00    -0.205 F 
ATOM     66  C   UNL A   1      49.499  26.925  25.652  1.00  0.00     0.022 A 
BRANCH  64  67
ATOM     67  S   UNL A   1      48.779  27.245  23.033  1.00  0.00     0.127 S 
ATOM     68  O   UNL A   1      50.234  27.355  22.961  1.00  0.00    -0.237 OA
ATOM     69  O   UNL A   1      48.255  25.907  22.752  1.00  0.00    -0.237 OA
ATOM     70  O   UNL A   1      48.036  28.330  22.407  1.00  0.00    -0.744 OA
ENDBRANCH  64  67
ENDBRANCH  46  60
BRANCH  47  71
ATOM     71  C   UNL A   1      38.542  30.749  30.995  1.00  0.00     0.023 A 
ATOM     72  C   UNL A   1      38.373  30.511  32.374  1.00  0.00     0.012 A 
ATOM     73  C   UNL A   1      37.519  31.404  30.283  1.00  0.00     0.148 A 
ATOM     74  C   UNL A   1      37.197  30.887  33.023  1.00  0.00     0.002 A 
ATOM     75  C   UNL A   1      36.373  31.826  30.946  1.00  0.00     0.091 A 
ATOM     76  F   UNL A   1      37.691  31.609  28.970  1.00  0.00    -0.205 F 
ATOM     77  C   UNL A   1      36.202  31.554  32.313  1.00  0.00     0.022 A 
BRANCH  75  78
ATOM     78  S   UNL A   1      35.102  32.807  30.141  1.00  0.00     0.127 S 
ATOM     79  O   UNL A   1      35.871  33.941  29.640  1.00  0.00    -0.237 OA
ATOM     80  O   UNL A   1      34.615  31.888  29.112  1.00  0.00    -0.237 OA
ATOM     81  O   UNL A   1      34.125  33.109  31.180  1.00  0.00    -0.744 OA
ENDBRANCH  75  78
ENDBRANCH  47  71
BRANCH  59  82
ATOM     82  C   UNL A   1      44.517  34.055  29.550  1.00  0.00     0.023 A 
ATOM     83  C   UNL A   1      45.142  34.364  30.775  1.00  0.00     0.012 A 
ATOM     84  C   UNL A   1      44.409  35.051  28.560  1.00  0.00     0.148 A 
ATOM     85  C   UNL A   1      45.619  35.650  31.025  1.00  0.00     0.002 A 
ATOM     86  C   UNL A   1      44.929  36.318  28.796  1.00  0.00     0.091 A 
ATOM     87  F   UNL A   1      43.795  34.744  27.408  1.00  0.00    -0.205 F 
ATOM     88  C   UNL A   1      45.522  36.623  30.032  1.00  0.00     0.022 A 
BRANCH  86  89
ATOM     89  S   UNL A   1      44.935  37.603  27.541  1.00  0.00     0.127 S 
ATOM     90  O   UNL A   1      45.494  38.735  28.277  1.00  0.00    -0.237 OA
ATOM     91  O   UNL A   1      45.824  37.040  26.522  1.00  0.00    -0.237 OA
ATOM     92  O   UNL A   1      43.550  37.751  27.116  1.00  0.00    -0.744 OA
ENDBRANCH  86  89
ENDBRANCH  59  82
ENDBRANCH  33  34
ENDBRANCH  25  28
ENDBRANCH  23  24
ENDBRANCH  22  23
ENDBRANCH   1  22
TORSDOF 19
ENDMDL
