MODEL 1
REMARK VINA RESULT:     -11.2      0.000      0.000
REMARK SMILES CCc1ccc(S(=O)(=O)N[C@H](C(=O)NCCCNC(=O)c2ccc(-c3c4nc(c(-c5cccc(S(=O)(=O)[O-])c5F)c5ccc([nH]5)c(-c5cccc(S(=O)(=O)[O-])c5F)c5nc(c(-c6cccc(S(=O)(=O)[O-])c6F)c6ccc3[nH]6)C=C5)C=C4)cc2)C(C)C)cc1
REMARK SMILES IDX 15 1 14 2 12 3 13 4 11 6 10 7 7 9 8 10 9 11 6 12 3 13 4 14
REMARK SMILES IDX 88 15 5 16 87 17 2 18 1 19 84 20 85 21 86 22 16 23 17 24
REMARK SMILES IDX 18 25 19 26 20 28 21 29 22 30 83 31 23 32 82 33 24 34 25 35
REMARK SMILES IDX 26 36 76 37 27 38 81 39 75 40 77 41 28 42 80 43 74 44 73 45
REMARK SMILES IDX 29 47 61 48 41 49 60 50 42 51 45 52 59 53 78 54 43 55 44 56
REMARK SMILES IDX 58 58 79 59 46 60 30 61 31 62 39 63 32 64 34 65 40 66 33 67
REMARK SMILES IDX 35 68 36 69 37 70 38 71 62 72 63 73 71 74 64 75 66 76 72 77
REMARK SMILES IDX 65 78 67 79 68 80 69 81 70 82 47 83 48 84 56 85 49 86 51 87
REMARK SMILES IDX 57 88 50 89 52 90 53 91 54 92 55 93
REMARK H PARENT 14 5 10 8 18 27 77 46 45 57
REMARK Flexibility Score: inf
ROOT
ATOM      1  C   UNL A   1      36.479  20.783  25.321  1.00  0.00     0.117 C 
ENDROOT
BRANCH   1   2
ATOM      2  N   UNL A   1      36.869  22.040  25.937  1.00  0.00    -0.355 N 
ATOM      3  C   UNL A   1      36.292  23.269  25.846  1.00  0.00     0.238 C 
ATOM      4  O   UNL A   1      36.922  24.239  26.281  1.00  0.00    -0.273 OA
ATOM      5  H   UNL A   1      37.671  21.995  26.506  1.00  0.00     0.163 HD
BRANCH   3   6
ATOM      6  C   UNL A   1      34.874  23.421  25.286  1.00  0.00     0.161 C 
BRANCH   6   7
ATOM      7  N   UNL A   1      33.977  23.607  26.446  1.00  0.00    -0.198 NA
ATOM      8  H   UNL A   1      34.547  23.429  27.273  1.00  0.00     0.142 HD
BRANCH   7   9
ATOM      9  S   UNL A   1      32.577  22.734  26.658  1.00  0.00     0.241 S 
ATOM     10  O   UNL A   1      31.485  23.546  26.169  1.00  0.00    -0.207 OA
ATOM     11  O   UNL A   1      32.609  22.249  28.022  1.00  0.00    -0.207 OA
BRANCH   9  12
ATOM     12  C   UNL A   1      32.653  21.291  25.622  1.00  0.00     0.082 A 
ATOM     13  C   UNL A   1      32.828  19.096  23.866  1.00  0.00    -0.048 A 
ATOM     14  C   UNL A   1      32.379  20.341  23.407  1.00  0.00     0.005 A 
ATOM     15  C   UNL A   1      33.126  18.954  25.230  1.00  0.00     0.005 A 
ATOM     16  C   UNL A   1      32.313  21.438  24.272  1.00  0.00     0.022 A 
ATOM     17  C   UNL A   1      33.010  20.038  26.109  1.00  0.00     0.022 A 
BRANCH  13  18
ATOM     18  C   UNL A   1      32.927  17.898  22.948  1.00  0.00     0.032 C 
ATOM     19  C   UNL A   1      34.101  16.973  23.251  1.00  0.00     0.009 C 
ENDBRANCH  13  18
ENDBRANCH   9  12
ENDBRANCH   7   9
ENDBRANCH   6   7
BRANCH   6  20
ATOM     20  C   UNL A   1      34.805  24.661  24.362  1.00  0.00     0.010 C 
ATOM     21  C   UNL A   1      34.131  24.339  23.022  1.00  0.00     0.009 C 
ATOM     22  C   UNL A   1      34.040  25.806  25.033  1.00  0.00     0.009 C 
ENDBRANCH   6  20
ENDBRANCH   3   6
ENDBRANCH   1   2
BRANCH   1  23
ATOM     23  C   UNL A   1      37.701  19.944  24.971  1.00  0.00     0.042 C 
BRANCH  23  24
ATOM     24  C   UNL A   1      38.977  20.437  25.638  1.00  0.00     0.118 C 
BRANCH  24  25
ATOM     25  N   UNL A   1      39.938  19.363  25.846  1.00  0.00    -0.352 N 
ATOM     26  C   UNL A   1      41.287  19.453  26.095  1.00  0.00     0.251 C 
ATOM     27  H   UNL A   1      39.573  18.449  25.803  1.00  0.00     0.163 HD
ATOM     28  O   UNL A   1      41.993  18.451  26.035  1.00  0.00    -0.269 OA
BRANCH  26  29
ATOM     29  C   UNL A   1      41.875  20.769  26.419  1.00  0.00     0.039 A 
ATOM     30  C   UNL A   1      42.181  21.657  25.385  1.00  0.00     0.014 A 
ATOM     31  C   UNL A   1      42.099  21.128  27.750  1.00  0.00     0.014 A 
ATOM     32  C   UNL A   1      42.658  22.934  25.693  1.00  0.00     0.010 A 
ATOM     33  C   UNL A   1      42.484  22.426  28.055  1.00  0.00     0.010 A 
ATOM     34  C   UNL A   1      42.785  23.338  27.032  1.00  0.00    -0.014 A 
BRANCH  34  35
ATOM     35  C   UNL A   1      43.265  24.692  27.409  1.00  0.00     0.031 A 
ATOM     36  C   UNL A   1      42.300  25.667  28.029  1.00  0.00     0.074 A 
ATOM     37  C   UNL A   1      44.517  25.081  27.097  1.00  0.00     0.049 A 
ATOM     38  N   UNL A   1      42.460  26.939  28.284  1.00  0.00    -0.248 NA
ATOM     39  C   UNL A   1      40.964  25.150  28.375  1.00  0.00     0.031 C 
ATOM     40  C   UNL A   1      45.530  24.244  26.450  1.00  0.00     0.029 A 
ATOM     41  N   UNL A   1      45.137  26.297  27.246  1.00  0.00    -0.354 N 
ATOM     42  C   UNL A   1      41.235  27.382  28.770  1.00  0.00     0.074 A 
ATOM     43  C   UNL A   1      40.333  26.254  28.742  1.00  0.00     0.031 C 
ATOM     44  C   UNL A   1      46.642  24.973  26.256  1.00  0.00     0.029 A 
ATOM     45  C   UNL A   1      46.407  26.337  26.718  1.00  0.00     0.049 A 
ATOM     46  H   UNL A   1      44.714  27.067  27.691  1.00  0.00     0.167 HD
ATOM     47  C   UNL A   1      40.898  28.613  29.223  1.00  0.00     0.034 A 
ATOM     48  C   UNL A   1      47.274  27.362  26.597  1.00  0.00     0.034 A 
ATOM     49  C   UNL A   1      41.812  29.719  29.286  1.00  0.00     0.049 A 
ATOM     50  C   UNL A   1      46.880  28.720  27.118  1.00  0.00     0.074 A 
ATOM     51  C   UNL A   1      41.593  30.985  29.798  1.00  0.00     0.029 A 
ATOM     52  N   UNL A   1      43.115  29.694  28.817  1.00  0.00    -0.354 N 
ATOM     53  N   UNL A   1      45.757  29.090  27.684  1.00  0.00    -0.248 NA
ATOM     54  C   UNL A   1      47.880  29.793  27.012  1.00  0.00     0.031 C 
ATOM     55  C   UNL A   1      42.754  31.738  29.605  1.00  0.00     0.029 A 
ATOM     56  C   UNL A   1      43.712  30.925  29.021  1.00  0.00     0.049 A 
ATOM     57  H   UNL A   1      43.552  28.916  28.402  1.00  0.00     0.167 HD
ATOM     58  C   UNL A   1      45.936  30.419  28.052  1.00  0.00     0.074 A 
ATOM     59  C   UNL A   1      47.275  30.791  27.643  1.00  0.00     0.031 C 
ATOM     60  C   UNL A   1      45.069  31.257  28.672  1.00  0.00     0.034 A 
BRANCH  47  61
ATOM     61  C   UNL A   1      39.490  28.818  29.717  1.00  0.00     0.023 A 
ATOM     62  C   UNL A   1      39.155  28.480  31.045  1.00  0.00     0.012 A 
ATOM     63  C   UNL A   1      38.510  29.392  28.883  1.00  0.00     0.148 A 
ATOM     64  C   UNL A   1      37.859  28.669  31.521  1.00  0.00     0.002 A 
ATOM     65  C   UNL A   1      37.235  29.626  29.381  1.00  0.00     0.091 A 
ATOM     66  F   UNL A   1      38.840  29.689  27.618  1.00  0.00    -0.205 F 
ATOM     67  C   UNL A   1      36.903  29.251  30.694  1.00  0.00     0.022 A 
BRANCH  65  68
ATOM     68  S   UNL A   1      35.957  30.449  28.424  1.00  0.00     0.127 S 
ATOM     69  O   UNL A   1      35.100  30.989  29.478  1.00  0.00    -0.237 OA
ATOM     70  O   UNL A   1      36.725  31.454  27.688  1.00  0.00    -0.237 OA
ATOM     71  O   UNL A   1      35.350  29.419  27.593  1.00  0.00    -0.744 OA
ENDBRANCH  65  68
ENDBRANCH  47  61
BRANCH  48  72
ATOM     72  C   UNL A   1      48.621  27.138  25.998  1.00  0.00     0.023 A 
ATOM     73  C   UNL A   1      49.658  26.625  26.802  1.00  0.00     0.012 A 
ATOM     74  C   UNL A   1      48.877  27.415  24.641  1.00  0.00     0.148 A 
ATOM     75  C   UNL A   1      50.935  26.428  26.276  1.00  0.00     0.002 A 
ATOM     76  C   UNL A   1      50.136  27.162  24.109  1.00  0.00     0.091 A 
ATOM     77  F   UNL A   1      47.878  27.907  23.895  1.00  0.00    -0.205 F 
ATOM     78  C   UNL A   1      51.172  26.688  24.929  1.00  0.00     0.022 A 
BRANCH  76  79
ATOM     79  S   UNL A   1      50.500  27.347  22.360  1.00  0.00     0.127 S 
ATOM     80  O   UNL A   1      50.308  28.782  22.166  1.00  0.00    -0.237 OA
ATOM     81  O   UNL A   1      51.891  26.897  22.295  1.00  0.00    -0.237 OA
ATOM     82  O   UNL A   1      49.555  26.484  21.666  1.00  0.00    -0.744 OA
ENDBRANCH  76  79
ENDBRANCH  48  72
BRANCH  60  83
ATOM     83  C   UNL A   1      45.547  32.636  29.037  1.00  0.00     0.023 A 
ATOM     84  C   UNL A   1      46.314  32.841  30.200  1.00  0.00     0.012 A 
ATOM     85  C   UNL A   1      45.338  33.707  28.145  1.00  0.00     0.148 A 
ATOM     86  C   UNL A   1      46.854  34.097  30.476  1.00  0.00     0.002 A 
ATOM     87  C   UNL A   1      45.923  34.940  28.399  1.00  0.00     0.091 A 
ATOM     88  F   UNL A   1      44.590  33.491  27.053  1.00  0.00    -0.205 F 
ATOM     89  C   UNL A   1      46.673  35.140  29.570  1.00  0.00     0.022 A 
BRANCH  87  90
ATOM     90  S   UNL A   1      45.835  36.307  27.238  1.00  0.00     0.127 S 
ATOM     91  O   UNL A   1      46.795  35.891  26.216  1.00  0.00    -0.237 OA
ATOM     92  O   UNL A   1      44.436  36.263  26.815  1.00  0.00    -0.237 OA
ATOM     93  O   UNL A   1      46.207  37.501  27.986  1.00  0.00    -0.744 OA
ENDBRANCH  87  90
ENDBRANCH  60  83
ENDBRANCH  34  35
ENDBRANCH  26  29
ENDBRANCH  24  25
ENDBRANCH  23  24
ENDBRANCH   1  23
TORSDOF 18
ENDMDL
MODEL 2
REMARK VINA RESULT:     -11.2      5.667     10.533
REMARK SMILES CCc1ccc(S(=O)(=O)N[C@H](C(=O)NCCCNC(=O)c2ccc(-c3c4nc(c(-c5cccc(S(=O)(=O)[O-])c5F)c5ccc([nH]5)c(-c5cccc(S(=O)(=O)[O-])c5F)c5nc(c(-c6cccc(S(=O)(=O)[O-])c6F)c6ccc3[nH]6)C=C5)C=C4)cc2)C(C)C)cc1
REMARK SMILES IDX 15 1 14 2 12 3 13 4 11 6 10 7 7 9 8 10 9 11 6 12 3 13 4 14
REMARK SMILES IDX 88 15 5 16 87 17 2 18 1 19 84 20 85 21 86 22 16 23 17 24
REMARK SMILES IDX 18 25 19 26 20 28 21 29 22 30 83 31 23 32 82 33 24 34 25 35
REMARK SMILES IDX 26 36 76 37 27 38 81 39 75 40 77 41 28 42 80 43 74 44 73 45
REMARK SMILES IDX 29 47 61 48 41 49 60 50 42 51 45 52 59 53 78 54 43 55 44 56
REMARK SMILES IDX 58 58 79 59 46 60 30 61 31 62 39 63 32 64 34 65 40 66 33 67
REMARK SMILES IDX 35 68 36 69 37 70 38 71 62 72 63 73 71 74 64 75 66 76 72 77
REMARK SMILES IDX 65 78 67 79 68 80 69 81 70 82 47 83 48 84 56 85 49 86 51 87
REMARK SMILES IDX 57 88 50 89 52 90 53 91 54 92 55 93
REMARK H PARENT 14 5 10 8 18 27 77 46 45 57
REMARK Flexibility Score: inf
ROOT
ATOM      1  C   UNL A   1      32.726  26.701  26.305  1.00  0.00     0.117 C 
ENDROOT
BRANCH   1   2
ATOM      2  N   UNL A   1      31.775  25.772  26.891  1.00  0.00    -0.355 N 
ATOM      3  C   UNL A   1      31.558  24.457  26.612  1.00  0.00     0.238 C 
ATOM      4  O   UNL A   1      30.549  23.923  27.084  1.00  0.00    -0.273 OA
ATOM      5  H   UNL A   1      31.201  26.150  27.596  1.00  0.00     0.163 HD
BRANCH   3   6
ATOM      6  C   UNL A   1      32.582  23.659  25.798  1.00  0.00     0.161 C 
BRANCH   6   7
ATOM      7  N   UNL A   1      32.850  24.439  24.572  1.00  0.00    -0.198 NA
ATOM      8  H   UNL A   1      32.865  25.418  24.859  1.00  0.00     0.142 HD
BRANCH   7   9
ATOM      9  S   UNL A   1      31.876  24.373  23.225  1.00  0.00     0.241 S 
ATOM     10  O   UNL A   1      30.890  23.341  23.457  1.00  0.00    -0.207 OA
ATOM     11  O   UNL A   1      32.769  24.325  22.086  1.00  0.00    -0.207 OA
BRANCH   9  12
ATOM     12  C   UNL A   1      30.994  25.911  23.093  1.00  0.00     0.082 A 
ATOM     13  C   UNL A   1      29.646  28.358  22.738  1.00  0.00    -0.048 A 
ATOM     14  C   UNL A   1      30.922  28.162  22.193  1.00  0.00     0.005 A 
ATOM     15  C   UNL A   1      29.087  27.332  23.515  1.00  0.00     0.005 A 
ATOM     16  C   UNL A   1      31.583  26.940  22.349  1.00  0.00     0.022 A 
ATOM     17  C   UNL A   1      29.770  26.128  23.717  1.00  0.00     0.022 A 
BRANCH  13  18
ATOM     18  C   UNL A   1      28.900  29.662  22.567  1.00  0.00     0.032 C 
ATOM     19  C   UNL A   1      29.176  30.689  23.661  1.00  0.00     0.009 C 
ENDBRANCH  13  18
ENDBRANCH   9  12
ENDBRANCH   7   9
ENDBRANCH   6   7
BRANCH   6  20
ATOM     20  C   UNL A   1      33.887  23.493  26.613  1.00  0.00     0.010 C 
ATOM     21  C   UNL A   1      34.062  22.059  27.129  1.00  0.00     0.009 C 
ATOM     22  C   UNL A   1      35.112  23.864  25.773  1.00  0.00     0.009 C 
ENDBRANCH   6  20
ENDBRANCH   3   6
ENDBRANCH   1   2
BRANCH   1  23
ATOM     23  C   UNL A   1      32.044  28.007  25.916  1.00  0.00     0.042 C 
BRANCH  23  24
ATOM     24  C   UNL A   1      33.027  29.127  25.606  1.00  0.00     0.118 C 
BRANCH  24  25
ATOM     25  N   UNL A   1      32.506  30.434  25.982  1.00  0.00    -0.352 N 
ATOM     26  C   UNL A   1      32.974  31.302  26.940  1.00  0.00     0.251 C 
ATOM     27  H   UNL A   1      31.712  30.736  25.484  1.00  0.00     0.163 HD
ATOM     28  O   UNL A   1      32.297  32.267  27.281  1.00  0.00    -0.269 OA
BRANCH  26  29
ATOM     29  C   UNL A   1      34.290  31.049  27.562  1.00  0.00     0.039 A 
ATOM     30  C   UNL A   1      35.216  32.091  27.655  1.00  0.00     0.014 A 
ATOM     31  C   UNL A   1      34.593  29.786  28.073  1.00  0.00     0.014 A 
ATOM     32  C   UNL A   1      36.428  31.878  28.318  1.00  0.00     0.010 A 
ATOM     33  C   UNL A   1      35.756  29.603  28.810  1.00  0.00     0.010 A 
ATOM     34  C   UNL A   1      36.694  30.641  28.926  1.00  0.00    -0.014 A 
BRANCH  34  35
ATOM     35  C   UNL A   1      37.957  30.374  29.661  1.00  0.00     0.031 A 
ATOM     36  C   UNL A   1      38.972  29.439  29.060  1.00  0.00     0.074 A 
ATOM     37  C   UNL A   1      38.141  30.872  30.899  1.00  0.00     0.049 A 
ATOM     38  N   UNL A   1      40.057  28.943  29.595  1.00  0.00    -0.248 NA
ATOM     39  C   UNL A   1      38.713  28.971  27.687  1.00  0.00     0.031 C 
ATOM     40  C   UNL A   1      37.208  31.750  31.609  1.00  0.00     0.029 A 
ATOM     41  N   UNL A   1      39.162  30.676  31.797  1.00  0.00    -0.354 N 
ATOM     42  C   UNL A   1      40.579  28.070  28.647  1.00  0.00     0.074 A 
ATOM     43  C   UNL A   1      39.675  28.077  27.519  1.00  0.00     0.031 C 
ATOM     44  C   UNL A   1      37.698  32.012  32.832  1.00  0.00     0.029 A 
ATOM     45  C   UNL A   1      38.951  31.287  33.013  1.00  0.00     0.049 A 
ATOM     46  H   UNL A   1      39.968  30.151  31.591  1.00  0.00     0.167 HD
ATOM     47  C   UNL A   1      41.721  27.346  28.700  1.00  0.00     0.034 A 
ATOM     48  C   UNL A   1      39.673  31.246  34.150  1.00  0.00     0.034 A 
ATOM     49  C   UNL A   1      42.636  27.375  29.807  1.00  0.00     0.049 A 
ATOM     50  C   UNL A   1      40.946  30.442  34.181  1.00  0.00     0.074 A 
ATOM     51  C   UNL A   1      43.857  26.738  29.928  1.00  0.00     0.029 A 
ATOM     52  N   UNL A   1      42.426  28.072  30.986  1.00  0.00    -0.354 N 
ATOM     53  N   UNL A   1      41.485  29.717  33.231  1.00  0.00    -0.248 NA
ATOM     54  C   UNL A   1      41.727  30.473  35.426  1.00  0.00     0.031 C 
ATOM     55  C   UNL A   1      44.370  27.023  31.197  1.00  0.00     0.029 A 
ATOM     56  C   UNL A   1      43.492  27.877  31.844  1.00  0.00     0.049 A 
ATOM     57  H   UNL A   1      41.637  28.626  31.183  1.00  0.00     0.167 HD
ATOM     58  C   UNL A   1      42.692  29.253  33.744  1.00  0.00     0.074 A 
ATOM     59  C   UNL A   1      42.805  29.777  35.088  1.00  0.00     0.031 C 
ATOM     60  C   UNL A   1      43.622  28.463  33.153  1.00  0.00     0.034 A 
BRANCH  47  61
ATOM     61  C   UNL A   1      42.063  26.486  27.511  1.00  0.00     0.023 A 
ATOM     62  C   UNL A   1      42.742  27.047  26.410  1.00  0.00     0.012 A 
ATOM     63  C   UNL A   1      41.758  25.110  27.506  1.00  0.00     0.148 A 
ATOM     64  C   UNL A   1      43.072  26.265  25.305  1.00  0.00     0.002 A 
ATOM     65  C   UNL A   1      42.138  24.326  26.424  1.00  0.00     0.091 A 
ATOM     66  F   UNL A   1      41.096  24.597  28.552  1.00  0.00    -0.205 F 
ATOM     67  C   UNL A   1      42.780  24.904  25.316  1.00  0.00     0.022 A 
BRANCH  65  68
ATOM     68  S   UNL A   1      41.884  22.548  26.379  1.00  0.00     0.127 S 
ATOM     69  O   UNL A   1      42.539  22.126  27.616  1.00  0.00    -0.237 OA
ATOM     70  O   UNL A   1      40.424  22.448  26.398  1.00  0.00    -0.237 OA
ATOM     71  O   UNL A   1      42.510  22.082  25.151  1.00  0.00    -0.744 OA
ENDBRANCH  65  68
ENDBRANCH  47  61
BRANCH  48  72
ATOM     72  C   UNL A   1      39.237  32.028  35.342  1.00  0.00     0.023 A 
ATOM     73  C   UNL A   1      38.362  31.438  36.274  1.00  0.00     0.012 A 
ATOM     74  C   UNL A   1      39.692  33.342  35.565  1.00  0.00     0.148 A 
ATOM     75  C   UNL A   1      37.918  32.154  37.387  1.00  0.00     0.002 A 
ATOM     76  C   UNL A   1      39.291  34.030  36.705  1.00  0.00     0.091 A 
ATOM     77  F   UNL A   1      40.521  33.888  34.663  1.00  0.00    -0.205 F 
ATOM     78  C   UNL A   1      38.389  33.445  37.606  1.00  0.00     0.022 A 
BRANCH  76  79
ATOM     79  S   UNL A   1      39.942  35.648  37.136  1.00  0.00     0.127 S 
ATOM     80  O   UNL A   1      39.248  35.924  38.391  1.00  0.00    -0.237 OA
ATOM     81  O   UNL A   1      41.372  35.369  37.270  1.00  0.00    -0.237 OA
ATOM     82  O   UNL A   1      39.602  36.521  36.021  1.00  0.00    -0.744 OA
ENDBRANCH  76  79
ENDBRANCH  48  72
BRANCH  60  83
ATOM     83  C   UNL A   1      44.894  28.175  33.904  1.00  0.00     0.023 A 
ATOM     84  C   UNL A   1      45.965  29.088  33.869  1.00  0.00     0.012 A 
ATOM     85  C   UNL A   1      44.966  27.051  34.751  1.00  0.00     0.148 A 
ATOM     86  C   UNL A   1      47.097  28.877  34.657  1.00  0.00     0.002 A 
ATOM     87  C   UNL A   1      46.072  26.876  35.571  1.00  0.00     0.091 A 
ATOM     88  F   UNL A   1      43.939  26.187  34.753  1.00  0.00    -0.205 F 
ATOM     89  C   UNL A   1      47.143  27.782  35.518  1.00  0.00     0.022 A 
BRANCH  87  90
ATOM     90  S   UNL A   1      46.171  25.559  36.789  1.00  0.00     0.127 S 
ATOM     91  O   UNL A   1      44.898  25.708  37.492  1.00  0.00    -0.237 OA
ATOM     92  O   UNL A   1      46.267  24.368  35.946  1.00  0.00    -0.237 OA
ATOM     93  O   UNL A   1      47.356  25.835  37.590  1.00  0.00    -0.744 OA
ENDBRANCH  87  90
ENDBRANCH  60  83
ENDBRANCH  34  35
ENDBRANCH  26  29
ENDBRANCH  24  25
ENDBRANCH  23  24
ENDBRANCH   1  23
TORSDOF 18
ENDMDL
MODEL 3
REMARK VINA RESULT:     -11.1      1.878      2.898
REMARK SMILES CCc1ccc(S(=O)(=O)N[C@H](C(=O)NCCCNC(=O)c2ccc(-c3c4nc(c(-c5cccc(S(=O)(=O)[O-])c5F)c5ccc([nH]5)c(-c5cccc(S(=O)(=O)[O-])c5F)c5nc(c(-c6cccc(S(=O)(=O)[O-])c6F)c6ccc3[nH]6)C=C5)C=C4)cc2)C(C)C)cc1
REMARK SMILES IDX 15 1 14 2 12 3 13 4 11 6 10 7 7 9 8 10 9 11 6 12 3 13 4 14
REMARK SMILES IDX 88 15 5 16 87 17 2 18 1 19 84 20 85 21 86 22 16 23 17 24
REMARK SMILES IDX 18 25 19 26 20 28 21 29 22 30 83 31 23 32 82 33 24 34 25 35
REMARK SMILES IDX 26 36 76 37 27 38 81 39 75 40 77 41 28 42 80 43 74 44 73 45
REMARK SMILES IDX 29 47 61 48 41 49 60 50 42 51 45 52 59 53 78 54 43 55 44 56
REMARK SMILES IDX 58 58 79 59 46 60 30 61 31 62 39 63 32 64 34 65 40 66 33 67
REMARK SMILES IDX 35 68 36 69 37 70 38 71 62 72 63 73 71 74 64 75 66 76 72 77
REMARK SMILES IDX 65 78 67 79 68 80 69 81 70 82 47 83 48 84 56 85 49 86 51 87
REMARK SMILES IDX 57 88 50 89 52 90 53 91 54 92 55 93
REMARK H PARENT 14 5 10 8 18 27 77 46 45 57
REMARK Flexibility Score: inf
ROOT
ATOM      1  C   UNL A   1      36.779  20.432  25.095  1.00  0.00     0.117 C 
ENDROOT
BRANCH   1   2
ATOM      2  N   UNL A   1      36.979  21.661  25.843  1.00  0.00    -0.355 N 
ATOM      3  C   UNL A   1      36.269  22.822  25.816  1.00  0.00     0.238 C 
ATOM      4  O   UNL A   1      36.752  23.811  26.377  1.00  0.00    -0.273 OA
ATOM      5  H   UNL A   1      37.744  21.654  26.463  1.00  0.00     0.163 HD
BRANCH   3   6
ATOM      6  C   UNL A   1      34.881  22.866  25.169  1.00  0.00     0.161 C 
BRANCH   6   7
ATOM      7  N   UNL A   1      33.961  23.433  26.179  1.00  0.00    -0.198 NA
ATOM      8  H   UNL A   1      34.377  23.225  27.086  1.00  0.00     0.142 HD
BRANCH   7   9
ATOM      9  S   UNL A   1      32.361  22.991  26.296  1.00  0.00     0.241 S 
ATOM     10  O   UNL A   1      32.015  22.997  27.700  1.00  0.00    -0.207 OA
ATOM     11  O   UNL A   1      32.213  21.801  25.484  1.00  0.00    -0.207 OA
BRANCH   9  12
ATOM     12  C   UNL A   1      31.374  24.246  25.514  1.00  0.00     0.082 A 
ATOM     13  C   UNL A   1      29.719  26.121  24.219  1.00  0.00    -0.048 A 
ATOM     14  C   UNL A   1      30.053  24.913  23.592  1.00  0.00     0.005 A 
ATOM     15  C   UNL A   1      30.279  26.399  25.475  1.00  0.00     0.005 A 
ATOM     16  C   UNL A   1      30.857  23.971  24.242  1.00  0.00     0.022 A 
ATOM     17  C   UNL A   1      31.126  25.480  26.105  1.00  0.00     0.022 A 
BRANCH  13  18
ATOM     18  C   UNL A   1      28.836  27.148  23.546  1.00  0.00     0.032 C 
ATOM     19  C   UNL A   1      29.558  28.433  23.154  1.00  0.00     0.009 C 
ENDBRANCH  13  18
ENDBRANCH   9  12
ENDBRANCH   7   9
ENDBRANCH   6   7
BRANCH   6  20
ATOM     20  C   UNL A   1      34.914  23.775  23.917  1.00  0.00     0.010 C 
ATOM     21  C   UNL A   1      34.018  23.236  22.795  1.00  0.00     0.009 C 
ATOM     22  C   UNL A   1      34.468  25.200  24.258  1.00  0.00     0.009 C 
ENDBRANCH   6  20
ENDBRANCH   3   6
ENDBRANCH   1   2
BRANCH   1  23
ATOM     23  C   UNL A   1      38.098  19.700  24.885  1.00  0.00     0.042 C 
BRANCH  23  24
ATOM     24  C   UNL A   1      39.193  20.150  25.841  1.00  0.00     0.118 C 
BRANCH  24  25
ATOM     25  N   UNL A   1      40.292  19.197  25.905  1.00  0.00    -0.352 N 
ATOM     26  C   UNL A   1      41.635  19.444  26.063  1.00  0.00     0.251 C 
ATOM     27  H   UNL A   1      40.040  18.248  25.825  1.00  0.00     0.163 HD
ATOM     28  O   UNL A   1      42.452  18.546  25.883  1.00  0.00    -0.269 OA
BRANCH  26  29
ATOM     29  C   UNL A   1      42.081  20.802  26.436  1.00  0.00     0.039 A 
ATOM     30  C   UNL A   1      42.274  21.116  27.784  1.00  0.00     0.014 A 
ATOM     31  C   UNL A   1      42.329  21.755  25.445  1.00  0.00     0.014 A 
ATOM     32  C   UNL A   1      42.775  22.372  28.133  1.00  0.00     0.010 A 
ATOM     33  C   UNL A   1      42.913  22.966  25.789  1.00  0.00     0.010 A 
ATOM     34  C   UNL A   1      43.127  23.296  27.136  1.00  0.00    -0.014 A 
BRANCH  34  35
ATOM     35  C   UNL A   1      43.686  24.634  27.457  1.00  0.00     0.031 A 
ATOM     36  C   UNL A   1      42.760  25.720  27.937  1.00  0.00     0.074 A 
ATOM     37  C   UNL A   1      44.983  24.906  27.215  1.00  0.00     0.049 A 
ATOM     38  N   UNL A   1      43.002  26.992  28.119  1.00  0.00    -0.248 NA
ATOM     39  C   UNL A   1      41.366  25.330  28.216  1.00  0.00     0.031 C 
ATOM     40  C   UNL A   1      45.969  23.952  26.703  1.00  0.00     0.029 A 
ATOM     41  N   UNL A   1      45.685  26.081  27.329  1.00  0.00    -0.354 N 
ATOM     42  C   UNL A   1      41.786  27.559  28.481  1.00  0.00     0.074 A 
ATOM     43  C   UNL A   1      40.801  26.501  28.461  1.00  0.00     0.031 C 
ATOM     44  C   UNL A   1      47.146  24.580  26.543  1.00  0.00     0.029 A 
ATOM     45  C   UNL A   1      46.989  25.988  26.895  1.00  0.00     0.049 A 
ATOM     46  H   UNL A   1      45.295  26.910  27.689  1.00  0.00     0.167 HD
ATOM     47  C   UNL A   1      41.516  28.840  28.825  1.00  0.00     0.034 A 
ATOM     48  C   UNL A   1      47.940  26.935  26.772  1.00  0.00     0.034 A 
ATOM     49  C   UNL A   1      42.508  29.877  28.883  1.00  0.00     0.049 A 
ATOM     50  C   UNL A   1      47.619  28.351  27.170  1.00  0.00     0.074 A 
ATOM     51  C   UNL A   1      42.355  31.190  29.291  1.00  0.00     0.029 A 
ATOM     52  N   UNL A   1      43.835  29.722  28.515  1.00  0.00    -0.354 N 
ATOM     53  N   UNL A   1      46.493  28.844  27.625  1.00  0.00    -0.248 NA
ATOM     54  C   UNL A   1      48.706  29.337  27.069  1.00  0.00     0.031 C 
ATOM     55  C   UNL A   1      43.583  31.838  29.137  1.00  0.00     0.029 A 
ATOM     56  C   UNL A   1      44.512  30.917  28.680  1.00  0.00     0.049 A 
ATOM     57  H   UNL A   1      44.237  28.886  28.186  1.00  0.00     0.167 HD
ATOM     58  C   UNL A   1      46.751  30.179  27.916  1.00  0.00     0.074 A 
ATOM     59  C   UNL A   1      48.139  30.420  27.585  1.00  0.00     0.031 C 
ATOM     60  C   UNL A   1      45.911  31.121  28.413  1.00  0.00     0.034 A 
BRANCH  47  61
ATOM     61  C   UNL A   1      40.098  29.184  29.198  1.00  0.00     0.023 A 
ATOM     62  C   UNL A   1      39.164  29.503  28.190  1.00  0.00     0.012 A 
ATOM     63  C   UNL A   1      39.676  29.142  30.541  1.00  0.00     0.148 A 
ATOM     64  C   UNL A   1      37.846  29.817  28.516  1.00  0.00     0.002 A 
ATOM     65  C   UNL A   1      38.348  29.404  30.854  1.00  0.00     0.091 A 
ATOM     66  F   UNL A   1      40.581  28.856  31.488  1.00  0.00    -0.205 F 
ATOM     67  C   UNL A   1      37.436  29.757  29.845  1.00  0.00     0.022 A 
BRANCH  65  68
ATOM     68  S   UNL A   1      37.701  29.270  32.524  1.00  0.00     0.127 S 
ATOM     69  O   UNL A   1      38.576  30.186  33.253  1.00  0.00    -0.237 OA
ATOM     70  O   UNL A   1      36.326  29.743  32.358  1.00  0.00    -0.237 OA
ATOM     71  O   UNL A   1      37.822  27.867  32.892  1.00  0.00    -0.744 OA
ENDBRANCH  65  68
ENDBRANCH  47  61
BRANCH  48  72
ATOM     72  C   UNL A   1      49.303  26.568  26.292  1.00  0.00     0.023 A 
ATOM     73  C   UNL A   1      50.112  25.728  27.081  1.00  0.00     0.012 A 
ATOM     74  C   UNL A   1      49.797  27.034  25.058  1.00  0.00     0.148 A 
ATOM     75  C   UNL A   1      51.401  25.388  26.670  1.00  0.00     0.002 A 
ATOM     76  C   UNL A   1      51.060  26.645  24.627  1.00  0.00     0.091 A 
ATOM     77  F   UNL A   1      49.014  27.836  24.323  1.00  0.00    -0.205 F 
ATOM     78  C   UNL A   1      51.871  25.839  25.440  1.00  0.00     0.022 A 
BRANCH  76  79
ATOM     79  S   UNL A   1      51.701  27.073  23.004  1.00  0.00     0.127 S 
ATOM     80  O   UNL A   1      52.826  26.150  22.875  1.00  0.00    -0.237 OA
ATOM     81  O   UNL A   1      50.557  26.776  22.142  1.00  0.00    -0.237 OA
ATOM     82  O   UNL A   1      52.049  28.486  23.077  1.00  0.00    -0.744 OA
ENDBRANCH  76  79
ENDBRANCH  48  72
BRANCH  60  83
ATOM     83  C   UNL A   1      46.471  32.484  28.720  1.00  0.00     0.023 A 
ATOM     84  C   UNL A   1      47.098  32.736  29.955  1.00  0.00     0.012 A 
ATOM     85  C   UNL A   1      46.485  33.476  27.719  1.00  0.00     0.148 A 
ATOM     86  C   UNL A   1      47.717  33.963  30.195  1.00  0.00     0.002 A 
ATOM     87  C   UNL A   1      47.149  34.674  27.944  1.00  0.00     0.091 A 
ATOM     88  F   UNL A   1      45.866  33.217  26.557  1.00  0.00    -0.205 F 
ATOM     89  C   UNL A   1      47.757  34.923  29.185  1.00  0.00     0.022 A 
BRANCH  87  90
ATOM     90  S   UNL A   1      47.346  35.922  26.668  1.00  0.00     0.127 S 
ATOM     91  O   UNL A   1      48.336  36.812  27.274  1.00  0.00    -0.237 OA
ATOM     92  O   UNL A   1      47.843  35.133  25.541  1.00  0.00    -0.237 OA
ATOM     93  O   UNL A   1      46.028  36.509  26.467  1.00  0.00    -0.744 OA
ENDBRANCH  87  90
ENDBRANCH  60  83
ENDBRANCH  34  35
ENDBRANCH  26  29
ENDBRANCH  24  25
ENDBRANCH  23  24
ENDBRANCH   1  23
TORSDOF 18
ENDMDL
