MODEL 1
REMARK VINA RESULT:     -12.6      0.000      0.000
REMARK SMILES O=C(C[C@@H](c1ccc(Cl)c(Cl)c1)N1Cc2ccccc2C1=O)NCCCNC(=O)c1ccc(-c2c3nc(c(-c4cccc(S(=O)(=O)[O-])c4F)c4ccc([nH]4)c(-c4cccc(S(=O)(=O)[O-])c4F)c4nc(c(-c5cccc(S(=O)(=O)[O-])c5F)c5ccc2[nH]5)C=C4)C=C3)cc1
REMARK SMILES IDX 25 1 24 2 23 3 1 4 2 5 3 7 4 8 5 9 6 10 12 11 7 12 10 13
REMARK SMILES IDX 8 14 11 15 9 16 13 17 14 18 21 19 15 20 20 21 22 22 16 23
REMARK SMILES IDX 19 24 17 25 18 26 26 27 27 28 28 29 29 31 30 32 31 33 92 34
REMARK SMILES IDX 32 35 91 36 33 37 34 38 35 39 85 40 36 41 90 42 84 43 86 44
REMARK SMILES IDX 37 45 89 46 83 47 82 48 38 50 70 51 50 52 69 53 51 54 54 55
REMARK SMILES IDX 68 56 87 57 52 58 53 59 67 61 88 62 55 63 39 64 40 65 48 66
REMARK SMILES IDX 41 67 43 68 49 69 42 70 44 71 45 72 46 73 47 74 71 75 72 76
REMARK SMILES IDX 80 77 73 78 75 79 81 80 74 81 76 82 77 83 78 84 79 85 56 86
REMARK SMILES IDX 57 87 65 88 58 89 60 90 66 91 59 92 61 93 62 94 63 95 64 96
REMARK H PARENT 23 6 27 30 86 49 54 60
REMARK Flexibility Score: inf
ROOT
ATOM      1  C   UNL A   1      31.606  31.665  26.775  1.00  0.00     0.042 C 
ENDROOT
BRANCH   1   2
ATOM      2  C   UNL A   1      31.631  30.169  27.093  1.00  0.00     0.117 C 
BRANCH   2   3
ATOM      3  N   UNL A   1      32.622  29.471  26.299  1.00  0.00    -0.356 N 
ATOM      4  O   UNL A   1      32.273  27.361  27.120  1.00  0.00    -0.275 OA
ATOM      5  C   UNL A   1      32.900  28.131  26.399  1.00  0.00     0.222 C 
ATOM      6  H   UNL A   1      33.132  29.996  25.640  1.00  0.00     0.163 HD
BRANCH   5   7
ATOM      7  C   UNL A   1      34.091  27.659  25.578  1.00  0.00     0.130 C 
BRANCH   7   8
ATOM      8  C   UNL A   1      33.699  26.931  24.278  1.00  0.00     0.125 C 
BRANCH   8   9
ATOM      9  C   UNL A   1      33.758  25.403  24.313  1.00  0.00    -0.023 A 
ATOM     10  C   UNL A   1      33.700  24.616  23.151  1.00  0.00     0.007 A 
ATOM     11  C   UNL A   1      33.904  24.745  25.546  1.00  0.00     0.028 A 
ATOM     12  C   UNL A   1      33.658  23.222  23.228  1.00  0.00     0.022 A 
ATOM     13  C   UNL A   1      33.907  23.346  25.624  1.00  0.00     0.060 A 
ATOM     14  C   UNL A   1      33.750  22.583  24.464  1.00  0.00     0.059 A 
ATOM     15  Cl  UNL A   1      34.110  22.633  27.185  1.00  0.00    -0.083 Cl
ATOM     16  Cl  UNL A   1      33.663  20.860  24.490  1.00  0.00    -0.083 Cl
ENDBRANCH   8   9
BRANCH   8  17
ATOM     17  N   UNL A   1      32.380  27.349  23.803  1.00  0.00    -0.327 N 
ATOM     18  C   UNL A   1      31.158  26.666  24.201  1.00  0.00     0.157 C 
ATOM     19  C   UNL A   1      32.134  28.452  23.002  1.00  0.00     0.255 C 
ATOM     20  C   UNL A   1      30.097  27.498  23.564  1.00  0.00    -0.016 A 
ATOM     21  C   UNL A   1      30.678  28.555  22.863  1.00  0.00     0.045 A 
ATOM     22  O   UNL A   1      32.934  29.214  22.495  1.00  0.00    -0.269 OA
ATOM     23  C   UNL A   1      28.720  27.361  23.599  1.00  0.00     0.006 A 
ATOM     24  C   UNL A   1      29.936  29.508  22.194  1.00  0.00     0.014 A 
ATOM     25  C   UNL A   1      27.945  28.312  22.923  1.00  0.00     0.000 A 
ATOM     26  C   UNL A   1      28.547  29.379  22.230  1.00  0.00     0.001 A 
ENDBRANCH   8  17
ENDBRANCH   7   8
ENDBRANCH   5   7
ENDBRANCH   2   3
ENDBRANCH   1   2
BRANCH   1  27
ATOM     27  C   UNL A   1      32.825  32.464  27.240  1.00  0.00     0.118 C 
BRANCH  27  28
ATOM     28  N   UNL A   1      32.524  33.847  27.580  1.00  0.00    -0.352 N 
ATOM     29  C   UNL A   1      33.092  34.663  28.530  1.00  0.00     0.251 C 
ATOM     30  H   UNL A   1      31.807  34.261  27.048  1.00  0.00     0.163 HD
ATOM     31  O   UNL A   1      32.594  35.764  28.752  1.00  0.00    -0.269 OA
BRANCH  29  32
ATOM     32  C   UNL A   1      34.269  34.214  29.311  1.00  0.00     0.039 A 
ATOM     33  C   UNL A   1      34.055  33.475  30.478  1.00  0.00     0.014 A 
ATOM     34  C   UNL A   1      35.574  34.523  28.915  1.00  0.00     0.014 A 
ATOM     35  C   UNL A   1      35.145  32.983  31.203  1.00  0.00     0.010 A 
ATOM     36  C   UNL A   1      36.659  33.975  29.602  1.00  0.00     0.010 A 
ATOM     37  C   UNL A   1      36.458  33.192  30.750  1.00  0.00    -0.014 A 
BRANCH  37  38
ATOM     38  C   UNL A   1      37.618  32.560  31.439  1.00  0.00     0.031 A 
ATOM     39  C   UNL A   1      38.355  31.405  30.815  1.00  0.00     0.074 A 
ATOM     40  C   UNL A   1      37.965  32.979  32.674  1.00  0.00     0.049 A 
ATOM     41  N   UNL A   1      39.356  30.711  31.293  1.00  0.00    -0.248 NA
ATOM     42  C   UNL A   1      37.896  30.958  29.490  1.00  0.00     0.031 C 
ATOM     43  C   UNL A   1      37.293  34.041  33.425  1.00  0.00     0.029 A 
ATOM     44  N   UNL A   1      38.950  32.544  33.527  1.00  0.00    -0.354 N 
ATOM     45  C   UNL A   1      39.626  29.727  30.348  1.00  0.00     0.074 A 
ATOM     46  C   UNL A   1      38.665  29.898  29.281  1.00  0.00     0.031 C 
ATOM     47  C   UNL A   1      37.885  34.178  34.621  1.00  0.00     0.029 A 
ATOM     48  C   UNL A   1      38.953  33.192  34.742  1.00  0.00     0.049 A 
ATOM     49  H   UNL A   1      39.594  31.838  33.292  1.00  0.00     0.167 HD
ATOM     50  C   UNL A   1      40.599  28.784  30.355  1.00  0.00     0.034 A 
ATOM     51  C   UNL A   1      39.717  33.005  35.838  1.00  0.00     0.034 A 
ATOM     52  C   UNL A   1      41.573  28.629  31.404  1.00  0.00     0.049 A 
ATOM     53  C   UNL A   1      40.795  31.956  35.814  1.00  0.00     0.074 A 
ATOM     54  C   UNL A   1      42.647  27.757  31.458  1.00  0.00     0.029 A 
ATOM     55  N   UNL A   1      41.582  29.344  32.592  1.00  0.00    -0.354 N 
ATOM     56  N   UNL A   1      41.136  31.144  34.844  1.00  0.00    -0.248 NA
ATOM     57  C   UNL A   1      41.617  31.821  37.026  1.00  0.00     0.031 C 
ATOM     58  C   UNL A   1      43.282  27.917  32.694  1.00  0.00     0.029 A 
ATOM     59  C   UNL A   1      42.630  28.919  33.393  1.00  0.00     0.049 A 
ATOM     60  H   UNL A   1      40.940  30.050  32.830  1.00  0.00     0.167 HD
ATOM     61  C   UNL A   1      42.232  30.426  35.315  1.00  0.00     0.074 A 
ATOM     62  C   UNL A   1      42.511  30.918  36.647  1.00  0.00     0.031 C 
ATOM     63  C   UNL A   1      42.931  29.441  34.702  1.00  0.00     0.034 A 
BRANCH  50  64
ATOM     64  C   UNL A   1      40.687  27.857  29.167  1.00  0.00     0.023 A 
ATOM     65  C   UNL A   1      39.845  26.729  29.097  1.00  0.00     0.012 A 
ATOM     66  C   UNL A   1      41.553  28.139  28.092  1.00  0.00     0.148 A 
ATOM     67  C   UNL A   1      39.890  25.874  27.996  1.00  0.00     0.002 A 
ATOM     68  C   UNL A   1      41.558  27.309  26.977  1.00  0.00     0.091 A 
ATOM     69  F   UNL A   1      42.358  29.207  28.182  1.00  0.00    -0.205 F 
ATOM     70  C   UNL A   1      40.738  26.170  26.933  1.00  0.00     0.022 A 
BRANCH  68  71
ATOM     71  S   UNL A   1      42.552  27.648  25.518  1.00  0.00     0.127 S 
ATOM     72  O   UNL A   1      42.281  26.469  24.697  1.00  0.00    -0.237 OA
ATOM     73  O   UNL A   1      41.954  28.887  25.021  1.00  0.00    -0.237 OA
ATOM     74  O   UNL A   1      43.924  27.778  25.986  1.00  0.00    -0.744 OA
ENDBRANCH  68  71
ENDBRANCH  50  64
BRANCH  51  75
ATOM     75  C   UNL A   1      39.515  33.860  37.042  1.00  0.00     0.023 A 
ATOM     76  C   UNL A   1      39.986  35.187  37.039  1.00  0.00     0.012 A 
ATOM     77  C   UNL A   1      38.851  33.370  38.184  1.00  0.00     0.148 A 
ATOM     78  C   UNL A   1      39.833  35.999  38.164  1.00  0.00     0.002 A 
ATOM     79  C   UNL A   1      38.648  34.203  39.278  1.00  0.00     0.091 A 
ATOM     80  F   UNL A   1      38.418  32.101  38.171  1.00  0.00    -0.205 F 
ATOM     81  C   UNL A   1      39.156  35.512  39.277  1.00  0.00     0.022 A 
BRANCH  79  82
ATOM     82  S   UNL A   1      37.677  33.704  40.704  1.00  0.00     0.127 S 
ATOM     83  O   UNL A   1      38.537  32.691  41.312  1.00  0.00    -0.237 OA
ATOM     84  O   UNL A   1      37.577  34.958  41.451  1.00  0.00    -0.237 OA
ATOM     85  O   UNL A   1      36.412  33.219  40.170  1.00  0.00    -0.744 OA
ENDBRANCH  79  82
ENDBRANCH  51  75
BRANCH  63  86
ATOM     86  C   UNL A   1      44.100  28.843  35.446  1.00  0.00     0.023 A 
ATOM     87  C   UNL A   1      45.393  29.374  35.271  1.00  0.00     0.012 A 
ATOM     88  C   UNL A   1      43.903  27.796  36.369  1.00  0.00     0.148 A 
ATOM     89  C   UNL A   1      46.478  28.848  35.974  1.00  0.00     0.002 A 
ATOM     90  C   UNL A   1      44.979  27.314  37.106  1.00  0.00     0.091 A 
ATOM     91  F   UNL A   1      42.668  27.292  36.511  1.00  0.00    -0.205 F 
ATOM     92  C   UNL A   1      46.269  27.828  36.899  1.00  0.00     0.022 A 
BRANCH  90  93
ATOM     93  S   UNL A   1      44.792  26.069  38.388  1.00  0.00     0.127 S 
ATOM     94  O   UNL A   1      44.288  24.928  37.625  1.00  0.00    -0.237 OA
ATOM     95  O   UNL A   1      46.163  25.919  38.874  1.00  0.00    -0.237 OA
ATOM     96  O   UNL A   1      43.861  26.627  39.360  1.00  0.00    -0.744 OA
ENDBRANCH  90  93
ENDBRANCH  63  86
ENDBRANCH  37  38
ENDBRANCH  29  32
ENDBRANCH  27  28
ENDBRANCH   1  27
TORSDOF 16
ENDMDL
MODEL 2
REMARK VINA RESULT:     -12.4      5.848     10.934
REMARK SMILES O=C(C[C@@H](c1ccc(Cl)c(Cl)c1)N1Cc2ccccc2C1=O)NCCCNC(=O)c1ccc(-c2c3nc(c(-c4cccc(S(=O)(=O)[O-])c4F)c4ccc([nH]4)c(-c4cccc(S(=O)(=O)[O-])c4F)c4nc(c(-c5cccc(S(=O)(=O)[O-])c5F)c5ccc2[nH]5)C=C4)C=C3)cc1
REMARK SMILES IDX 25 1 24 2 23 3 1 4 2 5 3 7 4 8 5 9 6 10 12 11 7 12 10 13
REMARK SMILES IDX 8 14 11 15 9 16 13 17 14 18 21 19 15 20 20 21 22 22 16 23
REMARK SMILES IDX 19 24 17 25 18 26 26 27 27 28 28 29 29 31 30 32 31 33 92 34
REMARK SMILES IDX 32 35 91 36 33 37 34 38 35 39 85 40 36 41 90 42 84 43 86 44
REMARK SMILES IDX 37 45 89 46 83 47 82 48 38 50 70 51 50 52 69 53 51 54 54 55
REMARK SMILES IDX 68 56 87 57 52 58 53 59 67 61 88 62 55 63 39 64 40 65 48 66
REMARK SMILES IDX 41 67 43 68 49 69 42 70 44 71 45 72 46 73 47 74 71 75 72 76
REMARK SMILES IDX 80 77 73 78 75 79 81 80 74 81 76 82 77 83 78 84 79 85 56 86
REMARK SMILES IDX 57 87 65 88 58 89 60 90 66 91 59 92 61 93 62 94 63 95 64 96
REMARK H PARENT 23 6 27 30 86 49 54 60
REMARK Flexibility Score: inf
ROOT
ATOM      1  C   UNL A   1      32.933  35.980  32.072  1.00  0.00     0.042 C 
ENDROOT
BRANCH   1   2
ATOM      2  C   UNL A   1      33.758  36.497  33.252  1.00  0.00     0.117 C 
BRANCH   2   3
ATOM      3  N   UNL A   1      34.285  35.409  34.051  1.00  0.00    -0.356 N 
ATOM      4  O   UNL A   1      36.350  35.254  33.072  1.00  0.00    -0.275 OA
ATOM      5  C   UNL A   1      35.522  34.840  33.877  1.00  0.00     0.222 C 
ATOM      6  H   UNL A   1      33.716  35.053  34.771  1.00  0.00     0.163 HD
BRANCH   5   7
ATOM      7  C   UNL A   1      35.788  33.608  34.729  1.00  0.00     0.130 C 
BRANCH   7   8
ATOM      8  C   UNL A   1      37.280  33.369  35.027  1.00  0.00     0.125 C 
BRANCH   8   9
ATOM      9  C   UNL A   1      37.693  33.412  36.499  1.00  0.00    -0.023 A 
ATOM     10  C   UNL A   1      38.571  34.382  37.011  1.00  0.00     0.007 A 
ATOM     11  C   UNL A   1      37.160  32.469  37.393  1.00  0.00     0.028 A 
ATOM     12  C   UNL A   1      39.003  34.331  38.339  1.00  0.00     0.022 A 
ATOM     13  C   UNL A   1      37.556  32.442  38.737  1.00  0.00     0.060 A 
ATOM     14  C   UNL A   1      38.505  33.355  39.203  1.00  0.00     0.059 A 
ATOM     15  Cl  UNL A   1      36.830  31.254  39.761  1.00  0.00    -0.083 Cl
ATOM     16  Cl  UNL A   1      39.102  33.332  40.822  1.00  0.00    -0.083 Cl
ENDBRANCH   8   9
BRANCH   8  17
ATOM     17  N   UNL A   1      37.754  32.119  34.432  1.00  0.00    -0.327 N 
ATOM     18  C   UNL A   1      36.911  31.295  33.579  1.00  0.00     0.157 C 
ATOM     19  C   UNL A   1      39.041  31.621  34.545  1.00  0.00     0.255 C 
ATOM     20  C   UNL A   1      37.843  30.215  33.144  1.00  0.00    -0.016 A 
ATOM     21  C   UNL A   1      39.101  30.416  33.712  1.00  0.00     0.045 A 
ATOM     22  O   UNL A   1      39.972  32.063  35.192  1.00  0.00    -0.269 OA
ATOM     23  C   UNL A   1      37.624  29.138  32.303  1.00  0.00     0.006 A 
ATOM     24  C   UNL A   1      40.176  29.586  33.464  1.00  0.00     0.014 A 
ATOM     25  C   UNL A   1      38.697  28.278  32.040  1.00  0.00     0.000 A 
ATOM     26  C   UNL A   1      39.964  28.501  32.612  1.00  0.00     0.001 A 
ENDBRANCH   8  17
ENDBRANCH   7   8
ENDBRANCH   5   7
ENDBRANCH   2   3
ENDBRANCH   1   2
BRANCH   1  27
ATOM     27  C   UNL A   1      33.659  35.925  30.727  1.00  0.00     0.118 C 
BRANCH  27  28
ATOM     28  N   UNL A   1      32.954  35.157  29.712  1.00  0.00    -0.352 N 
ATOM     29  C   UNL A   1      33.389  34.095  28.953  1.00  0.00     0.251 C 
ATOM     30  H   UNL A   1      32.026  35.438  29.544  1.00  0.00     0.163 HD
ATOM     31  O   UNL A   1      32.676  33.673  28.045  1.00  0.00    -0.269 OA
BRANCH  29  32
ATOM     32  C   UNL A   1      34.717  33.483  29.193  1.00  0.00     0.039 A 
ATOM     33  C   UNL A   1      35.797  33.899  28.409  1.00  0.00     0.014 A 
ATOM     34  C   UNL A   1      34.906  32.500  30.169  1.00  0.00     0.014 A 
ATOM     35  C   UNL A   1      37.075  33.388  28.652  1.00  0.00     0.010 A 
ATOM     36  C   UNL A   1      36.193  32.041  30.455  1.00  0.00     0.010 A 
ATOM     37  C   UNL A   1      37.295  32.484  29.706  1.00  0.00    -0.014 A 
BRANCH  37  38
ATOM     38  C   UNL A   1      38.671  32.038  30.059  1.00  0.00     0.031 A 
ATOM     39  C   UNL A   1      39.512  32.817  31.035  1.00  0.00     0.074 A 
ATOM     40  C   UNL A   1      39.200  30.962  29.438  1.00  0.00     0.049 A 
ATOM     41  N   UNL A   1      40.743  32.596  31.423  1.00  0.00    -0.248 NA
ATOM     42  C   UNL A   1      38.901  34.011  31.639  1.00  0.00     0.031 C 
ATOM     43  C   UNL A   1      38.522  30.156  28.421  1.00  0.00     0.029 A 
ATOM     44  N   UNL A   1      40.439  30.377  29.551  1.00  0.00    -0.354 N 
ATOM     45  C   UNL A   1      41.065  33.635  32.288  1.00  0.00     0.074 A 
ATOM     46  C   UNL A   1      39.909  34.503  32.346  1.00  0.00     0.031 C 
ATOM     47  C   UNL A   1      39.347  29.183  28.006  1.00  0.00     0.029 A 
ATOM     48  C   UNL A   1      40.626  29.315  28.696  1.00  0.00     0.049 A 
ATOM     49  H   UNL A   1      41.125  30.688  30.183  1.00  0.00     0.167 HD
ATOM     50  C   UNL A   1      42.207  33.838  32.989  1.00  0.00     0.034 A 
ATOM     51  C   UNL A   1      41.709  28.541  28.477  1.00  0.00     0.034 A 
ATOM     52  C   UNL A   1      43.348  32.961  32.952  1.00  0.00     0.049 A 
ATOM     53  C   UNL A   1      42.961  28.783  29.275  1.00  0.00     0.074 A 
ATOM     54  C   UNL A   1      44.516  33.040  33.691  1.00  0.00     0.029 A 
ATOM     55  N   UNL A   1      43.479  31.860  32.120  1.00  0.00    -0.354 N 
ATOM     56  N   UNL A   1      43.187  29.677  30.207  1.00  0.00    -0.248 NA
ATOM     57  C   UNL A   1      44.098  27.887  29.016  1.00  0.00     0.031 C 
ATOM     58  C   UNL A   1      45.369  32.010  33.279  1.00  0.00     0.029 A 
ATOM     59  C   UNL A   1      44.714  31.263  32.313  1.00  0.00     0.049 A 
ATOM     60  H   UNL A   1      42.794  31.547  31.486  1.00  0.00     0.167 HD
ATOM     61  C   UNL A   1      44.476  29.430  30.668  1.00  0.00     0.074 A 
ATOM     62  C   UNL A   1      44.971  28.287  29.930  1.00  0.00     0.031 C 
ATOM     63  C   UNL A   1      45.188  30.100  31.606  1.00  0.00     0.034 A 
BRANCH  50  64
ATOM     64  C   UNL A   1      42.272  35.044  33.892  1.00  0.00     0.023 A 
ATOM     65  C   UNL A   1      41.775  34.959  35.209  1.00  0.00     0.012 A 
ATOM     66  C   UNL A   1      42.886  36.238  33.463  1.00  0.00     0.148 A 
ATOM     67  C   UNL A   1      41.849  36.054  36.070  1.00  0.00     0.002 A 
ATOM     68  C   UNL A   1      43.000  37.308  34.343  1.00  0.00     0.091 A 
ATOM     69  F   UNL A   1      43.340  36.306  32.204  1.00  0.00    -0.205 F 
ATOM     70  C   UNL A   1      42.470  37.223  35.640  1.00  0.00     0.022 A 
BRANCH  68  71
ATOM     71  S   UNL A   1      43.857  38.829  33.916  1.00  0.00     0.127 S 
ATOM     72  O   UNL A   1      42.936  39.424  32.948  1.00  0.00    -0.237 OA
ATOM     73  O   UNL A   1      43.916  39.519  35.204  1.00  0.00    -0.237 OA
ATOM     74  O   UNL A   1      45.150  38.427  33.380  1.00  0.00    -0.744 OA
ENDBRANCH  68  71
ENDBRANCH  50  64
BRANCH  51  75
ATOM     75  C   UNL A   1      41.645  27.434  27.481  1.00  0.00     0.023 A 
ATOM     76  C   UNL A   1      42.019  27.677  26.145  1.00  0.00     0.012 A 
ATOM     77  C   UNL A   1      41.226  26.140  27.852  1.00  0.00     0.148 A 
ATOM     78  C   UNL A   1      41.943  26.664  25.189  1.00  0.00     0.002 A 
ATOM     79  C   UNL A   1      41.210  25.121  26.908  1.00  0.00     0.091 A 
ATOM     80  F   UNL A   1      40.866  25.931  29.126  1.00  0.00    -0.205 F 
ATOM     81  C   UNL A   1      41.549  25.385  25.571  1.00  0.00     0.022 A 
BRANCH  79  82
ATOM     82  S   UNL A   1      40.841  23.416  27.335  1.00  0.00     0.127 S 
ATOM     83  O   UNL A   1      39.394  23.464  27.535  1.00  0.00    -0.237 OA
ATOM     84  O   UNL A   1      41.275  22.705  26.132  1.00  0.00    -0.237 OA
ATOM     85  O   UNL A   1      41.633  23.126  28.523  1.00  0.00    -0.744 OA
ENDBRANCH  79  82
ENDBRANCH  51  75
BRANCH  63  86
ATOM     86  C   UNL A   1      46.573  29.597  31.927  1.00  0.00     0.023 A 
ATOM     87  C   UNL A   1      46.762  28.664  32.966  1.00  0.00     0.012 A 
ATOM     88  C   UNL A   1      47.680  30.001  31.154  1.00  0.00     0.148 A 
ATOM     89  C   UNL A   1      48.035  28.170  33.256  1.00  0.00     0.002 A 
ATOM     90  C   UNL A   1      48.937  29.464  31.412  1.00  0.00     0.091 A 
ATOM     91  F   UNL A   1      47.485  30.901  30.180  1.00  0.00    -0.205 F 
ATOM     92  C   UNL A   1      49.118  28.560  32.472  1.00  0.00     0.022 A 
BRANCH  90  93
ATOM     93  S   UNL A   1      50.372  29.831  30.397  1.00  0.00     0.127 S 
ATOM     94  O   UNL A   1      50.498  31.278  30.572  1.00  0.00    -0.237 OA
ATOM     95  O   UNL A   1      51.420  29.046  31.049  1.00  0.00    -0.237 OA
ATOM     96  O   UNL A   1      50.036  29.394  29.049  1.00  0.00    -0.744 OA
ENDBRANCH  90  93
ENDBRANCH  63  86
ENDBRANCH  37  38
ENDBRANCH  29  32
ENDBRANCH  27  28
ENDBRANCH   1  27
TORSDOF 16
ENDMDL
MODEL 3
REMARK VINA RESULT:     -12.4      6.495     11.624
REMARK SMILES O=C(C[C@@H](c1ccc(Cl)c(Cl)c1)N1Cc2ccccc2C1=O)NCCCNC(=O)c1ccc(-c2c3nc(c(-c4cccc(S(=O)(=O)[O-])c4F)c4ccc([nH]4)c(-c4cccc(S(=O)(=O)[O-])c4F)c4nc(c(-c5cccc(S(=O)(=O)[O-])c5F)c5ccc2[nH]5)C=C4)C=C3)cc1
REMARK SMILES IDX 25 1 24 2 23 3 1 4 2 5 3 7 4 8 5 9 6 10 12 11 7 12 10 13
REMARK SMILES IDX 8 14 11 15 9 16 13 17 14 18 21 19 15 20 20 21 22 22 16 23
REMARK SMILES IDX 19 24 17 25 18 26 26 27 27 28 28 29 29 31 30 32 31 33 92 34
REMARK SMILES IDX 32 35 91 36 33 37 34 38 35 39 85 40 36 41 90 42 84 43 86 44
REMARK SMILES IDX 37 45 89 46 83 47 82 48 38 50 70 51 50 52 69 53 51 54 54 55
REMARK SMILES IDX 68 56 87 57 52 58 53 59 67 61 88 62 55 63 39 64 40 65 48 66
REMARK SMILES IDX 41 67 43 68 49 69 42 70 44 71 45 72 46 73 47 74 71 75 72 76
REMARK SMILES IDX 80 77 73 78 75 79 81 80 74 81 76 82 77 83 78 84 79 85 56 86
REMARK SMILES IDX 57 87 65 88 58 89 60 90 66 91 59 92 61 93 62 94 63 95 64 96
REMARK H PARENT 23 6 27 30 86 49 54 60
REMARK Flexibility Score: inf
ROOT
ATOM      1  C   UNL A   1      37.817  20.166  24.817  1.00  0.00     0.042 C 
ENDROOT
BRANCH   1   2
ATOM      2  C   UNL A   1      37.277  21.438  24.161  1.00  0.00     0.117 C 
BRANCH   2   3
ATOM      3  N   UNL A   1      36.496  22.226  25.091  1.00  0.00    -0.356 N 
ATOM      4  O   UNL A   1      35.706  23.789  23.615  1.00  0.00    -0.275 OA
ATOM      5  C   UNL A   1      35.803  23.365  24.761  1.00  0.00     0.222 C 
ATOM      6  H   UNL A   1      36.457  21.924  26.027  1.00  0.00     0.163 HD
BRANCH   5   7
ATOM      7  C   UNL A   1      35.191  24.108  25.939  1.00  0.00     0.130 C 
BRANCH   7   8
ATOM      8  C   UNL A   1      33.680  23.862  26.111  1.00  0.00     0.125 C 
BRANCH   8   9
ATOM      9  C   UNL A   1      32.750  24.953  25.577  1.00  0.00    -0.023 A 
ATOM     10  C   UNL A   1      31.382  25.005  25.895  1.00  0.00     0.007 A 
ATOM     11  C   UNL A   1      33.274  25.967  24.758  1.00  0.00     0.028 A 
ATOM     12  C   UNL A   1      30.544  25.958  25.311  1.00  0.00     0.022 A 
ATOM     13  C   UNL A   1      32.444  26.952  24.205  1.00  0.00     0.060 A 
ATOM     14  C   UNL A   1      31.070  26.928  24.457  1.00  0.00     0.059 A 
ATOM     15  Cl  UNL A   1      33.187  28.166  23.225  1.00  0.00    -0.083 Cl
ATOM     16  Cl  UNL A   1      29.974  28.056  23.748  1.00  0.00    -0.083 Cl
ENDBRANCH   8   9
BRANCH   8  17
ATOM     17  N   UNL A   1      33.278  22.572  25.548  1.00  0.00    -0.327 N 
ATOM     18  C   UNL A   1      32.839  22.428  24.168  1.00  0.00     0.157 C 
ATOM     19  C   UNL A   1      33.331  21.360  26.217  1.00  0.00     0.255 C 
ATOM     20  C   UNL A   1      32.643  20.955  24.040  1.00  0.00    -0.016 A 
ATOM     21  C   UNL A   1      32.942  20.329  25.250  1.00  0.00     0.045 A 
ATOM     22  O   UNL A   1      33.638  21.145  27.374  1.00  0.00    -0.269 OA
ATOM     23  C   UNL A   1      32.247  20.204  22.948  1.00  0.00     0.006 A 
ATOM     24  C   UNL A   1      32.877  18.960  25.421  1.00  0.00     0.014 A 
ATOM     25  C   UNL A   1      32.168  18.813  23.097  1.00  0.00     0.000 A 
ATOM     26  C   UNL A   1      32.484  18.196  24.322  1.00  0.00     0.001 A 
ENDBRANCH   8  17
ENDBRANCH   7   8
ENDBRANCH   5   7
ENDBRANCH   2   3
ENDBRANCH   1   2
BRANCH   1  27
ATOM     27  C   UNL A   1      38.845  20.376  25.930  1.00  0.00     0.118 C 
BRANCH  27  28
ATOM     28  N   UNL A   1      39.890  19.363  25.961  1.00  0.00    -0.352 N 
ATOM     29  C   UNL A   1      41.247  19.505  26.133  1.00  0.00     0.251 C 
ATOM     30  H   UNL A   1      39.578  18.437  25.843  1.00  0.00     0.163 HD
ATOM     31  O   UNL A   1      41.977  18.528  25.987  1.00  0.00    -0.269 OA
BRANCH  29  32
ATOM     32  C   UNL A   1      41.839  20.826  26.453  1.00  0.00     0.039 A 
ATOM     33  C   UNL A   1      42.093  21.716  25.406  1.00  0.00     0.014 A 
ATOM     34  C   UNL A   1      42.154  21.191  27.765  1.00  0.00     0.014 A 
ATOM     35  C   UNL A   1      42.591  22.994  25.680  1.00  0.00     0.010 A 
ATOM     36  C   UNL A   1      42.588  22.488  28.043  1.00  0.00     0.010 A 
ATOM     37  C   UNL A   1      42.804  23.409  27.005  1.00  0.00    -0.014 A 
BRANCH  37  38
ATOM     38  C   UNL A   1      43.206  24.809  27.316  1.00  0.00     0.031 A 
ATOM     39  C   UNL A   1      42.238  25.768  27.956  1.00  0.00     0.074 A 
ATOM     40  C   UNL A   1      44.429  25.246  26.950  1.00  0.00     0.049 A 
ATOM     41  N   UNL A   1      42.406  27.031  28.256  1.00  0.00    -0.248 NA
ATOM     42  C   UNL A   1      40.901  25.250  28.284  1.00  0.00     0.031 C 
ATOM     43  C   UNL A   1      45.441  24.442  26.260  1.00  0.00     0.029 A 
ATOM     44  N   UNL A   1      45.020  26.479  27.080  1.00  0.00    -0.354 N 
ATOM     45  C   UNL A   1      41.193  27.467  28.776  1.00  0.00     0.074 A 
ATOM     46  C   UNL A   1      40.288  26.339  28.724  1.00  0.00     0.031 C 
ATOM     47  C   UNL A   1      46.525  25.199  26.032  1.00  0.00     0.029 A 
ATOM     48  C   UNL A   1      46.277  26.551  26.522  1.00  0.00     0.049 A 
ATOM     49  H   UNL A   1      44.587  27.239  27.531  1.00  0.00     0.167 HD
ATOM     50  C   UNL A   1      40.866  28.685  29.272  1.00  0.00     0.034 A 
ATOM     51  C   UNL A   1      47.129  27.589  26.402  1.00  0.00     0.034 A 
ATOM     52  C   UNL A   1      41.774  29.800  29.348  1.00  0.00     0.049 A 
ATOM     53  C   UNL A   1      46.744  28.927  26.970  1.00  0.00     0.074 A 
ATOM     54  C   UNL A   1      41.558  31.046  29.912  1.00  0.00     0.029 A 
ATOM     55  N   UNL A   1      43.059  29.817  28.828  1.00  0.00    -0.354 N 
ATOM     56  N   UNL A   1      45.650  29.273  27.603  1.00  0.00    -0.248 NA
ATOM     57  C   UNL A   1      47.728  30.013  26.839  1.00  0.00     0.031 C 
ATOM     58  C   UNL A   1      42.698  31.829  29.698  1.00  0.00     0.029 A 
ATOM     59  C   UNL A   1      43.640  31.057  29.040  1.00  0.00     0.049 A 
ATOM     60  H   UNL A   1      43.494  29.059  28.376  1.00  0.00     0.167 HD
ATOM     61  C   UNL A   1      45.826  30.602  27.973  1.00  0.00     0.074 A 
ATOM     62  C   UNL A   1      47.144  30.991  27.516  1.00  0.00     0.031 C 
ATOM     63  C   UNL A   1      44.968  31.428  28.620  1.00  0.00     0.034 A 
BRANCH  50  64
ATOM     64  C   UNL A   1      39.470  28.873  29.812  1.00  0.00     0.023 A 
ATOM     65  C   UNL A   1      39.172  28.474  31.131  1.00  0.00     0.012 A 
ATOM     66  C   UNL A   1      38.474  29.504  29.040  1.00  0.00     0.148 A 
ATOM     67  C   UNL A   1      37.895  28.663  31.659  1.00  0.00     0.002 A 
ATOM     68  C   UNL A   1      37.218  29.732  29.591  1.00  0.00     0.091 A 
ATOM     69  F   UNL A   1      38.771  29.862  27.784  1.00  0.00    -0.205 F 
ATOM     70  C   UNL A   1      36.923  29.300  30.894  1.00  0.00     0.022 A 
BRANCH  68  71
ATOM     71  S   UNL A   1      35.923  30.620  28.718  1.00  0.00     0.127 S 
ATOM     72  O   UNL A   1      35.217  29.528  28.049  1.00  0.00    -0.237 OA
ATOM     73  O   UNL A   1      35.183  31.240  29.817  1.00  0.00    -0.237 OA
ATOM     74  O   UNL A   1      36.600  31.558  27.834  1.00  0.00    -0.744 OA
ENDBRANCH  68  71
ENDBRANCH  50  64
BRANCH  51  75
ATOM     75  C   UNL A   1      48.454  27.393  25.748  1.00  0.00     0.023 A 
ATOM     76  C   UNL A   1      49.572  27.045  26.531  1.00  0.00     0.012 A 
ATOM     77  C   UNL A   1      48.611  27.541  24.355  1.00  0.00     0.148 A 
ATOM     78  C   UNL A   1      50.828  26.882  25.945  1.00  0.00     0.002 A 
ATOM     79  C   UNL A   1      49.852  27.319  23.771  1.00  0.00     0.091 A 
ATOM     80  F   UNL A   1      47.537  27.882  23.629  1.00  0.00    -0.205 F 
ATOM     81  C   UNL A   1      50.966  27.009  24.566  1.00  0.00     0.022 A 
BRANCH  79  82
ATOM     82  S   UNL A   1      50.097  27.333  21.991  1.00  0.00     0.127 S 
ATOM     83  O   UNL A   1      49.058  26.411  21.539  1.00  0.00    -0.237 OA
ATOM     84  O   UNL A   1      49.858  28.739  21.667  1.00  0.00    -0.237 OA
ATOM     85  O   UNL A   1      51.468  26.891  21.778  1.00  0.00    -0.744 OA
ENDBRANCH  79  82
ENDBRANCH  51  75
BRANCH  63  86
ATOM     86  C   UNL A   1      45.433  32.833  28.914  1.00  0.00     0.023 A 
ATOM     87  C   UNL A   1      46.159  33.104  30.091  1.00  0.00     0.012 A 
ATOM     88  C   UNL A   1      45.205  33.871  27.989  1.00  0.00     0.148 A 
ATOM     89  C   UNL A   1      46.618  34.394  30.361  1.00  0.00     0.002 A 
ATOM     90  C   UNL A   1      45.712  35.142  28.238  1.00  0.00     0.091 A 
ATOM     91  F   UNL A   1      44.498  33.599  26.882  1.00  0.00    -0.205 F 
ATOM     92  C   UNL A   1      46.405  35.408  29.430  1.00  0.00     0.022 A 
BRANCH  90  93
ATOM     93  S   UNL A   1      45.572  36.487  27.057  1.00  0.00     0.127 S 
ATOM     94  O   UNL A   1      46.280  37.565  27.747  1.00  0.00    -0.237 OA
ATOM     95  O   UNL A   1      46.272  35.948  25.891  1.00  0.00    -0.237 OA
ATOM     96  O   UNL A   1      44.145  36.706  26.860  1.00  0.00    -0.744 OA
ENDBRANCH  90  93
ENDBRANCH  63  86
ENDBRANCH  37  38
ENDBRANCH  29  32
ENDBRANCH  27  28
ENDBRANCH   1  27
TORSDOF 16
ENDMDL
