MODEL 1
REMARK VINA RESULT:     -11.2      0.000      0.000
REMARK SMILES O=C(C[C@H]1C(=O)NCCN1C(=O)CC1CCCC1)NCCCNC(=O)c1ccc(-c2c3nc(c(-c4cccc(S(=O)(=O)[O-])c4F)c4ccc([nH]4)c(-c4cccc(S(=O)(=O)[O-])c4F)c4nc(c(-c5cccc(S(=O)(=O)[O-])c5F)c5ccc2[nH]5)C=C4)C=C3)cc1
REMARK SMILES IDX 20 1 19 2 1 3 2 4 3 6 4 7 5 8 10 9 6 10 7 11 9 12 8 13 11 15
REMARK SMILES IDX 12 16 13 17 14 18 15 19 18 20 16 21 17 22 21 23 22 24 23 25
REMARK SMILES IDX 24 26 25 28 26 29 27 30 88 31 28 32 87 33 29 34 30 35 31 36
REMARK SMILES IDX 81 37 32 38 86 39 80 40 82 41 33 42 85 43 79 44 78 45 34 47
REMARK SMILES IDX 66 48 46 49 65 50 47 51 50 52 64 53 83 54 48 55 49 56 63 58
REMARK SMILES IDX 84 59 51 60 35 61 36 62 44 63 37 64 39 65 45 66 38 67 40 68
REMARK SMILES IDX 41 69 42 70 43 71 67 72 68 73 76 74 69 75 71 76 77 77 70 78
REMARK SMILES IDX 72 79 73 80 74 81 75 82 52 83 53 84 61 85 54 86 56 87 62 88
REMARK SMILES IDX 55 89 57 90 58 91 59 92 60 93
REMARK H PARENT 19 5 7 14 23 27 82 46 50 57
REMARK Flexibility Score: inf
ROOT
ATOM      1  C   UNL A   1      31.653  27.061  26.879  1.00  0.00     0.117 C 
ENDROOT
BRANCH   1   2
ATOM      2  N   UNL A   1      31.869  25.712  26.400  1.00  0.00    -0.356 N 
ATOM      3  O   UNL A   1      29.678  25.042  26.474  1.00  0.00    -0.275 OA
ATOM      4  C   UNL A   1      30.859  24.794  26.257  1.00  0.00     0.222 C 
ATOM      5  H   UNL A   1      32.786  25.440  26.165  1.00  0.00     0.163 HD
BRANCH   4   6
ATOM      6  C   UNL A   1      31.314  23.416  25.827  1.00  0.00     0.135 C 
BRANCH   6   7
ATOM      7  C   UNL A   1      32.832  23.249  25.986  1.00  0.00     0.183 C 
ATOM      8  C   UNL A   1      33.045  22.215  27.123  1.00  0.00     0.243 C 
ATOM      9  N   UNL A   1      33.483  22.815  24.728  1.00  0.00    -0.328 N 
ATOM     10  O   UNL A   1      32.775  22.492  28.294  1.00  0.00    -0.273 OA
ATOM     11  N   UNL A   1      33.337  20.919  26.786  1.00  0.00    -0.353 N 
ATOM     12  C   UNL A   1      33.262  21.413  24.369  1.00  0.00     0.141 C 
ATOM     13  C   UNL A   1      33.805  20.516  25.473  1.00  0.00     0.137 C 
ATOM     14  H   UNL A   1      33.223  20.223  27.474  1.00  0.00     0.163 HD
BRANCH   9  15
ATOM     15  C   UNL A   1      34.396  23.549  23.991  1.00  0.00     0.223 C 
ATOM     16  O   UNL A   1      34.271  23.692  22.771  1.00  0.00    -0.275 OA
BRANCH  15  17
ATOM     17  C   UNL A   1      35.569  24.219  24.691  1.00  0.00     0.103 C 
BRANCH  17  18
ATOM     18  C   UNL A   1      36.515  23.255  25.403  1.00  0.00    -0.002 C 
ATOM     19  C   UNL A   1      37.058  22.144  24.502  1.00  0.00     0.004 C 
ATOM     20  C   UNL A   1      37.816  23.858  25.932  1.00  0.00     0.004 C 
ATOM     21  C   UNL A   1      38.212  21.546  25.309  1.00  0.00     0.000 C 
ATOM     22  C   UNL A   1      38.636  22.629  26.302  1.00  0.00     0.000 C 
ENDBRANCH  17  18
ENDBRANCH  15  17
ENDBRANCH   9  15
ENDBRANCH   6   7
ENDBRANCH   4   6
ENDBRANCH   1   2
BRANCH   1  23
ATOM     23  C   UNL A   1      32.395  28.088  26.033  1.00  0.00     0.042 C 
BRANCH  23  24
ATOM     24  C   UNL A   1      33.698  28.592  26.647  1.00  0.00     0.118 C 
BRANCH  24  25
ATOM     25  N   UNL A   1      33.676  30.013  26.959  1.00  0.00    -0.352 N 
ATOM     26  C   UNL A   1      34.559  30.768  27.692  1.00  0.00     0.251 C 
ATOM     27  H   UNL A   1      32.911  30.511  26.587  1.00  0.00     0.163 HD
ATOM     28  O   UNL A   1      34.284  31.934  27.960  1.00  0.00    -0.269 OA
BRANCH  26  29
ATOM     29  C   UNL A   1      35.830  30.181  28.175  1.00  0.00     0.039 A 
ATOM     30  C   UNL A   1      36.953  30.233  27.345  1.00  0.00     0.014 A 
ATOM     31  C   UNL A   1      35.916  29.559  29.423  1.00  0.00     0.014 A 
ATOM     32  C   UNL A   1      38.171  29.709  27.788  1.00  0.00     0.010 A 
ATOM     33  C   UNL A   1      37.148  29.111  29.895  1.00  0.00     0.010 A 
ATOM     34  C   UNL A   1      38.287  29.167  29.079  1.00  0.00    -0.014 A 
BRANCH  34  35
ATOM     35  C   UNL A   1      39.587  28.646  29.581  1.00  0.00     0.031 A 
ATOM     36  C   UNL A   1      40.321  29.368  30.680  1.00  0.00     0.074 A 
ATOM     37  C   UNL A   1      40.143  27.564  29.002  1.00  0.00     0.049 A 
ATOM     38  N   UNL A   1      41.481  29.090  31.219  1.00  0.00    -0.248 NA
ATOM     39  C   UNL A   1      39.683  30.577  31.231  1.00  0.00     0.031 C 
ATOM     40  C   UNL A   1      39.573  26.816  27.879  1.00  0.00     0.029 A 
ATOM     41  N   UNL A   1      41.326  26.916  29.263  1.00  0.00    -0.354 N 
ATOM     42  C   UNL A   1      41.727  30.103  32.140  1.00  0.00     0.074 A 
ATOM     43  C   UNL A   1      40.614  31.023  32.061  1.00  0.00     0.031 C 
ATOM     44  C   UNL A   1      40.401  25.811  27.553  1.00  0.00     0.029 A 
ATOM     45  C   UNL A   1      41.575  25.859  28.419  1.00  0.00     0.049 A 
ATOM     46  H   UNL A   1      41.939  27.185  29.986  1.00  0.00     0.167 HD
ATOM     47  C   UNL A   1      42.768  30.242  32.994  1.00  0.00     0.034 A 
ATOM     48  C   UNL A   1      42.631  25.026  28.346  1.00  0.00     0.034 A 
ATOM     49  C   UNL A   1      43.854  29.305  33.101  1.00  0.00     0.049 A 
ATOM     50  C   UNL A   1      43.759  25.181  29.330  1.00  0.00     0.074 A 
ATOM     51  C   UNL A   1      44.911  29.312  33.995  1.00  0.00     0.029 A 
ATOM     52  N   UNL A   1      44.030  28.200  32.284  1.00  0.00    -0.354 N 
ATOM     53  N   UNL A   1      43.897  26.055  30.298  1.00  0.00    -0.248 NA
ATOM     54  C   UNL A   1      44.859  24.209  29.240  1.00  0.00     0.031 C 
ATOM     55  C   UNL A   1      45.742  28.227  33.697  1.00  0.00     0.029 A 
ATOM     56  C   UNL A   1      45.183  27.522  32.645  1.00  0.00     0.049 A 
ATOM     57  H   UNL A   1      43.425  27.934  31.555  1.00  0.00     0.167 HD
ATOM     58  C   UNL A   1      45.074  25.715  30.955  1.00  0.00     0.074 A 
ATOM     59  C   UNL A   1      45.601  24.543  30.287  1.00  0.00     0.031 C 
ATOM     60  C   UNL A   1      45.669  26.325  32.009  1.00  0.00     0.034 A 
BRANCH  47  61
ATOM     61  C   UNL A   1      42.761  31.432  33.921  1.00  0.00     0.023 A 
ATOM     62  C   UNL A   1      43.303  32.659  33.485  1.00  0.00     0.012 A 
ATOM     63  C   UNL A   1      42.170  31.353  35.197  1.00  0.00     0.148 A 
ATOM     64  C   UNL A   1      43.293  33.777  34.317  1.00  0.00     0.002 A 
ATOM     65  C   UNL A   1      42.119  32.485  36.002  1.00  0.00     0.091 A 
ATOM     66  F   UNL A   1      41.675  30.175  35.602  1.00  0.00    -0.205 F 
ATOM     67  C   UNL A   1      42.692  33.693  35.571  1.00  0.00     0.022 A 
BRANCH  65  68
ATOM     68  S   UNL A   1      41.296  32.504  37.599  1.00  0.00     0.127 S 
ATOM     69  O   UNL A   1      39.967  32.003  37.253  1.00  0.00    -0.237 OA
ATOM     70  O   UNL A   1      42.115  31.573  38.376  1.00  0.00    -0.237 OA
ATOM     71  O   UNL A   1      41.342  33.885  38.059  1.00  0.00    -0.744 OA
ENDBRANCH  65  68
ENDBRANCH  47  61
BRANCH  48  72
ATOM     72  C   UNL A   1      42.646  23.926  27.338  1.00  0.00     0.023 A 
ATOM     73  C   UNL A   1      43.213  24.156  26.070  1.00  0.00     0.012 A 
ATOM     74  C   UNL A   1      42.117  22.654  27.634  1.00  0.00     0.148 A 
ATOM     75  C   UNL A   1      43.220  23.152  25.100  1.00  0.00     0.002 A 
ATOM     76  C   UNL A   1      42.177  21.643  26.684  1.00  0.00     0.091 A 
ATOM     77  F   UNL A   1      41.574  22.459  28.843  1.00  0.00    -0.205 F 
ATOM     78  C   UNL A   1      42.711  21.894  25.409  1.00  0.00     0.022 A 
BRANCH  76  79
ATOM     79  S   UNL A   1      41.663  19.958  27.034  1.00  0.00     0.127 S 
ATOM     80  O   UNL A   1      40.614  20.166  28.028  1.00  0.00    -0.237 OA
ATOM     81  O   UNL A   1      41.193  19.509  25.723  1.00  0.00    -0.237 OA
ATOM     82  O   UNL A   1      42.857  19.273  27.511  1.00  0.00    -0.744 OA
ENDBRANCH  76  79
ENDBRANCH  48  72
BRANCH  60  83
ATOM     83  C   UNL A   1      46.937  25.713  32.550  1.00  0.00     0.023 A 
ATOM     84  C   UNL A   1      46.887  24.849  33.662  1.00  0.00     0.012 A 
ATOM     85  C   UNL A   1      48.170  25.942  31.907  1.00  0.00     0.148 A 
ATOM     86  C   UNL A   1      48.051  24.251  34.145  1.00  0.00     0.002 A 
ATOM     87  C   UNL A   1      49.315  25.301  32.362  1.00  0.00     0.091 A 
ATOM     88  F   UNL A   1      48.200  26.782  30.861  1.00  0.00    -0.205 F 
ATOM     89  C   UNL A   1      49.260  24.466  33.490  1.00  0.00     0.022 A 
BRANCH  87  90
ATOM     90  S   UNL A   1      50.896  25.439  31.519  1.00  0.00     0.127 S 
ATOM     91  O   UNL A   1      51.721  24.500  32.278  1.00  0.00    -0.237 OA
ATOM     92  O   UNL A   1      50.563  25.000  30.163  1.00  0.00    -0.237 OA
ATOM     93  O   UNL A   1      51.286  26.838  31.623  1.00  0.00    -0.744 OA
ENDBRANCH  87  90
ENDBRANCH  60  83
ENDBRANCH  34  35
ENDBRANCH  26  29
ENDBRANCH  24  25
ENDBRANCH  23  24
ENDBRANCH   1  23
TORSDOF 17
ENDMDL
MODEL 2
REMARK VINA RESULT:     -11.1      2.139      3.148
REMARK SMILES O=C(C[C@H]1C(=O)NCCN1C(=O)CC1CCCC1)NCCCNC(=O)c1ccc(-c2c3nc(c(-c4cccc(S(=O)(=O)[O-])c4F)c4ccc([nH]4)c(-c4cccc(S(=O)(=O)[O-])c4F)c4nc(c(-c5cccc(S(=O)(=O)[O-])c5F)c5ccc2[nH]5)C=C4)C=C3)cc1
REMARK SMILES IDX 20 1 19 2 1 3 2 4 3 6 4 7 5 8 10 9 6 10 7 11 9 12 8 13 11 15
REMARK SMILES IDX 12 16 13 17 14 18 15 19 18 20 16 21 17 22 21 23 22 24 23 25
REMARK SMILES IDX 24 26 25 28 26 29 27 30 88 31 28 32 87 33 29 34 30 35 31 36
REMARK SMILES IDX 81 37 32 38 86 39 80 40 82 41 33 42 85 43 79 44 78 45 34 47
REMARK SMILES IDX 66 48 46 49 65 50 47 51 50 52 64 53 83 54 48 55 49 56 63 58
REMARK SMILES IDX 84 59 51 60 35 61 36 62 44 63 37 64 39 65 45 66 38 67 40 68
REMARK SMILES IDX 41 69 42 70 43 71 67 72 68 73 76 74 69 75 71 76 77 77 70 78
REMARK SMILES IDX 72 79 73 80 74 81 75 82 52 83 53 84 61 85 54 86 56 87 62 88
REMARK SMILES IDX 55 89 57 90 58 91 59 92 60 93
REMARK H PARENT 19 5 7 14 23 27 82 46 50 57
REMARK Flexibility Score: inf
ROOT
ATOM      1  C   UNL A   1      32.364  27.006  25.645  1.00  0.00     0.117 C 
ENDROOT
BRANCH   1   2
ATOM      2  N   UNL A   1      33.430  26.032  25.753  1.00  0.00    -0.356 N 
ATOM      3  O   UNL A   1      33.577  25.541  23.518  1.00  0.00    -0.275 OA
ATOM      4  C   UNL A   1      33.940  25.354  24.674  1.00  0.00     0.222 C 
ATOM      5  H   UNL A   1      33.807  25.847  26.643  1.00  0.00     0.163 HD
BRANCH   4   6
ATOM      6  C   UNL A   1      34.986  24.316  25.018  1.00  0.00     0.135 C 
BRANCH   6   7
ATOM      7  C   UNL A   1      34.762  23.011  24.242  1.00  0.00     0.183 C 
ATOM      8  C   UNL A   1      36.129  22.632  23.612  1.00  0.00     0.243 C 
ATOM      9  N   UNL A   1      34.244  21.926  25.107  1.00  0.00    -0.328 N 
ATOM     10  O   UNL A   1      36.614  23.300  22.696  1.00  0.00    -0.273 OA
ATOM     11  N   UNL A   1      36.891  21.672  24.225  1.00  0.00    -0.353 N 
ATOM     12  C   UNL A   1      35.228  21.337  26.018  1.00  0.00     0.141 C 
ATOM     13  C   UNL A   1      36.373  20.741  25.209  1.00  0.00     0.137 C 
ATOM     14  H   UNL A   1      37.844  21.612  23.984  1.00  0.00     0.163 HD
BRANCH   9  15
ATOM     15  C   UNL A   1      33.002  21.325  25.000  1.00  0.00     0.223 C 
ATOM     16  O   UNL A   1      32.068  21.643  25.742  1.00  0.00    -0.275 OA
BRANCH  15  17
ATOM     17  C   UNL A   1      32.763  20.267  23.933  1.00  0.00     0.103 C 
BRANCH  17  18
ATOM     18  C   UNL A   1      33.342  18.894  24.263  1.00  0.00    -0.002 C 
ATOM     19  C   UNL A   1      32.697  18.229  25.481  1.00  0.00     0.004 C 
ATOM     20  C   UNL A   1      33.145  17.809  23.204  1.00  0.00     0.004 C 
ATOM     21  C   UNL A   1      33.171  16.776  25.400  1.00  0.00     0.000 C 
ATOM     22  C   UNL A   1      33.552  16.538  23.939  1.00  0.00     0.000 C 
ENDBRANCH  17  18
ENDBRANCH  15  17
ENDBRANCH   9  15
ENDBRANCH   6   7
ENDBRANCH   4   6
ENDBRANCH   1   2
BRANCH   1  23
ATOM     23  C   UNL A   1      32.598  28.204  26.557  1.00  0.00     0.042 C 
BRANCH  23  24
ATOM     24  C   UNL A   1      33.879  28.981  26.265  1.00  0.00     0.118 C 
BRANCH  24  25
ATOM     25  N   UNL A   1      33.833  30.362  26.723  1.00  0.00    -0.352 N 
ATOM     26  C   UNL A   1      34.647  31.024  27.610  1.00  0.00     0.251 C 
ATOM     27  H   UNL A   1      33.106  30.905  26.339  1.00  0.00     0.163 HD
ATOM     28  O   UNL A   1      34.351  32.157  27.974  1.00  0.00    -0.269 OA
BRANCH  26  29
ATOM     29  C   UNL A   1      35.867  30.373  28.140  1.00  0.00     0.039 A 
ATOM     30  C   UNL A   1      37.045  30.440  27.391  1.00  0.00     0.014 A 
ATOM     31  C   UNL A   1      35.852  29.678  29.352  1.00  0.00     0.014 A 
ATOM     32  C   UNL A   1      38.216  29.857  27.882  1.00  0.00     0.010 A 
ATOM     33  C   UNL A   1      37.037  29.169  29.878  1.00  0.00     0.010 A 
ATOM     34  C   UNL A   1      38.230  29.239  29.144  1.00  0.00    -0.014 A 
BRANCH  34  35
ATOM     35  C   UNL A   1      39.479  28.652  29.700  1.00  0.00     0.031 A 
ATOM     36  C   UNL A   1      40.119  29.249  30.926  1.00  0.00     0.074 A 
ATOM     37  C   UNL A   1      40.079  27.627  29.063  1.00  0.00     0.049 A 
ATOM     38  N   UNL A   1      41.227  28.903  31.530  1.00  0.00    -0.248 NA
ATOM     39  C   UNL A   1      39.441  30.404  31.540  1.00  0.00     0.031 C 
ATOM     40  C   UNL A   1      39.605  27.005  27.825  1.00  0.00     0.029 A 
ATOM     41  N   UNL A   1      41.232  26.941  29.357  1.00  0.00    -0.354 N 
ATOM     42  C   UNL A   1      41.397  29.814  32.567  1.00  0.00     0.074 A 
ATOM     43  C   UNL A   1      40.299  30.752  32.488  1.00  0.00     0.031 C 
ATOM     44  C   UNL A   1      40.453  26.027  27.470  1.00  0.00     0.029 A 
ATOM     45  C   UNL A   1      41.548  25.971  28.434  1.00  0.00     0.049 A 
ATOM     46  H   UNL A   1      41.781  27.127  30.153  1.00  0.00     0.167 HD
ATOM     47  C   UNL A   1      42.360  29.851  33.518  1.00  0.00     0.034 A 
ATOM     48  C   UNL A   1      42.603  25.135  28.367  1.00  0.00     0.034 A 
ATOM     49  C   UNL A   1      43.429  28.894  33.621  1.00  0.00     0.049 A 
ATOM     50  C   UNL A   1      43.643  25.175  29.455  1.00  0.00     0.074 A 
ATOM     51  C   UNL A   1      44.404  28.797  34.598  1.00  0.00     0.029 A 
ATOM     52  N   UNL A   1      43.670  27.876  32.714  1.00  0.00    -0.354 N 
ATOM     53  N   UNL A   1      43.700  25.945  30.514  1.00  0.00    -0.248 NA
ATOM     54  C   UNL A   1      44.742  24.203  29.360  1.00  0.00     0.031 C 
ATOM     55  C   UNL A   1      45.253  27.737  34.264  1.00  0.00     0.029 A 
ATOM     56  C   UNL A   1      44.784  27.150  33.100  1.00  0.00     0.049 A 
ATOM     57  H   UNL A   1      43.129  27.693  31.912  1.00  0.00     0.167 HD
ATOM     58  C   UNL A   1      44.814  25.525  31.232  1.00  0.00     0.074 A 
ATOM     59  C   UNL A   1      45.391  24.420  30.495  1.00  0.00     0.031 C 
ATOM     60  C   UNL A   1      45.319  26.016  32.390  1.00  0.00     0.034 A 
BRANCH  47  61
ATOM     61  C   UNL A   1      42.278  30.941  34.557  1.00  0.00     0.023 A 
ATOM     62  C   UNL A   1      41.616  30.694  35.778  1.00  0.00     0.012 A 
ATOM     63  C   UNL A   1      42.902  32.188  34.351  1.00  0.00     0.148 A 
ATOM     64  C   UNL A   1      41.542  31.680  36.760  1.00  0.00     0.002 A 
ATOM     65  C   UNL A   1      42.865  33.149  35.354  1.00  0.00     0.091 A 
ATOM     66  F   UNL A   1      43.511  32.413  33.178  1.00  0.00    -0.205 F 
ATOM     67  C   UNL A   1      42.175  32.903  36.552  1.00  0.00     0.022 A 
BRANCH  65  68
ATOM     68  S   UNL A   1      43.717  34.725  35.220  1.00  0.00     0.127 S 
ATOM     69  O   UNL A   1      45.116  34.302  35.171  1.00  0.00    -0.237 OA
ATOM     70  O   UNL A   1      43.195  35.248  33.957  1.00  0.00    -0.237 OA
ATOM     71  O   UNL A   1      43.337  35.490  36.399  1.00  0.00    -0.744 OA
ENDBRANCH  65  68
ENDBRANCH  47  61
BRANCH  48  72
ATOM     72  C   UNL A   1      42.701  24.144  27.257  1.00  0.00     0.023 A 
ATOM     73  C   UNL A   1      43.434  24.469  26.099  1.00  0.00     0.012 A 
ATOM     74  C   UNL A   1      42.086  22.880  27.348  1.00  0.00     0.148 A 
ATOM     75  C   UNL A   1      43.522  23.568  25.036  1.00  0.00     0.002 A 
ATOM     76  C   UNL A   1      42.224  21.967  26.311  1.00  0.00     0.091 A 
ATOM     77  F   UNL A   1      41.385  22.594  28.454  1.00  0.00    -0.205 F 
ATOM     78  C   UNL A   1      42.925  22.315  25.145  1.00  0.00     0.022 A 
BRANCH  76  79
ATOM     79  S   UNL A   1      41.599  20.286  26.414  1.00  0.00     0.127 S 
ATOM     80  O   UNL A   1      42.057  19.878  27.739  1.00  0.00    -0.237 OA
ATOM     81  O   UNL A   1      40.155  20.495  26.296  1.00  0.00    -0.237 OA
ATOM     82  O   UNL A   1      42.196  19.575  25.292  1.00  0.00    -0.744 OA
ENDBRANCH  76  79
ENDBRANCH  48  72
BRANCH  60  83
ATOM     83  C   UNL A   1      46.532  25.337  32.972  1.00  0.00     0.023 A 
ATOM     84  C   UNL A   1      47.823  25.812  32.668  1.00  0.00     0.012 A 
ATOM     85  C   UNL A   1      46.384  24.269  33.880  1.00  0.00     0.148 A 
ATOM     86  C   UNL A   1      48.949  25.211  33.231  1.00  0.00     0.002 A 
ATOM     87  C   UNL A   1      47.507  23.711  34.478  1.00  0.00     0.091 A 
ATOM     88  F   UNL A   1      45.148  23.820  34.144  1.00  0.00    -0.205 F 
ATOM     89  C   UNL A   1      48.791  24.171  34.144  1.00  0.00     0.022 A 
BRANCH  87  90
ATOM     90  S   UNL A   1      47.394  22.438  35.741  1.00  0.00     0.127 S 
ATOM     91  O   UNL A   1      46.804  21.329  34.993  1.00  0.00    -0.237 OA
ATOM     92  O   UNL A   1      48.796  22.245  36.112  1.00  0.00    -0.237 OA
ATOM     93  O   UNL A   1      46.560  22.993  36.798  1.00  0.00    -0.744 OA
ENDBRANCH  87  90
ENDBRANCH  60  83
ENDBRANCH  34  35
ENDBRANCH  26  29
ENDBRANCH  24  25
ENDBRANCH  23  24
ENDBRANCH   1  23
TORSDOF 17
ENDMDL
MODEL 3
REMARK VINA RESULT:     -11.1      1.497      1.910
REMARK SMILES O=C(C[C@H]1C(=O)NCCN1C(=O)CC1CCCC1)NCCCNC(=O)c1ccc(-c2c3nc(c(-c4cccc(S(=O)(=O)[O-])c4F)c4ccc([nH]4)c(-c4cccc(S(=O)(=O)[O-])c4F)c4nc(c(-c5cccc(S(=O)(=O)[O-])c5F)c5ccc2[nH]5)C=C4)C=C3)cc1
REMARK SMILES IDX 20 1 19 2 1 3 2 4 3 6 4 7 5 8 10 9 6 10 7 11 9 12 8 13 11 15
REMARK SMILES IDX 12 16 13 17 14 18 15 19 18 20 16 21 17 22 21 23 22 24 23 25
REMARK SMILES IDX 24 26 25 28 26 29 27 30 88 31 28 32 87 33 29 34 30 35 31 36
REMARK SMILES IDX 81 37 32 38 86 39 80 40 82 41 33 42 85 43 79 44 78 45 34 47
REMARK SMILES IDX 66 48 46 49 65 50 47 51 50 52 64 53 83 54 48 55 49 56 63 58
REMARK SMILES IDX 84 59 51 60 35 61 36 62 44 63 37 64 39 65 45 66 38 67 40 68
REMARK SMILES IDX 41 69 42 70 43 71 67 72 68 73 76 74 69 75 71 76 77 77 70 78
REMARK SMILES IDX 72 79 73 80 74 81 75 82 52 83 53 84 61 85 54 86 56 87 62 88
REMARK SMILES IDX 55 89 57 90 58 91 59 92 60 93
REMARK H PARENT 19 5 7 14 23 27 82 46 50 57
REMARK Flexibility Score: inf
ROOT
ATOM      1  C   UNL A   1      32.212  28.185  24.405  1.00  0.00     0.117 C 
ENDROOT
BRANCH   1   2
ATOM      2  N   UNL A   1      31.970  26.785  24.685  1.00  0.00    -0.356 N 
ATOM      3  O   UNL A   1      30.287  26.488  23.157  1.00  0.00    -0.275 OA
ATOM      4  C   UNL A   1      31.002  26.047  24.050  1.00  0.00     0.222 C 
ATOM      5  H   UNL A   1      32.526  26.340  25.365  1.00  0.00     0.163 HD
BRANCH   4   6
ATOM      6  C   UNL A   1      30.857  24.629  24.555  1.00  0.00     0.135 C 
BRANCH   6   7
ATOM      7  C   UNL A   1      32.156  24.123  25.199  1.00  0.00     0.183 C 
ATOM      8  C   UNL A   1      31.736  23.230  26.396  1.00  0.00     0.243 C 
ATOM      9  N   UNL A   1      33.005  23.381  24.239  1.00  0.00    -0.328 N 
ATOM     10  O   UNL A   1      31.218  23.718  27.403  1.00  0.00    -0.273 OA
ATOM     11  N   UNL A   1      31.751  21.869  26.237  1.00  0.00    -0.353 N 
ATOM     12  C   UNL A   1      32.529  22.039  23.900  1.00  0.00     0.141 C 
ATOM     13  C   UNL A   1      32.458  21.193  25.165  1.00  0.00     0.137 C 
ATOM     14  H   UNL A   1      31.256  21.320  26.887  1.00  0.00     0.163 HD
BRANCH   9  15
ATOM     15  C   UNL A   1      34.257  23.768  23.795  1.00  0.00     0.223 C 
ATOM     16  O   UNL A   1      34.574  23.680  22.605  1.00  0.00    -0.275 OA
BRANCH  15  17
ATOM     17  C   UNL A   1      35.267  24.337  24.782  1.00  0.00     0.103 C 
BRANCH  17  18
ATOM     18  C   UNL A   1      36.228  23.307  25.369  1.00  0.00    -0.002 C 
ATOM     19  C   UNL A   1      36.685  22.246  24.365  1.00  0.00     0.004 C 
ATOM     20  C   UNL A   1      37.574  23.844  25.855  1.00  0.00     0.004 C 
ATOM     21  C   UNL A   1      37.869  21.570  25.059  1.00  0.00     0.000 C 
ATOM     22  C   UNL A   1      38.381  22.574  26.092  1.00  0.00     0.000 C 
ENDBRANCH  17  18
ENDBRANCH  15  17
ENDBRANCH   9  15
ENDBRANCH   6   7
ENDBRANCH   4   6
ENDBRANCH   1   2
BRANCH   1  23
ATOM     23  C   UNL A   1      33.680  28.551  24.582  1.00  0.00     0.042 C 
BRANCH  23  24
ATOM     24  C   UNL A   1      34.125  28.698  26.035  1.00  0.00     0.118 C 
BRANCH  24  25
ATOM     25  N   UNL A   1      33.825  30.004  26.601  1.00  0.00    -0.352 N 
ATOM     26  C   UNL A   1      34.489  30.720  27.567  1.00  0.00     0.251 C 
ATOM     27  H   UNL A   1      33.021  30.442  26.236  1.00  0.00     0.163 HD
ATOM     28  O   UNL A   1      33.989  31.749  28.011  1.00  0.00    -0.269 OA
BRANCH  26  29
ATOM     29  C   UNL A   1      35.794  30.250  28.086  1.00  0.00     0.039 A 
ATOM     30  C   UNL A   1      35.839  29.646  29.346  1.00  0.00     0.014 A 
ATOM     31  C   UNL A   1      36.973  30.426  27.356  1.00  0.00     0.014 A 
ATOM     32  C   UNL A   1      37.055  29.171  29.847  1.00  0.00     0.010 A 
ATOM     33  C   UNL A   1      38.167  29.879  27.821  1.00  0.00     0.010 A 
ATOM     34  C   UNL A   1      38.227  29.259  29.077  1.00  0.00    -0.014 A 
BRANCH  34  35
ATOM     35  C   UNL A   1      39.519  28.718  29.578  1.00  0.00     0.031 A 
ATOM     36  C   UNL A   1      40.263  29.426  30.680  1.00  0.00     0.074 A 
ATOM     37  C   UNL A   1      40.061  27.631  28.995  1.00  0.00     0.049 A 
ATOM     38  N   UNL A   1      41.419  29.131  31.217  1.00  0.00    -0.248 NA
ATOM     39  C   UNL A   1      39.640  30.641  31.235  1.00  0.00     0.031 C 
ATOM     40  C   UNL A   1      39.482  26.896  27.868  1.00  0.00     0.029 A 
ATOM     41  N   UNL A   1      41.236  26.968  29.253  1.00  0.00    -0.354 N 
ATOM     42  C   UNL A   1      41.678  30.137  32.142  1.00  0.00     0.074 A 
ATOM     43  C   UNL A   1      40.577  31.072  32.067  1.00  0.00     0.031 C 
ATOM     44  C   UNL A   1      40.297  25.881  27.538  1.00  0.00     0.029 A 
ATOM     45  C   UNL A   1      41.471  25.911  28.405  1.00  0.00     0.049 A 
ATOM     46  H   UNL A   1      41.852  27.225  29.977  1.00  0.00     0.167 HD
ATOM     47  C   UNL A   1      42.720  30.259  32.998  1.00  0.00     0.034 A 
ATOM     48  C   UNL A   1      42.517  25.064  28.328  1.00  0.00     0.034 A 
ATOM     49  C   UNL A   1      43.794  29.307  33.101  1.00  0.00     0.049 A 
ATOM     50  C   UNL A   1      43.647  25.201  29.314  1.00  0.00     0.074 A 
ATOM     51  C   UNL A   1      44.850  29.297  33.995  1.00  0.00     0.029 A 
ATOM     52  N   UNL A   1      43.956  28.204  32.279  1.00  0.00    -0.354 N 
ATOM     53  N   UNL A   1      43.796  26.069  30.284  1.00  0.00    -0.248 NA
ATOM     54  C   UNL A   1      44.734  24.215  29.219  1.00  0.00     0.031 C 
ATOM     55  C   UNL A   1      45.667  28.203  33.693  1.00  0.00     0.029 A 
ATOM     56  C   UNL A   1      45.099  27.510  32.637  1.00  0.00     0.049 A 
ATOM     57  H   UNL A   1      43.347  27.949  31.549  1.00  0.00     0.167 HD
ATOM     58  C   UNL A   1      44.968  25.711  30.940  1.00  0.00     0.074 A 
ATOM     59  C   UNL A   1      45.479  24.535  30.268  1.00  0.00     0.031 C 
ATOM     60  C   UNL A   1      45.571  26.309  31.997  1.00  0.00     0.034 A 
BRANCH  47  61
ATOM     61  C   UNL A   1      42.728  31.445  33.929  1.00  0.00     0.023 A 
ATOM     62  C   UNL A   1      43.266  32.673  33.491  1.00  0.00     0.012 A 
ATOM     63  C   UNL A   1      42.155  31.363  35.213  1.00  0.00     0.148 A 
ATOM     64  C   UNL A   1      43.270  33.788  34.328  1.00  0.00     0.002 A 
ATOM     65  C   UNL A   1      42.118  32.491  36.023  1.00  0.00     0.091 A 
ATOM     66  F   UNL A   1      41.664  30.184  35.621  1.00  0.00    -0.205 F 
ATOM     67  C   UNL A   1      42.687  33.700  35.589  1.00  0.00     0.022 A 
BRANCH  65  68
ATOM     68  S   UNL A   1      41.318  32.505  37.632  1.00  0.00     0.127 S 
ATOM     69  O   UNL A   1      41.396  33.921  37.989  1.00  0.00    -0.237 OA
ATOM     70  O   UNL A   1      39.972  32.032  37.309  1.00  0.00    -0.237 OA
ATOM     71  O   UNL A   1      42.094  31.606  38.475  1.00  0.00    -0.744 OA
ENDBRANCH  65  68
ENDBRANCH  47  61
BRANCH  48  72
ATOM     72  C   UNL A   1      42.518  23.969  27.316  1.00  0.00     0.023 A 
ATOM     73  C   UNL A   1      43.066  24.204  26.040  1.00  0.00     0.012 A 
ATOM     74  C   UNL A   1      41.995  22.695  27.615  1.00  0.00     0.148 A 
ATOM     75  C   UNL A   1      43.059  23.204  25.067  1.00  0.00     0.002 A 
ATOM     76  C   UNL A   1      42.042  21.687  26.660  1.00  0.00     0.091 A 
ATOM     77  F   UNL A   1      41.470  22.494  28.831  1.00  0.00    -0.205 F 
ATOM     78  C   UNL A   1      42.556  21.944  25.378  1.00  0.00     0.022 A 
BRANCH  76  79
ATOM     79  S   UNL A   1      41.535  20.000  27.011  1.00  0.00     0.127 S 
ATOM     80  O   UNL A   1      40.997  19.575  25.722  1.00  0.00    -0.237 OA
ATOM     81  O   UNL A   1      42.805  19.377  27.387  1.00  0.00    -0.237 OA
ATOM     82  O   UNL A   1      40.570  20.098  28.098  1.00  0.00    -0.744 OA
ENDBRANCH  76  79
ENDBRANCH  48  72
BRANCH  60  83
ATOM     83  C   UNL A   1      46.830  25.679  32.536  1.00  0.00     0.023 A 
ATOM     84  C   UNL A   1      48.088  26.077  32.041  1.00  0.00     0.012 A 
ATOM     85  C   UNL A   1      46.765  24.741  33.586  1.00  0.00     0.148 A 
ATOM     86  C   UNL A   1      49.259  25.525  32.560  1.00  0.00     0.002 A 
ATOM     87  C   UNL A   1      47.938  24.236  34.134  1.00  0.00     0.091 A 
ATOM     88  F   UNL A   1      45.559  24.362  34.032  1.00  0.00    -0.205 F 
ATOM     89  C   UNL A   1      49.185  24.616  33.612  1.00  0.00     0.022 A 
BRANCH  87  90
ATOM     90  S   UNL A   1      47.943  23.139  35.557  1.00  0.00     0.127 S 
ATOM     91  O   UNL A   1      49.374  22.998  35.819  1.00  0.00    -0.237 OA
ATOM     92  O   UNL A   1      47.215  23.924  36.554  1.00  0.00    -0.237 OA
ATOM     93  O   UNL A   1      47.263  21.924  35.130  1.00  0.00    -0.744 OA
ENDBRANCH  87  90
ENDBRANCH  60  83
ENDBRANCH  34  35
ENDBRANCH  26  29
ENDBRANCH  24  25
ENDBRANCH  23  24
ENDBRANCH   1  23
TORSDOF 17
ENDMDL
