MODEL 1
REMARK VINA RESULT:     -13.1      0.000      0.000
REMARK SMILES Cc1nccn1CCC[NH+]1CCC2(CC1)[C@@H](C(=O)NCCCNC(=O)c1ccc(-c3c4nc(c(-c5cccc(S(=O)(=O)[O-])c5F)c5ccc([nH]5)c(-c5cccc(S(=O)(=O)[O-])c5F)c5nc(c(-c6cccc(S(=O)(=O)[O-])c6F)c6ccc3[nH]6)C=C5)C=C4)cc1)CC(=O)N2C
REMARK SMILES IDX 20 1 19 2 17 3 18 4 16 6 10 7 11 8 15 9 12 11 14 12 13 13
REMARK SMILES IDX 92 14 89 15 90 16 93 17 91 18 9 19 8 20 7 21 6 22 1 23 2 24
REMARK SMILES IDX 3 25 4 26 5 27 21 28 22 29 23 30 24 31 25 33 26 34 27 35
REMARK SMILES IDX 88 36 28 37 87 38 29 39 30 40 31 41 81 42 32 43 86 44 80 45
REMARK SMILES IDX 82 46 33 47 85 48 79 49 78 50 34 52 66 53 46 54 65 55 47 56
REMARK SMILES IDX 50 57 64 58 83 59 48 60 49 61 63 63 84 64 51 65 35 66 36 67
REMARK SMILES IDX 44 68 37 69 39 70 45 71 38 72 40 73 41 74 42 75 43 76 67 77
REMARK SMILES IDX 68 78 76 79 69 80 71 81 77 82 70 83 72 84 73 85 74 86 75 87
REMARK SMILES IDX 52 88 53 89 61 90 54 91 56 92 62 93 55 94 57 95 58 96 59 97
REMARK SMILES IDX 60 98
REMARK H PARENT 19 5 10 10 23 32 82 51 50 62
REMARK Flexibility Score: inf
ROOT
ATOM      1  C   UNL A   1      31.673  27.888  26.220  1.00  0.00     0.117 C 
ENDROOT
BRANCH   1   2
ATOM      2  N   UNL A   1      30.987  26.705  26.708  1.00  0.00    -0.356 N 
ATOM      3  C   UNL A   1      30.290  25.725  26.075  1.00  0.00     0.226 C 
ATOM      4  O   UNL A   1      29.555  25.063  26.806  1.00  0.00    -0.275 OA
ATOM      5  H   UNL A   1      31.035  26.592  27.685  1.00  0.00     0.163 HD
BRANCH   3   6
ATOM      6  C   UNL A   1      30.293  25.545  24.555  1.00  0.00     0.114 C 
ATOM      7  N   UNL A   1      33.360  22.418  23.929  1.00  0.00    -0.335 N 
ATOM      8  C   UNL A   1      32.241  22.514  22.990  1.00  0.00     0.264 C 
ATOM      9  C   UNL A   1      33.867  23.748  24.289  1.00  0.00     0.264 C 
ATOM     10  H   UNL A   1      34.117  21.931  23.449  1.00  0.00     0.348 HD
ATOM     11  C   UNL A   1      31.110  23.432  23.453  1.00  0.00     0.091 C 
ATOM     12  C   UNL A   1      32.802  24.706  24.826  1.00  0.00     0.091 C 
ATOM     13  C   UNL A   1      31.566  24.844  23.910  1.00  0.00     0.065 C 
ATOM     14  N   UNL A   1      31.851  25.716  22.733  1.00  0.00    -0.339 N 
ATOM     15  C   UNL A   1      30.090  26.828  23.759  1.00  0.00     0.116 C 
ATOM     16  C   UNL A   1      30.985  26.777  22.581  1.00  0.00     0.223 C 
ATOM     17  C   UNL A   1      33.065  25.729  21.942  1.00  0.00     0.147 C 
ATOM     18  O   UNL A   1      30.980  27.603  21.694  1.00  0.00    -0.275 OA
BRANCH   7  19
ATOM     19  C   UNL A   1      33.043  21.586  25.106  1.00  0.00     0.264 C 
BRANCH  19  20
ATOM     20  C   UNL A   1      32.443  20.245  24.668  1.00  0.00     0.083 C 
BRANCH  20  21
ATOM     21  C   UNL A   1      33.456  19.159  24.296  1.00  0.00     0.129 C 
BRANCH  21  22
ATOM     22  N   UNL A   1      33.128  17.781  24.617  1.00  0.00    -0.335 N 
ATOM     23  C   UNL A   1      34.382  16.664  22.726  1.00  0.00     0.087 C 
ATOM     24  C   UNL A   1      33.679  16.660  24.031  1.00  0.00     0.105 A 
ATOM     25  N   UNL A   1      33.465  15.588  24.769  1.00  0.00    -0.242 NA
ATOM     26  C   UNL A   1      32.618  15.993  25.760  1.00  0.00     0.131 A 
ATOM     27  C   UNL A   1      32.367  17.339  25.660  1.00  0.00     0.107 A 
ENDBRANCH  21  22
ENDBRANCH  20  21
ENDBRANCH  19  20
ENDBRANCH   7  19
ENDBRANCH   3   6
ENDBRANCH   1   2
BRANCH   1  28
ATOM     28  C   UNL A   1      32.419  28.640  27.313  1.00  0.00     0.042 C 
BRANCH  28  29
ATOM     29  C   UNL A   1      33.759  29.147  26.836  1.00  0.00     0.118 C 
BRANCH  29  30
ATOM     30  N   UNL A   1      33.861  30.614  26.860  1.00  0.00    -0.352 N 
ATOM     31  C   UNL A   1      34.753  31.382  27.588  1.00  0.00     0.251 C 
ATOM     32  H   UNL A   1      33.222  31.105  26.295  1.00  0.00     0.163 HD
ATOM     33  O   UNL A   1      34.579  32.581  27.757  1.00  0.00    -0.269 OA
BRANCH  31  34
ATOM     34  C   UNL A   1      35.934  30.698  28.134  1.00  0.00     0.039 A 
ATOM     35  C   UNL A   1      36.188  29.341  27.917  1.00  0.00     0.014 A 
ATOM     36  C   UNL A   1      36.852  31.513  28.783  1.00  0.00     0.014 A 
ATOM     37  C   UNL A   1      37.421  28.836  28.311  1.00  0.00     0.010 A 
ATOM     38  C   UNL A   1      38.135  31.084  28.911  1.00  0.00     0.010 A 
ATOM     39  C   UNL A   1      38.388  29.727  28.795  1.00  0.00    -0.014 A 
BRANCH  39  40
ATOM     40  C   UNL A   1      39.733  29.312  29.142  1.00  0.00     0.031 A 
ATOM     41  C   UNL A   1      40.023  29.352  30.595  1.00  0.00     0.074 A 
ATOM     42  C   UNL A   1      40.509  28.683  28.231  1.00  0.00     0.049 A 
ATOM     43  N   UNL A   1      40.809  30.174  31.204  1.00  0.00    -0.248 NA
ATOM     44  C   UNL A   1      39.213  28.525  31.504  1.00  0.00     0.031 C 
ATOM     45  C   UNL A   1      40.159  28.281  26.858  1.00  0.00     0.029 A 
ATOM     46  N   UNL A   1      41.716  28.093  28.406  1.00  0.00    -0.354 N 
ATOM     47  C   UNL A   1      40.801  29.777  32.539  1.00  0.00     0.074 A 
ATOM     48  C   UNL A   1      39.626  28.965  32.696  1.00  0.00     0.031 C 
ATOM     49  C   UNL A   1      40.985  27.291  26.458  1.00  0.00     0.029 A 
ATOM     50  C   UNL A   1      42.008  27.106  27.469  1.00  0.00     0.049 A 
ATOM     51  H   UNL A   1      42.334  28.342  29.131  1.00  0.00     0.167 HD
ATOM     52  C   UNL A   1      41.919  29.906  33.309  1.00  0.00     0.034 A 
ATOM     53  C   UNL A   1      42.964  26.149  27.580  1.00  0.00     0.034 A 
ATOM     54  C   UNL A   1      42.911  30.715  32.633  1.00  0.00     0.049 A 
ATOM     55  C   UNL A   1      43.946  26.644  28.580  1.00  0.00     0.074 A 
ATOM     56  C   UNL A   1      42.929  31.988  32.098  1.00  0.00     0.029 A 
ATOM     57  N   UNL A   1      43.958  30.043  32.043  1.00  0.00    -0.354 N 
ATOM     58  N   UNL A   1      44.669  27.715  28.396  1.00  0.00    -0.248 NA
ATOM     59  C   UNL A   1      43.746  26.255  29.968  1.00  0.00     0.031 C 
ATOM     60  C   UNL A   1      43.644  31.854  30.870  1.00  0.00     0.029 A 
ATOM     61  C   UNL A   1      44.109  30.540  30.776  1.00  0.00     0.049 A 
ATOM     62  H   UNL A   1      44.500  29.333  32.458  1.00  0.00     0.167 HD
ATOM     63  C   UNL A   1      44.590  28.391  29.608  1.00  0.00     0.074 A 
ATOM     64  C   UNL A   1      44.103  27.396  30.566  1.00  0.00     0.031 C 
ATOM     65  C   UNL A   1      44.605  29.758  29.663  1.00  0.00     0.034 A 
BRANCH  52  66
ATOM     66  C   UNL A   1      42.319  29.010  34.465  1.00  0.00     0.023 A 
ATOM     67  C   UNL A   1      42.759  29.663  35.642  1.00  0.00     0.012 A 
ATOM     68  C   UNL A   1      42.560  27.619  34.385  1.00  0.00     0.148 A 
ATOM     69  C   UNL A   1      43.484  28.995  36.633  1.00  0.00     0.002 A 
ATOM     70  C   UNL A   1      43.222  26.944  35.405  1.00  0.00     0.091 A 
ATOM     71  F   UNL A   1      42.261  26.944  33.277  1.00  0.00    -0.205 F 
ATOM     72  C   UNL A   1      43.720  27.633  36.513  1.00  0.00     0.022 A 
BRANCH  70  73
ATOM     73  S   UNL A   1      43.523  25.172  35.327  1.00  0.00     0.127 S 
ATOM     74  O   UNL A   1      44.157  25.042  34.018  1.00  0.00    -0.237 OA
ATOM     75  O   UNL A   1      44.413  24.970  36.471  1.00  0.00    -0.237 OA
ATOM     76  O   UNL A   1      42.217  24.541  35.468  1.00  0.00    -0.744 OA
ENDBRANCH  70  73
ENDBRANCH  52  66
BRANCH  53  77
ATOM     77  C   UNL A   1      42.891  24.729  27.150  1.00  0.00     0.023 A 
ATOM     78  C   UNL A   1      41.693  24.003  27.296  1.00  0.00     0.012 A 
ATOM     79  C   UNL A   1      43.913  24.156  26.357  1.00  0.00     0.148 A 
ATOM     80  C   UNL A   1      41.514  22.764  26.660  1.00  0.00     0.002 A 
ATOM     81  C   UNL A   1      43.739  22.918  25.744  1.00  0.00     0.091 A 
ATOM     82  F   UNL A   1      45.022  24.866  26.112  1.00  0.00    -0.205 F 
ATOM     83  C   UNL A   1      42.536  22.222  25.884  1.00  0.00     0.022 A 
BRANCH  81  84
ATOM     84  S   UNL A   1      45.031  22.189  24.726  1.00  0.00     0.127 S 
ATOM     85  O   UNL A   1      46.131  22.047  25.678  1.00  0.00    -0.237 OA
ATOM     86  O   UNL A   1      44.415  20.934  24.307  1.00  0.00    -0.237 OA
ATOM     87  O   UNL A   1      45.282  23.160  23.667  1.00  0.00    -0.744 OA
ENDBRANCH  81  84
ENDBRANCH  53  77
BRANCH  65  88
ATOM     88  C   UNL A   1      44.913  30.535  28.403  1.00  0.00     0.023 A 
ATOM     89  C   UNL A   1      43.908  31.002  27.530  1.00  0.00     0.012 A 
ATOM     90  C   UNL A   1      46.229  30.985  28.214  1.00  0.00     0.148 A 
ATOM     91  C   UNL A   1      44.209  31.885  26.488  1.00  0.00     0.002 A 
ATOM     92  C   UNL A   1      46.518  31.900  27.208  1.00  0.00     0.091 A 
ATOM     93  F   UNL A   1      47.176  30.541  29.053  1.00  0.00    -0.205 F 
ATOM     94  C   UNL A   1      45.512  32.346  26.336  1.00  0.00     0.022 A 
BRANCH  92  95
ATOM     95  S   UNL A   1      48.148  32.628  27.048  1.00  0.00     0.127 S 
ATOM     96  O   UNL A   1      48.958  31.479  26.650  1.00  0.00    -0.237 OA
ATOM     97  O   UNL A   1      47.945  33.629  25.998  1.00  0.00    -0.237 OA
ATOM     98  O   UNL A   1      48.463  33.196  28.354  1.00  0.00    -0.744 OA
ENDBRANCH  92  95
ENDBRANCH  65  88
ENDBRANCH  39  40
ENDBRANCH  31  34
ENDBRANCH  29  30
ENDBRANCH  28  29
ENDBRANCH   1  28
TORSDOF 17
ENDMDL
MODEL 2
REMARK VINA RESULT:     -13.0      2.440      5.069
REMARK SMILES Cc1nccn1CCC[NH+]1CCC2(CC1)[C@@H](C(=O)NCCCNC(=O)c1ccc(-c3c4nc(c(-c5cccc(S(=O)(=O)[O-])c5F)c5ccc([nH]5)c(-c5cccc(S(=O)(=O)[O-])c5F)c5nc(c(-c6cccc(S(=O)(=O)[O-])c6F)c6ccc3[nH]6)C=C5)C=C4)cc1)CC(=O)N2C
REMARK SMILES IDX 20 1 19 2 17 3 18 4 16 6 10 7 11 8 15 9 12 11 14 12 13 13
REMARK SMILES IDX 92 14 89 15 90 16 93 17 91 18 9 19 8 20 7 21 6 22 1 23 2 24
REMARK SMILES IDX 3 25 4 26 5 27 21 28 22 29 23 30 24 31 25 33 26 34 27 35
REMARK SMILES IDX 88 36 28 37 87 38 29 39 30 40 31 41 81 42 32 43 86 44 80 45
REMARK SMILES IDX 82 46 33 47 85 48 79 49 78 50 34 52 66 53 46 54 65 55 47 56
REMARK SMILES IDX 50 57 64 58 83 59 48 60 49 61 63 63 84 64 51 65 35 66 36 67
REMARK SMILES IDX 44 68 37 69 39 70 45 71 38 72 40 73 41 74 42 75 43 76 67 77
REMARK SMILES IDX 68 78 76 79 69 80 71 81 77 82 70 83 72 84 73 85 74 86 75 87
REMARK SMILES IDX 52 88 53 89 61 90 54 91 56 92 62 93 55 94 57 95 58 96 59 97
REMARK SMILES IDX 60 98
REMARK H PARENT 19 5 10 10 23 32 82 51 50 62
REMARK Flexibility Score: inf
ROOT
ATOM      1  C   UNL A   1      31.955  28.189  26.481  1.00  0.00     0.117 C 
ENDROOT
BRANCH   1   2
ATOM      2  N   UNL A   1      31.470  26.891  26.915  1.00  0.00    -0.356 N 
ATOM      3  C   UNL A   1      31.751  25.627  26.506  1.00  0.00     0.226 C 
ATOM      4  O   UNL A   1      30.923  24.781  26.844  1.00  0.00    -0.275 OA
ATOM      5  H   UNL A   1      30.811  26.937  27.645  1.00  0.00     0.163 HD
BRANCH   3   6
ATOM      6  C   UNL A   1      32.918  25.288  25.575  1.00  0.00     0.114 C 
ATOM      7  N   UNL A   1      32.042  27.692  21.966  1.00  0.00    -0.335 N 
ATOM      8  C   UNL A   1      33.436  27.405  22.307  1.00  0.00     0.264 C 
ATOM      9  C   UNL A   1      31.191  26.514  22.171  1.00  0.00     0.264 C 
ATOM     10  H   UNL A   1      32.013  27.911  20.970  1.00  0.00     0.348 HD
ATOM     11  C   UNL A   1      33.631  26.816  23.703  1.00  0.00     0.091 C 
ATOM     12  C   UNL A   1      31.281  25.906  23.572  1.00  0.00     0.091 C 
ATOM     13  C   UNL A   1      32.724  25.599  24.028  1.00  0.00     0.065 C 
ATOM     14  N   UNL A   1      33.250  24.359  23.383  1.00  0.00    -0.339 N 
ATOM     15  C   UNL A   1      33.389  23.841  25.642  1.00  0.00     0.116 C 
ATOM     16  C   UNL A   1      33.708  23.403  24.265  1.00  0.00     0.223 C 
ATOM     17  C   UNL A   1      33.064  23.958  22.004  1.00  0.00     0.147 C 
ATOM     18  O   UNL A   1      34.211  22.333  23.996  1.00  0.00    -0.275 OA
BRANCH   7  19
ATOM     19  C   UNL A   1      31.529  28.898  22.646  1.00  0.00     0.264 C 
BRANCH  19  20
ATOM     20  C   UNL A   1      30.044  29.104  22.324  1.00  0.00     0.083 C 
BRANCH  20  21
ATOM     21  C   UNL A   1      29.397  30.338  22.956  1.00  0.00     0.129 C 
BRANCH  21  22
ATOM     22  N   UNL A   1      28.635  31.225  22.095  1.00  0.00    -0.335 N 
ATOM     23  C   UNL A   1      29.129  33.399  23.291  1.00  0.00     0.087 C 
ATOM     24  C   UNL A   1      28.655  32.605  22.132  1.00  0.00     0.105 A 
ATOM     25  N   UNL A   1      28.165  33.114  21.019  1.00  0.00    -0.242 NA
ATOM     26  C   UNL A   1      27.666  32.051  20.322  1.00  0.00     0.131 A 
ATOM     27  C   UNL A   1      27.912  30.878  20.990  1.00  0.00     0.107 A 
ENDBRANCH  21  22
ENDBRANCH  20  21
ENDBRANCH  19  20
ENDBRANCH   7  19
ENDBRANCH   3   6
ENDBRANCH   1   2
BRANCH   1  28
ATOM     28  C   UNL A   1      33.445  28.385  26.728  1.00  0.00     0.042 C 
BRANCH  28  29
ATOM     29  C   UNL A   1      33.708  29.230  27.951  1.00  0.00     0.118 C 
BRANCH  29  30
ATOM     30  N   UNL A   1      33.911  30.652  27.635  1.00  0.00    -0.352 N 
ATOM     31  C   UNL A   1      35.016  31.430  27.935  1.00  0.00     0.251 C 
ATOM     32  H   UNL A   1      33.177  31.102  27.158  1.00  0.00     0.163 HD
ATOM     33  O   UNL A   1      34.975  32.652  27.883  1.00  0.00    -0.269 OA
BRANCH  31  34
ATOM     34  C   UNL A   1      36.252  30.723  28.298  1.00  0.00     0.039 A 
ATOM     35  C   UNL A   1      36.545  29.434  27.847  1.00  0.00     0.014 A 
ATOM     36  C   UNL A   1      37.173  31.464  29.027  1.00  0.00     0.014 A 
ATOM     37  C   UNL A   1      37.818  28.930  28.088  1.00  0.00     0.010 A 
ATOM     38  C   UNL A   1      38.477  31.082  29.017  1.00  0.00     0.010 A 
ATOM     39  C   UNL A   1      38.776  29.776  28.664  1.00  0.00    -0.014 A 
BRANCH  39  40
ATOM     40  C   UNL A   1      40.153  29.374  28.868  1.00  0.00     0.031 A 
ATOM     41  C   UNL A   1      40.524  29.182  30.291  1.00  0.00     0.074 A 
ATOM     42  C   UNL A   1      40.901  28.947  27.826  1.00  0.00     0.049 A 
ATOM     43  N   UNL A   1      41.310  29.926  30.993  1.00  0.00    -0.248 NA
ATOM     44  C   UNL A   1      39.800  28.174  31.083  1.00  0.00     0.031 C 
ATOM     45  C   UNL A   1      40.490  28.765  26.423  1.00  0.00     0.029 A 
ATOM     46  N   UNL A   1      42.139  28.396  27.838  1.00  0.00    -0.354 N 
ATOM     47  C   UNL A   1      41.393  29.310  32.238  1.00  0.00     0.074 A 
ATOM     48  C   UNL A   1      40.262  28.426  32.311  1.00  0.00     0.031 C 
ATOM     49  C   UNL A   1      41.331  27.899  25.819  1.00  0.00     0.029 A 
ATOM     50  C   UNL A   1      42.416  27.596  26.732  1.00  0.00     0.049 A 
ATOM     51  H   UNL A   1      42.787  28.547  28.564  1.00  0.00     0.167 HD
ATOM     52  C   UNL A   1      42.547  29.361  32.963  1.00  0.00     0.034 A 
ATOM     53  C   UNL A   1      43.415  26.682  26.631  1.00  0.00     0.034 A 
ATOM     54  C   UNL A   1      43.466  30.320  32.388  1.00  0.00     0.049 A 
ATOM     55  C   UNL A   1      44.431  27.048  27.652  1.00  0.00     0.074 A 
ATOM     56  C   UNL A   1      43.402  31.665  32.079  1.00  0.00     0.029 A 
ATOM     57  N   UNL A   1      44.503  29.809  31.642  1.00  0.00    -0.354 N 
ATOM     58  N   UNL A   1      45.099  28.169  27.619  1.00  0.00    -0.248 NA
ATOM     59  C   UNL A   1      44.326  26.421  28.961  1.00  0.00     0.031 C 
ATOM     60  C   UNL A   1      44.052  31.775  30.813  1.00  0.00     0.029 A 
ATOM     61  C   UNL A   1      44.563  30.520  30.472  1.00  0.00     0.049 A 
ATOM     62  H   UNL A   1      45.096  29.067  31.902  1.00  0.00     0.167 HD
ATOM     63  C   UNL A   1      45.062  28.626  28.931  1.00  0.00     0.074 A 
ATOM     64  C   UNL A   1      44.670  27.461  29.727  1.00  0.00     0.031 C 
ATOM     65  C   UNL A   1      45.026  29.963  29.219  1.00  0.00     0.034 A 
BRANCH  52  66
ATOM     66  C   UNL A   1      43.047  28.303  33.928  1.00  0.00     0.023 A 
ATOM     67  C   UNL A   1      43.290  28.729  35.256  1.00  0.00     0.012 A 
ATOM     68  C   UNL A   1      43.551  27.032  33.569  1.00  0.00     0.148 A 
ATOM     69  C   UNL A   1      44.074  27.984  36.141  1.00  0.00     0.002 A 
ATOM     70  C   UNL A   1      44.275  26.263  34.475  1.00  0.00     0.091 A 
ATOM     71  F   UNL A   1      43.448  26.593  32.315  1.00  0.00    -0.205 F 
ATOM     72  C   UNL A   1      44.571  26.750  35.749  1.00  0.00     0.022 A 
BRANCH  70  73
ATOM     73  S   UNL A   1      44.911  24.638  34.039  1.00  0.00     0.127 S 
ATOM     74  O   UNL A   1      45.884  24.974  33.004  1.00  0.00    -0.237 OA
ATOM     75  O   UNL A   1      45.483  24.192  35.310  1.00  0.00    -0.237 OA
ATOM     76  O   UNL A   1      43.756  23.864  33.600  1.00  0.00    -0.744 OA
ENDBRANCH  70  73
ENDBRANCH  52  66
BRANCH  53  77
ATOM     77  C   UNL A   1      43.374  25.353  25.968  1.00  0.00     0.023 A 
ATOM     78  C   UNL A   1      44.373  24.989  25.043  1.00  0.00     0.012 A 
ATOM     79  C   UNL A   1      42.507  24.336  26.431  1.00  0.00     0.148 A 
ATOM     80  C   UNL A   1      44.512  23.661  24.612  1.00  0.00     0.002 A 
ATOM     81  C   UNL A   1      42.637  23.023  25.987  1.00  0.00     0.091 A 
ATOM     82  F   UNL A   1      41.617  24.625  27.389  1.00  0.00    -0.205 F 
ATOM     83  C   UNL A   1      43.646  22.677  25.084  1.00  0.00     0.022 A 
BRANCH  81  84
ATOM     84  S   UNL A   1      41.544  21.723  26.580  1.00  0.00     0.127 S 
ATOM     85  O   UNL A   1      40.227  22.230  26.200  1.00  0.00    -0.237 OA
ATOM     86  O   UNL A   1      42.002  20.568  25.813  1.00  0.00    -0.237 OA
ATOM     87  O   UNL A   1      41.765  21.660  28.020  1.00  0.00    -0.744 OA
ENDBRANCH  81  84
ENDBRANCH  53  77
BRANCH  65  88
ATOM     88  C   UNL A   1      45.231  30.956  28.097  1.00  0.00     0.023 A 
ATOM     89  C   UNL A   1      44.159  31.565  27.412  1.00  0.00     0.012 A 
ATOM     90  C   UNL A   1      46.530  31.442  27.880  1.00  0.00     0.148 A 
ATOM     91  C   UNL A   1      44.376  32.623  26.524  1.00  0.00     0.002 A 
ATOM     92  C   UNL A   1      46.738  32.524  27.033  1.00  0.00     0.091 A 
ATOM     93  F   UNL A   1      47.542  30.860  28.540  1.00  0.00    -0.205 F 
ATOM     94  C   UNL A   1      45.666  33.113  26.345  1.00  0.00     0.022 A 
BRANCH  92  95
ATOM     95  S   UNL A   1      48.355  33.281  26.867  1.00  0.00     0.127 S 
ATOM     96  O   UNL A   1      49.169  32.161  26.400  1.00  0.00    -0.237 OA
ATOM     97  O   UNL A   1      48.114  34.323  25.867  1.00  0.00    -0.237 OA
ATOM     98  O   UNL A   1      48.695  33.796  28.189  1.00  0.00    -0.744 OA
ENDBRANCH  92  95
ENDBRANCH  65  88
ENDBRANCH  39  40
ENDBRANCH  31  34
ENDBRANCH  29  30
ENDBRANCH  28  29
ENDBRANCH   1  28
TORSDOF 17
ENDMDL
MODEL 3
REMARK VINA RESULT:     -12.7      2.055      2.692
REMARK SMILES Cc1nccn1CCC[NH+]1CCC2(CC1)[C@@H](C(=O)NCCCNC(=O)c1ccc(-c3c4nc(c(-c5cccc(S(=O)(=O)[O-])c5F)c5ccc([nH]5)c(-c5cccc(S(=O)(=O)[O-])c5F)c5nc(c(-c6cccc(S(=O)(=O)[O-])c6F)c6ccc3[nH]6)C=C5)C=C4)cc1)CC(=O)N2C
REMARK SMILES IDX 20 1 19 2 17 3 18 4 16 6 10 7 11 8 15 9 12 11 14 12 13 13
REMARK SMILES IDX 92 14 89 15 90 16 93 17 91 18 9 19 8 20 7 21 6 22 1 23 2 24
REMARK SMILES IDX 3 25 4 26 5 27 21 28 22 29 23 30 24 31 25 33 26 34 27 35
REMARK SMILES IDX 88 36 28 37 87 38 29 39 30 40 31 41 81 42 32 43 86 44 80 45
REMARK SMILES IDX 82 46 33 47 85 48 79 49 78 50 34 52 66 53 46 54 65 55 47 56
REMARK SMILES IDX 50 57 64 58 83 59 48 60 49 61 63 63 84 64 51 65 35 66 36 67
REMARK SMILES IDX 44 68 37 69 39 70 45 71 38 72 40 73 41 74 42 75 43 76 67 77
REMARK SMILES IDX 68 78 76 79 69 80 71 81 77 82 70 83 72 84 73 85 74 86 75 87
REMARK SMILES IDX 52 88 53 89 61 90 54 91 56 92 62 93 55 94 57 95 58 96 59 97
REMARK SMILES IDX 60 98
REMARK H PARENT 19 5 10 10 23 32 82 51 50 62
REMARK Flexibility Score: inf
ROOT
ATOM      1  C   UNL A   1      34.271  28.252  25.941  1.00  0.00     0.117 C 
ENDROOT
BRANCH   1   2
ATOM      2  N   UNL A   1      34.049  28.811  24.620  1.00  0.00    -0.356 N 
ATOM      3  C   UNL A   1      32.935  28.926  23.850  1.00  0.00     0.226 C 
ATOM      4  O   UNL A   1      33.153  29.137  22.658  1.00  0.00    -0.275 OA
ATOM      5  H   UNL A   1      34.861  29.177  24.201  1.00  0.00     0.163 HD
BRANCH   3   6
ATOM      6  C   UNL A   1      31.522  28.667  24.380  1.00  0.00     0.114 C 
ATOM      7  N   UNL A   1      31.645  24.387  25.495  1.00  0.00    -0.335 N 
ATOM      8  C   UNL A   1      30.762  25.289  26.236  1.00  0.00     0.264 C 
ATOM      9  C   UNL A   1      31.609  24.672  24.055  1.00  0.00     0.264 C 
ATOM     10  H   UNL A   1      31.285  23.441  25.620  1.00  0.00     0.348 HD
ATOM     11  C   UNL A   1      31.003  26.772  25.957  1.00  0.00     0.091 C 
ATOM     12  C   UNL A   1      31.909  26.127  23.692  1.00  0.00     0.091 C 
ATOM     13  C   UNL A   1      31.041  27.153  24.453  1.00  0.00     0.065 C 
ATOM     14  N   UNL A   1      29.660  27.228  23.890  1.00  0.00    -0.339 N 
ATOM     15  C   UNL A   1      30.417  29.408  23.639  1.00  0.00     0.116 C 
ATOM     16  C   UNL A   1      29.261  28.492  23.513  1.00  0.00     0.223 C 
ATOM     17  C   UNL A   1      28.847  26.113  23.448  1.00  0.00     0.147 C 
ATOM     18  O   UNL A   1      28.184  28.822  23.065  1.00  0.00    -0.275 OA
BRANCH   7  19
ATOM     19  C   UNL A   1      33.016  24.360  26.042  1.00  0.00     0.264 C 
BRANCH  19  20
ATOM     20  C   UNL A   1      33.342  22.970  26.600  1.00  0.00     0.083 C 
BRANCH  20  21
ATOM     21  C   UNL A   1      34.797  22.753  27.022  1.00  0.00     0.129 C 
BRANCH  21  22
ATOM     22  N   UNL A   1      35.701  22.140  26.064  1.00  0.00    -0.335 N 
ATOM     23  C   UNL A   1      37.483  23.935  26.052  1.00  0.00     0.087 C 
ATOM     24  C   UNL A   1      36.976  22.573  25.763  1.00  0.00     0.105 A 
ATOM     25  N   UNL A   1      37.664  21.626  25.155  1.00  0.00    -0.242 NA
ATOM     26  C   UNL A   1      36.767  20.626  24.909  1.00  0.00     0.131 A 
ATOM     27  C   UNL A   1      35.537  20.943  25.430  1.00  0.00     0.107 A 
ENDBRANCH  21  22
ENDBRANCH  20  21
ENDBRANCH  19  20
ENDBRANCH   7  19
ENDBRANCH   3   6
ENDBRANCH   1   2
BRANCH   1  28
ATOM     28  C   UNL A   1      33.929  29.218  27.066  1.00  0.00     0.042 C 
BRANCH  28  29
ATOM     29  C   UNL A   1      35.116  30.060  27.467  1.00  0.00     0.118 C 
BRANCH  29  30
ATOM     30  N   UNL A   1      34.750  31.204  28.316  1.00  0.00    -0.352 N 
ATOM     31  C   UNL A   1      35.230  31.499  29.581  1.00  0.00     0.251 C 
ATOM     32  H   UNL A   1      34.088  31.830  27.944  1.00  0.00     0.163 HD
ATOM     33  O   UNL A   1      34.666  32.303  30.311  1.00  0.00    -0.269 OA
BRANCH  31  34
ATOM     34  C   UNL A   1      36.463  30.820  30.003  1.00  0.00     0.039 A 
ATOM     35  C   UNL A   1      36.490  29.478  30.393  1.00  0.00     0.014 A 
ATOM     36  C   UNL A   1      37.629  31.563  29.878  1.00  0.00     0.014 A 
ATOM     37  C   UNL A   1      37.729  28.880  30.590  1.00  0.00     0.010 A 
ATOM     38  C   UNL A   1      38.819  30.909  29.804  1.00  0.00     0.010 A 
ATOM     39  C   UNL A   1      38.884  29.609  30.277  1.00  0.00    -0.014 A 
BRANCH  39  40
ATOM     40  C   UNL A   1      40.215  29.041  30.358  1.00  0.00     0.031 A 
ATOM     41  C   UNL A   1      40.762  28.976  31.734  1.00  0.00     0.074 A 
ATOM     42  C   UNL A   1      40.742  28.384  29.301  1.00  0.00     0.049 A 
ATOM     43  N   UNL A   1      41.730  29.681  32.215  1.00  0.00    -0.248 NA
ATOM     44  C   UNL A   1      40.042  28.190  32.749  1.00  0.00     0.031 C 
ATOM     45  C   UNL A   1      40.110  28.090  28.003  1.00  0.00     0.029 A 
ATOM     46  N   UNL A   1      41.889  27.665  29.233  1.00  0.00    -0.354 N 
ATOM     47  C   UNL A   1      41.917  29.218  33.515  1.00  0.00     0.074 A 
ATOM     48  C   UNL A   1      40.706  28.524  33.859  1.00  0.00     0.031 C 
ATOM     49  C   UNL A   1      40.738  27.043  27.427  1.00  0.00     0.029 A 
ATOM     50  C   UNL A   1      41.898  26.702  28.227  1.00  0.00     0.049 A 
ATOM     51  H   UNL A   1      42.649  27.811  29.840  1.00  0.00     0.167 HD
ATOM     52  C   UNL A   1      43.161  29.192  34.072  1.00  0.00     0.034 A 
ATOM     53  C   UNL A   1      42.748  25.648  28.131  1.00  0.00     0.034 A 
ATOM     54  C   UNL A   1      44.100  29.929  33.252  1.00  0.00     0.049 A 
ATOM     55  C   UNL A   1      43.940  25.988  28.950  1.00  0.00     0.074 A 
ATOM     56  C   UNL A   1      44.161  31.220  32.764  1.00  0.00     0.029 A 
ATOM     57  N   UNL A   1      44.944  29.185  32.460  1.00  0.00    -0.354 N 
ATOM     58  N   UNL A   1      44.732  26.988  28.671  1.00  0.00    -0.248 NA
ATOM     59  C   UNL A   1      43.950  25.550  30.338  1.00  0.00     0.031 C 
ATOM     60  C   UNL A   1      44.627  31.077  31.423  1.00  0.00     0.029 A 
ATOM     61  C   UNL A   1      44.920  29.729  31.203  1.00  0.00     0.049 A 
ATOM     62  H   UNL A   1      45.471  28.403  32.745  1.00  0.00     0.167 HD
ATOM     63  C   UNL A   1      44.946  27.605  29.898  1.00  0.00     0.074 A 
ATOM     64  C   UNL A   1      44.531  26.617  30.896  1.00  0.00     0.031 C 
ATOM     65  C   UNL A   1      45.121  28.959  29.993  1.00  0.00     0.034 A 
BRANCH  52  66
ATOM     66  C   UNL A   1      43.660  28.201  35.106  1.00  0.00     0.023 A 
ATOM     67  C   UNL A   1      44.381  28.744  36.197  1.00  0.00     0.012 A 
ATOM     68  C   UNL A   1      43.720  26.799  34.942  1.00  0.00     0.148 A 
ATOM     69  C   UNL A   1      45.193  27.953  37.014  1.00  0.00     0.002 A 
ATOM     70  C   UNL A   1      44.476  26.006  35.800  1.00  0.00     0.091 A 
ATOM     71  F   UNL A   1      43.147  26.216  33.890  1.00  0.00    -0.205 F 
ATOM     72  C   UNL A   1      45.244  26.581  36.813  1.00  0.00     0.022 A 
BRANCH  70  73
ATOM     73  S   UNL A   1      44.550  24.218  35.615  1.00  0.00     0.127 S 
ATOM     74  O   UNL A   1      45.349  24.083  34.401  1.00  0.00    -0.237 OA
ATOM     75  O   UNL A   1      45.225  23.819  36.851  1.00  0.00    -0.237 OA
ATOM     76  O   UNL A   1      43.166  23.771  35.520  1.00  0.00    -0.744 OA
ENDBRANCH  70  73
ENDBRANCH  52  66
BRANCH  53  77
ATOM     77  C   UNL A   1      42.444  24.267  27.676  1.00  0.00     0.023 A 
ATOM     78  C   UNL A   1      41.170  23.709  27.902  1.00  0.00     0.012 A 
ATOM     79  C   UNL A   1      43.311  23.586  26.790  1.00  0.00     0.148 A 
ATOM     80  C   UNL A   1      40.771  22.529  27.255  1.00  0.00     0.002 A 
ATOM     81  C   UNL A   1      42.919  22.406  26.165  1.00  0.00     0.091 A 
ATOM     82  F   UNL A   1      44.486  24.144  26.471  1.00  0.00    -0.205 F 
ATOM     83  C   UNL A   1      41.644  21.877  26.386  1.00  0.00     0.022 A 
BRANCH  81  84
ATOM     84  S   UNL A   1      44.012  21.540  25.029  1.00  0.00     0.127 S 
ATOM     85  O   UNL A   1      43.377  20.227  24.931  1.00  0.00    -0.237 OA
ATOM     86  O   UNL A   1      43.912  22.362  23.826  1.00  0.00    -0.237 OA
ATOM     87  O   UNL A   1      45.315  21.524  25.683  1.00  0.00    -0.744 OA
ENDBRANCH  81  84
ENDBRANCH  53  77
BRANCH  65  88
ATOM     88  C   UNL A   1      45.283  29.764  28.723  1.00  0.00     0.023 A 
ATOM     89  C   UNL A   1      44.184  30.217  27.962  1.00  0.00     0.012 A 
ATOM     90  C   UNL A   1      46.562  30.253  28.415  1.00  0.00     0.148 A 
ATOM     91  C   UNL A   1      44.358  31.124  26.913  1.00  0.00     0.002 A 
ATOM     92  C   UNL A   1      46.725  31.191  27.402  1.00  0.00     0.091 A 
ATOM     93  F   UNL A   1      47.598  29.821  29.148  1.00  0.00    -0.205 F 
ATOM     94  C   UNL A   1      45.627  31.623  26.642  1.00  0.00     0.022 A 
BRANCH  92  95
ATOM     95  S   UNL A   1      48.313  31.967  27.097  1.00  0.00     0.127 S 
ATOM     96  O   UNL A   1      49.109  30.847  26.601  1.00  0.00    -0.237 OA
ATOM     97  O   UNL A   1      47.981  32.977  26.090  1.00  0.00    -0.237 OA
ATOM     98  O   UNL A   1      48.740  32.523  28.375  1.00  0.00    -0.744 OA
ENDBRANCH  92  95
ENDBRANCH  65  88
ENDBRANCH  39  40
ENDBRANCH  31  34
ENDBRANCH  29  30
ENDBRANCH  28  29
ENDBRANCH   1  28
TORSDOF 17
ENDMDL
