MODEL 1
REMARK VINA RESULT:     -12.0      0.000      0.000
REMARK SMILES CCc1cc(=O)oc2c3c(cc(OCC(=O)NCC(=O)NCCCNC(=O)c4ccc(-c5c6nc(c(-c7cccc(S(=O)(=O)[O-])c7F)c7ccc([nH]7)c(-c7cccc(S(=O)(=O)[O-])c7F)c7nc(c(-c8cccc(S(=O)(=O)[O-])c8F)c8ccc5[nH]8)C=C7)C=C6)cc4)c12)OC(C)(C)CC3
REMARK SMILES IDX 22 1 21 2 19 3 20 4 18 6 17 7 15 8 16 9 14 11 13 12 12 13
REMARK SMILES IDX 3 14 4 15 91 16 5 17 8 18 6 19 7 20 9 21 11 22 10 23 97 24
REMARK SMILES IDX 92 25 96 26 93 27 94 28 95 29 2 30 1 31 23 32 24 33 25 34
REMARK SMILES IDX 26 35 27 37 28 38 29 39 90 40 30 41 89 42 31 43 32 44 33 45
REMARK SMILES IDX 83 46 34 47 88 48 82 49 84 50 35 51 87 52 81 53 80 54 36 56
REMARK SMILES IDX 68 57 48 58 67 59 49 60 52 61 66 62 85 63 50 64 51 65 65 67
REMARK SMILES IDX 86 68 53 69 37 70 38 71 46 72 39 73 41 74 47 75 40 76 42 77
REMARK SMILES IDX 43 78 44 79 45 80 69 81 70 82 78 83 71 84 73 85 79 86 72 87
REMARK SMILES IDX 74 88 75 89 76 90 77 91 54 92 55 93 63 94 56 95 58 96 64 97
REMARK SMILES IDX 57 98 59 99 60 100 61 101 62 102
REMARK H PARENT 21 5 17 10 25 36 84 55 52 66
REMARK Flexibility Score: inf
ROOT
ATOM      1  C   UNL A   1      33.000  30.327  27.274  1.00  0.00     0.117 C 
ENDROOT
BRANCH   1   2
ATOM      2  N   UNL A   1      32.187  29.149  27.485  1.00  0.00    -0.355 N 
ATOM      3  C   UNL A   1      32.218  27.971  26.792  1.00  0.00     0.239 C 
ATOM      4  O   UNL A   1      31.669  26.990  27.301  1.00  0.00    -0.273 OA
ATOM      5  H   UNL A   1      31.529  29.203  28.216  1.00  0.00     0.163 HD
BRANCH   3   6
ATOM      6  C   UNL A   1      33.046  27.826  25.503  1.00  0.00     0.216 C 
BRANCH   6   7
ATOM      7  N   UNL A   1      32.614  28.663  24.400  1.00  0.00    -0.344 N 
ATOM      8  C   UNL A   1      32.595  28.370  23.070  1.00  0.00     0.258 C 
ATOM      9  O   UNL A   1      31.938  29.100  22.328  1.00  0.00    -0.271 OA
ATOM     10  H   UNL A   1      32.291  29.560  24.645  1.00  0.00     0.164 HD
BRANCH   8  11
ATOM     11  C   UNL A   1      33.352  27.144  22.514  1.00  0.00     0.329 C 
BRANCH  11  12
ATOM     12  O   UNL A   1      32.670  25.900  22.397  1.00  0.00    -0.483 OA
BRANCH  12  13
ATOM     13  C   UNL A   1      32.990  24.867  23.249  1.00  0.00     0.135 A 
ATOM     14  C   UNL A   1      30.717  25.123  24.480  1.00  0.00    -0.026 A 
ATOM     15  C   UNL A   1      30.000  24.748  25.553  1.00  0.00     0.098 A 
ATOM     16  C   UNL A   1      32.075  24.544  24.284  1.00  0.00     0.063 A 
ATOM     17  C   UNL A   1      30.445  23.774  26.549  1.00  0.00     0.336 A 
ATOM     18  C   UNL A   1      32.521  23.624  25.258  1.00  0.00     0.149 A 
ATOM     19  O   UNL A   1      29.699  23.433  27.459  1.00  0.00    -0.246 OA
ATOM     20  O   UNL A   1      31.708  23.262  26.362  1.00  0.00    -0.422 OA
ATOM     21  C   UNL A   1      33.800  23.040  25.245  1.00  0.00     0.038 A 
ATOM     22  C   UNL A   1      34.231  24.214  23.188  1.00  0.00     0.094 A 
ATOM     23  C   UNL A   1      34.653  23.363  24.203  1.00  0.00     0.130 A 
ATOM     24  C   UNL A   1      34.286  22.191  26.378  1.00  0.00     0.047 C 
ATOM     25  O   UNL A   1      35.946  22.933  24.109  1.00  0.00    -0.487 OA
ATOM     26  C   UNL A   1      35.602  21.499  26.054  1.00  0.00     0.053 C 
ATOM     27  C   UNL A   1      36.562  22.439  25.314  1.00  0.00     0.104 C 
ATOM     28  C   UNL A   1      37.793  21.647  24.853  1.00  0.00     0.056 C 
ATOM     29  C   UNL A   1      37.052  23.618  26.173  1.00  0.00     0.056 C 
BRANCH  14  30
ATOM     30  C   UNL A   1      30.062  26.078  23.508  1.00  0.00     0.033 C 
ATOM     31  C   UNL A   1      28.679  26.518  23.967  1.00  0.00     0.009 C 
ENDBRANCH  14  30
ENDBRANCH  12  13
ENDBRANCH  11  12
ENDBRANCH   8  11
ENDBRANCH   6   7
ENDBRANCH   3   6
ENDBRANCH   1   2
BRANCH   1  32
ATOM     32  C   UNL A   1      32.201  31.612  27.158  1.00  0.00     0.042 C 
BRANCH  32  33
ATOM     33  C   UNL A   1      33.036  32.855  26.881  1.00  0.00     0.118 C 
BRANCH  33  34
ATOM     34  N   UNL A   1      32.651  34.024  27.670  1.00  0.00    -0.352 N 
ATOM     35  C   UNL A   1      33.203  34.625  28.779  1.00  0.00     0.251 C 
ATOM     36  H   UNL A   1      31.837  34.470  27.342  1.00  0.00     0.163 HD
ATOM     37  O   UNL A   1      32.631  35.606  29.253  1.00  0.00    -0.269 OA
BRANCH  35  38
ATOM     38  C   UNL A   1      34.421  34.108  29.450  1.00  0.00     0.039 A 
ATOM     39  C   UNL A   1      34.275  33.167  30.486  1.00  0.00     0.014 A 
ATOM     40  C   UNL A   1      35.697  34.532  29.098  1.00  0.00     0.014 A 
ATOM     41  C   UNL A   1      35.397  32.579  31.081  1.00  0.00     0.010 A 
ATOM     42  C   UNL A   1      36.813  33.899  29.633  1.00  0.00     0.010 A 
ATOM     43  C   UNL A   1      36.675  32.928  30.638  1.00  0.00    -0.014 A 
BRANCH  43  44
ATOM     44  C   UNL A   1      37.914  32.414  31.271  1.00  0.00     0.031 A 
ATOM     45  C   UNL A   1      38.601  31.243  30.631  1.00  0.00     0.074 A 
ATOM     46  C   UNL A   1      38.321  32.867  32.470  1.00  0.00     0.049 A 
ATOM     47  N   UNL A   1      39.557  30.489  31.098  1.00  0.00    -0.248 NA
ATOM     48  C   UNL A   1      38.108  30.845  29.301  1.00  0.00     0.031 C 
ATOM     49  C   UNL A   1      37.713  33.972  33.204  1.00  0.00     0.029 A 
ATOM     50  N   UNL A   1      39.300  32.406  33.316  1.00  0.00    -0.354 N 
ATOM     51  C   UNL A   1      39.756  29.505  30.140  1.00  0.00     0.074 A 
ATOM     52  C   UNL A   1      38.787  29.729  29.089  1.00  0.00     0.031 C 
ATOM     53  C   UNL A   1      38.274  34.057  34.421  1.00  0.00     0.029 A 
ATOM     54  C   UNL A   1      39.280  33.009  34.553  1.00  0.00     0.049 A 
ATOM     55  H   UNL A   1      39.951  31.712  33.063  1.00  0.00     0.167 HD
ATOM     56  C   UNL A   1      40.685  28.522  30.118  1.00  0.00     0.034 A 
ATOM     57  C   UNL A   1      39.976  32.735  35.673  1.00  0.00     0.034 A 
ATOM     58  C   UNL A   1      41.668  28.334  31.146  1.00  0.00     0.049 A 
ATOM     59  C   UNL A   1      41.020  31.654  35.628  1.00  0.00     0.074 A 
ATOM     60  C   UNL A   1      42.727  27.447  31.177  1.00  0.00     0.029 A 
ATOM     61  N   UNL A   1      41.705  29.046  32.336  1.00  0.00    -0.354 N 
ATOM     62  N   UNL A   1      41.318  30.842  34.642  1.00  0.00    -0.248 NA
ATOM     63  C   UNL A   1      41.861  31.486  36.821  1.00  0.00     0.031 C 
ATOM     64  C   UNL A   1      43.394  27.610  32.396  1.00  0.00     0.029 A 
ATOM     65  C   UNL A   1      42.761  28.612  33.117  1.00  0.00     0.049 A 
ATOM     66  H   UNL A   1      41.072  29.757  32.589  1.00  0.00     0.167 HD
ATOM     67  C   UNL A   1      42.409  30.099  35.076  1.00  0.00     0.074 A 
ATOM     68  C   UNL A   1      42.722  30.563  36.413  1.00  0.00     0.031 C 
ATOM     69  C   UNL A   1      43.088  29.121  34.425  1.00  0.00     0.034 A 
BRANCH  56  70
ATOM     70  C   UNL A   1      40.692  27.622  28.913  1.00  0.00     0.023 A 
ATOM     71  C   UNL A   1      39.736  26.588  28.814  1.00  0.00     0.012 A 
ATOM     72  C   UNL A   1      41.652  27.773  27.897  1.00  0.00     0.148 A 
ATOM     73  C   UNL A   1      39.772  25.685  27.752  1.00  0.00     0.002 A 
ATOM     74  C   UNL A   1      41.653  26.897  26.817  1.00  0.00     0.091 A 
ATOM     75  F   UNL A   1      42.573  28.741  28.020  1.00  0.00    -0.205 F 
ATOM     76  C   UNL A   1      40.725  25.845  26.752  1.00  0.00     0.022 A 
BRANCH  74  77
ATOM     77  S   UNL A   1      42.800  27.069  25.447  1.00  0.00     0.127 S 
ATOM     78  O   UNL A   1      42.634  25.789  24.760  1.00  0.00    -0.237 OA
ATOM     79  O   UNL A   1      42.257  28.221  24.727  1.00  0.00    -0.237 OA
ATOM     80  O   UNL A   1      44.105  27.298  26.051  1.00  0.00    -0.744 OA
ENDBRANCH  74  77
ENDBRANCH  56  70
BRANCH  57  81
ATOM     81  C   UNL A   1      39.750  33.550  36.901  1.00  0.00     0.023 A 
ATOM     82  C   UNL A   1      38.717  33.189  37.788  1.00  0.00     0.012 A 
ATOM     83  C   UNL A   1      40.589  34.634  37.226  1.00  0.00     0.148 A 
ATOM     84  C   UNL A   1      38.508  33.908  38.966  1.00  0.00     0.002 A 
ATOM     85  C   UNL A   1      40.401  35.319  38.422  1.00  0.00     0.091 A 
ATOM     86  F   UNL A   1      41.566  34.959  36.367  1.00  0.00    -0.205 F 
ATOM     87  C   UNL A   1      39.354  34.966  39.287  1.00  0.00     0.022 A 
BRANCH  85  88
ATOM     88  S   UNL A   1      41.505  36.624  38.980  1.00  0.00     0.127 S 
ATOM     89  O   UNL A   1      42.040  37.123  37.716  1.00  0.00    -0.237 OA
ATOM     90  O   UNL A   1      40.575  37.529  39.656  1.00  0.00    -0.237 OA
ATOM     91  O   UNL A   1      42.469  35.977  39.859  1.00  0.00    -0.744 OA
ENDBRANCH  85  88
ENDBRANCH  57  81
BRANCH  69  92
ATOM     92  C   UNL A   1      44.266  28.504  35.129  1.00  0.00     0.023 A 
ATOM     93  C   UNL A   1      45.556  29.032  34.931  1.00  0.00     0.012 A 
ATOM     94  C   UNL A   1      44.077  27.463  36.059  1.00  0.00     0.148 A 
ATOM     95  C   UNL A   1      46.646  28.517  35.632  1.00  0.00     0.002 A 
ATOM     96  C   UNL A   1      45.159  26.987  36.789  1.00  0.00     0.091 A 
ATOM     97  F   UNL A   1      42.844  26.960  36.216  1.00  0.00    -0.205 F 
ATOM     98  C   UNL A   1      46.446  27.506  36.570  1.00  0.00     0.022 A 
BRANCH  96  99
ATOM     99  S   UNL A   1      44.973  25.760  38.088  1.00  0.00     0.127 S 
ATOM    100  O   UNL A   1      46.336  25.667  38.607  1.00  0.00    -0.237 OA
ATOM    101  O   UNL A   1      44.020  26.405  38.992  1.00  0.00    -0.237 OA
ATOM    102  O   UNL A   1      44.467  24.561  37.435  1.00  0.00    -0.744 OA
ENDBRANCH  96  99
ENDBRANCH  69  92
ENDBRANCH  43  44
ENDBRANCH  35  38
ENDBRANCH  33  34
ENDBRANCH  32  33
ENDBRANCH   1  32
TORSDOF 18
ENDMDL
MODEL 2
REMARK VINA RESULT:     -11.9      5.588     11.195
REMARK SMILES CCc1cc(=O)oc2c3c(cc(OCC(=O)NCC(=O)NCCCNC(=O)c4ccc(-c5c6nc(c(-c7cccc(S(=O)(=O)[O-])c7F)c7ccc([nH]7)c(-c7cccc(S(=O)(=O)[O-])c7F)c7nc(c(-c8cccc(S(=O)(=O)[O-])c8F)c8ccc5[nH]8)C=C7)C=C6)cc4)c12)OC(C)(C)CC3
REMARK SMILES IDX 22 1 21 2 19 3 20 4 18 6 17 7 15 8 16 9 14 11 13 12 12 13
REMARK SMILES IDX 3 14 4 15 91 16 5 17 8 18 6 19 7 20 9 21 11 22 10 23 97 24
REMARK SMILES IDX 92 25 96 26 93 27 94 28 95 29 2 30 1 31 23 32 24 33 25 34
REMARK SMILES IDX 26 35 27 37 28 38 29 39 90 40 30 41 89 42 31 43 32 44 33 45
REMARK SMILES IDX 83 46 34 47 88 48 82 49 84 50 35 51 87 52 81 53 80 54 36 56
REMARK SMILES IDX 68 57 48 58 67 59 49 60 52 61 66 62 85 63 50 64 51 65 65 67
REMARK SMILES IDX 86 68 53 69 37 70 38 71 46 72 39 73 41 74 47 75 40 76 42 77
REMARK SMILES IDX 43 78 44 79 45 80 69 81 70 82 78 83 71 84 73 85 79 86 72 87
REMARK SMILES IDX 74 88 75 89 76 90 77 91 54 92 55 93 63 94 56 95 58 96 64 97
REMARK SMILES IDX 57 98 59 99 60 100 61 101 62 102
REMARK H PARENT 21 5 17 10 25 36 84 55 52 66
REMARK Flexibility Score: inf
ROOT
ATOM      1  C   UNL A   1      38.466  22.515  26.139  1.00  0.00     0.117 C 
ENDROOT
BRANCH   1   2
ATOM      2  N   UNL A   1      37.764  22.611  24.878  1.00  0.00    -0.355 N 
ATOM      3  C   UNL A   1      36.492  23.059  24.656  1.00  0.00     0.239 C 
ATOM      4  O   UNL A   1      36.177  23.348  23.498  1.00  0.00    -0.273 OA
ATOM      5  H   UNL A   1      38.264  22.317  24.081  1.00  0.00     0.163 HD
BRANCH   3   6
ATOM      6  C   UNL A   1      35.535  23.351  25.825  1.00  0.00     0.216 C 
BRANCH   6   7
ATOM      7  N   UNL A   1      35.089  22.182  26.558  1.00  0.00    -0.344 N 
ATOM      8  C   UNL A   1      33.883  21.963  27.153  1.00  0.00     0.258 C 
ATOM      9  O   UNL A   1      33.603  20.809  27.481  1.00  0.00    -0.271 OA
ATOM     10  H   UNL A   1      35.743  21.451  26.637  1.00  0.00     0.164 HD
BRANCH   8  11
ATOM     11  C   UNL A   1      32.886  23.119  27.383  1.00  0.00     0.329 C 
BRANCH  11  12
ATOM     12  O   UNL A   1      31.967  23.462  26.350  1.00  0.00    -0.483 OA
BRANCH  12  13
ATOM     13  C   UNL A   1      32.048  24.699  25.752  1.00  0.00     0.135 A 
ATOM     14  C   UNL A   1      32.375  23.598  23.422  1.00  0.00    -0.026 A 
ATOM     15  C   UNL A   1      32.692  23.822  22.136  1.00  0.00     0.098 A 
ATOM     16  C   UNL A   1      32.307  24.754  24.358  1.00  0.00     0.063 A 
ATOM     17  C   UNL A   1      32.953  25.142  21.563  1.00  0.00     0.336 A 
ATOM     18  C   UNL A   1      32.585  26.028  23.816  1.00  0.00     0.149 A 
ATOM     19  O   UNL A   1      33.164  25.267  20.363  1.00  0.00    -0.246 OA
ATOM     20  O   UNL A   1      32.902  26.197  22.444  1.00  0.00    -0.422 OA
ATOM     21  C   UNL A   1      32.621  27.205  24.584  1.00  0.00     0.038 A 
ATOM     22  C   UNL A   1      31.996  25.887  26.498  1.00  0.00     0.094 A 
ATOM     23  C   UNL A   1      32.338  27.112  25.936  1.00  0.00     0.130 A 
ATOM     24  C   UNL A   1      33.071  28.509  23.999  1.00  0.00     0.047 C 
ATOM     25  O   UNL A   1      32.415  28.158  26.810  1.00  0.00    -0.487 OA
ATOM     26  C   UNL A   1      32.828  29.677  24.944  1.00  0.00     0.053 C 
ATOM     27  C   UNL A   1      33.175  29.308  26.392  1.00  0.00     0.104 C 
ATOM     28  C   UNL A   1      32.745  30.449  27.324  1.00  0.00     0.056 C 
ATOM     29  C   UNL A   1      34.676  29.053  26.617  1.00  0.00     0.056 C 
BRANCH  14  30
ATOM     30  C   UNL A   1      32.054  22.175  23.819  1.00  0.00     0.033 C 
ATOM     31  C   UNL A   1      33.252  21.248  23.684  1.00  0.00     0.009 C 
ENDBRANCH  14  30
ENDBRANCH  12  13
ENDBRANCH  11  12
ENDBRANCH   8  11
ENDBRANCH   6   7
ENDBRANCH   3   6
ENDBRANCH   1   2
BRANCH   1  32
ATOM     32  C   UNL A   1      39.660  21.579  26.107  1.00  0.00     0.042 C 
BRANCH  32  33
ATOM     33  C   UNL A   1      39.305  20.101  26.000  1.00  0.00     0.118 C 
BRANCH  33  34
ATOM     34  N   UNL A   1      40.460  19.214  25.880  1.00  0.00    -0.352 N 
ATOM     35  C   UNL A   1      41.811  19.409  26.066  1.00  0.00     0.251 C 
ATOM     36  H   UNL A   1      40.226  18.296  25.615  1.00  0.00     0.163 HD
ATOM     37  O   UNL A   1      42.568  18.461  25.862  1.00  0.00    -0.269 OA
BRANCH  35  38
ATOM     38  C   UNL A   1      42.387  20.721  26.447  1.00  0.00     0.039 A 
ATOM     39  C   UNL A   1      42.843  21.582  25.433  1.00  0.00     0.014 A 
ATOM     40  C   UNL A   1      42.503  21.121  27.774  1.00  0.00     0.014 A 
ATOM     41  C   UNL A   1      43.304  22.867  25.738  1.00  0.00     0.010 A 
ATOM     42  C   UNL A   1      42.891  22.421  28.078  1.00  0.00     0.010 A 
ATOM     43  C   UNL A   1      43.308  23.301  27.066  1.00  0.00    -0.014 A 
BRANCH  43  44
ATOM     44  C   UNL A   1      43.856  24.615  27.482  1.00  0.00     0.031 A 
ATOM     45  C   UNL A   1      42.891  25.674  27.928  1.00  0.00     0.074 A 
ATOM     46  C   UNL A   1      45.156  24.911  27.307  1.00  0.00     0.049 A 
ATOM     47  N   UNL A   1      43.096  26.946  28.132  1.00  0.00    -0.248 NA
ATOM     48  C   UNL A   1      41.497  25.244  28.128  1.00  0.00     0.031 C 
ATOM     49  C   UNL A   1      46.179  23.978  26.846  1.00  0.00     0.029 A 
ATOM     50  N   UNL A   1      45.826  26.104  27.429  1.00  0.00    -0.354 N 
ATOM     51  C   UNL A   1      41.853  27.477  28.446  1.00  0.00     0.074 A 
ATOM     52  C   UNL A   1      40.892  26.398  28.357  1.00  0.00     0.031 C 
ATOM     53  C   UNL A   1      47.328  24.644  26.647  1.00  0.00     0.029 A 
ATOM     54  C   UNL A   1      47.121  26.053  26.963  1.00  0.00     0.049 A 
ATOM     55  H   UNL A   1      45.421  26.916  27.811  1.00  0.00     0.167 HD
ATOM     56  C   UNL A   1      41.541  28.741  28.812  1.00  0.00     0.034 A 
ATOM     57  C   UNL A   1      48.029  27.031  26.789  1.00  0.00     0.034 A 
ATOM     58  C   UNL A   1      42.508  29.794  28.937  1.00  0.00     0.049 A 
ATOM     59  C   UNL A   1      47.677  28.429  27.219  1.00  0.00     0.074 A 
ATOM     60  C   UNL A   1      42.328  31.081  29.406  1.00  0.00     0.029 A 
ATOM     61  N   UNL A   1      43.844  29.680  28.579  1.00  0.00    -0.354 N 
ATOM     62  N   UNL A   1      46.537  28.880  27.685  1.00  0.00    -0.248 NA
ATOM     63  C   UNL A   1      48.743  29.437  27.154  1.00  0.00     0.031 C 
ATOM     64  C   UNL A   1      43.553  31.751  29.314  1.00  0.00     0.029 A 
ATOM     65  C   UNL A   1      44.501  30.875  28.804  1.00  0.00     0.049 A 
ATOM     66  H   UNL A   1      44.264  28.865  28.216  1.00  0.00     0.167 HD
ATOM     67  C   UNL A   1      46.760  30.212  28.014  1.00  0.00     0.074 A 
ATOM     68  C   UNL A   1      48.147  30.491  27.697  1.00  0.00     0.031 C 
ATOM     69  C   UNL A   1      45.894  31.120  28.530  1.00  0.00     0.034 A 
BRANCH  56  70
ATOM     70  C   UNL A   1      40.100  29.016  29.143  1.00  0.00     0.023 A 
ATOM     71  C   UNL A   1      39.193  29.313  28.103  1.00  0.00     0.012 A 
ATOM     72  C   UNL A   1      39.646  29.012  30.474  1.00  0.00     0.148 A 
ATOM     73  C   UNL A   1      37.872  29.657  28.388  1.00  0.00     0.002 A 
ATOM     74  C   UNL A   1      38.315  29.310  30.747  1.00  0.00     0.091 A 
ATOM     75  F   UNL A   1      40.526  28.759  31.454  1.00  0.00    -0.205 F 
ATOM     76  C   UNL A   1      37.433  29.648  29.707  1.00  0.00     0.022 A 
BRANCH  74  77
ATOM     77  S   UNL A   1      37.644  29.256  32.411  1.00  0.00     0.127 S 
ATOM     78  O   UNL A   1      38.495  30.222  33.105  1.00  0.00    -0.237 OA
ATOM     79  O   UNL A   1      36.264  29.697  32.205  1.00  0.00    -0.237 OA
ATOM     80  O   UNL A   1      37.774  27.872  32.844  1.00  0.00    -0.744 OA
ENDBRANCH  74  77
ENDBRANCH  56  70
BRANCH  57  81
ATOM     81  C   UNL A   1      49.378  26.699  26.248  1.00  0.00     0.023 A 
ATOM     82  C   UNL A   1      50.243  25.885  27.004  1.00  0.00     0.012 A 
ATOM     83  C   UNL A   1      49.781  27.129  24.968  1.00  0.00     0.148 A 
ATOM     84  C   UNL A   1      51.495  25.522  26.506  1.00  0.00     0.002 A 
ATOM     85  C   UNL A   1      51.012  26.728  24.460  1.00  0.00     0.091 A 
ATOM     86  F   UNL A   1      48.940  27.902  24.266  1.00  0.00    -0.205 F 
ATOM     87  C   UNL A   1      51.875  25.936  25.232  1.00  0.00     0.022 A 
BRANCH  85  88
ATOM     88  S   UNL A   1      51.548  27.115  22.788  1.00  0.00     0.127 S 
ATOM     89  O   UNL A   1      51.828  28.545  22.888  1.00  0.00    -0.237 OA
ATOM     90  O   UNL A   1      52.730  26.263  22.652  1.00  0.00    -0.237 OA
ATOM     91  O   UNL A   1      50.435  26.751  21.922  1.00  0.00    -0.744 OA
ENDBRANCH  85  88
ENDBRANCH  57  81
BRANCH  69  92
ATOM     92  C   UNL A   1      46.422  32.498  28.823  1.00  0.00     0.023 A 
ATOM     93  C   UNL A   1      46.934  32.795  30.102  1.00  0.00     0.012 A 
ATOM     94  C   UNL A   1      46.498  33.466  27.803  1.00  0.00     0.148 A 
ATOM     95  C   UNL A   1      47.491  34.044  30.367  1.00  0.00     0.002 A 
ATOM     96  C   UNL A   1      47.100  34.692  28.061  1.00  0.00     0.091 A 
ATOM     97  F   UNL A   1      45.985  33.170  26.600  1.00  0.00    -0.205 F 
ATOM     98  C   UNL A   1      47.588  34.986  29.344  1.00  0.00     0.022 A 
BRANCH  96  99
ATOM     99  S   UNL A   1      47.356  35.921  26.777  1.00  0.00     0.127 S 
ATOM    100  O   UNL A   1      48.216  36.888  27.457  1.00  0.00    -0.237 OA
ATOM    101  O   UNL A   1      48.022  35.145  25.730  1.00  0.00    -0.237 OA
ATOM    102  O   UNL A   1      46.031  36.405  26.416  1.00  0.00    -0.744 OA
ENDBRANCH  96  99
ENDBRANCH  69  92
ENDBRANCH  43  44
ENDBRANCH  35  38
ENDBRANCH  33  34
ENDBRANCH  32  33
ENDBRANCH   1  32
TORSDOF 18
ENDMDL
MODEL 3
REMARK VINA RESULT:     -11.9      2.164      7.948
REMARK SMILES CCc1cc(=O)oc2c3c(cc(OCC(=O)NCC(=O)NCCCNC(=O)c4ccc(-c5c6nc(c(-c7cccc(S(=O)(=O)[O-])c7F)c7ccc([nH]7)c(-c7cccc(S(=O)(=O)[O-])c7F)c7nc(c(-c8cccc(S(=O)(=O)[O-])c8F)c8ccc5[nH]8)C=C7)C=C6)cc4)c12)OC(C)(C)CC3
REMARK SMILES IDX 22 1 21 2 19 3 20 4 18 6 17 7 15 8 16 9 14 11 13 12 12 13
REMARK SMILES IDX 3 14 4 15 91 16 5 17 8 18 6 19 7 20 9 21 11 22 10 23 97 24
REMARK SMILES IDX 92 25 96 26 93 27 94 28 95 29 2 30 1 31 23 32 24 33 25 34
REMARK SMILES IDX 26 35 27 37 28 38 29 39 90 40 30 41 89 42 31 43 32 44 33 45
REMARK SMILES IDX 83 46 34 47 88 48 82 49 84 50 35 51 87 52 81 53 80 54 36 56
REMARK SMILES IDX 68 57 48 58 67 59 49 60 52 61 66 62 85 63 50 64 51 65 65 67
REMARK SMILES IDX 86 68 53 69 37 70 38 71 46 72 39 73 41 74 47 75 40 76 42 77
REMARK SMILES IDX 43 78 44 79 45 80 69 81 70 82 78 83 71 84 73 85 79 86 72 87
REMARK SMILES IDX 74 88 75 89 76 90 77 91 54 92 55 93 63 94 56 95 58 96 64 97
REMARK SMILES IDX 57 98 59 99 60 100 61 101 62 102
REMARK H PARENT 21 5 17 10 25 36 84 55 52 66
REMARK Flexibility Score: inf
ROOT
ATOM      1  C   UNL A   1      31.439  29.471  24.843  1.00  0.00     0.117 C 
ENDROOT
BRANCH   1   2
ATOM      2  N   UNL A   1      30.860  29.604  23.524  1.00  0.00    -0.355 N 
ATOM      3  C   UNL A   1      30.188  28.657  22.801  1.00  0.00     0.239 C 
ATOM      4  O   UNL A   1      29.515  29.039  21.839  1.00  0.00    -0.273 OA
ATOM      5  H   UNL A   1      30.962  30.484  23.094  1.00  0.00     0.163 HD
BRANCH   3   6
ATOM      6  C   UNL A   1      30.136  27.191  23.262  1.00  0.00     0.216 C 
BRANCH   6   7
ATOM      7  N   UNL A   1      31.205  26.351  22.756  1.00  0.00    -0.344 N 
ATOM      8  C   UNL A   1      31.400  25.017  22.952  1.00  0.00     0.258 C 
ATOM      9  O   UNL A   1      32.201  24.438  22.217  1.00  0.00    -0.271 OA
ATOM     10  H   UNL A   1      31.877  26.805  22.199  1.00  0.00     0.164 HD
BRANCH   8  11
ATOM     11  C   UNL A   1      30.622  24.249  24.042  1.00  0.00     0.329 C 
BRANCH  11  12
ATOM     12  O   UNL A   1      31.256  23.972  25.286  1.00  0.00    -0.483 OA
BRANCH  12  13
ATOM     13  C   UNL A   1      32.141  22.922  25.379  1.00  0.00     0.135 A 
ATOM     14  C   UNL A   1      34.150  24.567  25.458  1.00  0.00    -0.026 A 
ATOM     15  C   UNL A   1      35.488  24.669  25.406  1.00  0.00     0.098 A 
ATOM     16  C   UNL A   1      33.529  23.215  25.397  1.00  0.00     0.063 A 
ATOM     17  C   UNL A   1      36.406  23.533  25.321  1.00  0.00     0.336 A 
ATOM     18  C   UNL A   1      34.408  22.115  25.287  1.00  0.00     0.149 A 
ATOM     19  O   UNL A   1      37.617  23.709  25.351  1.00  0.00    -0.246 OA
ATOM     20  O   UNL A   1      35.815  22.293  25.249  1.00  0.00    -0.422 OA
ATOM     21  C   UNL A   1      33.973  20.785  25.158  1.00  0.00     0.038 A 
ATOM     22  C   UNL A   1      31.711  21.586  25.341  1.00  0.00     0.094 A 
ATOM     23  C   UNL A   1      32.611  20.539  25.171  1.00  0.00     0.130 A 
ATOM     24  C   UNL A   1      34.934  19.668  24.890  1.00  0.00     0.047 C 
ATOM     25  O   UNL A   1      32.049  19.310  24.974  1.00  0.00    -0.487 OA
ATOM     26  C   UNL A   1      34.273  18.302  25.000  1.00  0.00     0.053 C 
ATOM     27  C   UNL A   1      32.877  18.302  24.363  1.00  0.00     0.104 C 
ATOM     28  C   UNL A   1      32.184  16.965  24.657  1.00  0.00     0.056 C 
ATOM     29  C   UNL A   1      32.899  18.498  22.836  1.00  0.00     0.056 C 
BRANCH  14  30
ATOM     30  C   UNL A   1      33.364  25.846  25.631  1.00  0.00     0.033 C 
ATOM     31  C   UNL A   1      34.260  27.068  25.762  1.00  0.00     0.009 C 
ENDBRANCH  14  30
ENDBRANCH  12  13
ENDBRANCH  11  12
ENDBRANCH   8  11
ENDBRANCH   6   7
ENDBRANCH   3   6
ENDBRANCH   1   2
BRANCH   1  32
ATOM     32  C   UNL A   1      31.233  30.684  25.729  1.00  0.00     0.042 C 
BRANCH  32  33
ATOM     33  C   UNL A   1      32.359  30.944  26.721  1.00  0.00     0.118 C 
BRANCH  33  34
ATOM     34  N   UNL A   1      32.662  32.359  26.929  1.00  0.00    -0.352 N 
ATOM     35  C   UNL A   1      33.667  33.009  27.609  1.00  0.00     0.251 C 
ATOM     36  H   UNL A   1      32.021  32.967  26.494  1.00  0.00     0.163 HD
ATOM     37  O   UNL A   1      33.651  34.239  27.634  1.00  0.00    -0.269 OA
BRANCH  35  38
ATOM     38  C   UNL A   1      34.728  32.288  28.354  1.00  0.00     0.039 A 
ATOM     39  C   UNL A   1      34.541  30.926  28.652  1.00  0.00     0.014 A 
ATOM     40  C   UNL A   1      35.893  32.918  28.777  1.00  0.00     0.014 A 
ATOM     41  C   UNL A   1      35.555  30.182  29.266  1.00  0.00     0.010 A 
ATOM     42  C   UNL A   1      36.931  32.169  29.320  1.00  0.00     0.010 A 
ATOM     43  C   UNL A   1      36.768  30.799  29.582  1.00  0.00    -0.014 A 
BRANCH  43  44
ATOM     44  C   UNL A   1      37.860  30.104  30.306  1.00  0.00     0.031 A 
ATOM     45  C   UNL A   1      38.203  30.576  31.689  1.00  0.00     0.074 A 
ATOM     46  C   UNL A   1      38.634  29.195  29.688  1.00  0.00     0.049 A 
ATOM     47  N   UNL A   1      39.234  30.283  32.431  1.00  0.00    -0.248 NA
ATOM     48  C   UNL A   1      37.274  31.545  32.297  1.00  0.00     0.031 C 
ATOM     49  C   UNL A   1      38.422  28.686  28.337  1.00  0.00     0.029 A 
ATOM     50  N   UNL A   1      39.798  28.588  30.092  1.00  0.00    -0.354 N 
ATOM     51  C   UNL A   1      39.102  31.057  33.575  1.00  0.00     0.074 A 
ATOM     52  C   UNL A   1      37.916  31.870  33.406  1.00  0.00     0.031 C 
ATOM     53  C   UNL A   1      39.460  27.908  27.990  1.00  0.00     0.029 A 
ATOM     54  C   UNL A   1      40.412  27.866  29.094  1.00  0.00     0.049 A 
ATOM     55  H   UNL A   1      40.159  28.663  31.005  1.00  0.00     0.167 HD
ATOM     56  C   UNL A   1      39.877  31.068  34.684  1.00  0.00     0.034 A 
ATOM     57  C   UNL A   1      41.614  27.258  29.063  1.00  0.00     0.034 A 
ATOM     58  C   UNL A   1      41.027  30.228  34.857  1.00  0.00     0.049 A 
ATOM     59  C   UNL A   1      42.455  27.260  30.310  1.00  0.00     0.074 A 
ATOM     60  C   UNL A   1      41.820  30.070  35.977  1.00  0.00     0.029 A 
ATOM     61  N   UNL A   1      41.555  29.406  33.871  1.00  0.00    -0.354 N 
ATOM     62  N   UNL A   1      42.226  27.859  31.453  1.00  0.00    -0.248 NA
ATOM     63  C   UNL A   1      43.688  26.461  30.284  1.00  0.00     0.031 C 
ATOM     64  C   UNL A   1      42.841  29.166  35.662  1.00  0.00     0.029 A 
ATOM     65  C   UNL A   1      42.672  28.746  34.351  1.00  0.00     0.049 A 
ATOM     66  H   UNL A   1      41.189  29.308  32.962  1.00  0.00     0.167 HD
ATOM     67  C   UNL A   1      43.259  27.473  32.300  1.00  0.00     0.074 A 
ATOM     68  C   UNL A   1      44.111  26.584  31.536  1.00  0.00     0.031 C 
ATOM     69  C   UNL A   1      43.480  27.825  33.591  1.00  0.00     0.034 A 
BRANCH  56  70
ATOM     70  C   UNL A   1      39.457  31.987  35.797  1.00  0.00     0.023 A 
ATOM     71  C   UNL A   1      38.540  31.528  36.767  1.00  0.00     0.012 A 
ATOM     72  C   UNL A   1      39.939  33.306  35.873  1.00  0.00     0.148 A 
ATOM     73  C   UNL A   1      38.067  32.384  37.760  1.00  0.00     0.002 A 
ATOM     74  C   UNL A   1      39.497  34.141  36.894  1.00  0.00     0.091 A 
ATOM     75  F   UNL A   1      40.785  33.738  34.926  1.00  0.00    -0.205 F 
ATOM     76  C   UNL A   1      38.551  33.687  37.827  1.00  0.00     0.022 A 
BRANCH  74  77
ATOM     77  S   UNL A   1      40.119  35.812  37.099  1.00  0.00     0.127 S 
ATOM     78  O   UNL A   1      39.650  36.455  35.873  1.00  0.00    -0.237 OA
ATOM     79  O   UNL A   1      39.436  36.252  38.317  1.00  0.00    -0.237 OA
ATOM     80  O   UNL A   1      41.563  35.682  37.234  1.00  0.00    -0.744 OA
ENDBRANCH  74  77
ENDBRANCH  56  70
BRANCH  57  81
ATOM     81  C   UNL A   1      42.047  26.542  27.830  1.00  0.00     0.023 A 
ATOM     82  C   UNL A   1      42.768  27.242  26.843  1.00  0.00     0.012 A 
ATOM     83  C   UNL A   1      41.807  25.164  27.660  1.00  0.00     0.148 A 
ATOM     84  C   UNL A   1      43.224  26.588  25.697  1.00  0.00     0.002 A 
ATOM     85  C   UNL A   1      42.301  24.510  26.536  1.00  0.00     0.091 A 
ATOM     86  F   UNL A   1      41.120  24.518  28.613  1.00  0.00    -0.205 F 
ATOM     87  C   UNL A   1      42.998  25.222  25.548  1.00  0.00     0.022 A 
BRANCH  85  88
ATOM     88  S   UNL A   1      42.161  22.733  26.304  1.00  0.00     0.127 S 
ATOM     89  O   UNL A   1      40.712  22.545  26.309  1.00  0.00    -0.237 OA
ATOM     90  O   UNL A   1      42.801  22.553  25.000  1.00  0.00    -0.237 OA
ATOM     91  O   UNL A   1      42.877  22.131  27.420  1.00  0.00    -0.744 OA
ENDBRANCH  85  88
ENDBRANCH  57  81
BRANCH  69  92
ATOM     92  C   UNL A   1      44.671  27.222  34.283  1.00  0.00     0.023 A 
ATOM     93  C   UNL A   1      45.905  27.902  34.275  1.00  0.00     0.012 A 
ATOM     94  C   UNL A   1      44.541  26.029  35.021  1.00  0.00     0.148 A 
ATOM     95  C   UNL A   1      46.999  27.390  34.972  1.00  0.00     0.002 A 
ATOM     96  C   UNL A   1      45.621  25.551  35.752  1.00  0.00     0.091 A 
ATOM     97  F   UNL A   1      43.364  25.386  34.997  1.00  0.00    -0.205 F 
ATOM     98  C   UNL A   1      46.853  26.224  35.722  1.00  0.00     0.022 A 
BRANCH  96  99
ATOM     99  S   UNL A   1      45.491  24.115  36.824  1.00  0.00     0.127 S 
ATOM    100  O   UNL A   1      45.028  23.089  35.894  1.00  0.00    -0.237 OA
ATOM    101  O   UNL A   1      46.870  23.944  37.284  1.00  0.00    -0.237 OA
ATOM    102  O   UNL A   1      44.550  24.484  37.873  1.00  0.00    -0.744 OA
ENDBRANCH  96  99
ENDBRANCH  69  92
ENDBRANCH  43  44
ENDBRANCH  35  38
ENDBRANCH  33  34
ENDBRANCH  32  33
ENDBRANCH   1  32
TORSDOF 18
ENDMDL
