MODEL 1
REMARK VINA RESULT:     -10.6      0.000      0.000
REMARK SMILES O=C(NCCCNC(=O)[C@H](CO)NC(=O)[C@H](CS)NC(=O)[C@H](Cc1c[nH]c2ccccc12)NC(=O)c1ccc(F)cc1)c1ccc(-c2c3nc(c(-c4cccc(S(=O)(=O)[O-])c4F)c4ccc([nH]4)c(-c4cccc(S(=O)(=O)[O-])c4F)c4nc(c(-c5cccc(S(=O)(=O)[O-])c5F)c5ccc2[nH]5)C=C4)C=C3)cc1
REMARK SMILES IDX 7 1 8 2 9 3 6 5 5 6 4 7 3 8 1 9 2 10 43 12 44 13 105 14
REMARK SMILES IDX 45 15 104 16 46 17 47 18 48 19 98 20 49 21 103 22 97 23
REMARK SMILES IDX 99 24 50 25 102 26 96 27 95 28 51 30 83 31 63 32 82 33 64 34
REMARK SMILES IDX 67 35 81 36 100 37 65 38 66 39 80 41 101 42 68 43 52 44
REMARK SMILES IDX 53 45 61 46 54 47 56 48 62 49 55 50 57 51 58 52 59 53 60 54
REMARK SMILES IDX 84 55 85 56 93 57 86 58 88 59 94 60 87 61 89 62 90 63 91 64
REMARK SMILES IDX 92 65 69 66 70 67 78 68 71 69 73 70 79 71 72 72 74 73 75 74
REMARK SMILES IDX 76 75 77 76 10 77 13 78 14 79 15 81 16 82 19 83 20 84 21 86
REMARK SMILES IDX 22 87 33 88 34 89 35 91 36 92 37 93 42 94 38 95 41 96 39 97
REMARK SMILES IDX 40 98 23 99 24 100 25 101 32 102 26 103 27 104 31 105 28 107
REMARK SMILES IDX 30 108 29 109 17 110 18 111 11 113 12 114
REMARK H PARENT 7 4 3 11 99 29 67 40 13 80 19 85 33 90 26 106 18 112 12 115
REMARK Flexibility Score: inf
ROOT
ATOM      1  N   UNL A   1      42.433  21.589  28.525  1.00  0.00    -0.354 N 
ATOM      2  C   UNL A   1      41.422  21.245  27.507  1.00  0.00     0.244 C 
ATOM      3  O   UNL A   1      40.901  20.127  27.663  1.00  0.00    -0.273 OA
ATOM      4  H   UNL A   1      42.436  20.845  29.169  1.00  0.00     0.163 HD
ENDROOT
BRANCH   1   5
ATOM      5  C   UNL A   1      43.870  22.956  29.211  1.00  0.00     0.117 C 
BRANCH   5   6
ATOM      6  C   UNL A   1      43.830  24.551  29.719  1.00  0.00     0.042 C 
BRANCH   6   7
ATOM      7  C   UNL A   1      42.954  25.393  28.812  1.00  0.00     0.118 C 
BRANCH   7   8
ATOM      8  N   UNL A   1      43.461  25.628  27.459  1.00  0.00    -0.352 N 
ATOM      9  O   UNL A   1      44.351  26.972  25.845  1.00  0.00    -0.269 OA
ATOM     10  C   UNL A   1      43.946  26.833  26.990  1.00  0.00     0.251 C 
ATOM     11  H   UNL A   1      43.453  24.868  26.834  1.00  0.00     0.163 HD
BRANCH  10  12
ATOM     12  C   UNL A   1      43.864  27.957  27.937  1.00  0.00     0.039 A 
ATOM     13  C   UNL A   1      42.938  28.965  27.673  1.00  0.00     0.014 A 
ATOM     14  C   UNL A   1      44.920  28.147  28.827  1.00  0.00     0.014 A 
ATOM     15  C   UNL A   1      43.201  30.241  28.136  1.00  0.00     0.010 A 
ATOM     16  C   UNL A   1      45.074  29.393  29.429  1.00  0.00     0.010 A 
ATOM     17  C   UNL A   1      44.237  30.459  29.062  1.00  0.00    -0.014 A 
BRANCH  17  18
ATOM     18  C   UNL A   1      44.327  31.775  29.737  1.00  0.00     0.031 A 
ATOM     19  C   UNL A   1      43.467  32.134  30.913  1.00  0.00     0.074 A 
ATOM     20  C   UNL A   1      45.193  32.668  29.219  1.00  0.00     0.049 A 
ATOM     21  N   UNL A   1      43.392  33.277  31.545  1.00  0.00    -0.248 NA
ATOM     22  C   UNL A   1      42.568  31.098  31.448  1.00  0.00     0.031 C 
ATOM     23  C   UNL A   1      46.048  32.428  28.049  1.00  0.00     0.029 A 
ATOM     24  N   UNL A   1      45.499  33.950  29.588  1.00  0.00    -0.354 N 
ATOM     25  C   UNL A   1      42.408  33.121  32.512  1.00  0.00     0.074 A 
ATOM     26  C   UNL A   1      41.912  31.766  32.390  1.00  0.00     0.031 C 
ATOM     27  C   UNL A   1      46.808  33.503  27.825  1.00  0.00     0.029 A 
ATOM     28  C   UNL A   1      46.415  34.548  28.757  1.00  0.00     0.049 A 
ATOM     29  H   UNL A   1      45.103  34.398  30.370  1.00  0.00     0.167 HD
ATOM     30  C   UNL A   1      41.965  34.030  33.412  1.00  0.00     0.034 A 
ATOM     31  C   UNL A   1      46.860  35.816  28.700  1.00  0.00     0.034 A 
ATOM     32  C   UNL A   1      42.489  35.367  33.524  1.00  0.00     0.049 A 
ATOM     33  C   UNL A   1      46.342  36.797  29.702  1.00  0.00     0.074 A 
ATOM     34  C   UNL A   1      42.154  36.341  34.448  1.00  0.00     0.029 A 
ATOM     35  N   UNL A   1      43.436  35.928  32.680  1.00  0.00    -0.354 N 
ATOM     36  N   UNL A   1      45.483  36.600  30.672  1.00  0.00    -0.248 NA
ATOM     37  C   UNL A   1      46.865  38.165  29.621  1.00  0.00     0.031 C 
ATOM     38  C   UNL A   1      42.853  37.507  34.127  1.00  0.00     0.029 A 
ATOM     39  C   UNL A   1      43.677  37.242  33.046  1.00  0.00     0.049 A 
ATOM     40  H   UNL A   1      43.872  35.461  31.931  1.00  0.00     0.167 HD
ATOM     41  C   UNL A   1      45.382  37.812  31.337  1.00  0.00     0.074 A 
ATOM     42  C   UNL A   1      46.284  38.730  30.671  1.00  0.00     0.031 C 
ATOM     43  C   UNL A   1      44.605  38.134  32.398  1.00  0.00     0.034 A 
BRANCH  30  44
ATOM     44  C   UNL A   1      40.869  33.631  34.368  1.00  0.00     0.023 A 
ATOM     45  C   UNL A   1      41.182  33.301  35.701  1.00  0.00     0.012 A 
ATOM     46  C   UNL A   1      39.516  33.713  33.976  1.00  0.00     0.148 A 
ATOM     47  C   UNL A   1      40.169  33.044  36.626  1.00  0.00     0.002 A 
ATOM     48  C   UNL A   1      38.513  33.505  34.914  1.00  0.00     0.091 A 
ATOM     49  F   UNL A   1      39.238  34.013  32.701  1.00  0.00    -0.205 F 
ATOM     50  C   UNL A   1      38.837  33.161  36.237  1.00  0.00     0.022 A 
BRANCH  48  51
ATOM     51  S   UNL A   1      36.769  33.722  34.539  1.00  0.00     0.127 S 
ATOM     52  O   UNL A   1      36.518  32.591  33.647  1.00  0.00    -0.237 OA
ATOM     53  O   UNL A   1      36.155  33.602  35.862  1.00  0.00    -0.237 OA
ATOM     54  O   UNL A   1      36.648  35.035  33.923  1.00  0.00    -0.744 OA
ENDBRANCH  48  51
ENDBRANCH  30  44
BRANCH  31  55
ATOM     55  C   UNL A   1      47.848  36.194  27.656  1.00  0.00     0.023 A 
ATOM     56  C   UNL A   1      47.403  36.794  26.466  1.00  0.00     0.012 A 
ATOM     57  C   UNL A   1      49.232  36.047  27.883  1.00  0.00     0.148 A 
ATOM     58  C   UNL A   1      48.320  37.224  25.505  1.00  0.00     0.002 A 
ATOM     59  C   UNL A   1      50.140  36.537  26.953  1.00  0.00     0.091 A 
ATOM     60  F   UNL A   1      49.631  35.477  29.028  1.00  0.00    -0.205 F 
ATOM     61  C   UNL A   1      49.685  37.108  25.755  1.00  0.00     0.022 A 
BRANCH  59  62
ATOM     62  S   UNL A   1      51.909  36.571  27.258  1.00  0.00     0.127 S 
ATOM     63  O   UNL A   1      52.443  36.618  25.899  1.00  0.00    -0.237 OA
ATOM     64  O   UNL A   1      52.055  37.810  28.023  1.00  0.00    -0.237 OA
ATOM     65  O   UNL A   1      52.207  35.360  28.009  1.00  0.00    -0.744 OA
ENDBRANCH  59  62
ENDBRANCH  31  55
BRANCH  43  66
ATOM     66  C   UNL A   1      44.715  39.530  32.948  1.00  0.00     0.023 A 
ATOM     67  C   UNL A   1      45.583  39.800  34.023  1.00  0.00     0.012 A 
ATOM     68  C   UNL A   1      44.035  40.591  32.319  1.00  0.00     0.148 A 
ATOM     69  C   UNL A   1      45.759  41.107  34.476  1.00  0.00     0.002 A 
ATOM     70  C   UNL A   1      44.263  41.896  32.735  1.00  0.00     0.091 A 
ATOM     71  F   UNL A   1      43.199  40.306  31.310  1.00  0.00    -0.205 F 
ATOM     72  C   UNL A   1      45.114  42.154  33.821  1.00  0.00     0.022 A 
BRANCH  70  73
ATOM     73  S   UNL A   1      43.564  43.315  31.886  1.00  0.00     0.127 S 
ATOM     74  O   UNL A   1      44.069  43.126  30.526  1.00  0.00    -0.237 OA
ATOM     75  O   UNL A   1      42.128  43.088  32.042  1.00  0.00    -0.237 OA
ATOM     76  O   UNL A   1      44.074  44.492  32.575  1.00  0.00    -0.744 OA
ENDBRANCH  70  73
ENDBRANCH  43  66
ENDBRANCH  17  18
ENDBRANCH  10  12
ENDBRANCH   7   8
ENDBRANCH   6   7
ENDBRANCH   5   6
ENDBRANCH   1   5
BRANCH   2  77
ATOM     77  C   UNL A   1      40.919  22.147  26.223  1.00  0.00     0.197 C 
BRANCH  77  78
ATOM     78  N   UNL A   1      40.055  23.289  26.620  1.00  0.00    -0.340 N 
ATOM     79  C   UNL A   1      38.733  23.604  26.414  1.00  0.00     0.244 C 
ATOM     80  H   UNL A   1      40.535  23.968  27.147  1.00  0.00     0.164 HD
ATOM     81  O   UNL A   1      38.358  24.692  26.866  1.00  0.00    -0.273 OA
BRANCH  79  82
ATOM     82  C   UNL A   1      37.698  22.641  25.748  1.00  0.00     0.181 C 
BRANCH  82  83
ATOM     83  N   UNL A   1      37.570  22.936  24.299  1.00  0.00    -0.342 N 
ATOM     84  C   UNL A   1      36.506  23.131  23.457  1.00  0.00     0.243 C 
ATOM     85  H   UNL A   1      38.440  23.007  23.842  1.00  0.00     0.164 HD
ATOM     86  O   UNL A   1      36.720  23.048  22.242  1.00  0.00    -0.273 OA
BRANCH  84  87
ATOM     87  C   UNL A   1      35.140  23.631  23.968  1.00  0.00     0.176 C 
BRANCH  87  88
ATOM     88  N   UNL A   1      34.147  22.618  23.506  1.00  0.00    -0.340 N 
ATOM     89  C   UNL A   1      32.935  22.658  22.848  1.00  0.00     0.251 C 
ATOM     90  H   UNL A   1      34.424  21.699  23.722  1.00  0.00     0.164 HD
ATOM     91  O   UNL A   1      32.414  21.599  22.502  1.00  0.00    -0.269 OA
BRANCH  89  92
ATOM     92  C   UNL A   1      32.139  23.896  22.649  1.00  0.00     0.040 A 
ATOM     93  C   UNL A   1      32.895  25.336  21.891  1.00  0.00     0.017 A 
ATOM     94  C   UNL A   1      30.634  24.114  23.627  1.00  0.00     0.017 A 
ATOM     95  C   UNL A   1      32.201  27.024  22.136  1.00  0.00     0.040 A 
ATOM     96  C   UNL A   1      29.911  25.757  23.831  1.00  0.00     0.040 A 
ATOM     97  C   UNL A   1      30.648  27.185  23.031  1.00  0.00     0.123 A 
ATOM     98  F   UNL A   1      30.087  28.394  23.156  1.00  0.00    -0.207 F 
ENDBRANCH  89  92
ENDBRANCH  87  88
BRANCH  87  99
ATOM     99  C   UNL A   1      35.040  23.950  25.469  1.00  0.00     0.072 C 
BRANCH  99 100
ATOM    100  C   UNL A   1      33.747  24.632  25.935  1.00  0.00    -0.020 A 
ATOM    101  C   UNL A   1      32.705  23.951  26.542  1.00  0.00     0.087 A 
ATOM    102  C   UNL A   1      33.284  26.003  25.853  1.00  0.00     0.003 A 
ATOM    103  N   UNL A   1      31.737  24.844  26.921  1.00  0.00    -0.361 N 
ATOM    104  C   UNL A   1      32.130  26.123  26.625  1.00  0.00     0.046 A 
ATOM    105  C   UNL A   1      33.711  27.187  25.232  1.00  0.00     0.010 A 
ATOM    106  H   UNL A   1      30.882  24.601  27.346  1.00  0.00     0.166 HD
ATOM    107  C   UNL A   1      31.537  27.359  26.937  1.00  0.00     0.026 A 
ATOM    108  C   UNL A   1      33.211  28.441  25.592  1.00  0.00     0.001 A 
ATOM    109  C   UNL A   1      32.146  28.525  26.467  1.00  0.00     0.002 A 
ENDBRANCH  99 100
ENDBRANCH  87  99
ENDBRANCH  84  87
ENDBRANCH  82  83
BRANCH  82 110
ATOM    110  C   UNL A   1      38.021  21.150  25.982  1.00  0.00     0.101 C 
BRANCH 110 111
ATOM    111  S   UNL A   1      37.240  19.963  24.840  1.00  0.00    -0.177 SA
ATOM    112  H   UNL A   1      35.925  19.828  25.157  1.00  0.00     0.102 HD
ENDBRANCH 110 111
ENDBRANCH  82 110
ENDBRANCH  79  82
ENDBRANCH  77  78
BRANCH  77 113
ATOM    113  C   UNL A   1      42.150  22.622  25.403  1.00  0.00     0.191 C 
BRANCH 113 114
ATOM    114  O   UNL A   1      43.195  21.633  25.466  1.00  0.00    -0.394 OA
ATOM    115  H   UNL A   1      44.028  22.023  25.157  1.00  0.00     0.210 HD
ENDBRANCH 113 114
ENDBRANCH  77 113
ENDBRANCH   2  77
TORSDOF 25
ENDMDL
MODEL 2
REMARK VINA RESULT:     -10.6      6.344     12.345
REMARK SMILES O=C(NCCCNC(=O)[C@H](CO)NC(=O)[C@H](CS)NC(=O)[C@H](Cc1c[nH]c2ccccc12)NC(=O)c1ccc(F)cc1)c1ccc(-c2c3nc(c(-c4cccc(S(=O)(=O)[O-])c4F)c4ccc([nH]4)c(-c4cccc(S(=O)(=O)[O-])c4F)c4nc(c(-c5cccc(S(=O)(=O)[O-])c5F)c5ccc2[nH]5)C=C4)C=C3)cc1
REMARK SMILES IDX 7 1 8 2 9 3 6 5 5 6 4 7 3 8 1 9 2 10 43 12 44 13 105 14
REMARK SMILES IDX 45 15 104 16 46 17 47 18 48 19 98 20 49 21 103 22 97 23
REMARK SMILES IDX 99 24 50 25 102 26 96 27 95 28 51 30 83 31 63 32 82 33 64 34
REMARK SMILES IDX 67 35 81 36 100 37 65 38 66 39 80 41 101 42 68 43 52 44
REMARK SMILES IDX 53 45 61 46 54 47 56 48 62 49 55 50 57 51 58 52 59 53 60 54
REMARK SMILES IDX 84 55 85 56 93 57 86 58 88 59 94 60 87 61 89 62 90 63 91 64
REMARK SMILES IDX 92 65 69 66 70 67 78 68 71 69 73 70 79 71 72 72 74 73 75 74
REMARK SMILES IDX 76 75 77 76 10 77 13 78 14 79 15 81 16 82 19 83 20 84 21 86
REMARK SMILES IDX 22 87 33 88 34 89 35 91 36 92 37 93 42 94 38 95 41 96 39 97
REMARK SMILES IDX 40 98 23 99 24 100 25 101 32 102 26 103 27 104 31 105 28 107
REMARK SMILES IDX 30 108 29 109 17 110 18 111 11 113 12 114
REMARK H PARENT 7 4 3 11 99 29 67 40 13 80 19 85 33 90 26 106 18 112 12 115
REMARK Flexibility Score: inf
ROOT
ATOM      1  N   UNL A   1      38.560  34.027  37.799  1.00  0.00    -0.354 N 
ATOM      2  C   UNL A   1      37.957  33.007  36.919  1.00  0.00     0.244 C 
ATOM      3  O   UNL A   1      37.418  32.065  37.525  1.00  0.00    -0.273 OA
ATOM      4  H   UNL A   1      38.345  33.754  38.720  1.00  0.00     0.163 HD
ENDROOT
BRANCH   1   5
ATOM      5  C   UNL A   1      39.672  35.799  37.963  1.00  0.00     0.117 C 
BRANCH   5   6
ATOM      6  C   UNL A   1      41.239  36.168  38.422  1.00  0.00     0.042 C 
BRANCH   6   7
ATOM      7  C   UNL A   1      42.068  34.910  38.601  1.00  0.00     0.118 C 
BRANCH   7   8
ATOM      8  N   UNL A   1      42.610  34.677  39.940  1.00  0.00    -0.352 N 
ATOM      9  O   UNL A   1      43.955  33.559  41.404  1.00  0.00    -0.269 OA
ATOM     10  C   UNL A   1      43.542  33.711  40.264  1.00  0.00     0.251 C 
ATOM     11  H   UNL A   1      42.284  35.254  40.668  1.00  0.00     0.163 HD
BRANCH  10  12
ATOM     12  C   UNL A   1      43.941  32.824  39.158  1.00  0.00     0.039 A 
ATOM     13  C   UNL A   1      45.014  33.220  38.361  1.00  0.00     0.014 A 
ATOM     14  C   UNL A   1      43.042  31.843  38.743  1.00  0.00     0.014 A 
ATOM     15  C   UNL A   1      45.055  32.786  37.048  1.00  0.00     0.010 A 
ATOM     16  C   UNL A   1      43.199  31.281  37.479  1.00  0.00     0.010 A 
ATOM     17  C   UNL A   1      44.185  31.773  36.609  1.00  0.00    -0.014 A 
BRANCH  17  18
ATOM     18  C   UNL A   1      44.426  31.148  35.287  1.00  0.00     0.031 A 
ATOM     19  C   UNL A   1      43.873  31.723  34.016  1.00  0.00     0.074 A 
ATOM     20  C   UNL A   1      45.136  30.003  35.274  1.00  0.00     0.049 A 
ATOM     21  N   UNL A   1      43.945  31.232  32.805  1.00  0.00    -0.248 NA
ATOM     22  C   UNL A   1      43.135  32.994  34.100  1.00  0.00     0.031 C 
ATOM     23  C   UNL A   1      45.686  29.342  36.464  1.00  0.00     0.029 A 
ATOM     24  N   UNL A   1      45.515  29.185  34.243  1.00  0.00    -0.354 N 
ATOM     25  C   UNL A   1      43.223  32.097  31.994  1.00  0.00     0.074 A 
ATOM     26  C   UNL A   1      42.722  33.153  32.848  1.00  0.00     0.031 C 
ATOM     27  C   UNL A   1      46.363  28.252  36.095  1.00  0.00     0.029 A 
ATOM     28  C   UNL A   1      46.200  28.070  34.662  1.00  0.00     0.049 A 
ATOM     29  H   UNL A   1      45.316  29.377  33.298  1.00  0.00     0.167 HD
ATOM     30  C   UNL A   1      43.005  32.010  30.660  1.00  0.00     0.034 A 
ATOM     31  C   UNL A   1      46.610  26.982  33.987  1.00  0.00     0.034 A 
ATOM     32  C   UNL A   1      43.532  30.959  29.829  1.00  0.00     0.049 A 
ATOM     33  C   UNL A   1      46.342  26.912  32.518  1.00  0.00     0.074 A 
ATOM     34  C   UNL A   1      43.423  30.819  28.457  1.00  0.00     0.029 A 
ATOM     35  N   UNL A   1      44.245  29.860  30.286  1.00  0.00    -0.354 N 
ATOM     36  N   UNL A   1      45.743  27.792  31.753  1.00  0.00    -0.248 NA
ATOM     37  C   UNL A   1      46.823  25.720  31.813  1.00  0.00     0.031 C 
ATOM     38  C   UNL A   1      44.018  29.609  28.092  1.00  0.00     0.029 A 
ATOM     39  C   UNL A   1      44.558  29.026  29.226  1.00  0.00     0.049 A 
ATOM     40  H   UNL A   1      44.491  29.697  31.225  1.00  0.00     0.167 HD
ATOM     41  C   UNL A   1      45.799  27.273  30.468  1.00  0.00     0.074 A 
ATOM     42  C   UNL A   1      46.508  26.012  30.558  1.00  0.00     0.031 C 
ATOM     43  C   UNL A   1      45.298  27.792  29.323  1.00  0.00     0.034 A 
BRANCH  30  44
ATOM     44  C   UNL A   1      42.174  33.075  29.990  1.00  0.00     0.023 A 
ATOM     45  C   UNL A   1      40.775  33.087  30.157  1.00  0.00     0.012 A 
ATOM     46  C   UNL A   1      42.796  34.139  29.303  1.00  0.00     0.148 A 
ATOM     47  C   UNL A   1      40.007  34.131  29.640  1.00  0.00     0.002 A 
ATOM     48  C   UNL A   1      42.030  35.199  28.834  1.00  0.00     0.091 A 
ATOM     49  F   UNL A   1      44.125  34.102  29.140  1.00  0.00    -0.205 F 
ATOM     50  C   UNL A   1      40.635  35.193  28.994  1.00  0.00     0.022 A 
BRANCH  48  51
ATOM     51  S   UNL A   1      42.751  36.657  28.071  1.00  0.00     0.127 S 
ATOM     52  O   UNL A   1      41.635  37.146  27.260  1.00  0.00    -0.237 OA
ATOM     53  O   UNL A   1      43.067  37.486  29.235  1.00  0.00    -0.237 OA
ATOM     54  O   UNL A   1      43.906  36.191  27.318  1.00  0.00    -0.744 OA
ENDBRANCH  48  51
ENDBRANCH  30  44
BRANCH  31  55
ATOM     55  C   UNL A   1      47.316  25.896  34.718  1.00  0.00     0.023 A 
ATOM     56  C   UNL A   1      48.655  26.078  35.104  1.00  0.00     0.012 A 
ATOM     57  C   UNL A   1      46.633  24.727  35.112  1.00  0.00     0.148 A 
ATOM     58  C   UNL A   1      49.313  25.102  35.854  1.00  0.00     0.002 A 
ATOM     59  C   UNL A   1      47.273  23.791  35.913  1.00  0.00     0.091 A 
ATOM     60  F   UNL A   1      45.355  24.580  34.735  1.00  0.00    -0.205 F 
ATOM     61  C   UNL A   1      48.619  23.968  36.269  1.00  0.00     0.022 A 
BRANCH  59  62
ATOM     62  S   UNL A   1      46.416  22.381  36.622  1.00  0.00     0.127 S 
ATOM     63  O   UNL A   1      45.165  22.988  37.068  1.00  0.00    -0.237 OA
ATOM     64  O   UNL A   1      46.295  21.494  35.464  1.00  0.00    -0.237 OA
ATOM     65  O   UNL A   1      47.284  21.880  37.678  1.00  0.00    -0.744 OA
ENDBRANCH  59  62
ENDBRANCH  31  55
BRANCH  43  66
ATOM     66  C   UNL A   1      45.528  27.027  28.048  1.00  0.00     0.023 A 
ATOM     67  C   UNL A   1      44.527  26.174  27.544  1.00  0.00     0.012 A 
ATOM     68  C   UNL A   1      46.698  27.247  27.295  1.00  0.00     0.148 A 
ATOM     69  C   UNL A   1      44.697  25.537  26.317  1.00  0.00     0.002 A 
ATOM     70  C   UNL A   1      46.832  26.658  26.046  1.00  0.00     0.091 A 
ATOM     71  F   UNL A   1      47.645  28.049  27.804  1.00  0.00    -0.205 F 
ATOM     72  C   UNL A   1      45.839  25.792  25.561  1.00  0.00     0.022 A 
BRANCH  70  73
ATOM     73  S   UNL A   1      48.213  27.013  24.955  1.00  0.00     0.127 S 
ATOM     74  O   UNL A   1      47.633  26.738  23.641  1.00  0.00    -0.237 OA
ATOM     75  O   UNL A   1      48.464  28.428  25.230  1.00  0.00    -0.237 OA
ATOM     76  O   UNL A   1      49.288  26.115  25.354  1.00  0.00    -0.744 OA
ENDBRANCH  70  73
ENDBRANCH  43  66
ENDBRANCH  17  18
ENDBRANCH  10  12
ENDBRANCH   7   8
ENDBRANCH   6   7
ENDBRANCH   5   6
ENDBRANCH   1   5
BRANCH   2  77
ATOM     77  C   UNL A   1      37.918  32.975  35.272  1.00  0.00     0.197 C 
BRANCH  77  78
ATOM     78  N   UNL A   1      36.548  33.146  34.722  1.00  0.00    -0.340 N 
ATOM     79  C   UNL A   1      35.934  32.769  33.551  1.00  0.00     0.244 C 
ATOM     80  H   UNL A   1      35.948  33.637  35.330  1.00  0.00     0.164 HD
ATOM     81  O   UNL A   1      34.762  33.135  33.411  1.00  0.00    -0.273 OA
BRANCH  79  82
ATOM     82  C   UNL A   1      36.595  31.850  32.474  1.00  0.00     0.181 C 
BRANCH  82  83
ATOM     83  N   UNL A   1      36.820  30.487  33.019  1.00  0.00    -0.342 N 
ATOM     84  C   UNL A   1      37.641  29.446  32.671  1.00  0.00     0.243 C 
ATOM     85  H   UNL A   1      36.255  30.287  33.801  1.00  0.00     0.164 HD
ATOM     86  O   UNL A   1      37.370  28.331  33.130  1.00  0.00    -0.273 OA
BRANCH  84  87
ATOM     87  C   UNL A   1      38.964  29.668  31.909  1.00  0.00     0.176 C 
BRANCH  87  88
ATOM     88  N   UNL A   1      38.572  30.255  30.596  1.00  0.00    -0.340 N 
ATOM     89  C   UNL A   1      38.666  29.862  29.276  1.00  0.00     0.251 C 
ATOM     90  H   UNL A   1      38.142  31.134  30.693  1.00  0.00     0.164 HD
ATOM     91  O   UNL A   1      38.120  30.548  28.414  1.00  0.00    -0.269 OA
BRANCH  89  92
ATOM     92  C   UNL A   1      39.506  28.731  28.804  1.00  0.00     0.040 A 
ATOM     93  C   UNL A   1      40.548  28.931  27.356  1.00  0.00     0.017 A 
ATOM     94  C   UNL A   1      39.076  27.061  29.346  1.00  0.00     0.017 A 
ATOM     95  C   UNL A   1      41.136  27.477  26.391  1.00  0.00     0.040 A 
ATOM     96  C   UNL A   1      39.692  25.624  28.440  1.00  0.00     0.040 A 
ATOM     97  C   UNL A   1      40.772  25.831  27.021  1.00  0.00     0.123 A 
ATOM     98  F   UNL A   1      41.253  24.762  26.377  1.00  0.00    -0.207 F 
ENDBRANCH  89  92
ENDBRANCH  87  88
BRANCH  87  99
ATOM     99  C   UNL A   1      40.055  30.468  32.641  1.00  0.00     0.072 C 
BRANCH  99 100
ATOM    100  C   UNL A   1      40.578  29.863  33.950  1.00  0.00    -0.020 A 
ATOM    101  C   UNL A   1      40.221  30.336  35.202  1.00  0.00     0.087 A 
ATOM    102  C   UNL A   1      41.507  28.784  34.223  1.00  0.00     0.003 A 
ATOM    103  N   UNL A   1      40.776  29.537  36.166  1.00  0.00    -0.361 N 
ATOM    104  C   UNL A   1      41.463  28.502  35.586  1.00  0.00     0.046 A 
ATOM    105  C   UNL A   1      42.381  27.978  33.475  1.00  0.00     0.010 A 
ATOM    106  H   UNL A   1      40.694  29.686  37.136  1.00  0.00     0.166 HD
ATOM    107  C   UNL A   1      42.080  27.377  36.161  1.00  0.00     0.026 A 
ATOM    108  C   UNL A   1      42.930  26.800  33.987  1.00  0.00     0.001 A 
ATOM    109  C   UNL A   1      42.753  26.487  35.320  1.00  0.00     0.002 A 
ENDBRANCH  99 100
ENDBRANCH  87  99
ENDBRANCH  84  87
ENDBRANCH  82  83
BRANCH  82 110
ATOM    110  C   UNL A   1      35.795  31.792  31.155  1.00  0.00     0.101 C 
BRANCH 110 111
ATOM    111  S   UNL A   1      35.911  33.255  30.073  1.00  0.00    -0.177 SA
ATOM    112  H   UNL A   1      34.767  33.982  30.171  1.00  0.00     0.102 HD
ENDBRANCH 110 111
ENDBRANCH  82 110
ENDBRANCH  79  82
ENDBRANCH  77  78
BRANCH  77 113
ATOM    113  C   UNL A   1      38.897  34.039  34.705  1.00  0.00     0.191 C 
BRANCH 113 114
ATOM    114  O   UNL A   1      38.175  35.234  34.353  1.00  0.00    -0.394 OA
ATOM    115  H   UNL A   1      37.816  35.643  35.156  1.00  0.00     0.210 HD
ENDBRANCH 113 114
ENDBRANCH  77 113
ENDBRANCH   2  77
TORSDOF 25
ENDMDL
MODEL 3
REMARK VINA RESULT:     -10.4      6.587     11.122
REMARK SMILES O=C(NCCCNC(=O)[C@H](CO)NC(=O)[C@H](CS)NC(=O)[C@H](Cc1c[nH]c2ccccc12)NC(=O)c1ccc(F)cc1)c1ccc(-c2c3nc(c(-c4cccc(S(=O)(=O)[O-])c4F)c4ccc([nH]4)c(-c4cccc(S(=O)(=O)[O-])c4F)c4nc(c(-c5cccc(S(=O)(=O)[O-])c5F)c5ccc2[nH]5)C=C4)C=C3)cc1
REMARK SMILES IDX 7 1 8 2 9 3 6 5 5 6 4 7 3 8 1 9 2 10 43 12 44 13 105 14
REMARK SMILES IDX 45 15 104 16 46 17 47 18 48 19 98 20 49 21 103 22 97 23
REMARK SMILES IDX 99 24 50 25 102 26 96 27 95 28 51 30 83 31 63 32 82 33 64 34
REMARK SMILES IDX 67 35 81 36 100 37 65 38 66 39 80 41 101 42 68 43 52 44
REMARK SMILES IDX 53 45 61 46 54 47 56 48 62 49 55 50 57 51 58 52 59 53 60 54
REMARK SMILES IDX 84 55 85 56 93 57 86 58 88 59 94 60 87 61 89 62 90 63 91 64
REMARK SMILES IDX 92 65 69 66 70 67 78 68 71 69 73 70 79 71 72 72 74 73 75 74
REMARK SMILES IDX 76 75 77 76 10 77 13 78 14 79 15 81 16 82 19 83 20 84 21 86
REMARK SMILES IDX 22 87 33 88 34 89 35 91 36 92 37 93 42 94 38 95 41 96 39 97
REMARK SMILES IDX 40 98 23 99 24 100 25 101 32 102 26 103 27 104 31 105 28 107
REMARK SMILES IDX 30 108 29 109 17 110 18 111 11 113 12 114
REMARK H PARENT 7 4 3 11 99 29 67 40 13 80 19 85 33 90 26 106 18 112 12 115
REMARK Flexibility Score: inf
ROOT
ATOM      1  N   UNL A   1      31.262  29.636  25.735  1.00  0.00    -0.354 N 
ATOM      2  C   UNL A   1      30.910  28.898  24.507  1.00  0.00     0.244 C 
ATOM      3  O   UNL A   1      30.272  27.850  24.706  1.00  0.00    -0.273 OA
ATOM      4  H   UNL A   1      30.848  29.141  26.478  1.00  0.00     0.163 HD
ENDROOT
BRANCH   1   5
ATOM      5  C   UNL A   1      32.254  31.267  26.605  1.00  0.00     0.117 C 
BRANCH   5   6
ATOM      6  C   UNL A   1      33.573  31.438  27.623  1.00  0.00     0.042 C 
BRANCH   6   7
ATOM      7  C   UNL A   1      34.116  32.853  27.583  1.00  0.00     0.118 C 
BRANCH   7   8
ATOM      8  N   UNL A   1      33.205  33.909  28.029  1.00  0.00    -0.352 N 
ATOM      9  O   UNL A   1      32.559  35.524  29.504  1.00  0.00    -0.269 OA
ATOM     10  C   UNL A   1      33.357  34.657  29.179  1.00  0.00     0.251 C 
ATOM     11  H   UNL A   1      32.421  34.099  27.465  1.00  0.00     0.163 HD
BRANCH  10  12
ATOM     12  C   UNL A   1      34.501  34.284  30.027  1.00  0.00     0.039 A 
ATOM     13  C   UNL A   1      35.776  34.661  29.606  1.00  0.00     0.014 A 
ATOM     14  C   UNL A   1      34.311  33.296  30.993  1.00  0.00     0.014 A 
ATOM     15  C   UNL A   1      36.854  33.888  29.993  1.00  0.00     0.010 A 
ATOM     16  C   UNL A   1      35.425  32.641  31.510  1.00  0.00     0.010 A 
ATOM     17  C   UNL A   1      36.702  32.908  30.990  1.00  0.00    -0.014 A 
BRANCH  17  18
ATOM     18  C   UNL A   1      37.915  32.284  31.569  1.00  0.00     0.031 A 
ATOM     19  C   UNL A   1      38.650  31.171  30.881  1.00  0.00     0.074 A 
ATOM     20  C   UNL A   1      38.315  32.731  32.775  1.00  0.00     0.049 A 
ATOM     21  N   UNL A   1      39.677  30.487  31.315  1.00  0.00    -0.248 NA
ATOM     22  C   UNL A   1      38.178  30.755  29.549  1.00  0.00     0.031 C 
ATOM     23  C   UNL A   1      37.643  33.785  33.545  1.00  0.00     0.029 A 
ATOM     24  N   UNL A   1      39.364  32.363  33.574  1.00  0.00    -0.354 N 
ATOM     25  C   UNL A   1      39.943  29.530  30.345  1.00  0.00     0.074 A 
ATOM     26  C   UNL A   1      38.972  29.722  29.289  1.00  0.00     0.031 C 
ATOM     27  C   UNL A   1      38.316  34.008  34.676  1.00  0.00     0.029 A 
ATOM     28  C   UNL A   1      39.396  33.040  34.770  1.00  0.00     0.049 A 
ATOM     29  H   UNL A   1      40.029  31.684  33.317  1.00  0.00     0.167 HD
ATOM     30  C   UNL A   1      40.911  28.583  30.344  1.00  0.00     0.034 A 
ATOM     31  C   UNL A   1      40.167  32.871  35.857  1.00  0.00     0.034 A 
ATOM     32  C   UNL A   1      41.879  28.425  31.399  1.00  0.00     0.049 A 
ATOM     33  C   UNL A   1      41.219  31.809  35.828  1.00  0.00     0.074 A 
ATOM     34  C   UNL A   1      42.940  27.540  31.459  1.00  0.00     0.029 A 
ATOM     35  N   UNL A   1      41.894  29.148  32.584  1.00  0.00    -0.354 N 
ATOM     36  N   UNL A   1      41.517  30.980  34.858  1.00  0.00    -0.248 NA
ATOM     37  C   UNL A   1      42.054  31.670  37.025  1.00  0.00     0.031 C 
ATOM     38  C   UNL A   1      43.561  27.685  32.702  1.00  0.00     0.029 A 
ATOM     39  C   UNL A   1      42.931  28.709  33.390  1.00  0.00     0.049 A 
ATOM     40  H   UNL A   1      41.262  29.865  32.816  1.00  0.00     0.167 HD
ATOM     41  C   UNL A   1      42.595  30.237  35.315  1.00  0.00     0.074 A 
ATOM     42  C   UNL A   1      42.908  30.730  36.642  1.00  0.00     0.031 C 
ATOM     43  C   UNL A   1      43.256  29.233  34.694  1.00  0.00     0.034 A 
BRANCH  30  44
ATOM     44  C   UNL A   1      41.002  27.639  29.171  1.00  0.00     0.023 A 
ATOM     45  C   UNL A   1      40.129  26.537  29.084  1.00  0.00     0.012 A 
ATOM     46  C   UNL A   1      41.865  27.923  28.092  1.00  0.00     0.148 A 
ATOM     47  C   UNL A   1      40.123  25.723  27.950  1.00  0.00     0.002 A 
ATOM     48  C   UNL A   1      41.818  27.139  26.946  1.00  0.00     0.091 A 
ATOM     49  F   UNL A   1      42.699  28.966  28.199  1.00  0.00    -0.205 F 
ATOM     50  C   UNL A   1      40.954  26.033  26.877  1.00  0.00     0.022 A 
BRANCH  48  51
ATOM     51  S   UNL A   1      42.780  27.507  25.474  1.00  0.00     0.127 S 
ATOM     52  O   UNL A   1      42.137  28.733  25.002  1.00  0.00    -0.237 OA
ATOM     53  O   UNL A   1      44.122  27.696  26.026  1.00  0.00    -0.237 OA
ATOM     54  O   UNL A   1      42.634  26.355  24.597  1.00  0.00    -0.744 OA
ENDBRANCH  48  51
ENDBRANCH  30  44
BRANCH  31  55
ATOM     55  C   UNL A   1      39.955  33.745  37.042  1.00  0.00     0.023 A 
ATOM     56  C   UNL A   1      40.378  35.085  36.999  1.00  0.00     0.012 A 
ATOM     57  C   UNL A   1      39.251  33.276  38.171  1.00  0.00     0.148 A 
ATOM     58  C   UNL A   1      40.123  35.941  38.071  1.00  0.00     0.002 A 
ATOM     59  C   UNL A   1      38.943  34.150  39.204  1.00  0.00     0.091 A 
ATOM     60  F   UNL A   1      38.855  31.996  38.185  1.00  0.00    -0.205 F 
ATOM     61  C   UNL A   1      39.395  35.478  39.165  1.00  0.00     0.022 A 
BRANCH  59  62
ATOM     62  S   UNL A   1      37.881  33.686  40.575  1.00  0.00     0.127 S 
ATOM     63  O   UNL A   1      38.732  32.750  41.306  1.00  0.00    -0.237 OA
ATOM     64  O   UNL A   1      37.670  34.975  41.236  1.00  0.00    -0.237 OA
ATOM     65  O   UNL A   1      36.685  33.112  39.975  1.00  0.00    -0.744 OA
ENDBRANCH  59  62
ENDBRANCH  31  55
BRANCH  43  66
ATOM     66  C   UNL A   1      44.422  28.612  35.413  1.00  0.00     0.023 A 
ATOM     67  C   UNL A   1      45.713  29.157  35.272  1.00  0.00     0.012 A 
ATOM     68  C   UNL A   1      44.210  27.553  36.317  1.00  0.00     0.148 A 
ATOM     69  C   UNL A   1      46.779  28.644  36.008  1.00  0.00     0.002 A 
ATOM     70  C   UNL A   1      45.263  27.089  37.092  1.00  0.00     0.091 A 
ATOM     71  F   UNL A   1      42.975  27.038  36.420  1.00  0.00    -0.205 F 
ATOM     72  C   UNL A   1      46.551  27.624  36.930  1.00  0.00     0.022 A 
BRANCH  70  73
ATOM     73  S   UNL A   1      45.044  25.857  38.380  1.00  0.00     0.127 S 
ATOM     74  O   UNL A   1      46.426  25.603  38.786  1.00  0.00    -0.237 OA
ATOM     75  O   UNL A   1      44.241  26.582  39.363  1.00  0.00    -0.237 OA
ATOM     76  O   UNL A   1      44.368  24.730  37.753  1.00  0.00    -0.744 OA
ENDBRANCH  70  73
ENDBRANCH  43  66
ENDBRANCH  17  18
ENDBRANCH  10  12
ENDBRANCH   7   8
ENDBRANCH   6   7
ENDBRANCH   5   6
ENDBRANCH   1   5
BRANCH   2  77
ATOM     77  C   UNL A   1      31.256  29.293  22.945  1.00  0.00     0.197 C 
BRANCH  77  78
ATOM     78  N   UNL A   1      32.700  29.157  22.619  1.00  0.00    -0.340 N 
ATOM     79  C   UNL A   1      33.661  28.217  22.907  1.00  0.00     0.244 C 
ATOM     80  H   UNL A   1      33.044  29.904  22.078  1.00  0.00     0.164 HD
ATOM     81  O   UNL A   1      34.801  28.463  22.499  1.00  0.00    -0.273 OA
BRANCH  79  82
ATOM     82  C   UNL A   1      33.366  26.855  23.615  1.00  0.00     0.181 C 
BRANCH  82  83
ATOM     83  N   UNL A   1      33.089  27.067  25.058  1.00  0.00    -0.342 N 
ATOM     84  C   UNL A   1      32.735  26.239  26.091  1.00  0.00     0.243 C 
ATOM     85  H   UNL A   1      33.177  28.009  25.332  1.00  0.00     0.164 HD
ATOM     86  O   UNL A   1      32.272  26.766  27.109  1.00  0.00    -0.273 OA
BRANCH  84  87
ATOM     87  C   UNL A   1      33.078  24.735  26.088  1.00  0.00     0.176 C 
BRANCH  87  88
ATOM     88  N   UNL A   1      31.779  24.031  26.289  1.00  0.00    -0.340 N 
ATOM     89  C   UNL A   1      31.261  22.803  25.929  1.00  0.00     0.251 C 
ATOM     90  H   UNL A   1      31.137  24.571  26.802  1.00  0.00     0.164 HD
ATOM     91  O   UNL A   1      30.161  22.473  26.370  1.00  0.00    -0.269 OA
BRANCH  89  92
ATOM     92  C   UNL A   1      31.882  21.901  24.926  1.00  0.00     0.040 A 
ATOM     93  C   UNL A   1      31.610  22.183  23.175  1.00  0.00     0.017 A 
ATOM     94  C   UNL A   1      32.439  20.269  25.471  1.00  0.00     0.017 A 
ATOM     95  C   UNL A   1      31.833  20.835  21.941  1.00  0.00     0.040 A 
ATOM     96  C   UNL A   1      32.715  18.952  24.265  1.00  0.00     0.040 A 
ATOM     97  C   UNL A   1      32.486  19.257  22.511  1.00  0.00     0.123 A 
ATOM     98  F   UNL A   1      32.726  18.288  21.619  1.00  0.00    -0.207 F 
ENDBRANCH  89  92
ENDBRANCH  87  88
BRANCH  87  99
ATOM     99  C   UNL A   1      33.882  24.214  24.885  1.00  0.00     0.072 C 
BRANCH  99 100
ATOM    100  C   UNL A   1      35.329  23.787  25.168  1.00  0.00    -0.020 A 
ATOM    101  C   UNL A   1      36.286  24.642  25.686  1.00  0.00     0.087 A 
ATOM    102  C   UNL A   1      36.032  22.535  24.967  1.00  0.00     0.003 A 
ATOM    103  N   UNL A   1      37.445  23.947  25.909  1.00  0.00    -0.361 N 
ATOM    104  C   UNL A   1      37.271  22.624  25.597  1.00  0.00     0.046 A 
ATOM    105  C   UNL A   1      35.768  21.307  24.340  1.00  0.00     0.010 A 
ATOM    106  H   UNL A   1      38.283  24.341  26.246  1.00  0.00     0.166 HD
ATOM    107  C   UNL A   1      38.124  21.520  25.779  1.00  0.00     0.026 A 
ATOM    108  C   UNL A   1      36.539  20.166  24.579  1.00  0.00     0.001 A 
ATOM    109  C   UNL A   1      37.698  20.270  25.323  1.00  0.00     0.002 A 
ENDBRANCH  99 100
ENDBRANCH  87  99
ENDBRANCH  84  87
ENDBRANCH  82  83
BRANCH  82 110
ATOM    110  C   UNL A   1      32.227  26.058  22.945  1.00  0.00     0.101 C 
BRANCH 110 111
ATOM    111  S   UNL A   1      32.514  25.527  21.225  1.00  0.00    -0.177 SA
ATOM    112  H   UNL A   1      33.694  24.856  21.149  1.00  0.00     0.102 HD
ENDBRANCH 110 111
ENDBRANCH  82 110
ENDBRANCH  79  82
ENDBRANCH  77  78
BRANCH  77 113
ATOM    113  C   UNL A   1      30.375  28.450  21.984  1.00  0.00     0.191 C 
BRANCH 113 114
ATOM    114  O   UNL A   1      28.998  28.858  22.093  1.00  0.00    -0.394 OA
ATOM    115  H   UNL A   1      28.640  29.025  21.207  1.00  0.00     0.210 HD
ENDBRANCH 113 114
ENDBRANCH  77 113
ENDBRANCH   2  77
TORSDOF 25
ENDMDL
