MODEL 1
REMARK VINA RESULT:     -12.5      0.000      0.000
REMARK SMILES CC[C@H](CNC(=O)[C@H]1CSc2ccccc21)C(=O)NCCCNC(=O)c1ccc(-c2c3nc(c(-c4cccc(S(=O)(=O)[O-])c4F)c4ccc([nH]4)c(-c4cccc(S(=O)(=O)[O-])c4F)c4nc(c(-c5cccc(S(=O)(=O)[O-])c5F)c5ccc2[nH]5)C=C4)C=C3)cc1
REMARK SMILES IDX 21 1 20 2 19 3 17 4 18 5 3 7 2 8 1 9 4 10 5 11 6 12 7 14
REMARK SMILES IDX 8 15 9 16 16 17 10 18 11 19 15 20 12 21 14 22 13 23 22 24
REMARK SMILES IDX 23 25 24 26 25 28 26 29 27 30 88 31 28 32 87 33 29 34 30 35
REMARK SMILES IDX 31 36 81 37 32 38 86 39 80 40 82 41 33 42 85 43 79 44 78 45
REMARK SMILES IDX 34 47 66 48 46 49 65 50 47 51 50 52 64 53 83 54 48 55 49 56
REMARK SMILES IDX 63 58 84 59 51 60 35 61 36 62 44 63 37 64 39 65 45 66 38 67
REMARK SMILES IDX 40 68 41 69 42 70 43 71 67 72 68 73 76 74 69 75 71 76 77 77
REMARK SMILES IDX 70 78 72 79 73 80 74 81 75 82 52 83 53 84 61 85 54 86 56 87
REMARK SMILES IDX 62 88 55 89 57 90 58 91 59 92 60 93
REMARK H PARENT 19 6 5 13 23 27 82 46 50 57
REMARK Flexibility Score: inf
ROOT
ATOM      1  C   UNL A   1      31.537  30.021  25.366  1.00  0.00     0.042 C 
ENDROOT
BRANCH   1   2
ATOM      2  C   UNL A   1      32.526  29.344  24.427  1.00  0.00     0.117 C 
BRANCH   2   3
ATOM      3  N   UNL A   1      31.867  28.698  23.299  1.00  0.00    -0.356 N 
ATOM      4  C   UNL A   1      31.608  27.391  23.027  1.00  0.00     0.224 C 
ATOM      5  O   UNL A   1      31.029  27.133  21.968  1.00  0.00    -0.275 OA
ATOM      6  H   UNL A   1      31.552  29.323  22.607  1.00  0.00     0.163 HD
BRANCH   4   7
ATOM      7  C   UNL A   1      31.964  26.272  23.998  1.00  0.00     0.097 C 
BRANCH   7   8
ATOM      8  C   UNL A   1      33.499  26.161  24.109  1.00  0.00     0.012 C 
ATOM      9  C   UNL A   1      34.019  25.905  25.515  1.00  0.00     0.005 C 
ENDBRANCH   7   8
BRANCH   7  10
ATOM     10  C   UNL A   1      31.199  24.976  23.690  1.00  0.00     0.129 C 
BRANCH  10  11
ATOM     11  N   UNL A   1      31.814  24.215  22.609  1.00  0.00    -0.355 N 
ATOM     12  C   UNL A   1      32.610  23.105  22.644  1.00  0.00     0.228 C 
ATOM     13  H   UNL A   1      31.625  24.557  21.705  1.00  0.00     0.163 HD
ATOM     14  O   UNL A   1      32.946  22.621  21.561  1.00  0.00    -0.274 OA
BRANCH  12  15
ATOM     15  C   UNL A   1      33.037  22.510  23.976  1.00  0.00     0.120 C 
ATOM     16  C   UNL A   1      32.329  21.159  24.171  1.00  0.00     0.093 C 
ATOM     17  C   UNL A   1      34.520  22.233  24.082  1.00  0.00    -0.021 A 
ATOM     18  S   UNL A   1      33.383  20.174  25.277  1.00  0.00    -0.125 SA
ATOM     19  C   UNL A   1      34.831  21.055  24.770  1.00  0.00     0.011 A 
ATOM     20  C   UNL A   1      35.542  23.080  23.660  1.00  0.00     0.006 A 
ATOM     21  C   UNL A   1      36.144  20.686  25.015  1.00  0.00     0.015 A 
ATOM     22  C   UNL A   1      36.869  22.714  23.898  1.00  0.00     0.000 A 
ATOM     23  C   UNL A   1      37.170  21.523  24.569  1.00  0.00     0.001 A 
ENDBRANCH  12  15
ENDBRANCH  10  11
ENDBRANCH   7  10
ENDBRANCH   4   7
ENDBRANCH   2   3
ENDBRANCH   1   2
BRANCH   1  24
ATOM     24  C   UNL A   1      32.139  30.444  26.697  1.00  0.00     0.118 C 
BRANCH  24  25
ATOM     25  N   UNL A   1      32.090  31.885  26.901  1.00  0.00    -0.352 N 
ATOM     26  C   UNL A   1      32.994  32.717  27.523  1.00  0.00     0.251 C 
ATOM     27  H   UNL A   1      31.291  32.332  26.538  1.00  0.00     0.163 HD
ATOM     28  O   UNL A   1      32.682  33.882  27.754  1.00  0.00    -0.269 OA
BRANCH  26  29
ATOM     29  C   UNL A   1      34.314  32.195  27.948  1.00  0.00     0.039 A 
ATOM     30  C   UNL A   1      34.511  30.828  28.143  1.00  0.00     0.014 A 
ATOM     31  C   UNL A   1      35.363  33.090  28.181  1.00  0.00     0.014 A 
ATOM     32  C   UNL A   1      35.670  30.382  28.768  1.00  0.00     0.010 A 
ATOM     33  C   UNL A   1      36.570  32.623  28.711  1.00  0.00     0.010 A 
ATOM     34  C   UNL A   1      36.712  31.273  29.069  1.00  0.00    -0.014 A 
BRANCH  34  35
ATOM     35  C   UNL A   1      37.925  30.767  29.765  1.00  0.00     0.031 A 
ATOM     36  C   UNL A   1      38.201  31.123  31.203  1.00  0.00     0.074 A 
ATOM     37  C   UNL A   1      38.760  29.934  29.112  1.00  0.00     0.049 A 
ATOM     38  N   UNL A   1      39.188  30.732  31.969  1.00  0.00    -0.248 NA
ATOM     39  C   UNL A   1      37.259  32.037  31.869  1.00  0.00     0.031 C 
ATOM     40  C   UNL A   1      38.617  29.526  27.712  1.00  0.00     0.029 A 
ATOM     41  N   UNL A   1      39.876  29.261  29.540  1.00  0.00    -0.354 N 
ATOM     42  C   UNL A   1      39.013  31.385  33.183  1.00  0.00     0.074 A 
ATOM     43  C   UNL A   1      37.827  32.203  33.056  1.00  0.00     0.031 C 
ATOM     44  C   UNL A   1      39.570  28.634  27.414  1.00  0.00     0.029 A 
ATOM     45  C   UNL A   1      40.425  28.442  28.582  1.00  0.00     0.049 A 
ATOM     46  H   UNL A   1      40.248  29.357  30.446  1.00  0.00     0.167 HD
ATOM     47  C   UNL A   1      39.757  31.294  34.310  1.00  0.00     0.034 A 
ATOM     48  C   UNL A   1      41.496  27.627  28.630  1.00  0.00     0.034 A 
ATOM     49  C   UNL A   1      40.891  30.427  34.467  1.00  0.00     0.049 A 
ATOM     50  C   UNL A   1      42.287  27.522  29.901  1.00  0.00     0.074 A 
ATOM     51  C   UNL A   1      41.665  30.224  35.597  1.00  0.00     0.029 A 
ATOM     52  N   UNL A   1      41.409  29.611  33.474  1.00  0.00    -0.354 N 
ATOM     53  N   UNL A   1      42.056  28.090  31.058  1.00  0.00    -0.248 NA
ATOM     54  C   UNL A   1      43.479  26.662  29.876  1.00  0.00     0.031 C 
ATOM     55  C   UNL A   1      42.657  29.289  35.284  1.00  0.00     0.029 A 
ATOM     56  C   UNL A   1      42.496  28.908  33.962  1.00  0.00     0.049 A 
ATOM     57  H   UNL A   1      41.056  29.543  32.558  1.00  0.00     0.167 HD
ATOM     58  C   UNL A   1      43.068  27.653  31.904  1.00  0.00     0.074 A 
ATOM     59  C   UNL A   1      43.901  26.753  31.132  1.00  0.00     0.031 C 
ATOM     60  C   UNL A   1      43.293  27.984  33.197  1.00  0.00     0.034 A 
BRANCH  47  61
ATOM     61  C   UNL A   1      39.341  32.116  35.500  1.00  0.00     0.023 A 
ATOM     62  C   UNL A   1      39.647  33.489  35.529  1.00  0.00     0.012 A 
ATOM     63  C   UNL A   1      38.570  31.552  36.535  1.00  0.00     0.148 A 
ATOM     64  C   UNL A   1      39.203  34.292  36.579  1.00  0.00     0.002 A 
ATOM     65  C   UNL A   1      38.108  32.363  37.565  1.00  0.00     0.091 A 
ATOM     66  F   UNL A   1      38.306  30.239  36.493  1.00  0.00    -0.205 F 
ATOM     67  C   UNL A   1      38.426  33.731  37.591  1.00  0.00     0.022 A 
BRANCH  65  68
ATOM     68  S   UNL A   1      37.058  31.753  38.889  1.00  0.00     0.127 S 
ATOM     69  O   UNL A   1      36.838  30.368  38.473  1.00  0.00    -0.237 OA
ATOM     70  O   UNL A   1      37.919  31.906  40.061  1.00  0.00    -0.237 OA
ATOM     71  O   UNL A   1      35.873  32.599  38.887  1.00  0.00    -0.744 OA
ENDBRANCH  65  68
ENDBRANCH  47  61
BRANCH  48  72
ATOM     72  C   UNL A   1      41.829  26.803  27.437  1.00  0.00     0.023 A 
ATOM     73  C   UNL A   1      42.489  27.406  26.351  1.00  0.00     0.012 A 
ATOM     74  C   UNL A   1      41.586  25.417  27.419  1.00  0.00     0.148 A 
ATOM     75  C   UNL A   1      42.905  26.639  25.262  1.00  0.00     0.002 A 
ATOM     76  C   UNL A   1      42.042  24.652  26.352  1.00  0.00     0.091 A 
ATOM     77  F   UNL A   1      40.953  24.871  28.467  1.00  0.00    -0.205 F 
ATOM     78  C   UNL A   1      42.694  25.262  25.268  1.00  0.00     0.022 A 
BRANCH  76  79
ATOM     79  S   UNL A   1      41.923  22.860  26.324  1.00  0.00     0.127 S 
ATOM     80  O   UNL A   1      40.478  22.655  26.383  1.00  0.00    -0.237 OA
ATOM     81  O   UNL A   1      42.539  22.541  25.036  1.00  0.00    -0.237 OA
ATOM     82  O   UNL A   1      42.667  22.393  27.485  1.00  0.00    -0.744 OA
ENDBRANCH  76  79
ENDBRANCH  48  72
BRANCH  60  83
ATOM     83  C   UNL A   1      44.492  27.390  33.880  1.00  0.00     0.023 A 
ATOM     84  C   UNL A   1      45.720  28.077  33.825  1.00  0.00     0.012 A 
ATOM     85  C   UNL A   1      44.372  26.236  34.677  1.00  0.00     0.148 A 
ATOM     86  C   UNL A   1      46.818  27.620  34.552  1.00  0.00     0.002 A 
ATOM     87  C   UNL A   1      45.461  25.804  35.425  1.00  0.00     0.091 A 
ATOM     88  F   UNL A   1      43.194  25.599  34.704  1.00  0.00    -0.205 F 
ATOM     89  C   UNL A   1      46.685  26.492  35.360  1.00  0.00     0.022 A 
BRANCH  87  90
ATOM     90  S   UNL A   1      45.372  24.408  36.552  1.00  0.00     0.127 S 
ATOM     91  O   UNL A   1      45.184  23.291  35.628  1.00  0.00    -0.237 OA
ATOM     92  O   UNL A   1      46.683  24.451  37.199  1.00  0.00    -0.237 OA
ATOM     93  O   UNL A   1      44.247  24.676  37.439  1.00  0.00    -0.744 OA
ENDBRANCH  87  90
ENDBRANCH  60  83
ENDBRANCH  34  35
ENDBRANCH  26  29
ENDBRANCH  24  25
ENDBRANCH   1  24
TORSDOF 17
ENDMDL
MODEL 2
REMARK VINA RESULT:     -12.4      1.661      2.004
REMARK SMILES CC[C@H](CNC(=O)[C@H]1CSc2ccccc21)C(=O)NCCCNC(=O)c1ccc(-c2c3nc(c(-c4cccc(S(=O)(=O)[O-])c4F)c4ccc([nH]4)c(-c4cccc(S(=O)(=O)[O-])c4F)c4nc(c(-c5cccc(S(=O)(=O)[O-])c5F)c5ccc2[nH]5)C=C4)C=C3)cc1
REMARK SMILES IDX 21 1 20 2 19 3 17 4 18 5 3 7 2 8 1 9 4 10 5 11 6 12 7 14
REMARK SMILES IDX 8 15 9 16 16 17 10 18 11 19 15 20 12 21 14 22 13 23 22 24
REMARK SMILES IDX 23 25 24 26 25 28 26 29 27 30 88 31 28 32 87 33 29 34 30 35
REMARK SMILES IDX 31 36 81 37 32 38 86 39 80 40 82 41 33 42 85 43 79 44 78 45
REMARK SMILES IDX 34 47 66 48 46 49 65 50 47 51 50 52 64 53 83 54 48 55 49 56
REMARK SMILES IDX 63 58 84 59 51 60 35 61 36 62 44 63 37 64 39 65 45 66 38 67
REMARK SMILES IDX 40 68 41 69 42 70 43 71 67 72 68 73 76 74 69 75 71 76 77 77
REMARK SMILES IDX 70 78 72 79 73 80 74 81 75 82 52 83 53 84 61 85 54 86 56 87
REMARK SMILES IDX 62 88 55 89 57 90 58 91 59 92 60 93
REMARK H PARENT 19 6 5 13 23 27 82 46 50 57
REMARK Flexibility Score: inf
ROOT
ATOM      1  C   UNL A   1      31.938  28.647  26.696  1.00  0.00     0.042 C 
ENDROOT
BRANCH   1   2
ATOM      2  C   UNL A   1      32.337  27.214  26.370  1.00  0.00     0.117 C 
BRANCH   2   3
ATOM      3  N   UNL A   1      31.292  26.257  26.709  1.00  0.00    -0.356 N 
ATOM      4  C   UNL A   1      30.432  25.541  25.937  1.00  0.00     0.224 C 
ATOM      5  O   UNL A   1      29.632  24.798  26.511  1.00  0.00    -0.275 OA
ATOM      6  H   UNL A   1      31.190  26.100  27.676  1.00  0.00     0.163 HD
BRANCH   4   7
ATOM      7  C   UNL A   1      30.467  25.599  24.413  1.00  0.00     0.097 C 
BRANCH   7   8
ATOM      8  C   UNL A   1      29.342  26.529  23.912  1.00  0.00     0.012 C 
ATOM      9  C   UNL A   1      29.816  27.877  23.391  1.00  0.00     0.005 C 
ENDBRANCH   7   8
BRANCH   7  10
ATOM     10  C   UNL A   1      30.536  24.199  23.785  1.00  0.00     0.129 C 
BRANCH  10  11
ATOM     11  N   UNL A   1      31.580  24.097  22.773  1.00  0.00    -0.355 N 
ATOM     12  C   UNL A   1      32.741  23.376  22.762  1.00  0.00     0.228 C 
ATOM     13  H   UNL A   1      31.424  24.637  21.964  1.00  0.00     0.163 HD
ATOM     14  O   UNL A   1      33.422  23.425  21.736  1.00  0.00    -0.274 OA
BRANCH  12  15
ATOM     15  C   UNL A   1      33.141  22.551  23.975  1.00  0.00     0.120 C 
ATOM     16  C   UNL A   1      32.654  21.106  23.779  1.00  0.00     0.093 C 
ATOM     17  C   UNL A   1      34.635  22.471  24.202  1.00  0.00    -0.021 A 
ATOM     18  S   UNL A   1      33.755  20.048  24.766  1.00  0.00    -0.125 SA
ATOM     19  C   UNL A   1      35.075  21.220  24.648  1.00  0.00     0.011 A 
ATOM     20  C   UNL A   1      35.533  23.530  24.106  1.00  0.00     0.006 A 
ATOM     21  C   UNL A   1      36.405  20.995  24.968  1.00  0.00     0.015 A 
ATOM     22  C   UNL A   1      36.876  23.311  24.422  1.00  0.00     0.000 A 
ATOM     23  C   UNL A   1      37.311  22.051  24.848  1.00  0.00     0.001 A 
ENDBRANCH  12  15
ENDBRANCH  10  11
ENDBRANCH   7  10
ENDBRANCH   4   7
ENDBRANCH   2   3
ENDBRANCH   1   2
BRANCH   1  24
ATOM     24  C   UNL A   1      32.709  29.696  25.910  1.00  0.00     0.118 C 
BRANCH  24  25
ATOM     25  N   UNL A   1      32.441  31.051  26.373  1.00  0.00    -0.352 N 
ATOM     26  C   UNL A   1      33.161  31.843  27.240  1.00  0.00     0.251 C 
ATOM     27  H   UNL A   1      31.623  31.464  26.011  1.00  0.00     0.163 HD
ATOM     28  O   UNL A   1      32.669  32.892  27.647  1.00  0.00    -0.269 OA
BRANCH  26  29
ATOM     29  C   UNL A   1      34.496  31.408  27.709  1.00  0.00     0.039 A 
ATOM     30  C   UNL A   1      34.738  30.073  28.035  1.00  0.00     0.014 A 
ATOM     31  C   UNL A   1      35.516  32.355  27.852  1.00  0.00     0.014 A 
ATOM     32  C   UNL A   1      35.911  29.727  28.696  1.00  0.00     0.010 A 
ATOM     33  C   UNL A   1      36.738  31.980  28.421  1.00  0.00     0.010 A 
ATOM     34  C   UNL A   1      36.923  30.676  28.907  1.00  0.00    -0.014 A 
BRANCH  34  35
ATOM     35  C   UNL A   1      38.152  30.279  29.646  1.00  0.00     0.031 A 
ATOM     36  C   UNL A   1      38.382  30.724  31.066  1.00  0.00     0.074 A 
ATOM     37  C   UNL A   1      39.045  29.465  29.048  1.00  0.00     0.049 A 
ATOM     38  N   UNL A   1      39.377  30.432  31.866  1.00  0.00    -0.248 NA
ATOM     39  C   UNL A   1      37.377  31.613  31.671  1.00  0.00     0.031 C 
ATOM     40  C   UNL A   1      38.949  28.979  27.670  1.00  0.00     0.029 A 
ATOM     41  N   UNL A   1      40.191  28.882  29.526  1.00  0.00    -0.354 N 
ATOM     42  C   UNL A   1      39.143  31.134  33.042  1.00  0.00     0.074 A 
ATOM     43  C   UNL A   1      37.914  31.873  32.856  1.00  0.00     0.031 C 
ATOM     44  C   UNL A   1      39.959  28.130  27.432  1.00  0.00     0.029 A 
ATOM     45  C   UNL A   1      40.804  28.050  28.620  1.00  0.00     0.049 A 
ATOM     46  H   UNL A   1      40.542  29.046  30.431  1.00  0.00     0.167 HD
ATOM     47  C   UNL A   1      39.872  31.146  34.182  1.00  0.00     0.034 A 
ATOM     48  C   UNL A   1      41.919  27.303  28.725  1.00  0.00     0.034 A 
ATOM     49  C   UNL A   1      41.053  30.356  34.400  1.00  0.00     0.049 A 
ATOM     50  C   UNL A   1      42.693  27.310  30.010  1.00  0.00     0.074 A 
ATOM     51  C   UNL A   1      41.818  30.258  35.549  1.00  0.00     0.029 A 
ATOM     52  N   UNL A   1      41.634  29.523  33.457  1.00  0.00    -0.354 N 
ATOM     53  N   UNL A   1      42.410  27.921  31.134  1.00  0.00    -0.248 NA
ATOM     54  C   UNL A   1      43.933  26.522  30.047  1.00  0.00     0.031 C 
ATOM     55  C   UNL A   1      42.868  29.368  35.299  1.00  0.00     0.029 A 
ATOM     56  C   UNL A   1      42.752  28.912  33.996  1.00  0.00     0.049 A 
ATOM     57  H   UNL A   1      41.301  29.388  32.541  1.00  0.00     0.167 HD
ATOM     58  C   UNL A   1      43.431  27.589  32.014  1.00  0.00     0.074 A 
ATOM     59  C   UNL A   1      44.329  26.702  31.302  1.00  0.00     0.031 C 
ATOM     60  C   UNL A   1      43.615  27.999  33.292  1.00  0.00     0.034 A 
BRANCH  47  61
ATOM     61  C   UNL A   1      39.389  32.001  35.322  1.00  0.00     0.023 A 
ATOM     62  C   UNL A   1      38.521  31.445  36.280  1.00  0.00     0.012 A 
ATOM     63  C   UNL A   1      39.865  33.315  35.493  1.00  0.00     0.148 A 
ATOM     64  C   UNL A   1      38.123  32.187  37.391  1.00  0.00     0.002 A 
ATOM     65  C   UNL A   1      39.485  34.041  36.616  1.00  0.00     0.091 A 
ATOM     66  F   UNL A   1      40.677  33.828  34.558  1.00  0.00    -0.205 F 
ATOM     67  C   UNL A   1      38.612  33.481  37.563  1.00  0.00     0.022 A 
BRANCH  65  68
ATOM     68  S   UNL A   1      40.098  35.694  36.960  1.00  0.00     0.127 S 
ATOM     69  O   UNL A   1      39.614  36.435  35.795  1.00  0.00    -0.237 OA
ATOM     70  O   UNL A   1      39.420  36.020  38.214  1.00  0.00    -0.237 OA
ATOM     71  O   UNL A   1      41.546  35.574  37.063  1.00  0.00    -0.744 OA
ENDBRANCH  65  68
ENDBRANCH  47  61
BRANCH  48  72
ATOM     72  C   UNL A   1      42.320  26.440  27.581  1.00  0.00     0.023 A 
ATOM     73  C   UNL A   1      43.218  26.946  26.624  1.00  0.00     0.012 A 
ATOM     74  C   UNL A   1      41.896  25.100  27.496  1.00  0.00     0.148 A 
ATOM     75  C   UNL A   1      43.691  26.128  25.597  1.00  0.00     0.002 A 
ATOM     76  C   UNL A   1      42.406  24.279  26.498  1.00  0.00     0.091 A 
ATOM     77  F   UNL A   1      41.038  24.648  28.421  1.00  0.00    -0.205 F 
ATOM     78  C   UNL A   1      43.296  24.794  25.541  1.00  0.00     0.022 A 
BRANCH  76  79
ATOM     79  S   UNL A   1      42.050  22.521  26.414  1.00  0.00     0.127 S 
ATOM     80  O   UNL A   1      40.591  22.515  26.332  1.00  0.00    -0.237 OA
ATOM     81  O   UNL A   1      42.738  22.137  25.181  1.00  0.00    -0.237 OA
ATOM     82  O   UNL A   1      42.609  21.943  27.627  1.00  0.00    -0.744 OA
ENDBRANCH  76  79
ENDBRANCH  48  72
BRANCH  60  83
ATOM     83  C   UNL A   1      44.835  27.513  34.021  1.00  0.00     0.023 A 
ATOM     84  C   UNL A   1      45.993  28.312  34.024  1.00  0.00     0.012 A 
ATOM     85  C   UNL A   1      44.791  26.344  34.804  1.00  0.00     0.148 A 
ATOM     86  C   UNL A   1      47.098  27.952  34.794  1.00  0.00     0.002 A 
ATOM     87  C   UNL A   1      45.884  26.007  35.595  1.00  0.00     0.091 A 
ATOM     88  F   UNL A   1      43.678  25.598  34.776  1.00  0.00    -0.205 F 
ATOM     89  C   UNL A   1      47.038  26.808  35.587  1.00  0.00     0.022 A 
BRANCH  87  90
ATOM     90  S   UNL A   1      45.880  24.597  36.707  1.00  0.00     0.127 S 
ATOM     91  O   UNL A   1      44.754  24.913  37.584  1.00  0.00    -0.237 OA
ATOM     92  O   UNL A   1      45.645  23.482  35.790  1.00  0.00    -0.237 OA
ATOM     93  O   UNL A   1      47.186  24.588  37.354  1.00  0.00    -0.744 OA
ENDBRANCH  87  90
ENDBRANCH  60  83
ENDBRANCH  34  35
ENDBRANCH  26  29
ENDBRANCH  24  25
ENDBRANCH   1  24
TORSDOF 17
ENDMDL
MODEL 3
REMARK VINA RESULT:     -12.3      5.277     10.548
REMARK SMILES CC[C@H](CNC(=O)[C@H]1CSc2ccccc21)C(=O)NCCCNC(=O)c1ccc(-c2c3nc(c(-c4cccc(S(=O)(=O)[O-])c4F)c4ccc([nH]4)c(-c4cccc(S(=O)(=O)[O-])c4F)c4nc(c(-c5cccc(S(=O)(=O)[O-])c5F)c5ccc2[nH]5)C=C4)C=C3)cc1
REMARK SMILES IDX 21 1 20 2 19 3 17 4 18 5 3 7 2 8 1 9 4 10 5 11 6 12 7 14
REMARK SMILES IDX 8 15 9 16 16 17 10 18 11 19 15 20 12 21 14 22 13 23 22 24
REMARK SMILES IDX 23 25 24 26 25 28 26 29 27 30 88 31 28 32 87 33 29 34 30 35
REMARK SMILES IDX 31 36 81 37 32 38 86 39 80 40 82 41 33 42 85 43 79 44 78 45
REMARK SMILES IDX 34 47 66 48 46 49 65 50 47 51 50 52 64 53 83 54 48 55 49 56
REMARK SMILES IDX 63 58 84 59 51 60 35 61 36 62 44 63 37 64 39 65 45 66 38 67
REMARK SMILES IDX 40 68 41 69 42 70 43 71 67 72 68 73 76 74 69 75 71 76 77 77
REMARK SMILES IDX 70 78 72 79 73 80 74 81 75 82 52 83 53 84 61 85 54 86 56 87
REMARK SMILES IDX 62 88 55 89 57 90 58 91 59 92 60 93
REMARK H PARENT 19 6 5 13 23 27 82 46 50 57
REMARK Flexibility Score: inf
ROOT
ATOM      1  C   UNL A   1      36.061  21.557  25.577  1.00  0.00     0.042 C 
ENDROOT
BRANCH   1   2
ATOM      2  C   UNL A   1      34.991  22.391  24.885  1.00  0.00     0.117 C 
BRANCH   2   3
ATOM      3  N   UNL A   1      34.024  21.568  24.170  1.00  0.00    -0.356 N 
ATOM      4  C   UNL A   1      32.697  21.735  23.924  1.00  0.00     0.224 C 
ATOM      5  O   UNL A   1      32.120  20.852  23.285  1.00  0.00    -0.275 OA
ATOM      6  H   UNL A   1      34.400  20.739  23.797  1.00  0.00     0.163 HD
BRANCH   4   7
ATOM      7  C   UNL A   1      31.938  22.981  24.367  1.00  0.00     0.097 C 
BRANCH   7   8
ATOM      8  C   UNL A   1      31.138  22.662  25.648  1.00  0.00     0.012 C 
ATOM      9  C   UNL A   1      31.857  22.993  26.946  1.00  0.00     0.005 C 
ENDBRANCH   7   8
BRANCH   7  10
ATOM     10  C   UNL A   1      31.159  23.624  23.210  1.00  0.00     0.129 C 
BRANCH  10  11
ATOM     11  N   UNL A   1      30.072  24.473  23.679  1.00  0.00    -0.355 N 
ATOM     12  C   UNL A   1      30.056  25.800  24.005  1.00  0.00     0.228 C 
ATOM     13  H   UNL A   1      29.205  24.015  23.779  1.00  0.00     0.163 HD
ATOM     14  O   UNL A   1      28.969  26.289  24.318  1.00  0.00    -0.274 OA
BRANCH  12  15
ATOM     15  C   UNL A   1      31.340  26.614  23.962  1.00  0.00     0.120 C 
ATOM     16  C   UNL A   1      31.316  27.521  22.721  1.00  0.00     0.093 C 
ATOM     17  C   UNL A   1      31.532  27.527  25.153  1.00  0.00    -0.021 A 
ATOM     18  S   UNL A   1      32.381  28.946  23.097  1.00  0.00    -0.125 SA
ATOM     19  C   UNL A   1      32.099  28.765  24.834  1.00  0.00     0.011 A 
ATOM     20  C   UNL A   1      31.297  27.193  26.484  1.00  0.00     0.006 A 
ATOM     21  C   UNL A   1      32.405  29.694  25.816  1.00  0.00     0.015 A 
ATOM     22  C   UNL A   1      31.597  28.125  27.481  1.00  0.00     0.000 A 
ATOM     23  C   UNL A   1      32.146  29.370  27.150  1.00  0.00     0.001 A 
ENDBRANCH  12  15
ENDBRANCH  10  11
ENDBRANCH   7  10
ENDBRANCH   4   7
ENDBRANCH   2   3
ENDBRANCH   1   2
BRANCH   1  24
ATOM     24  C   UNL A   1      37.417  21.599  24.890  1.00  0.00     0.118 C 
BRANCH  24  25
ATOM     25  N   UNL A   1      38.316  20.555  25.361  1.00  0.00    -0.352 N 
ATOM     26  C   UNL A   1      39.481  20.659  26.089  1.00  0.00     0.251 C 
ATOM     27  H   UNL A   1      38.051  19.636  25.125  1.00  0.00     0.163 HD
ATOM     28  O   UNL A   1      40.193  19.669  26.230  1.00  0.00    -0.269 OA
BRANCH  26  29
ATOM     29  C   UNL A   1      39.887  21.964  26.658  1.00  0.00     0.039 A 
ATOM     30  C   UNL A   1      39.325  23.152  26.190  1.00  0.00     0.014 A 
ATOM     31  C   UNL A   1      40.867  22.003  27.655  1.00  0.00     0.014 A 
ATOM     32  C   UNL A   1      39.884  24.370  26.558  1.00  0.00     0.010 A 
ATOM     33  C   UNL A   1      41.355  23.236  28.102  1.00  0.00     0.010 A 
ATOM     34  C   UNL A   1      40.913  24.429  27.511  1.00  0.00    -0.014 A 
BRANCH  34  35
ATOM     35  C   UNL A   1      41.510  25.747  27.858  1.00  0.00     0.031 A 
ATOM     36  C   UNL A   1      42.883  26.131  27.371  1.00  0.00     0.074 A 
ATOM     37  C   UNL A   1      40.786  26.629  28.576  1.00  0.00     0.049 A 
ATOM     38  N   UNL A   1      43.531  27.255  27.546  1.00  0.00    -0.248 NA
ATOM     39  C   UNL A   1      43.631  25.130  26.592  1.00  0.00     0.031 C 
ATOM     40  C   UNL A   1      39.452  26.375  29.124  1.00  0.00     0.029 A 
ATOM     41  N   UNL A   1      41.054  27.923  28.946  1.00  0.00    -0.354 N 
ATOM     42  C   UNL A   1      44.772  27.080  26.946  1.00  0.00     0.074 A 
ATOM     43  C   UNL A   1      44.793  25.740  26.402  1.00  0.00     0.031 C 
ATOM     44  C   UNL A   1      38.996  27.491  29.709  1.00  0.00     0.029 A 
ATOM     45  C   UNL A   1      40.022  28.526  29.626  1.00  0.00     0.049 A 
ATOM     46  H   UNL A   1      41.904  28.376  28.744  1.00  0.00     0.167 HD
ATOM     47  C   UNL A   1      45.792  27.962  26.836  1.00  0.00     0.034 A 
ATOM     48  C   UNL A   1      39.908  29.769  30.129  1.00  0.00     0.034 A 
ATOM     49  C   UNL A   1      45.749  29.319  27.308  1.00  0.00     0.049 A 
ATOM     50  C   UNL A   1      41.042  30.738  29.968  1.00  0.00     0.074 A 
ATOM     51  C   UNL A   1      46.715  30.301  27.181  1.00  0.00     0.029 A 
ATOM     52  N   UNL A   1      44.683  29.888  27.985  1.00  0.00    -0.354 N 
ATOM     53  N   UNL A   1      42.174  30.574  29.329  1.00  0.00    -0.248 NA
ATOM     54  C   UNL A   1      40.884  32.061  30.588  1.00  0.00     0.031 C 
ATOM     55  C   UNL A   1      46.235  31.466  27.789  1.00  0.00     0.029 A 
ATOM     56  C   UNL A   1      44.969  31.207  28.290  1.00  0.00     0.049 A 
ATOM     57  H   UNL A   1      43.847  29.423  28.217  1.00  0.00     0.167 HD
ATOM     58  C   UNL A   1      42.862  31.773  29.463  1.00  0.00     0.074 A 
ATOM     59  C   UNL A   1      42.010  32.664  30.225  1.00  0.00     0.031 C 
ATOM     60  C   UNL A   1      44.097  32.097  29.011  1.00  0.00     0.034 A 
BRANCH  47  61
ATOM     61  C   UNL A   1      47.040  27.514  26.125  1.00  0.00     0.023 A 
ATOM     62  C   UNL A   1      47.979  26.723  26.815  1.00  0.00     0.012 A 
ATOM     63  C   UNL A   1      47.236  27.794  24.759  1.00  0.00     0.148 A 
ATOM     64  C   UNL A   1      49.103  26.224  26.159  1.00  0.00     0.002 A 
ATOM     65  C   UNL A   1      48.346  27.272  24.104  1.00  0.00     0.091 A 
ATOM     66  F   UNL A   1      46.337  28.563  24.130  1.00  0.00    -0.205 F 
ATOM     67  C   UNL A   1      49.281  26.491  24.803  1.00  0.00     0.022 A 
BRANCH  65  68
ATOM     68  S   UNL A   1      48.642  27.511  22.349  1.00  0.00     0.127 S 
ATOM     69  O   UNL A   1      47.502  28.346  21.971  1.00  0.00    -0.237 OA
ATOM     70  O   UNL A   1      49.931  28.203  22.345  1.00  0.00    -0.237 OA
ATOM     71  O   UNL A   1      48.661  26.181  21.758  1.00  0.00    -0.744 OA
ENDBRANCH  65  68
ENDBRANCH  47  61
BRANCH  48  72
ATOM     72  C   UNL A   1      38.630  30.169  30.778  1.00  0.00     0.023 A 
ATOM     73  C   UNL A   1      38.458  29.933  32.154  1.00  0.00     0.012 A 
ATOM     74  C   UNL A   1      37.638  30.867  30.064  1.00  0.00     0.148 A 
ATOM     75  C   UNL A   1      37.315  30.388  32.812  1.00  0.00     0.002 A 
ATOM     76  C   UNL A   1      36.523  31.357  30.734  1.00  0.00     0.091 A 
ATOM     77  F   UNL A   1      37.829  31.076  28.754  1.00  0.00    -0.205 F 
ATOM     78  C   UNL A   1      36.355  31.109  32.106  1.00  0.00     0.022 A 
BRANCH  76  79
ATOM     79  S   UNL A   1      35.294  32.396  29.939  1.00  0.00     0.127 S 
ATOM     80  O   UNL A   1      36.108  33.516  29.469  1.00  0.00    -0.237 OA
ATOM     81  O   UNL A   1      34.793  31.514  28.886  1.00  0.00    -0.237 OA
ATOM     82  O   UNL A   1      34.321  32.723  30.972  1.00  0.00    -0.744 OA
ENDBRANCH  76  79
ENDBRANCH  48  72
BRANCH  60  83
ATOM     83  C   UNL A   1      44.628  33.466  29.326  1.00  0.00     0.023 A 
ATOM     84  C   UNL A   1      45.341  33.665  30.522  1.00  0.00     0.012 A 
ATOM     85  C   UNL A   1      44.537  34.510  28.385  1.00  0.00     0.148 A 
ATOM     86  C   UNL A   1      45.955  34.888  30.784  1.00  0.00     0.002 A 
ATOM     87  C   UNL A   1      45.178  35.718  28.638  1.00  0.00     0.091 A 
ATOM     88  F   UNL A   1      43.845  34.296  27.258  1.00  0.00    -0.205 F 
ATOM     89  C   UNL A   1      45.884  35.909  29.838  1.00  0.00     0.022 A 
BRANCH  87  90
ATOM     90  S   UNL A   1      45.209  37.067  27.453  1.00  0.00     0.127 S 
ATOM     91  O   UNL A   1      45.906  38.109  28.206  1.00  0.00    -0.237 OA
ATOM     92  O   UNL A   1      45.979  36.492  26.351  1.00  0.00    -0.237 OA
ATOM     93  O   UNL A   1      43.817  37.358  27.135  1.00  0.00    -0.744 OA
ENDBRANCH  87  90
ENDBRANCH  60  83
ENDBRANCH  34  35
ENDBRANCH  26  29
ENDBRANCH  24  25
ENDBRANCH   1  24
TORSDOF 17
ENDMDL
