MODEL 1
REMARK VINA RESULT:     -11.9      0.000      0.000
REMARK SMILES Cc1cccc(C[N@@H+](C)C[C@]2(C(=O)NCCCNC(=O)c3ccc(-c4c5nc(c(-c6cccc(S(=O)(=O)[O-])c6F)c6ccc([nH]6)c(-c6cccc(S(=O)(=O)[O-])c6F)c6nc(c(-c7cccc(S(=O)(=O)[O-])c7F)c7ccc4[nH]7)C=C6)C=C5)cc3)CCOC2)n1
REMARK SMILES IDX 15 1 14 2 12 3 13 4 11 6 84 7 87 8 85 9 86 10 10 11 8 12
REMARK SMILES IDX 9 13 7 15 6 16 1 17 2 18 3 19 88 20 4 21 5 22 16 23 17 24
REMARK SMILES IDX 18 25 19 26 20 28 21 29 22 30 83 31 23 32 82 33 24 34 25 35
REMARK SMILES IDX 26 36 76 37 27 38 81 39 75 40 77 41 28 42 80 43 74 44 73 45
REMARK SMILES IDX 29 47 61 48 41 49 60 50 42 51 45 52 59 53 78 54 43 55 44 56
REMARK SMILES IDX 58 58 79 59 46 60 30 61 31 62 39 63 32 64 34 65 40 66 33 67
REMARK SMILES IDX 35 68 36 69 37 70 38 71 62 72 63 73 71 74 64 75 66 76 72 77
REMARK SMILES IDX 65 78 67 79 68 80 69 81 70 82 47 83 48 84 56 85 49 86 51 87
REMARK SMILES IDX 57 88 50 89 52 90 53 91 54 92 55 93
REMARK H PARENT 14 5 8 14 18 27 77 46 45 57
REMARK Flexibility Score: inf
ROOT
ATOM      1  C   UNL A   1      32.256  27.775  26.743  1.00  0.00     0.117 C 
ENDROOT
BRANCH   1   2
ATOM      2  N   UNL A   1      31.217  26.774  26.899  1.00  0.00    -0.355 N 
ATOM      3  C   UNL A   1      30.692  25.834  26.083  1.00  0.00     0.234 C 
ATOM      4  O   UNL A   1      29.609  25.408  26.487  1.00  0.00    -0.274 OA
ATOM      5  H   UNL A   1      30.805  26.782  27.794  1.00  0.00     0.163 HD
BRANCH   3   6
ATOM      6  C   UNL A   1      31.373  25.309  24.813  1.00  0.00     0.123 C 
ATOM      7  C   UNL A   1      32.822  24.867  25.029  1.00  0.00     0.054 C 
ATOM      8  C   UNL A   1      30.667  23.991  24.410  1.00  0.00     0.183 C 
ATOM      9  C   UNL A   1      32.920  23.539  24.310  1.00  0.00     0.161 C 
ATOM     10  O   UNL A   1      31.636  22.934  24.438  1.00  0.00    -0.380 OA
BRANCH   6  11
ATOM     11  C   UNL A   1      31.223  26.290  23.591  1.00  0.00     0.281 C 
BRANCH  11  12
ATOM     12  N   UNL A   1      30.283  27.416  23.477  1.00  0.00    -0.331 N 
ATOM     13  C   UNL A   1      28.873  27.062  23.462  1.00  0.00     0.333 C 
ATOM     14  H   UNL A   1      30.473  27.868  24.372  1.00  0.00     0.348 HD
BRANCH  12  15
ATOM     15  C   UNL A   1      30.576  28.444  22.449  1.00  0.00     0.319 C 
BRANCH  15  16
ATOM     16  C   UNL A   1      29.792  29.750  22.540  1.00  0.00     0.095 A 
ATOM     17  C   UNL A   1      27.920  31.875  20.198  1.00  0.00     0.067 C 
ATOM     18  C   UNL A   1      28.489  31.362  21.484  1.00  0.00     0.038 A 
ATOM     19  C   UNL A   1      28.275  32.041  22.679  1.00  0.00     0.023 A 
ATOM     20  N   UNL A   1      29.223  30.228  21.403  1.00  0.00    -0.252 NA
ATOM     21  C   UNL A   1      28.867  31.553  23.835  1.00  0.00     0.004 A 
ATOM     22  C   UNL A   1      29.650  30.409  23.762  1.00  0.00     0.030 A 
ENDBRANCH  15  16
ENDBRANCH  12  15
ENDBRANCH  11  12
ENDBRANCH   6  11
ENDBRANCH   3   6
ENDBRANCH   1   2
BRANCH   1  23
ATOM     23  C   UNL A   1      31.649  29.173  26.644  1.00  0.00     0.042 C 
BRANCH  23  24
ATOM     24  C   UNL A   1      32.534  30.200  25.940  1.00  0.00     0.118 C 
BRANCH  24  25
ATOM     25  N   UNL A   1      32.305  31.562  26.401  1.00  0.00    -0.352 N 
ATOM     26  C   UNL A   1      33.010  32.312  27.314  1.00  0.00     0.251 C 
ATOM     27  H   UNL A   1      31.528  32.015  25.999  1.00  0.00     0.163 HD
ATOM     28  O   UNL A   1      32.572  33.384  27.694  1.00  0.00    -0.269 OA
BRANCH  26  29
ATOM     29  C   UNL A   1      34.285  31.789  27.848  1.00  0.00     0.039 A 
ATOM     30  C   UNL A   1      35.271  32.695  28.240  1.00  0.00     0.014 A 
ATOM     31  C   UNL A   1      34.492  30.414  27.981  1.00  0.00     0.014 A 
ATOM     32  C   UNL A   1      36.442  32.223  28.836  1.00  0.00     0.010 A 
ATOM     33  C   UNL A   1      35.625  29.950  28.643  1.00  0.00     0.010 A 
ATOM     34  C   UNL A   1      36.610  30.850  29.079  1.00  0.00    -0.014 A 
BRANCH  34  35
ATOM     35  C   UNL A   1      37.797  30.336  29.810  1.00  0.00     0.031 A 
ATOM     36  C   UNL A   1      38.097  30.818  31.202  1.00  0.00     0.074 A 
ATOM     37  C   UNL A   1      38.656  29.510  29.180  1.00  0.00     0.049 A 
ATOM     38  N   UNL A   1      39.115  30.532  31.971  1.00  0.00    -0.248 NA
ATOM     39  C   UNL A   1      37.144  31.768  31.802  1.00  0.00     0.031 C 
ATOM     40  C   UNL A   1      38.521  29.041  27.798  1.00  0.00     0.029 A 
ATOM     41  N   UNL A   1      39.829  28.940  29.608  1.00  0.00    -0.354 N 
ATOM     42  C   UNL A   1      38.950  31.293  33.121  1.00  0.00     0.074 A 
ATOM     43  C   UNL A   1      37.748  32.077  32.940  1.00  0.00     0.031 C 
ATOM     44  C   UNL A   1      39.565  28.253  27.496  1.00  0.00     0.029 A 
ATOM     45  C   UNL A   1      40.458  28.182  28.648  1.00  0.00     0.049 A 
ATOM     46  H   UNL A   1      40.186  29.064  30.517  1.00  0.00     0.167 HD
ATOM     47  C   UNL A   1      39.713  31.316  34.240  1.00  0.00     0.034 A 
ATOM     48  C   UNL A   1      41.624  27.509  28.689  1.00  0.00     0.034 A 
ATOM     49  C   UNL A   1      40.874  30.492  34.438  1.00  0.00     0.049 A 
ATOM     50  C   UNL A   1      42.420  27.504  29.967  1.00  0.00     0.074 A 
ATOM     51  C   UNL A   1      41.653  30.364  35.574  1.00  0.00     0.029 A 
ATOM     52  N   UNL A   1      41.426  29.657  33.479  1.00  0.00    -0.354 N 
ATOM     53  N   UNL A   1      42.153  28.097  31.106  1.00  0.00    -0.248 NA
ATOM     54  C   UNL A   1      43.657  26.711  29.978  1.00  0.00     0.031 C 
ATOM     55  C   UNL A   1      42.687  29.465  35.296  1.00  0.00     0.029 A 
ATOM     56  C   UNL A   1      42.540  29.017  33.994  1.00  0.00     0.049 A 
ATOM     57  H   UNL A   1      41.077  29.538  32.566  1.00  0.00     0.167 HD
ATOM     58  C   UNL A   1      43.167  27.718  31.979  1.00  0.00     0.074 A 
ATOM     59  C   UNL A   1      44.041  26.829  31.243  1.00  0.00     0.031 C 
ATOM     60  C   UNL A   1      43.366  28.088  33.267  1.00  0.00     0.034 A 
BRANCH  47  61
ATOM     61  C   UNL A   1      39.278  32.214  35.368  1.00  0.00     0.023 A 
ATOM     62  C   UNL A   1      38.329  31.746  36.299  1.00  0.00     0.012 A 
ATOM     63  C   UNL A   1      39.856  33.485  35.549  1.00  0.00     0.148 A 
ATOM     64  C   UNL A   1      37.938  32.541  37.375  1.00  0.00     0.002 A 
ATOM     65  C   UNL A   1      39.493  34.255  36.648  1.00  0.00     0.091 A 
ATOM     66  F   UNL A   1      40.741  33.921  34.641  1.00  0.00    -0.205 F 
ATOM     67  C   UNL A   1      38.527  33.789  37.556  1.00  0.00     0.022 A 
BRANCH  65  68
ATOM     68  S   UNL A   1      40.250  35.842  37.013  1.00  0.00     0.127 S 
ATOM     69  O   UNL A   1      39.694  36.685  35.954  1.00  0.00    -0.237 OA
ATOM     70  O   UNL A   1      39.734  36.129  38.353  1.00  0.00    -0.237 OA
ATOM     71  O   UNL A   1      41.688  35.625  36.950  1.00  0.00    -0.744 OA
ENDBRANCH  65  68
ENDBRANCH  47  61
BRANCH  48  72
ATOM     72  C   UNL A   1      42.071  26.717  27.508  1.00  0.00     0.023 A 
ATOM     73  C   UNL A   1      42.750  27.369  26.460  1.00  0.00     0.012 A 
ATOM     74  C   UNL A   1      41.855  25.328  27.426  1.00  0.00     0.148 A 
ATOM     75  C   UNL A   1      43.174  26.660  25.336  1.00  0.00     0.002 A 
ATOM     76  C   UNL A   1      42.330  24.618  26.329  1.00  0.00     0.091 A 
ATOM     77  F   UNL A   1      41.196  24.727  28.427  1.00  0.00    -0.205 F 
ATOM     78  C   UNL A   1      42.974  25.283  25.274  1.00  0.00     0.022 A 
BRANCH  76  79
ATOM     79  S   UNL A   1      42.234  22.826  26.235  1.00  0.00     0.127 S 
ATOM     80  O   UNL A   1      40.792  22.601  26.259  1.00  0.00    -0.237 OA
ATOM     81  O   UNL A   1      42.880  22.553  24.951  1.00  0.00    -0.237 OA
ATOM     82  O   UNL A   1      42.975  22.337  27.390  1.00  0.00    -0.744 OA
ENDBRANCH  76  79
ENDBRANCH  48  72
BRANCH  60  83
ATOM     83  C   UNL A   1      44.556  27.508  33.984  1.00  0.00     0.023 A 
ATOM     84  C   UNL A   1      45.789  28.188  33.953  1.00  0.00     0.012 A 
ATOM     85  C   UNL A   1      44.433  26.334  34.753  1.00  0.00     0.148 A 
ATOM     86  C   UNL A   1      46.890  27.693  34.652  1.00  0.00     0.002 A 
ATOM     87  C   UNL A   1      45.520  25.872  35.485  1.00  0.00     0.091 A 
ATOM     88  F   UNL A   1      43.256  25.691  34.754  1.00  0.00    -0.205 F 
ATOM     89  C   UNL A   1      46.751  26.544  35.427  1.00  0.00     0.022 A 
BRANCH  87  90
ATOM     90  S   UNL A   1      45.405  24.456  36.584  1.00  0.00     0.127 S 
ATOM     91  O   UNL A   1      46.772  24.362  37.092  1.00  0.00    -0.237 OA
ATOM     92  O   UNL A   1      44.418  24.902  37.567  1.00  0.00    -0.237 OA
ATOM     93  O   UNL A   1      44.967  23.341  35.754  1.00  0.00    -0.744 OA
ENDBRANCH  87  90
ENDBRANCH  60  83
ENDBRANCH  34  35
ENDBRANCH  26  29
ENDBRANCH  24  25
ENDBRANCH  23  24
ENDBRANCH   1  23
TORSDOF 17
ENDMDL
MODEL 2
REMARK VINA RESULT:     -11.8      6.227      9.580
REMARK SMILES Cc1cccc(C[N@@H+](C)C[C@]2(C(=O)NCCCNC(=O)c3ccc(-c4c5nc(c(-c6cccc(S(=O)(=O)[O-])c6F)c6ccc([nH]6)c(-c6cccc(S(=O)(=O)[O-])c6F)c6nc(c(-c7cccc(S(=O)(=O)[O-])c7F)c7ccc4[nH]7)C=C6)C=C5)cc3)CCOC2)n1
REMARK SMILES IDX 15 1 14 2 12 3 13 4 11 6 84 7 87 8 85 9 86 10 10 11 8 12
REMARK SMILES IDX 9 13 7 15 6 16 1 17 2 18 3 19 88 20 4 21 5 22 16 23 17 24
REMARK SMILES IDX 18 25 19 26 20 28 21 29 22 30 83 31 23 32 82 33 24 34 25 35
REMARK SMILES IDX 26 36 76 37 27 38 81 39 75 40 77 41 28 42 80 43 74 44 73 45
REMARK SMILES IDX 29 47 61 48 41 49 60 50 42 51 45 52 59 53 78 54 43 55 44 56
REMARK SMILES IDX 58 58 79 59 46 60 30 61 31 62 39 63 32 64 34 65 40 66 33 67
REMARK SMILES IDX 35 68 36 69 37 70 38 71 62 72 63 73 71 74 64 75 66 76 72 77
REMARK SMILES IDX 65 78 67 79 68 80 69 81 70 82 47 83 48 84 56 85 49 86 51 87
REMARK SMILES IDX 57 88 50 89 52 90 53 91 54 92 55 93
REMARK H PARENT 14 5 8 14 18 27 77 46 45 57
REMARK Flexibility Score: inf
ROOT
ATOM      1  C   UNL A   1      37.948  21.603  25.385  1.00  0.00     0.117 C 
ENDROOT
BRANCH   1   2
ATOM      2  N   UNL A   1      37.636  22.289  24.146  1.00  0.00    -0.355 N 
ATOM      3  C   UNL A   1      36.505  22.812  23.624  1.00  0.00     0.234 C 
ATOM      4  O   UNL A   1      36.592  23.016  22.413  1.00  0.00    -0.274 OA
ATOM      5  H   UNL A   1      38.418  22.397  23.558  1.00  0.00     0.163 HD
BRANCH   3   6
ATOM      6  C   UNL A   1      35.254  23.162  24.440  1.00  0.00     0.123 C 
ATOM      7  C   UNL A   1      35.475  24.287  25.453  1.00  0.00     0.054 C 
ATOM      8  C   UNL A   1      34.213  23.773  23.468  1.00  0.00     0.183 C 
ATOM      9  C   UNL A   1      34.273  25.189  25.279  1.00  0.00     0.161 C 
ATOM     10  O   UNL A   1      33.926  25.111  23.899  1.00  0.00    -0.380 OA
BRANCH   6  11
ATOM     11  C   UNL A   1      34.575  21.898  25.087  1.00  0.00     0.281 C 
BRANCH  11  12
ATOM     12  N   UNL A   1      33.395  21.887  25.967  1.00  0.00    -0.331 N 
ATOM     13  C   UNL A   1      33.643  21.516  27.350  1.00  0.00     0.333 C 
ATOM     14  H   UNL A   1      33.182  22.885  25.954  1.00  0.00     0.348 HD
BRANCH  12  15
ATOM     15  C   UNL A   1      32.173  21.220  25.456  1.00  0.00     0.319 C 
BRANCH  15  16
ATOM     16  C   UNL A   1      32.368  19.899  24.719  1.00  0.00     0.095 A 
ATOM     17  C   UNL A   1      33.070  16.420  25.672  1.00  0.00     0.067 C 
ATOM     18  C   UNL A   1      32.748  17.605  24.817  1.00  0.00     0.038 A 
ATOM     19  C   UNL A   1      32.612  17.475  23.439  1.00  0.00     0.023 A 
ATOM     20  N   UNL A   1      32.618  18.789  25.460  1.00  0.00    -0.252 NA
ATOM     21  C   UNL A   1      32.365  18.613  22.686  1.00  0.00     0.004 A 
ATOM     22  C   UNL A   1      32.262  19.840  23.328  1.00  0.00     0.030 A 
ENDBRANCH  15  16
ENDBRANCH  12  15
ENDBRANCH  11  12
ENDBRANCH   6  11
ENDBRANCH   3   6
ENDBRANCH   1   2
BRANCH   1  23
ATOM     23  C   UNL A   1      38.627  20.264  25.105  1.00  0.00     0.042 C 
BRANCH  23  24
ATOM     24  C   UNL A   1      39.229  19.588  26.337  1.00  0.00     0.118 C 
BRANCH  24  25
ATOM     25  N   UNL A   1      40.495  18.923  26.060  1.00  0.00    -0.352 N 
ATOM     26  C   UNL A   1      41.764  19.448  25.974  1.00  0.00     0.251 C 
ATOM     27  H   UNL A   1      40.434  17.951  25.912  1.00  0.00     0.163 HD
ATOM     28  O   UNL A   1      42.686  18.758  25.573  1.00  0.00    -0.269 OA
BRANCH  26  29
ATOM     29  C   UNL A   1      41.988  20.862  26.342  1.00  0.00     0.039 A 
ATOM     30  C   UNL A   1      42.306  21.169  27.666  1.00  0.00     0.014 A 
ATOM     31  C   UNL A   1      41.907  21.871  25.380  1.00  0.00     0.014 A 
ATOM     32  C   UNL A   1      42.616  22.485  28.011  1.00  0.00     0.010 A 
ATOM     33  C   UNL A   1      42.289  23.168  25.710  1.00  0.00     0.010 A 
ATOM     34  C   UNL A   1      42.649  23.487  27.028  1.00  0.00    -0.014 A 
BRANCH  34  35
ATOM     35  C   UNL A   1      43.082  24.871  27.352  1.00  0.00     0.031 A 
ATOM     36  C   UNL A   1      42.112  25.848  27.956  1.00  0.00     0.074 A 
ATOM     37  C   UNL A   1      44.323  25.272  27.009  1.00  0.00     0.049 A 
ATOM     38  N   UNL A   1      42.290  27.110  28.247  1.00  0.00    -0.248 NA
ATOM     39  C   UNL A   1      40.756  25.353  28.245  1.00  0.00     0.031 C 
ATOM     40  C   UNL A   1      45.327  24.443  26.338  1.00  0.00     0.029 A 
ATOM     41  N   UNL A   1      44.943  26.489  27.152  1.00  0.00    -0.354 N 
ATOM     42  C   UNL A   1      41.065  27.569  28.713  1.00  0.00     0.074 A 
ATOM     43  C   UNL A   1      40.141  26.458  28.639  1.00  0.00     0.031 C 
ATOM     44  C   UNL A   1      46.435  25.171  26.133  1.00  0.00     0.029 A 
ATOM     45  C   UNL A   1      46.215  26.525  26.630  1.00  0.00     0.049 A 
ATOM     46  H   UNL A   1      44.516  27.262  27.588  1.00  0.00     0.167 HD
ATOM     47  C   UNL A   1      40.743  28.796  29.188  1.00  0.00     0.034 A 
ATOM     48  C   UNL A   1      47.103  27.536  26.558  1.00  0.00     0.034 A 
ATOM     49  C   UNL A   1      41.679  29.880  29.314  1.00  0.00     0.049 A 
ATOM     50  C   UNL A   1      46.739  28.872  27.148  1.00  0.00     0.074 A 
ATOM     51  C   UNL A   1      41.479  31.127  29.879  1.00  0.00     0.029 A 
ATOM     52  N   UNL A   1      42.991  29.850  28.868  1.00  0.00    -0.354 N 
ATOM     53  N   UNL A   1      45.627  29.235  27.742  1.00  0.00    -0.248 NA
ATOM     54  C   UNL A   1      47.761  29.926  27.092  1.00  0.00     0.031 C 
ATOM     55  C   UNL A   1      42.665  31.857  29.759  1.00  0.00     0.029 A 
ATOM     56  C   UNL A   1      43.610  31.058  29.137  1.00  0.00     0.049 A 
ATOM     57  H   UNL A   1      43.418  29.082  28.424  1.00  0.00     0.167 HD
ATOM     58  C   UNL A   1      45.831  30.544  28.163  1.00  0.00     0.074 A 
ATOM     59  C   UNL A   1      47.178  30.903  27.774  1.00  0.00     0.031 C 
ATOM     60  C   UNL A   1      44.972  31.380  28.797  1.00  0.00     0.034 A 
BRANCH  47  61
ATOM     61  C   UNL A   1      39.334  29.015  29.673  1.00  0.00     0.023 A 
ATOM     62  C   UNL A   1      38.974  28.595  30.969  1.00  0.00     0.012 A 
ATOM     63  C   UNL A   1      38.390  29.695  28.878  1.00  0.00     0.148 A 
ATOM     64  C   UNL A   1      37.687  28.819  31.456  1.00  0.00     0.002 A 
ATOM     65  C   UNL A   1      37.123  29.955  29.388  1.00  0.00     0.091 A 
ATOM     66  F   UNL A   1      38.746  30.069  27.641  1.00  0.00    -0.205 F 
ATOM     67  C   UNL A   1      36.767  29.508  30.672  1.00  0.00     0.022 A 
BRANCH  65  68
ATOM     68  S   UNL A   1      35.891  30.902  28.488  1.00  0.00     0.127 S 
ATOM     69  O   UNL A   1      35.494  29.955  27.446  1.00  0.00    -0.237 OA
ATOM     70  O   UNL A   1      34.874  31.139  29.514  1.00  0.00    -0.237 OA
ATOM     71  O   UNL A   1      36.570  32.101  28.018  1.00  0.00    -0.744 OA
ENDBRANCH  65  68
ENDBRANCH  47  61
BRANCH  48  72
ATOM     72  C   UNL A   1      48.453  27.303  25.970  1.00  0.00     0.023 A 
ATOM     73  C   UNL A   1      49.493  26.840  26.800  1.00  0.00     0.012 A 
ATOM     74  C   UNL A   1      48.708  27.510  24.601  1.00  0.00     0.148 A 
ATOM     75  C   UNL A   1      50.771  26.620  26.284  1.00  0.00     0.002 A 
ATOM     76  C   UNL A   1      49.968  27.235  24.083  1.00  0.00     0.091 A 
ATOM     77  F   UNL A   1      47.709  27.964  23.830  1.00  0.00    -0.205 F 
ATOM     78  C   UNL A   1      51.006  26.807  24.925  1.00  0.00     0.022 A 
BRANCH  76  79
ATOM     79  S   UNL A   1      50.318  27.320  22.322  1.00  0.00     0.127 S 
ATOM     80  O   UNL A   1      49.301  26.430  21.771  1.00  0.00    -0.237 OA
ATOM     81  O   UNL A   1      50.114  28.741  22.038  1.00  0.00    -0.237 OA
ATOM     82  O   UNL A   1      51.699  26.876  22.179  1.00  0.00    -0.744 OA
ENDBRANCH  76  79
ENDBRANCH  48  72
BRANCH  60  83
ATOM     83  C   UNL A   1      45.469  32.758  29.147  1.00  0.00     0.023 A 
ATOM     84  C   UNL A   1      46.159  32.964  30.357  1.00  0.00     0.012 A 
ATOM     85  C   UNL A   1      45.322  33.828  28.242  1.00  0.00     0.148 A 
ATOM     86  C   UNL A   1      46.670  34.222  30.676  1.00  0.00     0.002 A 
ATOM     87  C   UNL A   1      45.874  35.066  28.545  1.00  0.00     0.091 A 
ATOM     88  F   UNL A   1      44.645  33.615  27.104  1.00  0.00    -0.205 F 
ATOM     89  C   UNL A   1      46.539  35.268  29.765  1.00  0.00     0.022 A 
BRANCH  87  90
ATOM     90  S   UNL A   1      45.837  36.442  27.390  1.00  0.00     0.127 S 
ATOM     91  O   UNL A   1      46.617  37.451  28.104  1.00  0.00    -0.237 OA
ATOM     92  O   UNL A   1      46.499  35.880  26.213  1.00  0.00    -0.237 OA
ATOM     93  O   UNL A   1      44.429  36.761  27.195  1.00  0.00    -0.744 OA
ENDBRANCH  87  90
ENDBRANCH  60  83
ENDBRANCH  34  35
ENDBRANCH  26  29
ENDBRANCH  24  25
ENDBRANCH  23  24
ENDBRANCH   1  23
TORSDOF 17
ENDMDL
MODEL 3
REMARK VINA RESULT:     -11.8      2.594      8.573
REMARK SMILES Cc1cccc(C[N@@H+](C)C[C@]2(C(=O)NCCCNC(=O)c3ccc(-c4c5nc(c(-c6cccc(S(=O)(=O)[O-])c6F)c6ccc([nH]6)c(-c6cccc(S(=O)(=O)[O-])c6F)c6nc(c(-c7cccc(S(=O)(=O)[O-])c7F)c7ccc4[nH]7)C=C6)C=C5)cc3)CCOC2)n1
REMARK SMILES IDX 15 1 14 2 12 3 13 4 11 6 84 7 87 8 85 9 86 10 10 11 8 12
REMARK SMILES IDX 9 13 7 15 6 16 1 17 2 18 3 19 88 20 4 21 5 22 16 23 17 24
REMARK SMILES IDX 18 25 19 26 20 28 21 29 22 30 83 31 23 32 82 33 24 34 25 35
REMARK SMILES IDX 26 36 76 37 27 38 81 39 75 40 77 41 28 42 80 43 74 44 73 45
REMARK SMILES IDX 29 47 61 48 41 49 60 50 42 51 45 52 59 53 78 54 43 55 44 56
REMARK SMILES IDX 58 58 79 59 46 60 30 61 31 62 39 63 32 64 34 65 40 66 33 67
REMARK SMILES IDX 35 68 36 69 37 70 38 71 62 72 63 73 71 74 64 75 66 76 72 77
REMARK SMILES IDX 65 78 67 79 68 80 69 81 70 82 47 83 48 84 56 85 49 86 51 87
REMARK SMILES IDX 57 88 50 89 52 90 53 91 54 92 55 93
REMARK H PARENT 14 5 8 14 18 27 77 46 45 57
REMARK Flexibility Score: inf
ROOT
ATOM      1  C   UNL A   1      32.054  30.329  26.601  1.00  0.00     0.117 C 
ENDROOT
BRANCH   1   2
ATOM      2  N   UNL A   1      32.711  30.090  25.330  1.00  0.00    -0.355 N 
ATOM      3  C   UNL A   1      32.574  29.154  24.365  1.00  0.00     0.234 C 
ATOM      4  O   UNL A   1      33.539  29.116  23.601  1.00  0.00    -0.274 OA
ATOM      5  H   UNL A   1      33.409  30.755  25.126  1.00  0.00     0.163 HD
BRANCH   3   6
ATOM      6  C   UNL A   1      31.340  28.259  24.194  1.00  0.00     0.123 C 
ATOM      7  C   UNL A   1      30.065  29.029  23.844  1.00  0.00     0.054 C 
ATOM      8  C   UNL A   1      31.567  27.379  22.939  1.00  0.00     0.183 C 
ATOM      9  C   UNL A   1      29.441  28.229  22.721  1.00  0.00     0.161 C 
ATOM     10  O   UNL A   1      30.531  27.671  21.991  1.00  0.00    -0.380 OA
BRANCH   6  11
ATOM     11  C   UNL A   1      31.131  27.272  25.402  1.00  0.00     0.281 C 
BRANCH  11  12
ATOM     12  N   UNL A   1      31.241  25.805  25.369  1.00  0.00    -0.331 N 
ATOM     13  C   UNL A   1      30.004  25.074  25.588  1.00  0.00     0.333 C 
ATOM     14  H   UNL A   1      31.492  25.690  24.386  1.00  0.00     0.348 HD
BRANCH  12  15
ATOM     15  C   UNL A   1      32.355  25.190  26.131  1.00  0.00     0.319 C 
BRANCH  15  16
ATOM     16  C   UNL A   1      33.376  24.388  25.330  1.00  0.00     0.095 A 
ATOM     17  C   UNL A   1      34.929  21.068  25.602  1.00  0.00     0.067 C 
ATOM     18  C   UNL A   1      34.569  22.411  25.046  1.00  0.00     0.038 A 
ATOM     19  C   UNL A   1      35.126  22.861  23.854  1.00  0.00     0.023 A 
ATOM     20  N   UNL A   1      33.698  23.146  25.775  1.00  0.00    -0.252 NA
ATOM     21  C   UNL A   1      34.801  24.134  23.409  1.00  0.00     0.004 A 
ATOM     22  C   UNL A   1      33.933  24.913  24.163  1.00  0.00     0.030 A 
ENDBRANCH  15  16
ENDBRANCH  12  15
ENDBRANCH  11  12
ENDBRANCH   6  11
ENDBRANCH   3   6
ENDBRANCH   1   2
BRANCH   1  23
ATOM     23  C   UNL A   1      31.774  31.818  26.793  1.00  0.00     0.042 C 
BRANCH  23  24
ATOM     24  C   UNL A   1      32.966  32.625  27.306  1.00  0.00     0.118 C 
BRANCH  24  25
ATOM     25  N   UNL A   1      32.620  33.999  27.646  1.00  0.00    -0.352 N 
ATOM     26  C   UNL A   1      33.118  34.810  28.639  1.00  0.00     0.251 C 
ATOM     27  H   UNL A   1      31.925  34.408  27.080  1.00  0.00     0.163 HD
ATOM     28  O   UNL A   1      32.589  35.884  28.874  1.00  0.00    -0.269 OA
BRANCH  26  29
ATOM     29  C   UNL A   1      34.277  34.353  29.435  1.00  0.00     0.039 A 
ATOM     30  C   UNL A   1      34.044  33.681  30.635  1.00  0.00     0.014 A 
ATOM     31  C   UNL A   1      35.581  34.570  28.983  1.00  0.00     0.014 A 
ATOM     32  C   UNL A   1      35.123  33.158  31.350  1.00  0.00     0.010 A 
ATOM     33  C   UNL A   1      36.648  33.983  29.658  1.00  0.00     0.010 A 
ATOM     34  C   UNL A   1      36.429  33.271  30.847  1.00  0.00    -0.014 A 
BRANCH  34  35
ATOM     35  C   UNL A   1      37.578  32.627  31.534  1.00  0.00     0.031 A 
ATOM     36  C   UNL A   1      38.300  31.476  30.890  1.00  0.00     0.074 A 
ATOM     37  C   UNL A   1      37.906  33.019  32.782  1.00  0.00     0.049 A 
ATOM     38  N   UNL A   1      39.280  30.751  31.363  1.00  0.00    -0.248 NA
ATOM     39  C   UNL A   1      37.844  31.065  29.551  1.00  0.00     0.031 C 
ATOM     40  C   UNL A   1      37.224  34.065  33.548  1.00  0.00     0.029 A 
ATOM     41  N   UNL A   1      38.878  32.563  33.638  1.00  0.00    -0.354 N 
ATOM     42  C   UNL A   1      39.530  29.777  30.404  1.00  0.00     0.074 A 
ATOM     43  C   UNL A   1      38.579  29.985  29.333  1.00  0.00     0.031 C 
ATOM     44  C   UNL A   1      37.801  34.174  34.755  1.00  0.00     0.029 A 
ATOM     45  C   UNL A   1      38.873  33.190  34.863  1.00  0.00     0.049 A 
ATOM     46  H   UNL A   1      39.517  31.854  33.397  1.00  0.00     0.167 HD
ATOM     47  C   UNL A   1      40.484  28.816  30.400  1.00  0.00     0.034 A 
ATOM     48  C   UNL A   1      39.643  32.991  35.951  1.00  0.00     0.034 A 
ATOM     49  C   UNL A   1      41.463  28.651  31.439  1.00  0.00     0.049 A 
ATOM     50  C   UNL A   1      40.734  31.956  35.894  1.00  0.00     0.074 A 
ATOM     51  C   UNL A   1      42.534  27.775  31.479  1.00  0.00     0.029 A 
ATOM     52  N   UNL A   1      41.491  29.372  32.623  1.00  0.00    -0.354 N 
ATOM     53  N   UNL A   1      41.065  31.160  34.906  1.00  0.00    -0.248 NA
ATOM     54  C   UNL A   1      41.581  31.816  37.087  1.00  0.00     0.031 C 
ATOM     55  C   UNL A   1      43.200  27.956  32.695  1.00  0.00     0.029 A 
ATOM     56  C   UNL A   1      42.556  28.957  33.404  1.00  0.00     0.049 A 
ATOM     57  H   UNL A   1      40.848  30.075  32.870  1.00  0.00     0.167 HD
ATOM     58  C   UNL A   1      42.178  30.453  35.343  1.00  0.00     0.074 A 
ATOM     59  C   UNL A   1      42.479  30.929  36.676  1.00  0.00     0.031 C 
ATOM     60  C   UNL A   1      42.878  29.483  34.705  1.00  0.00     0.034 A 
BRANCH  47  61
ATOM     61  C   UNL A   1      40.560  27.907  29.201  1.00  0.00     0.023 A 
ATOM     62  C   UNL A   1      39.676  26.814  29.104  1.00  0.00     0.012 A 
ATOM     63  C   UNL A   1      41.451  28.173  28.143  1.00  0.00     0.148 A 
ATOM     64  C   UNL A   1      39.699  25.979  27.987  1.00  0.00     0.002 A 
ATOM     65  C   UNL A   1      41.437  27.362  27.013  1.00  0.00     0.091 A 
ATOM     66  F   UNL A   1      42.298  29.205  28.264  1.00  0.00    -0.205 F 
ATOM     67  C   UNL A   1      40.570  26.260  26.939  1.00  0.00     0.022 A 
BRANCH  65  68
ATOM     68  S   UNL A   1      42.465  27.685  25.576  1.00  0.00     0.127 S 
ATOM     69  O   UNL A   1      41.846  28.895  25.036  1.00  0.00    -0.237 OA
ATOM     70  O   UNL A   1      43.782  27.891  26.179  1.00  0.00    -0.237 OA
ATOM     71  O   UNL A   1      42.361  26.501  24.734  1.00  0.00    -0.744 OA
ENDBRANCH  65  68
ENDBRANCH  47  61
BRANCH  48  72
ATOM     72  C   UNL A   1      39.461  33.845  37.159  1.00  0.00     0.023 A 
ATOM     73  C   UNL A   1      39.928  35.174  37.139  1.00  0.00     0.012 A 
ATOM     74  C   UNL A   1      38.811  33.363  38.311  1.00  0.00     0.148 A 
ATOM     75  C   UNL A   1      39.782  35.997  38.256  1.00  0.00     0.002 A 
ATOM     76  C   UNL A   1      38.619  34.206  39.400  1.00  0.00     0.091 A 
ATOM     77  F   UNL A   1      38.385  32.092  38.317  1.00  0.00    -0.205 F 
ATOM     78  C   UNL A   1      39.119  35.517  39.383  1.00  0.00     0.022 A 
BRANCH  76  79
ATOM     79  S   UNL A   1      37.657  33.711  40.835  1.00  0.00     0.127 S 
ATOM     80  O   UNL A   1      38.565  32.781  41.498  1.00  0.00    -0.237 OA
ATOM     81  O   UNL A   1      37.465  34.986  41.529  1.00  0.00    -0.237 OA
ATOM     82  O   UNL A   1      36.431  33.133  40.300  1.00  0.00    -0.744 OA
ENDBRANCH  76  79
ENDBRANCH  48  72
BRANCH  60  83
ATOM     83  C   UNL A   1      44.063  28.890  35.421  1.00  0.00     0.023 A 
ATOM     84  C   UNL A   1      45.336  29.470  35.261  1.00  0.00     0.012 A 
ATOM     85  C   UNL A   1      43.900  27.810  36.311  1.00  0.00     0.148 A 
ATOM     86  C   UNL A   1      46.436  28.966  35.955  1.00  0.00     0.002 A 
ATOM     87  C   UNL A   1      44.991  27.343  37.034  1.00  0.00     0.091 A 
ATOM     88  F   UNL A   1      42.683  27.260  36.434  1.00  0.00    -0.205 F 
ATOM     89  C   UNL A   1      46.261  27.913  36.849  1.00  0.00     0.022 A 
BRANCH  87  90
ATOM     90  S   UNL A   1      44.839  26.056  38.277  1.00  0.00     0.127 S 
ATOM     91  O   UNL A   1      46.236  25.824  38.637  1.00  0.00    -0.237 OA
ATOM     92  O   UNL A   1      44.043  26.713  39.313  1.00  0.00    -0.237 OA
ATOM     93  O   UNL A   1      44.169  24.942  37.618  1.00  0.00    -0.744 OA
ENDBRANCH  87  90
ENDBRANCH  60  83
ENDBRANCH  34  35
ENDBRANCH  26  29
ENDBRANCH  24  25
ENDBRANCH  23  24
ENDBRANCH   1  23
TORSDOF 17
ENDMDL
