MODEL 1
REMARK VINA RESULT:     -11.5      0.000      0.000
REMARK SMILES CC[C@@](C)(Nc1c([N+](=O)[O-])c(C(C)C)nn1C)C(=O)NCCCNC(=O)c1ccc(-c2c3nc(c(-c4cccc(S(=O)(=O)[O-])c4F)c4ccc([nH]4)c(-c4cccc(S(=O)(=O)[O-])c4F)c4nc(c(-c5cccc(S(=O)(=O)[O-])c5F)c5ccc2[nH]5)C=C4)C=C3)cc1
REMARK SMILES IDX 22 1 21 2 20 3 18 4 19 5 3 7 4 8 2 9 1 10 5 11 6 13 7 14
REMARK SMILES IDX 16 15 11 16 15 17 17 18 8 19 9 20 10 21 12 22 13 23 14 24
REMARK SMILES IDX 23 25 24 26 25 27 26 29 27 30 28 31 89 32 29 33 88 34 30 35
REMARK SMILES IDX 31 36 32 37 82 38 33 39 87 40 81 41 83 42 34 43 86 44 80 45
REMARK SMILES IDX 79 46 35 48 67 49 47 50 66 51 48 52 51 53 65 54 84 55 49 56
REMARK SMILES IDX 50 57 64 59 85 60 52 61 36 62 37 63 45 64 38 65 40 66 46 67
REMARK SMILES IDX 39 68 41 69 42 70 43 71 44 72 68 73 69 74 77 75 70 76 72 77
REMARK SMILES IDX 78 78 71 79 73 80 74 81 75 82 76 83 53 84 54 85 62 86 55 87
REMARK SMILES IDX 57 88 63 89 56 90 58 91 59 92 60 93 61 94
REMARK H PARENT 20 6 5 12 24 28 83 47 51 58
REMARK Flexibility Score: inf
ROOT
ATOM      1  C   UNL A   1      32.273  28.900  26.992  1.00  0.00     0.042 C 
ENDROOT
BRANCH   1   2
ATOM      2  C   UNL A   1      32.312  27.440  26.557  1.00  0.00     0.117 C 
BRANCH   2   3
ATOM      3  N   UNL A   1      31.115  26.653  26.797  1.00  0.00    -0.354 N 
ATOM      4  C   UNL A   1      30.248  26.008  25.962  1.00  0.00     0.245 C 
ATOM      5  O   UNL A   1      29.495  25.202  26.524  1.00  0.00    -0.272 OA
ATOM      6  H   UNL A   1      30.882  26.569  27.749  1.00  0.00     0.163 HD
BRANCH   4   7
ATOM      7  C   UNL A   1      30.174  26.246  24.425  1.00  0.00     0.115 C 
ATOM      8  C   UNL A   1      28.689  26.457  24.036  1.00  0.00     0.045 C 
BRANCH   7   9
ATOM      9  C   UNL A   1      30.959  27.515  23.951  1.00  0.00     0.035 C 
ATOM     10  C   UNL A   1      30.181  28.592  23.201  1.00  0.00     0.007 C 
ENDBRANCH   7   9
BRANCH   7  11
ATOM     11  N   UNL A   1      30.704  25.134  23.606  1.00  0.00    -0.351 N 
ATOM     12  H   UNL A   1      30.012  24.641  23.109  1.00  0.00     0.163 HD
BRANCH  11  13
ATOM     13  C   UNL A   1      31.977  24.656  23.404  1.00  0.00     0.205 A 
ATOM     14  C   UNL A   1      32.702  23.766  24.209  1.00  0.00     0.334 A 
ATOM     15  N   UNL A   1      32.885  24.958  22.408  1.00  0.00    -0.246 N 
ATOM     16  C   UNL A   1      34.064  23.913  23.825  1.00  0.00     0.145 A 
ATOM     17  N   UNL A   1      34.160  24.777  22.805  1.00  0.00    -0.169 NA
ATOM     18  C   UNL A   1      32.718  25.189  20.996  1.00  0.00     0.176 C 
BRANCH  14  19
ATOM     19  N   UNL A   1      32.141  22.904  25.213  1.00  0.00     0.068 N 
ATOM     20  O   UNL A   1      31.122  22.270  24.920  1.00  0.00    -0.258 OA
ATOM     21  O   UNL A   1      32.680  22.904  26.332  1.00  0.00    -0.258 OA
ENDBRANCH  14  19
BRANCH  16  22
ATOM     22  C   UNL A   1      35.329  23.291  24.365  1.00  0.00     0.041 C 
ATOM     23  C   UNL A   1      36.349  23.034  23.246  1.00  0.00     0.014 C 
ATOM     24  C   UNL A   1      35.962  24.153  25.460  1.00  0.00     0.014 C 
ENDBRANCH  16  22
ENDBRANCH  11  13
ENDBRANCH   7  11
ENDBRANCH   4   7
ENDBRANCH   2   3
ENDBRANCH   1   2
BRANCH   1  25
ATOM     25  C   UNL A   1      33.263  29.843  26.319  1.00  0.00     0.118 C 
BRANCH  25  26
ATOM     26  N   UNL A   1      33.098  31.232  26.715  1.00  0.00    -0.352 N 
ATOM     27  C   UNL A   1      33.846  31.991  27.581  1.00  0.00     0.251 C 
ATOM     28  H   UNL A   1      32.336  31.698  26.300  1.00  0.00     0.163 HD
ATOM     29  O   UNL A   1      33.473  33.127  27.855  1.00  0.00    -0.269 OA
BRANCH  27  30
ATOM     30  C   UNL A   1      35.075  31.447  28.205  1.00  0.00     0.039 A 
ATOM     31  C   UNL A   1      36.235  32.226  28.161  1.00  0.00     0.014 A 
ATOM     32  C   UNL A   1      35.113  30.175  28.787  1.00  0.00     0.014 A 
ATOM     33  C   UNL A   1      37.418  31.746  28.725  1.00  0.00     0.010 A 
ATOM     34  C   UNL A   1      36.284  29.722  29.404  1.00  0.00     0.010 A 
ATOM     35  C   UNL A   1      37.453  30.496  29.367  1.00  0.00    -0.014 A 
BRANCH  35  36
ATOM     36  C   UNL A   1      38.715  30.026  30.002  1.00  0.00     0.031 A 
ATOM     37  C   UNL A   1      39.122  30.501  31.371  1.00  0.00     0.074 A 
ATOM     38  C   UNL A   1      39.507  29.162  29.335  1.00  0.00     0.049 A 
ATOM     39  N   UNL A   1      40.127  30.106  32.114  1.00  0.00    -0.248 NA
ATOM     40  C   UNL A   1      38.311  31.564  31.983  1.00  0.00     0.031 C 
ATOM     41  C   UNL A   1      39.275  28.691  27.968  1.00  0.00     0.029 A 
ATOM     42  N   UNL A   1      40.665  28.528  29.712  1.00  0.00    -0.354 N 
ATOM     43  C   UNL A   1      40.079  30.881  33.267  1.00  0.00     0.074 A 
ATOM     44  C   UNL A   1      38.970  31.796  33.110  1.00  0.00     0.031 C 
ATOM     45  C   UNL A   1      40.242  27.823  27.631  1.00  0.00     0.029 A 
ATOM     46  C   UNL A   1      41.174  27.691  28.747  1.00  0.00     0.049 A 
ATOM     47  H   UNL A   1      41.089  28.659  30.590  1.00  0.00     0.167 HD
ATOM     48  C   UNL A   1      40.867  30.819  34.369  1.00  0.00     0.034 A 
ATOM     49  C   UNL A   1      42.265  26.899  28.759  1.00  0.00     0.034 A 
ATOM     50  C   UNL A   1      41.960  29.896  34.531  1.00  0.00     0.049 A 
ATOM     51  C   UNL A   1      43.097  26.817  30.009  1.00  0.00     0.074 A 
ATOM     52  C   UNL A   1      42.767  29.703  35.638  1.00  0.00     0.029 A 
ATOM     53  N   UNL A   1      42.412  29.022  33.554  1.00  0.00    -0.354 N 
ATOM     54  N   UNL A   1      42.932  27.432  31.155  1.00  0.00    -0.248 NA
ATOM     55  C   UNL A   1      44.241  25.894  29.984  1.00  0.00     0.031 C 
ATOM     56  C   UNL A   1      43.730  28.739  35.318  1.00  0.00     0.029 A 
ATOM     57  C   UNL A   1      43.495  28.298  34.026  1.00  0.00     0.049 A 
ATOM     58  H   UNL A   1      42.021  28.930  32.655  1.00  0.00     0.167 HD
ATOM     59  C   UNL A   1      43.926  26.947  31.997  1.00  0.00     0.074 A 
ATOM     60  C   UNL A   1      44.670  25.964  31.237  1.00  0.00     0.031 C 
ATOM     61  C   UNL A   1      44.206  27.294  33.278  1.00  0.00     0.034 A 
BRANCH  48  62
ATOM     62  C   UNL A   1      40.550  31.752  35.512  1.00  0.00     0.023 A 
ATOM     63  C   UNL A   1      41.414  32.830  35.794  1.00  0.00     0.012 A 
ATOM     64  C   UNL A   1      39.367  31.604  36.263  1.00  0.00     0.148 A 
ATOM     65  C   UNL A   1      41.129  33.721  36.827  1.00  0.00     0.002 A 
ATOM     66  C   UNL A   1      39.065  32.524  37.261  1.00  0.00     0.091 A 
ATOM     67  F   UNL A   1      38.564  30.566  35.994  1.00  0.00    -0.205 F 
ATOM     68  C   UNL A   1      39.950  33.575  37.554  1.00  0.00     0.022 A 
BRANCH  66  69
ATOM     69  S   UNL A   1      37.534  32.474  38.199  1.00  0.00     0.127 S 
ATOM     70  O   UNL A   1      36.584  33.042  37.243  1.00  0.00    -0.237 OA
ATOM     71  O   UNL A   1      37.369  31.041  38.442  1.00  0.00    -0.237 OA
ATOM     72  O   UNL A   1      37.768  33.272  39.395  1.00  0.00    -0.744 OA
ENDBRANCH  66  69
ENDBRANCH  48  62
BRANCH  49  73
ATOM     73  C   UNL A   1      42.595  26.067  27.567  1.00  0.00     0.023 A 
ATOM     74  C   UNL A   1      43.397  26.602  26.540  1.00  0.00     0.012 A 
ATOM     75  C   UNL A   1      42.134  24.741  27.456  1.00  0.00     0.148 A 
ATOM     76  C   UNL A   1      43.700  25.847  25.406  1.00  0.00     0.002 A 
ATOM     77  C   UNL A   1      42.489  23.974  26.354  1.00  0.00     0.091 A 
ATOM     78  F   UNL A   1      41.363  24.253  28.439  1.00  0.00    -0.205 F 
ATOM     79  C   UNL A   1      43.255  24.531  25.318  1.00  0.00     0.022 A 
BRANCH  77  80
ATOM     80  S   UNL A   1      42.075  22.231  26.221  1.00  0.00     0.127 S 
ATOM     81  O   UNL A   1      42.796  21.844  25.013  1.00  0.00    -0.237 OA
ATOM     82  O   UNL A   1      42.626  21.697  27.468  1.00  0.00    -0.237 OA
ATOM     83  O   UNL A   1      40.622  22.178  26.137  1.00  0.00    -0.744 OA
ENDBRANCH  77  80
ENDBRANCH  49  73
BRANCH  61  84
ATOM     84  C   UNL A   1      45.346  26.576  33.958  1.00  0.00     0.023 A 
ATOM     85  C   UNL A   1      46.660  27.074  33.850  1.00  0.00     0.012 A 
ATOM     86  C   UNL A   1      45.107  25.426  34.738  1.00  0.00     0.148 A 
ATOM     87  C   UNL A   1      47.724  26.410  34.461  1.00  0.00     0.002 A 
ATOM     88  C   UNL A   1      46.164  24.803  35.390  1.00  0.00     0.091 A 
ATOM     89  F   UNL A   1      43.855  24.955  34.817  1.00  0.00    -0.205 F 
ATOM     90  C   UNL A   1      47.475  25.282  35.238  1.00  0.00     0.022 A 
BRANCH  88  91
ATOM     91  S   UNL A   1      45.922  23.404  36.491  1.00  0.00     0.127 S 
ATOM     92  O   UNL A   1      47.294  23.102  36.896  1.00  0.00    -0.237 OA
ATOM     93  O   UNL A   1      45.088  23.980  37.546  1.00  0.00    -0.237 OA
ATOM     94  O   UNL A   1      45.263  22.378  35.695  1.00  0.00    -0.744 OA
ENDBRANCH  88  91
ENDBRANCH  61  84
ENDBRANCH  35  36
ENDBRANCH  27  30
ENDBRANCH  25  26
ENDBRANCH   1  25
TORSDOF 18
ENDMDL
MODEL 2
REMARK VINA RESULT:     -11.3      2.074      2.364
REMARK SMILES CC[C@@](C)(Nc1c([N+](=O)[O-])c(C(C)C)nn1C)C(=O)NCCCNC(=O)c1ccc(-c2c3nc(c(-c4cccc(S(=O)(=O)[O-])c4F)c4ccc([nH]4)c(-c4cccc(S(=O)(=O)[O-])c4F)c4nc(c(-c5cccc(S(=O)(=O)[O-])c5F)c5ccc2[nH]5)C=C4)C=C3)cc1
REMARK SMILES IDX 22 1 21 2 20 3 18 4 19 5 3 7 4 8 2 9 1 10 5 11 6 13 7 14
REMARK SMILES IDX 16 15 11 16 15 17 17 18 8 19 9 20 10 21 12 22 13 23 14 24
REMARK SMILES IDX 23 25 24 26 25 27 26 29 27 30 28 31 89 32 29 33 88 34 30 35
REMARK SMILES IDX 31 36 32 37 82 38 33 39 87 40 81 41 83 42 34 43 86 44 80 45
REMARK SMILES IDX 79 46 35 48 67 49 47 50 66 51 48 52 51 53 65 54 84 55 49 56
REMARK SMILES IDX 50 57 64 59 85 60 52 61 36 62 37 63 45 64 38 65 40 66 46 67
REMARK SMILES IDX 39 68 41 69 42 70 43 71 44 72 68 73 69 74 77 75 70 76 72 77
REMARK SMILES IDX 78 78 71 79 73 80 74 81 75 82 76 83 53 84 54 85 62 86 55 87
REMARK SMILES IDX 57 88 63 89 56 90 58 91 59 92 60 93 61 94
REMARK H PARENT 20 6 5 12 24 28 83 47 51 58
REMARK Flexibility Score: inf
ROOT
ATOM      1  C   UNL A   1      33.046  28.186  27.118  1.00  0.00     0.042 C 
ENDROOT
BRANCH   1   2
ATOM      2  C   UNL A   1      32.589  26.921  26.399  1.00  0.00     0.117 C 
BRANCH   2   3
ATOM      3  N   UNL A   1      31.244  26.456  26.686  1.00  0.00    -0.354 N 
ATOM      4  C   UNL A   1      30.235  25.991  25.892  1.00  0.00     0.245 C 
ATOM      5  O   UNL A   1      29.321  25.419  26.500  1.00  0.00    -0.272 OA
ATOM      6  H   UNL A   1      31.012  26.483  27.642  1.00  0.00     0.163 HD
BRANCH   4   7
ATOM      7  C   UNL A   1      30.196  26.154  24.343  1.00  0.00     0.115 C 
ATOM      8  C   UNL A   1      28.720  26.339  23.911  1.00  0.00     0.045 C 
BRANCH   7   9
ATOM      9  C   UNL A   1      30.987  27.403  23.827  1.00  0.00     0.035 C 
ATOM     10  C   UNL A   1      30.276  28.752  23.849  1.00  0.00     0.007 C 
ENDBRANCH   7   9
BRANCH   7  11
ATOM     11  N   UNL A   1      30.749  25.007  23.591  1.00  0.00    -0.351 N 
ATOM     12  H   UNL A   1      30.063  24.443  23.165  1.00  0.00     0.163 HD
BRANCH  11  13
ATOM     13  C   UNL A   1      32.035  24.576  23.370  1.00  0.00     0.205 A 
ATOM     14  C   UNL A   1      32.725  23.544  24.023  1.00  0.00     0.334 A 
ATOM     15  N   UNL A   1      32.993  25.068  22.504  1.00  0.00    -0.246 N 
ATOM     16  C   UNL A   1      34.104  23.763  23.752  1.00  0.00     0.145 A 
ATOM     17  N   UNL A   1      34.247  24.811  22.929  1.00  0.00    -0.169 NA
ATOM     18  C   UNL A   1      32.902  25.573  21.158  1.00  0.00     0.176 C 
BRANCH  14  19
ATOM     19  N   UNL A   1      32.118  22.503  24.805  1.00  0.00     0.068 N 
ATOM     20  O   UNL A   1      31.157  22.808  25.519  1.00  0.00    -0.258 OA
ATOM     21  O   UNL A   1      32.641  21.377  24.761  1.00  0.00    -0.258 OA
ENDBRANCH  14  19
BRANCH  16  22
ATOM     22  C   UNL A   1      35.343  23.046  24.228  1.00  0.00     0.041 C 
ATOM     23  C   UNL A   1      36.397  22.948  23.115  1.00  0.00     0.014 C 
ATOM     24  C   UNL A   1      35.948  23.718  25.463  1.00  0.00     0.014 C 
ENDBRANCH  16  22
ENDBRANCH  11  13
ENDBRANCH   7  11
ENDBRANCH   4   7
ENDBRANCH   2   3
ENDBRANCH   1   2
BRANCH   1  25
ATOM     25  C   UNL A   1      33.909  29.155  26.319  1.00  0.00     0.118 C 
BRANCH  25  26
ATOM     26  N   UNL A   1      33.804  30.531  26.774  1.00  0.00    -0.352 N 
ATOM     27  C   UNL A   1      34.604  31.230  27.644  1.00  0.00     0.251 C 
ATOM     28  H   UNL A   1      33.047  31.038  26.401  1.00  0.00     0.163 HD
ATOM     29  O   UNL A   1      34.278  32.366  27.973  1.00  0.00    -0.269 OA
BRANCH  27  30
ATOM     30  C   UNL A   1      35.831  30.621  28.209  1.00  0.00     0.039 A 
ATOM     31  C   UNL A   1      37.058  30.963  27.632  1.00  0.00     0.014 A 
ATOM     32  C   UNL A   1      35.788  29.694  29.255  1.00  0.00     0.014 A 
ATOM     33  C   UNL A   1      38.238  30.402  28.124  1.00  0.00     0.010 A 
ATOM     34  C   UNL A   1      36.976  29.179  29.784  1.00  0.00     0.010 A 
ATOM     35  C   UNL A   1      38.213  29.516  29.216  1.00  0.00    -0.014 A 
BRANCH  35  36
ATOM     36  C   UNL A   1      39.489  28.968  29.752  1.00  0.00     0.031 A 
ATOM     37  C   UNL A   1      40.108  29.520  31.008  1.00  0.00     0.074 A 
ATOM     38  C   UNL A   1      40.100  27.960  29.097  1.00  0.00     0.049 A 
ATOM     39  N   UNL A   1      41.150  29.084  31.671  1.00  0.00    -0.248 NA
ATOM     40  C   UNL A   1      39.491  30.721  31.589  1.00  0.00     0.031 C 
ATOM     41  C   UNL A   1      39.655  27.391  27.823  1.00  0.00     0.029 A 
ATOM     42  N   UNL A   1      41.225  27.236  29.407  1.00  0.00    -0.354 N 
ATOM     43  C   UNL A   1      41.324  29.965  32.733  1.00  0.00     0.074 A 
ATOM     44  C   UNL A   1      40.304  30.982  32.605  1.00  0.00     0.031 C 
ATOM     45  C   UNL A   1      40.480  26.391  27.474  1.00  0.00     0.029 A 
ATOM     46  C   UNL A   1      41.523  26.259  28.486  1.00  0.00     0.049 A 
ATOM     47  H   UNL A   1      41.765  27.400  30.213  1.00  0.00     0.167 HD
ATOM     48  C   UNL A   1      42.232  29.918  33.740  1.00  0.00     0.034 A 
ATOM     49  C   UNL A   1      42.520  25.353  28.460  1.00  0.00     0.034 A 
ATOM     50  C   UNL A   1      43.236  28.895  33.876  1.00  0.00     0.049 A 
ATOM     51  C   UNL A   1      43.488  25.294  29.612  1.00  0.00     0.074 A 
ATOM     52  C   UNL A   1      44.150  28.717  34.901  1.00  0.00     0.029 A 
ATOM     53  N   UNL A   1      43.473  27.887  32.954  1.00  0.00    -0.354 N 
ATOM     54  N   UNL A   1      43.528  26.030  30.696  1.00  0.00    -0.248 NA
ATOM     55  C   UNL A   1      44.520  24.249  29.557  1.00  0.00     0.031 C 
ATOM     56  C   UNL A   1      44.961  27.623  34.580  1.00  0.00     0.029 A 
ATOM     57  C   UNL A   1      44.525  27.092  33.377  1.00  0.00     0.049 A 
ATOM     58  H   UNL A   1      42.967  27.756  32.120  1.00  0.00     0.167 HD
ATOM     59  C   UNL A   1      44.564  25.516  31.468  1.00  0.00     0.074 A 
ATOM     60  C   UNL A   1      45.105  24.387  30.739  1.00  0.00     0.031 C 
ATOM     61  C   UNL A   1      45.033  25.947  32.665  1.00  0.00     0.034 A 
BRANCH  48  62
ATOM     62  C   UNL A   1      42.155  30.985  34.805  1.00  0.00     0.023 A 
ATOM     63  C   UNL A   1      41.354  30.775  35.945  1.00  0.00     0.012 A 
ATOM     64  C   UNL A   1      42.924  32.162  34.711  1.00  0.00     0.148 A 
ATOM     65  C   UNL A   1      41.287  31.734  36.956  1.00  0.00     0.002 A 
ATOM     66  C   UNL A   1      42.890  33.092  35.744  1.00  0.00     0.091 A 
ATOM     67  F   UNL A   1      43.669  32.353  33.613  1.00  0.00    -0.205 F 
ATOM     68  C   UNL A   1      42.062  32.886  36.860  1.00  0.00     0.022 A 
BRANCH  66  69
ATOM     69  S   UNL A   1      43.912  34.568  35.758  1.00  0.00     0.127 S 
ATOM     70  O   UNL A   1      43.068  35.519  35.036  1.00  0.00    -0.237 OA
ATOM     71  O   UNL A   1      44.044  34.837  37.190  1.00  0.00    -0.237 OA
ATOM     72  O   UNL A   1      45.154  34.205  35.090  1.00  0.00    -0.744 OA
ENDBRANCH  66  69
ENDBRANCH  48  62
BRANCH  49  73
ATOM     73  C   UNL A   1      42.615  24.380  27.336  1.00  0.00     0.023 A 
ATOM     74  C   UNL A   1      43.333  24.722  26.173  1.00  0.00     0.012 A 
ATOM     75  C   UNL A   1      42.012  23.110  27.420  1.00  0.00     0.148 A 
ATOM     76  C   UNL A   1      43.415  23.833  25.099  1.00  0.00     0.002 A 
ATOM     77  C   UNL A   1      42.149  22.207  26.373  1.00  0.00     0.091 A 
ATOM     78  F   UNL A   1      41.324  22.808  28.531  1.00  0.00    -0.205 F 
ATOM     79  C   UNL A   1      42.832  22.573  25.204  1.00  0.00     0.022 A 
BRANCH  77  80
ATOM     80  S   UNL A   1      41.548  20.518  26.476  1.00  0.00     0.127 S 
ATOM     81  O   UNL A   1      42.256  19.881  25.370  1.00  0.00    -0.237 OA
ATOM     82  O   UNL A   1      41.999  20.120  27.811  1.00  0.00    -0.237 OA
ATOM     83  O   UNL A   1      40.101  20.606  26.335  1.00  0.00    -0.744 OA
ENDBRANCH  77  80
ENDBRANCH  49  73
BRANCH  61  84
ATOM     84  C   UNL A   1      46.168  25.172  33.286  1.00  0.00     0.023 A 
ATOM     85  C   UNL A   1      47.500  25.593  33.096  1.00  0.00     0.012 A 
ATOM     86  C   UNL A   1      45.912  24.044  34.092  1.00  0.00     0.148 A 
ATOM     87  C   UNL A   1      48.559  24.875  33.652  1.00  0.00     0.002 A 
ATOM     88  C   UNL A   1      46.968  23.367  34.688  1.00  0.00     0.091 A 
ATOM     89  F   UNL A   1      44.642  23.645  34.249  1.00  0.00    -0.205 F 
ATOM     90  C   UNL A   1      48.293  23.769  34.456  1.00  0.00     0.022 A 
BRANCH  88  91
ATOM     91  S   UNL A   1      46.713  21.993  35.818  1.00  0.00     0.127 S 
ATOM     92  O   UNL A   1      45.868  22.602  36.843  1.00  0.00    -0.237 OA
ATOM     93  O   UNL A   1      46.033  21.014  34.969  1.00  0.00    -0.237 OA
ATOM     94  O   UNL A   1      48.040  21.587  36.261  1.00  0.00    -0.744 OA
ENDBRANCH  88  91
ENDBRANCH  61  84
ENDBRANCH  35  36
ENDBRANCH  27  30
ENDBRANCH  25  26
ENDBRANCH   1  25
TORSDOF 18
ENDMDL
MODEL 3
REMARK VINA RESULT:     -11.2      1.155      1.782
REMARK SMILES CC[C@@](C)(Nc1c([N+](=O)[O-])c(C(C)C)nn1C)C(=O)NCCCNC(=O)c1ccc(-c2c3nc(c(-c4cccc(S(=O)(=O)[O-])c4F)c4ccc([nH]4)c(-c4cccc(S(=O)(=O)[O-])c4F)c4nc(c(-c5cccc(S(=O)(=O)[O-])c5F)c5ccc2[nH]5)C=C4)C=C3)cc1
REMARK SMILES IDX 22 1 21 2 20 3 18 4 19 5 3 7 4 8 2 9 1 10 5 11 6 13 7 14
REMARK SMILES IDX 16 15 11 16 15 17 17 18 8 19 9 20 10 21 12 22 13 23 14 24
REMARK SMILES IDX 23 25 24 26 25 27 26 29 27 30 28 31 89 32 29 33 88 34 30 35
REMARK SMILES IDX 31 36 32 37 82 38 33 39 87 40 81 41 83 42 34 43 86 44 80 45
REMARK SMILES IDX 79 46 35 48 67 49 47 50 66 51 48 52 51 53 65 54 84 55 49 56
REMARK SMILES IDX 50 57 64 59 85 60 52 61 36 62 37 63 45 64 38 65 40 66 46 67
REMARK SMILES IDX 39 68 41 69 42 70 43 71 44 72 68 73 69 74 77 75 70 76 72 77
REMARK SMILES IDX 78 78 71 79 73 80 74 81 75 82 76 83 53 84 54 85 62 86 55 87
REMARK SMILES IDX 57 88 63 89 56 90 58 91 59 92 60 93 61 94
REMARK H PARENT 20 6 5 12 24 28 83 47 51 58
REMARK Flexibility Score: inf
ROOT
ATOM      1  C   UNL A   1      31.847  28.841  26.955  1.00  0.00     0.042 C 
ENDROOT
BRANCH   1   2
ATOM      2  C   UNL A   1      31.968  27.321  26.970  1.00  0.00     0.117 C 
BRANCH   2   3
ATOM      3  N   UNL A   1      30.751  26.565  26.735  1.00  0.00    -0.354 N 
ATOM      4  C   UNL A   1      30.380  25.686  25.759  1.00  0.00     0.245 C 
ATOM      5  O   UNL A   1      29.373  25.016  26.023  1.00  0.00    -0.272 OA
ATOM      6  H   UNL A   1      30.054  26.718  27.413  1.00  0.00     0.163 HD
BRANCH   4   7
ATOM      7  C   UNL A   1      31.131  25.515  24.404  1.00  0.00     0.115 C 
ATOM      8  C   UNL A   1      30.327  24.525  23.525  1.00  0.00     0.045 C 
BRANCH   7   9
ATOM      9  C   UNL A   1      31.265  26.848  23.593  1.00  0.00     0.035 C 
ATOM     10  C   UNL A   1      30.011  27.697  23.412  1.00  0.00     0.007 C 
ENDBRANCH   7   9
BRANCH   7  11
ATOM     11  N   UNL A   1      32.510  24.997  24.528  1.00  0.00    -0.351 N 
ATOM     12  H   UNL A   1      33.205  25.661  24.318  1.00  0.00     0.163 HD
BRANCH  11  13
ATOM     13  C   UNL A   1      33.010  23.765  24.880  1.00  0.00     0.205 A 
ATOM     14  C   UNL A   1      33.845  22.925  24.130  1.00  0.00     0.334 A 
ATOM     15  N   UNL A   1      32.784  23.015  26.018  1.00  0.00    -0.246 N 
ATOM     16  C   UNL A   1      33.733  21.635  24.720  1.00  0.00     0.145 A 
ATOM     17  N   UNL A   1      32.945  21.695  25.801  1.00  0.00    -0.169 NA
ATOM     18  C   UNL A   1      32.653  23.389  27.404  1.00  0.00     0.176 C 
BRANCH  14  19
ATOM     19  N   UNL A   1      34.629  23.329  22.996  1.00  0.00     0.068 N 
ATOM     20  O   UNL A   1      35.834  23.056  23.005  1.00  0.00    -0.258 OA
ATOM     21  O   UNL A   1      34.057  23.983  22.109  1.00  0.00    -0.258 OA
ENDBRANCH  14  19
BRANCH  16  22
ATOM     22  C   UNL A   1      34.323  20.302  24.329  1.00  0.00     0.041 C 
ATOM     23  C   UNL A   1      35.678  20.067  25.014  1.00  0.00     0.014 C 
ATOM     24  C   UNL A   1      33.370  19.146  24.644  1.00  0.00     0.014 C 
ENDBRANCH  16  22
ENDBRANCH  11  13
ENDBRANCH   7  11
ENDBRANCH   4   7
ENDBRANCH   2   3
ENDBRANCH   1   2
BRANCH   1  25
ATOM     25  C   UNL A   1      33.131  29.629  26.731  1.00  0.00     0.118 C 
BRANCH  25  26
ATOM     26  N   UNL A   1      32.962  31.064  26.883  1.00  0.00    -0.352 N 
ATOM     27  C   UNL A   1      33.742  31.974  27.554  1.00  0.00     0.251 C 
ATOM     28  H   UNL A   1      32.168  31.441  26.438  1.00  0.00     0.163 HD
ATOM     29  O   UNL A   1      33.363  33.137  27.643  1.00  0.00    -0.269 OA
BRANCH  27  30
ATOM     30  C   UNL A   1      35.016  31.562  28.190  1.00  0.00     0.039 A 
ATOM     31  C   UNL A   1      35.077  30.294  28.775  1.00  0.00     0.014 A 
ATOM     32  C   UNL A   1      36.123  32.414  28.259  1.00  0.00     0.014 A 
ATOM     33  C   UNL A   1      36.253  29.870  29.397  1.00  0.00     0.010 A 
ATOM     34  C   UNL A   1      37.318  31.966  28.830  1.00  0.00     0.010 A 
ATOM     35  C   UNL A   1      37.392  30.694  29.418  1.00  0.00    -0.014 A 
BRANCH  35  36
ATOM     36  C   UNL A   1      38.649  30.202  30.047  1.00  0.00     0.031 A 
ATOM     37  C   UNL A   1      39.059  30.652  31.424  1.00  0.00     0.074 A 
ATOM     38  C   UNL A   1      39.432  29.341  29.367  1.00  0.00     0.049 A 
ATOM     39  N   UNL A   1      40.059  30.235  32.161  1.00  0.00    -0.248 NA
ATOM     40  C   UNL A   1      38.258  31.713  32.051  1.00  0.00     0.031 C 
ATOM     41  C   UNL A   1      39.197  28.893  27.993  1.00  0.00     0.029 A 
ATOM     42  N   UNL A   1      40.583  28.689  29.735  1.00  0.00    -0.354 N 
ATOM     43  C   UNL A   1      40.018  30.992  33.326  1.00  0.00     0.074 A 
ATOM     44  C   UNL A   1      38.918  31.920  33.183  1.00  0.00     0.031 C 
ATOM     45  C   UNL A   1      40.156  28.021  27.643  1.00  0.00     0.029 A 
ATOM     46  C   UNL A   1      41.085  27.862  28.758  1.00  0.00     0.049 A 
ATOM     47  H   UNL A   1      41.008  28.802  30.615  1.00  0.00     0.167 HD
ATOM     48  C   UNL A   1      40.805  30.905  34.427  1.00  0.00     0.034 A 
ATOM     49  C   UNL A   1      42.168  27.059  28.758  1.00  0.00     0.034 A 
ATOM     50  C   UNL A   1      41.887  29.968  34.576  1.00  0.00     0.049 A 
ATOM     51  C   UNL A   1      42.998  26.949  30.008  1.00  0.00     0.074 A 
ATOM     52  C   UNL A   1      42.692  29.750  35.681  1.00  0.00     0.029 A 
ATOM     53  N   UNL A   1      42.332  29.105  33.586  1.00  0.00    -0.354 N 
ATOM     54  N   UNL A   1      42.838  27.548  31.162  1.00  0.00    -0.248 NA
ATOM     55  C   UNL A   1      44.133  26.015  29.969  1.00  0.00     0.031 C 
ATOM     56  C   UNL A   1      43.645  28.781  35.346  1.00  0.00     0.029 A 
ATOM     57  C   UNL A   1      43.406  28.363  34.048  1.00  0.00     0.049 A 
ATOM     58  H   UNL A   1      41.940  29.031  32.685  1.00  0.00     0.167 HD
ATOM     59  C   UNL A   1      43.826  27.040  31.998  1.00  0.00     0.074 A 
ATOM     60  C   UNL A   1      44.561  26.061  31.223  1.00  0.00     0.031 C 
ATOM     61  C   UNL A   1      44.108  27.363  33.284  1.00  0.00     0.034 A 
BRANCH  48  62
ATOM     62  C   UNL A   1      40.496  31.823  35.585  1.00  0.00     0.023 A 
ATOM     63  C   UNL A   1      41.361  32.899  35.873  1.00  0.00     0.012 A 
ATOM     64  C   UNL A   1      39.319  31.664  36.344  1.00  0.00     0.148 A 
ATOM     65  C   UNL A   1      41.083  33.777  36.920  1.00  0.00     0.002 A 
ATOM     66  C   UNL A   1      39.024  32.571  37.356  1.00  0.00     0.091 A 
ATOM     67  F   UNL A   1      38.515  30.628  36.068  1.00  0.00    -0.205 F 
ATOM     68  C   UNL A   1      39.911  33.619  37.654  1.00  0.00     0.022 A 
BRANCH  66  69
ATOM     69  S   UNL A   1      37.501  32.507  38.306  1.00  0.00     0.127 S 
ATOM     70  O   UNL A   1      37.821  33.377  39.436  1.00  0.00    -0.237 OA
ATOM     71  O   UNL A   1      36.529  33.066  37.365  1.00  0.00    -0.237 OA
ATOM     72  O   UNL A   1      37.292  31.104  38.637  1.00  0.00    -0.744 OA
ENDBRANCH  66  69
ENDBRANCH  48  62
BRANCH  49  73
ATOM     73  C   UNL A   1      42.491  26.242  27.554  1.00  0.00     0.023 A 
ATOM     74  C   UNL A   1      43.228  26.813  26.498  1.00  0.00     0.012 A 
ATOM     75  C   UNL A   1      42.087  24.896  27.459  1.00  0.00     0.148 A 
ATOM     76  C   UNL A   1      43.522  26.072  25.352  1.00  0.00     0.002 A 
ATOM     77  C   UNL A   1      42.435  24.146  26.342  1.00  0.00     0.091 A 
ATOM     78  F   UNL A   1      41.377  24.375  28.469  1.00  0.00    -0.205 F 
ATOM     79  C   UNL A   1      43.135  24.737  25.280  1.00  0.00     0.022 A 
BRANCH  77  80
ATOM     80  S   UNL A   1      42.097  22.386  26.224  1.00  0.00     0.127 S 
ATOM     81  O   UNL A   1      42.689  21.884  27.460  1.00  0.00    -0.237 OA
ATOM     82  O   UNL A   1      40.634  22.364  26.184  1.00  0.00    -0.237 OA
ATOM     83  O   UNL A   1      42.736  21.945  24.991  1.00  0.00    -0.744 OA
ENDBRANCH  77  80
ENDBRANCH  49  73
BRANCH  61  84
ATOM     84  C   UNL A   1      45.240  26.624  33.954  1.00  0.00     0.023 A 
ATOM     85  C   UNL A   1      46.563  27.097  33.836  1.00  0.00     0.012 A 
ATOM     86  C   UNL A   1      44.987  25.477  34.734  1.00  0.00     0.148 A 
ATOM     87  C   UNL A   1      47.619  26.413  34.438  1.00  0.00     0.002 A 
ATOM     88  C   UNL A   1      46.037  24.833  35.376  1.00  0.00     0.091 A 
ATOM     89  F   UNL A   1      43.726  25.029  34.823  1.00  0.00    -0.205 F 
ATOM     90  C   UNL A   1      47.355  25.288  35.215  1.00  0.00     0.022 A 
BRANCH  88  91
ATOM     91  S   UNL A   1      45.778  23.437  36.477  1.00  0.00     0.127 S 
ATOM     92  O   UNL A   1      47.150  23.068  36.820  1.00  0.00    -0.237 OA
ATOM     93  O   UNL A   1      45.018  24.042  37.572  1.00  0.00    -0.237 OA
ATOM     94  O   UNL A   1      45.038  22.449  35.704  1.00  0.00    -0.744 OA
ENDBRANCH  88  91
ENDBRANCH  61  84
ENDBRANCH  35  36
ENDBRANCH  27  30
ENDBRANCH  25  26
ENDBRANCH   1  25
TORSDOF 18
ENDMDL
