MODEL 1
REMARK VINA RESULT:     -12.3      0.000      0.000
REMARK SMILES CC(C)C[C@@H]([NH2+][C@H]1CCOC2(CCOCC2)C1)C(=O)NCCCNC(=O)c1ccc(-c2c3nc(c(-c4cccc(S(=O)(=O)[O-])c4F)c4ccc([nH]4)c(-c4cccc(S(=O)(=O)[O-])c4F)c4nc(c(-c5cccc(S(=O)(=O)[O-])c5F)c5ccc2[nH]5)C=C4)C=C3)cc1
REMARK SMILES IDX 22 1 21 2 20 3 18 4 19 5 5 7 4 8 2 9 1 10 3 11 6 12 7 15
REMARK SMILES IDX 8 16 17 17 9 18 11 19 10 20 12 21 16 22 13 23 15 24 14 25
REMARK SMILES IDX 23 26 24 27 25 28 26 30 27 31 28 32 89 33 29 34 88 35 30 36
REMARK SMILES IDX 31 37 32 38 82 39 33 40 87 41 81 42 83 43 34 44 86 45 80 46
REMARK SMILES IDX 79 47 35 49 67 50 47 51 66 52 48 53 51 54 65 55 84 56 49 57
REMARK SMILES IDX 50 58 64 60 85 61 52 62 36 63 37 64 45 65 38 66 40 67 46 68
REMARK SMILES IDX 39 69 41 70 42 71 43 72 44 73 68 74 69 75 77 76 70 77 72 78
REMARK SMILES IDX 78 79 71 80 73 81 74 82 75 83 76 84 53 85 54 86 62 87 55 88
REMARK SMILES IDX 57 89 63 90 56 91 58 92 59 93 60 94 61 95
REMARK H PARENT 20 6 6 13 6 14 24 29 83 48 51 59
REMARK Flexibility Score: inf
ROOT
ATOM      1  C   UNL A   1      32.857  27.695  25.822  1.00  0.00     0.042 C 
ENDROOT
BRANCH   1   2
ATOM      2  C   UNL A   1      31.484  27.829  26.476  1.00  0.00     0.118 C 
BRANCH   2   3
ATOM      3  N   UNL A   1      30.898  26.531  26.757  1.00  0.00    -0.351 N 
ATOM      4  C   UNL A   1      30.385  25.597  25.909  1.00  0.00     0.278 C 
ATOM      5  O   UNL A   1      29.906  24.577  26.419  1.00  0.00    -0.268 OA
ATOM      6  H   UNL A   1      30.866  26.288  27.710  1.00  0.00     0.163 HD
BRANCH   4   7
ATOM      7  C   UNL A   1      30.415  25.765  24.373  1.00  0.00     0.273 C 
BRANCH   7   8
ATOM      8  C   UNL A   1      30.370  24.397  23.659  1.00  0.00     0.078 C 
BRANCH   8   9
ATOM      9  C   UNL A   1      31.718  23.859  23.129  1.00  0.00    -0.011 C 
ATOM     10  C   UNL A   1      32.878  24.824  23.370  1.00  0.00     0.007 C 
ATOM     11  C   UNL A   1      32.024  22.502  23.768  1.00  0.00     0.007 C 
ENDBRANCH   8   9
ENDBRANCH   7   8
BRANCH   7  12
ATOM     12  N   UNL A   1      29.356  26.682  23.890  1.00  0.00    -0.333 N 
ATOM     13  H   UNL A   1      28.664  26.775  24.632  1.00  0.00     0.347 HD
ATOM     14  H   UNL A   1      29.003  26.257  23.031  1.00  0.00     0.347 HD
BRANCH  12  15
ATOM     15  C   UNL A   1      29.783  28.039  23.504  1.00  0.00     0.188 C 
ATOM     16  C   UNL A   1      31.025  28.118  22.610  1.00  0.00     0.093 C 
ATOM     17  C   UNL A   1      28.598  28.691  22.765  1.00  0.00     0.100 C 
ATOM     18  C   UNL A   1      31.271  29.552  22.177  1.00  0.00     0.167 C 
ATOM     19  C   UNL A   1      28.915  30.096  22.220  1.00  0.00     0.078 C 
ATOM     20  O   UNL A   1      30.147  30.075  21.479  1.00  0.00    -0.374 OA
ATOM     21  C   UNL A   1      28.946  31.160  23.333  1.00  0.00     0.064 C 
ATOM     22  C   UNL A   1      27.825  30.496  21.205  1.00  0.00     0.064 C 
ATOM     23  C   UNL A   1      29.091  32.557  22.739  1.00  0.00     0.163 C 
ATOM     24  C   UNL A   1      28.028  31.928  20.725  1.00  0.00     0.163 C 
ATOM     25  O   UNL A   1      28.025  32.832  21.830  1.00  0.00    -0.381 OA
ENDBRANCH  12  15
ENDBRANCH   7  12
ENDBRANCH   4   7
ENDBRANCH   2   3
ENDBRANCH   1   2
BRANCH   1  26
ATOM     26  C   UNL A   1      33.393  28.995  25.234  1.00  0.00     0.118 C 
BRANCH  26  27
ATOM     27  N   UNL A   1      32.752  30.176  25.798  1.00  0.00    -0.352 N 
ATOM     28  C   UNL A   1      33.146  30.951  26.862  1.00  0.00     0.251 C 
ATOM     29  H   UNL A   1      31.919  30.458  25.355  1.00  0.00     0.163 HD
ATOM     30  O   UNL A   1      32.394  31.813  27.308  1.00  0.00    -0.269 OA
BRANCH  28  31
ATOM     31  C   UNL A   1      34.470  30.726  27.479  1.00  0.00     0.039 A 
ATOM     32  C   UNL A   1      35.346  31.805  27.627  1.00  0.00     0.014 A 
ATOM     33  C   UNL A   1      34.833  29.455  27.932  1.00  0.00     0.014 A 
ATOM     34  C   UNL A   1      36.557  31.624  28.301  1.00  0.00     0.010 A 
ATOM     35  C   UNL A   1      36.003  29.294  28.664  1.00  0.00     0.010 A 
ATOM     36  C   UNL A   1      36.877  30.376  28.858  1.00  0.00    -0.014 A 
BRANCH  36  37
ATOM     37  C   UNL A   1      38.107  30.164  29.664  1.00  0.00     0.031 A 
ATOM     38  C   UNL A   1      39.180  29.239  29.159  1.00  0.00     0.074 A 
ATOM     39  C   UNL A   1      38.197  30.696  30.899  1.00  0.00     0.049 A 
ATOM     40  N   UNL A   1      40.246  28.797  29.773  1.00  0.00    -0.248 NA
ATOM     41  C   UNL A   1      39.013  28.713  27.793  1.00  0.00     0.031 C 
ATOM     42  C   UNL A   1      37.191  31.553  31.528  1.00  0.00     0.029 A 
ATOM     43  N   UNL A   1      39.164  30.557  31.865  1.00  0.00    -0.354 N 
ATOM     44  C   UNL A   1      40.848  27.907  28.893  1.00  0.00     0.074 A 
ATOM     45  C   UNL A   1      40.018  27.852  27.710  1.00  0.00     0.031 C 
ATOM     46  C   UNL A   1      37.585  31.856  32.776  1.00  0.00     0.029 A 
ATOM     47  C   UNL A   1      38.853  31.186  33.049  1.00  0.00     0.049 A 
ATOM     48  H   UNL A   1      39.998  30.056  31.724  1.00  0.00     0.167 HD
ATOM     49  C   UNL A   1      42.002  27.215  29.046  1.00  0.00     0.034 A 
ATOM     50  C   UNL A   1      39.506  31.207  34.228  1.00  0.00     0.034 A 
ATOM     51  C   UNL A   1      42.853  27.318  30.199  1.00  0.00     0.049 A 
ATOM     52  C   UNL A   1      40.813  30.471  34.353  1.00  0.00     0.074 A 
ATOM     53  C   UNL A   1      44.086  26.728  30.412  1.00  0.00     0.029 A 
ATOM     54  N   UNL A   1      42.561  28.059  31.333  1.00  0.00    -0.354 N 
ATOM     55  N   UNL A   1      41.440  29.749  33.456  1.00  0.00    -0.248 NA
ATOM     56  C   UNL A   1      41.521  30.580  35.636  1.00  0.00     0.031 C 
ATOM     57  C   UNL A   1      44.535  27.104  31.682  1.00  0.00     0.029 A 
ATOM     58  C   UNL A   1      43.591  27.944  32.250  1.00  0.00     0.049 A 
ATOM     59  H   UNL A   1      41.743  28.589  31.466  1.00  0.00     0.167 HD
ATOM     60  C   UNL A   1      42.633  29.355  34.049  1.00  0.00     0.074 A 
ATOM     61  C   UNL A   1      42.647  29.926  35.381  1.00  0.00     0.031 C 
ATOM     62  C   UNL A   1      43.623  28.580  33.542  1.00  0.00     0.034 A 
BRANCH  49  63
ATOM     63  C   UNL A   1      42.444  26.328  27.911  1.00  0.00     0.023 A 
ATOM     64  C   UNL A   1      43.359  26.824  26.960  1.00  0.00     0.012 A 
ATOM     65  C   UNL A   1      42.006  24.993  27.819  1.00  0.00     0.148 A 
ATOM     66  C   UNL A   1      43.806  26.016  25.915  1.00  0.00     0.002 A 
ATOM     67  C   UNL A   1      42.491  24.180  26.800  1.00  0.00     0.091 A 
ATOM     68  F   UNL A   1      41.119  24.545  28.719  1.00  0.00    -0.205 F 
ATOM     69  C   UNL A   1      43.380  24.693  25.841  1.00  0.00     0.022 A 
BRANCH  67  70
ATOM     70  S   UNL A   1      42.064  22.440  26.667  1.00  0.00     0.127 S 
ATOM     71  O   UNL A   1      40.608  22.501  26.559  1.00  0.00    -0.237 OA
ATOM     72  O   UNL A   1      42.751  22.046  25.435  1.00  0.00    -0.237 OA
ATOM     73  O   UNL A   1      42.578  21.808  27.874  1.00  0.00    -0.744 OA
ENDBRANCH  67  70
ENDBRANCH  49  63
BRANCH  50  74
ATOM     74  C   UNL A   1      38.967  32.011  35.362  1.00  0.00     0.023 A 
ATOM     75  C   UNL A   1      39.022  33.416  35.293  1.00  0.00     0.012 A 
ATOM     76  C   UNL A   1      38.373  31.400  36.483  1.00  0.00     0.148 A 
ATOM     77  C   UNL A   1      38.522  34.200  36.334  1.00  0.00     0.002 A 
ATOM     78  C   UNL A   1      37.828  32.188  37.492  1.00  0.00     0.091 A 
ATOM     79  F   UNL A   1      38.342  30.062  36.537  1.00  0.00    -0.205 F 
ATOM     80  C   UNL A   1      37.915  33.587  37.427  1.00  0.00     0.022 A 
BRANCH  78  81
ATOM     81  S   UNL A   1      36.912  31.487  38.870  1.00  0.00     0.127 S 
ATOM     82  O   UNL A   1      35.731  32.347  38.912  1.00  0.00    -0.237 OA
ATOM     83  O   UNL A   1      36.663  30.121  38.406  1.00  0.00    -0.237 OA
ATOM     84  O   UNL A   1      37.804  31.574  40.018  1.00  0.00    -0.744 OA
ENDBRANCH  78  81
ENDBRANCH  50  74
BRANCH  62  85
ATOM     85  C   UNL A   1      44.840  28.341  34.394  1.00  0.00     0.023 A 
ATOM     86  C   UNL A   1      45.932  29.227  34.322  1.00  0.00     0.012 A 
ATOM     87  C   UNL A   1      44.850  27.301  35.345  1.00  0.00     0.148 A 
ATOM     88  C   UNL A   1      47.027  29.069  35.171  1.00  0.00     0.002 A 
ATOM     89  C   UNL A   1      45.922  27.179  36.219  1.00  0.00     0.091 A 
ATOM     90  F   UNL A   1      43.806  26.459  35.383  1.00  0.00    -0.205 F 
ATOM     91  C   UNL A   1      47.016  28.056  36.128  1.00  0.00     0.022 A 
BRANCH  89  92
ATOM     92  S   UNL A   1      45.951  25.967  37.546  1.00  0.00     0.127 S 
ATOM     93  O   UNL A   1      47.230  26.262  38.190  1.00  0.00    -0.237 OA
ATOM     94  O   UNL A   1      44.773  26.338  38.330  1.00  0.00    -0.237 OA
ATOM     95  O   UNL A   1      45.862  24.663  36.902  1.00  0.00    -0.744 OA
ENDBRANCH  89  92
ENDBRANCH  62  85
ENDBRANCH  36  37
ENDBRANCH  28  31
ENDBRANCH  26  27
ENDBRANCH   1  26
TORSDOF 17
ENDMDL
MODEL 2
REMARK VINA RESULT:     -12.2      2.015      4.328
REMARK SMILES CC(C)C[C@@H]([NH2+][C@H]1CCOC2(CCOCC2)C1)C(=O)NCCCNC(=O)c1ccc(-c2c3nc(c(-c4cccc(S(=O)(=O)[O-])c4F)c4ccc([nH]4)c(-c4cccc(S(=O)(=O)[O-])c4F)c4nc(c(-c5cccc(S(=O)(=O)[O-])c5F)c5ccc2[nH]5)C=C4)C=C3)cc1
REMARK SMILES IDX 22 1 21 2 20 3 18 4 19 5 5 7 4 8 2 9 1 10 3 11 6 12 7 15
REMARK SMILES IDX 8 16 17 17 9 18 11 19 10 20 12 21 16 22 13 23 15 24 14 25
REMARK SMILES IDX 23 26 24 27 25 28 26 30 27 31 28 32 89 33 29 34 88 35 30 36
REMARK SMILES IDX 31 37 32 38 82 39 33 40 87 41 81 42 83 43 34 44 86 45 80 46
REMARK SMILES IDX 79 47 35 49 67 50 47 51 66 52 48 53 51 54 65 55 84 56 49 57
REMARK SMILES IDX 50 58 64 60 85 61 52 62 36 63 37 64 45 65 38 66 40 67 46 68
REMARK SMILES IDX 39 69 41 70 42 71 43 72 44 73 68 74 69 75 77 76 70 77 72 78
REMARK SMILES IDX 78 79 71 80 73 81 74 82 75 83 76 84 53 85 54 86 62 87 55 88
REMARK SMILES IDX 57 89 63 90 56 91 58 92 59 93 60 94 61 95
REMARK H PARENT 20 6 6 13 6 14 24 29 83 48 51 59
REMARK Flexibility Score: inf
ROOT
ATOM      1  C   UNL A   1      34.019  29.006  24.176  1.00  0.00     0.042 C 
ENDROOT
BRANCH   1   2
ATOM      2  C   UNL A   1      33.252  28.960  22.857  1.00  0.00     0.118 C 
BRANCH   2   3
ATOM      3  N   UNL A   1      33.625  27.804  22.063  1.00  0.00    -0.351 N 
ATOM      4  C   UNL A   1      33.049  26.574  21.977  1.00  0.00     0.278 C 
ATOM      5  O   UNL A   1      33.598  25.745  21.241  1.00  0.00    -0.268 OA
ATOM      6  H   UNL A   1      34.421  27.929  21.498  1.00  0.00     0.163 HD
BRANCH   4   7
ATOM      7  C   UNL A   1      31.749  26.212  22.731  1.00  0.00     0.273 C 
BRANCH   7   8
ATOM      8  C   UNL A   1      30.588  27.144  22.324  1.00  0.00     0.078 C 
BRANCH   8   9
ATOM      9  C   UNL A   1      29.708  27.681  23.474  1.00  0.00    -0.011 C 
ATOM     10  C   UNL A   1      28.977  28.972  23.109  1.00  0.00     0.007 C 
ATOM     11  C   UNL A   1      28.699  26.611  23.901  1.00  0.00     0.007 C 
ENDBRANCH   8   9
ENDBRANCH   7   8
BRANCH   7  12
ATOM     12  N   UNL A   1      31.395  24.780  22.581  1.00  0.00    -0.333 N 
ATOM     13  H   UNL A   1      31.778  24.457  21.694  1.00  0.00     0.347 HD
ATOM     14  H   UNL A   1      30.377  24.747  22.643  1.00  0.00     0.347 HD
BRANCH  12  15
ATOM     15  C   UNL A   1      31.877  23.867  23.634  1.00  0.00     0.188 C 
ATOM     16  C   UNL A   1      30.948  23.691  24.840  1.00  0.00     0.093 C 
ATOM     17  C   UNL A   1      32.097  22.493  22.973  1.00  0.00     0.100 C 
ATOM     18  C   UNL A   1      31.495  22.629  25.775  1.00  0.00     0.167 C 
ATOM     19  C   UNL A   1      32.526  21.398  23.966  1.00  0.00     0.078 C 
ATOM     20  O   UNL A   1      31.644  21.384  25.101  1.00  0.00    -0.374 OA
ATOM     21  C   UNL A   1      33.997  21.545  24.397  1.00  0.00     0.064 C 
ATOM     22  C   UNL A   1      32.360  20.020  23.293  1.00  0.00     0.064 C 
ATOM     23  C   UNL A   1      34.433  20.353  25.241  1.00  0.00     0.163 C 
ATOM     24  C   UNL A   1      32.884  18.908  24.193  1.00  0.00     0.163 C 
ATOM     25  O   UNL A   1      34.256  19.133  24.520  1.00  0.00    -0.381 OA
ENDBRANCH  12  15
ENDBRANCH   7  12
ENDBRANCH   4   7
ENDBRANCH   2   3
ENDBRANCH   1   2
BRANCH   1  26
ATOM     26  C   UNL A   1      33.141  28.838  25.411  1.00  0.00     0.118 C 
BRANCH  26  27
ATOM     27  N   UNL A   1      32.603  30.103  25.896  1.00  0.00    -0.352 N 
ATOM     28  C   UNL A   1      33.104  30.945  26.860  1.00  0.00     0.251 C 
ATOM     29  H   UNL A   1      31.763  30.395  25.474  1.00  0.00     0.163 HD
ATOM     30  O   UNL A   1      32.430  31.889  27.263  1.00  0.00    -0.269 OA
BRANCH  28  31
ATOM     31  C   UNL A   1      34.448  30.695  27.421  1.00  0.00     0.039 A 
ATOM     32  C   UNL A   1      35.334  31.765  27.576  1.00  0.00     0.014 A 
ATOM     33  C   UNL A   1      34.822  29.408  27.816  1.00  0.00     0.014 A 
ATOM     34  C   UNL A   1      36.566  31.558  28.200  1.00  0.00     0.010 A 
ATOM     35  C   UNL A   1      36.016  29.218  28.501  1.00  0.00     0.010 A 
ATOM     36  C   UNL A   1      36.900  30.290  28.701  1.00  0.00    -0.014 A 
BRANCH  36  37
ATOM     37  C   UNL A   1      38.157  30.046  29.455  1.00  0.00     0.031 A 
ATOM     38  C   UNL A   1      39.188  29.100  28.902  1.00  0.00     0.074 A 
ATOM     39  C   UNL A   1      38.309  30.569  30.689  1.00  0.00     0.049 A 
ATOM     40  N   UNL A   1      40.268  28.632  29.471  1.00  0.00    -0.248 NA
ATOM     41  C   UNL A   1      38.954  28.586  27.542  1.00  0.00     0.031 C 
ATOM     42  C   UNL A   1      37.349  31.446  31.361  1.00  0.00     0.029 A 
ATOM     43  N   UNL A   1      39.311  30.404  31.613  1.00  0.00    -0.354 N 
ATOM     44  C   UNL A   1      40.814  27.733  28.563  1.00  0.00     0.074 A 
ATOM     45  C   UNL A   1      39.935  27.704  27.415  1.00  0.00     0.031 C 
ATOM     46  C   UNL A   1      37.800  31.732  32.593  1.00  0.00     0.029 A 
ATOM     47  C   UNL A   1      39.063  31.034  32.812  1.00  0.00     0.049 A 
ATOM     48  H   UNL A   1      40.128  29.886  31.436  1.00  0.00     0.167 HD
ATOM     49  C   UNL A   1      41.957  27.015  28.666  1.00  0.00     0.034 A 
ATOM     50  C   UNL A   1      39.764  31.033  33.964  1.00  0.00     0.034 A 
ATOM     51  C   UNL A   1      42.857  27.093  29.784  1.00  0.00     0.049 A 
ATOM     52  C   UNL A   1      41.058  30.268  34.031  1.00  0.00     0.074 A 
ATOM     53  C   UNL A   1      44.084  26.474  29.944  1.00  0.00     0.029 A 
ATOM     54  N   UNL A   1      42.628  27.834  30.932  1.00  0.00    -0.354 N 
ATOM     55  N   UNL A   1      41.631  29.537  33.106  1.00  0.00    -0.248 NA
ATOM     56  C   UNL A   1      41.820  30.354  35.286  1.00  0.00     0.031 C 
ATOM     57  C   UNL A   1      44.592  26.834  31.196  1.00  0.00     0.029 A 
ATOM     58  C   UNL A   1      43.691  27.691  31.805  1.00  0.00     0.049 A 
ATOM     59  H   UNL A   1      41.827  28.381  31.101  1.00  0.00     0.167 HD
ATOM     60  C   UNL A   1      42.839  29.113  33.649  1.00  0.00     0.074 A 
ATOM     61  C   UNL A   1      42.920  29.677  34.981  1.00  0.00     0.031 C 
ATOM     62  C   UNL A   1      43.790  28.319  33.098  1.00  0.00     0.034 A 
BRANCH  49  63
ATOM     63  C   UNL A   1      42.333  26.125  27.510  1.00  0.00     0.023 A 
ATOM     64  C   UNL A   1      43.120  26.645  26.462  1.00  0.00     0.012 A 
ATOM     65  C   UNL A   1      41.962  24.766  27.489  1.00  0.00     0.148 A 
ATOM     66  C   UNL A   1      43.505  25.836  25.394  1.00  0.00     0.002 A 
ATOM     67  C   UNL A   1      42.387  23.955  26.442  1.00  0.00     0.091 A 
ATOM     68  F   UNL A   1      41.195  24.295  28.482  1.00  0.00    -0.205 F 
ATOM     69  C   UNL A   1      43.148  24.490  25.389  1.00  0.00     0.022 A 
BRANCH  67  70
ATOM     70  S   UNL A   1      42.047  22.192  26.386  1.00  0.00     0.127 S 
ATOM     71  O   UNL A   1      40.592  22.177  26.247  1.00  0.00    -0.237 OA
ATOM     72  O   UNL A   1      42.778  21.773  25.189  1.00  0.00    -0.237 OA
ATOM     73  O   UNL A   1      42.563  21.645  27.633  1.00  0.00    -0.744 OA
ENDBRANCH  67  70
ENDBRANCH  49  63
BRANCH  50  74
ATOM     74  C   UNL A   1      39.289  31.842  35.122  1.00  0.00     0.023 A 
ATOM     75  C   UNL A   1      38.431  31.248  36.068  1.00  0.00     0.012 A 
ATOM     76  C   UNL A   1      39.707  33.173  35.314  1.00  0.00     0.148 A 
ATOM     77  C   UNL A   1      37.972  31.974  37.168  1.00  0.00     0.002 A 
ATOM     78  C   UNL A   1      39.289  33.874  36.440  1.00  0.00     0.091 A 
ATOM     79  F   UNL A   1      40.513  33.725  34.397  1.00  0.00    -0.205 F 
ATOM     80  C   UNL A   1      38.409  33.282  37.360  1.00  0.00     0.022 A 
BRANCH  78  81
ATOM     81  S   UNL A   1      39.907  35.514  36.836  1.00  0.00     0.127 S 
ATOM     82  O   UNL A   1      39.228  35.793  38.099  1.00  0.00    -0.237 OA
ATOM     83  O   UNL A   1      41.347  35.278  36.949  1.00  0.00    -0.237 OA
ATOM     84  O   UNL A   1      39.528  36.357  35.711  1.00  0.00    -0.744 OA
ENDBRANCH  78  81
ENDBRANCH  50  74
BRANCH  62  85
ATOM     85  C   UNL A   1      45.035  28.049  33.899  1.00  0.00     0.023 A 
ATOM     86  C   UNL A   1      46.126  28.934  33.819  1.00  0.00     0.012 A 
ATOM     87  C   UNL A   1      45.074  26.977  34.812  1.00  0.00     0.148 A 
ATOM     88  C   UNL A   1      47.249  28.745  34.625  1.00  0.00     0.002 A 
ATOM     89  C   UNL A   1      46.176  26.822  35.644  1.00  0.00     0.091 A 
ATOM     90  F   UNL A   1      44.030  26.136  34.858  1.00  0.00    -0.205 F 
ATOM     91  C   UNL A   1      47.268  27.700  35.546  1.00  0.00     0.022 A 
BRANCH  89  92
ATOM     92  S   UNL A   1      46.246  25.565  36.927  1.00  0.00     0.127 S 
ATOM     93  O   UNL A   1      45.033  25.853  37.691  1.00  0.00    -0.237 OA
ATOM     94  O   UNL A   1      46.198  24.327  36.150  1.00  0.00    -0.237 OA
ATOM     95  O   UNL A   1      47.499  25.785  37.638  1.00  0.00    -0.744 OA
ENDBRANCH  89  92
ENDBRANCH  62  85
ENDBRANCH  36  37
ENDBRANCH  28  31
ENDBRANCH  26  27
ENDBRANCH   1  26
TORSDOF 17
ENDMDL
MODEL 3
REMARK VINA RESULT:     -12.1      1.745      2.079
REMARK SMILES CC(C)C[C@@H]([NH2+][C@H]1CCOC2(CCOCC2)C1)C(=O)NCCCNC(=O)c1ccc(-c2c3nc(c(-c4cccc(S(=O)(=O)[O-])c4F)c4ccc([nH]4)c(-c4cccc(S(=O)(=O)[O-])c4F)c4nc(c(-c5cccc(S(=O)(=O)[O-])c5F)c5ccc2[nH]5)C=C4)C=C3)cc1
REMARK SMILES IDX 22 1 21 2 20 3 18 4 19 5 5 7 4 8 2 9 1 10 3 11 6 12 7 15
REMARK SMILES IDX 8 16 17 17 9 18 11 19 10 20 12 21 16 22 13 23 15 24 14 25
REMARK SMILES IDX 23 26 24 27 25 28 26 30 27 31 28 32 89 33 29 34 88 35 30 36
REMARK SMILES IDX 31 37 32 38 82 39 33 40 87 41 81 42 83 43 34 44 86 45 80 46
REMARK SMILES IDX 79 47 35 49 67 50 47 51 66 52 48 53 51 54 65 55 84 56 49 57
REMARK SMILES IDX 50 58 64 60 85 61 52 62 36 63 37 64 45 65 38 66 40 67 46 68
REMARK SMILES IDX 39 69 41 70 42 71 43 72 44 73 68 74 69 75 77 76 70 77 72 78
REMARK SMILES IDX 78 79 71 80 73 81 74 82 75 83 76 84 53 85 54 86 62 87 55 88
REMARK SMILES IDX 57 89 63 90 56 91 58 92 59 93 60 94 61 95
REMARK H PARENT 20 6 6 13 6 14 24 29 83 48 51 59
REMARK Flexibility Score: inf
ROOT
ATOM      1  C   UNL A   1      31.655  29.519  27.255  1.00  0.00     0.042 C 
ENDROOT
BRANCH   1   2
ATOM      2  C   UNL A   1      32.310  28.157  27.469  1.00  0.00     0.118 C 
BRANCH   2   3
ATOM      3  N   UNL A   1      31.368  27.073  27.262  1.00  0.00    -0.351 N 
ATOM      4  C   UNL A   1      30.853  26.564  26.109  1.00  0.00     0.278 C 
ATOM      5  O   UNL A   1      30.026  25.651  26.217  1.00  0.00    -0.268 OA
ATOM      6  H   UNL A   1      31.050  26.638  28.085  1.00  0.00     0.163 HD
BRANCH   4   7
ATOM      7  C   UNL A   1      31.287  27.067  24.714  1.00  0.00     0.273 C 
BRANCH   7   8
ATOM      8  C   UNL A   1      32.763  26.714  24.426  1.00  0.00     0.078 C 
BRANCH   8   9
ATOM      9  C   UNL A   1      33.012  25.700  23.288  1.00  0.00    -0.011 C 
ATOM     10  C   UNL A   1      33.406  26.370  21.972  1.00  0.00     0.007 C 
ATOM     11  C   UNL A   1      34.093  24.701  23.709  1.00  0.00     0.007 C 
ENDBRANCH   8   9
ENDBRANCH   7   8
BRANCH   7  12
ATOM     12  N   UNL A   1      30.380  26.594  23.641  1.00  0.00    -0.333 N 
ATOM     13  H   UNL A   1      29.845  25.810  24.011  1.00  0.00     0.347 HD
ATOM     14  H   UNL A   1      30.990  26.360  22.856  1.00  0.00     0.347 HD
BRANCH  12  15
ATOM     15  C   UNL A   1      29.421  27.577  23.106  1.00  0.00     0.188 C 
ATOM     16  C   UNL A   1      27.983  27.454  23.620  1.00  0.00     0.093 C 
ATOM     17  C   UNL A   1      29.959  28.975  23.469  1.00  0.00     0.100 C 
ATOM     18  C   UNL A   1      27.138  28.602  23.101  1.00  0.00     0.167 C 
ATOM     19  C   UNL A   1      29.020  30.120  23.048  1.00  0.00     0.078 C 
ATOM     20  O   UNL A   1      27.681  29.856  23.500  1.00  0.00    -0.374 OA
ATOM     21  C   UNL A   1      29.061  30.381  21.531  1.00  0.00     0.064 C 
ATOM     22  C   UNL A   1      29.455  31.413  23.768  1.00  0.00     0.064 C 
ATOM     23  C   UNL A   1      28.256  31.626  21.175  1.00  0.00     0.163 C 
ATOM     24  C   UNL A   1      28.631  32.603  23.294  1.00  0.00     0.163 C 
ATOM     25  O   UNL A   1      28.751  32.765  21.880  1.00  0.00    -0.381 OA
ENDBRANCH  12  15
ENDBRANCH   7  12
ENDBRANCH   4   7
ENDBRANCH   2   3
ENDBRANCH   1   2
BRANCH   1  26
ATOM     26  C   UNL A   1      32.432  30.443  26.326  1.00  0.00     0.118 C 
BRANCH  26  27
ATOM     27  N   UNL A   1      32.216  31.853  26.624  1.00  0.00    -0.352 N 
ATOM     28  C   UNL A   1      32.961  32.696  27.414  1.00  0.00     0.251 C 
ATOM     29  H   UNL A   1      31.426  32.260  26.201  1.00  0.00     0.163 HD
ATOM     30  O   UNL A   1      32.539  33.815  27.690  1.00  0.00    -0.269 OA
BRANCH  28  31
ATOM     31  C   UNL A   1      34.262  32.238  27.946  1.00  0.00     0.039 A 
ATOM     32  C   UNL A   1      35.344  33.123  27.957  1.00  0.00     0.014 A 
ATOM     33  C   UNL A   1      34.403  30.944  28.454  1.00  0.00     0.014 A 
ATOM     34  C   UNL A   1      36.548  32.734  28.550  1.00  0.00     0.010 A 
ATOM     35  C   UNL A   1      35.576  30.586  29.107  1.00  0.00     0.010 A 
ATOM     36  C   UNL A   1      36.660  31.477  29.164  1.00  0.00    -0.014 A 
BRANCH  36  37
ATOM     37  C   UNL A   1      37.888  31.060  29.890  1.00  0.00     0.031 A 
ATOM     38  C   UNL A   1      38.815  30.049  29.271  1.00  0.00     0.074 A 
ATOM     39  C   UNL A   1      38.097  31.489  31.151  1.00  0.00     0.049 A 
ATOM     40  N   UNL A   1      39.843  29.439  29.799  1.00  0.00    -0.248 NA
ATOM     41  C   UNL A   1      38.524  29.646  27.884  1.00  0.00     0.031 C 
ATOM     42  C   UNL A   1      37.234  32.415  31.885  1.00  0.00     0.029 A 
ATOM     43  N   UNL A   1      39.080  31.165  32.054  1.00  0.00    -0.354 N 
ATOM     44  C   UNL A   1      40.290  28.547  28.833  1.00  0.00     0.074 A 
ATOM     45  C   UNL A   1      39.409  28.677  27.694  1.00  0.00     0.031 C 
ATOM     46  C   UNL A   1      37.717  32.578  33.128  1.00  0.00     0.029 A 
ATOM     47  C   UNL A   1      38.902  31.742  33.291  1.00  0.00     0.049 A 
ATOM     48  H   UNL A   1      39.839  30.578  31.838  1.00  0.00     0.167 HD
ATOM     49  C   UNL A   1      41.354  27.710  28.881  1.00  0.00     0.034 A 
ATOM     50  C   UNL A   1      39.603  31.600  34.434  1.00  0.00     0.034 A 
ATOM     51  C   UNL A   1      42.261  27.627  29.993  1.00  0.00     0.049 A 
ATOM     52  C   UNL A   1      40.813  30.704  34.442  1.00  0.00     0.074 A 
ATOM     53  C   UNL A   1      43.418  26.878  30.103  1.00  0.00     0.029 A 
ATOM     54  N   UNL A   1      42.113  28.316  31.186  1.00  0.00    -0.354 N 
ATOM     55  N   UNL A   1      41.304  29.975  33.469  1.00  0.00    -0.248 NA
ATOM     56  C   UNL A   1      41.584  30.634  35.692  1.00  0.00     0.031 C 
ATOM     57  C   UNL A   1      43.965  27.107  31.370  1.00  0.00     0.029 A 
ATOM     58  C   UNL A   1      43.159  28.012  32.039  1.00  0.00     0.049 A 
ATOM     59  H   UNL A   1      41.374  28.931  31.396  1.00  0.00     0.167 HD
ATOM     60  C   UNL A   1      42.464  29.398  33.973  1.00  0.00     0.074 A 
ATOM     61  C   UNL A   1      42.607  29.868  35.336  1.00  0.00     0.031 C 
ATOM     62  C   UNL A   1      43.326  28.547  33.366  1.00  0.00     0.034 A 
BRANCH  49  63
ATOM     63  C   UNL A   1      41.632  26.859  27.670  1.00  0.00     0.023 A 
ATOM     64  C   UNL A   1      42.199  27.451  26.522  1.00  0.00     0.012 A 
ATOM     65  C   UNL A   1      41.393  25.471  27.686  1.00  0.00     0.148 A 
ATOM     66  C   UNL A   1      42.492  26.681  25.397  1.00  0.00     0.002 A 
ATOM     67  C   UNL A   1      41.729  24.703  26.576  1.00  0.00     0.091 A 
ATOM     68  F   UNL A   1      40.833  24.930  28.777  1.00  0.00    -0.205 F 
ATOM     69  C   UNL A   1      42.266  25.308  25.428  1.00  0.00     0.022 A 
BRANCH  67  70
ATOM     70  S   UNL A   1      41.551  22.916  26.549  1.00  0.00     0.127 S 
ATOM     71  O   UNL A   1      40.097  22.764  26.555  1.00  0.00    -0.237 OA
ATOM     72  O   UNL A   1      42.196  22.560  25.284  1.00  0.00    -0.237 OA
ATOM     73  O   UNL A   1      42.238  22.427  27.736  1.00  0.00    -0.744 OA
ENDBRANCH  67  70
ENDBRANCH  49  63
BRANCH  50  74
ATOM     74  C   UNL A   1      39.219  32.380  35.644  1.00  0.00     0.023 A 
ATOM     75  C   UNL A   1      38.385  31.783  36.609  1.00  0.00     0.012 A 
ATOM     76  C   UNL A   1      39.697  33.686  35.863  1.00  0.00     0.148 A 
ATOM     77  C   UNL A   1      38.009  32.482  37.757  1.00  0.00     0.002 A 
ATOM     78  C   UNL A   1      39.363  34.358  37.034  1.00  0.00     0.091 A 
ATOM     79  F   UNL A   1      40.479  34.243  34.928  1.00  0.00    -0.205 F 
ATOM     80  C   UNL A   1      38.507  33.765  37.975  1.00  0.00     0.022 A 
BRANCH  78  81
ATOM     81  S   UNL A   1      40.064  35.957  37.459  1.00  0.00     0.127 S 
ATOM     82  O   UNL A   1      41.481  35.633  37.606  1.00  0.00    -0.237 OA
ATOM     83  O   UNL A   1      39.734  36.758  36.278  1.00  0.00    -0.237 OA
ATOM     84  O   UNL A   1      39.378  36.375  38.673  1.00  0.00    -0.744 OA
ENDBRANCH  78  81
ENDBRANCH  50  74
BRANCH  62  85
ATOM     85  C   UNL A   1      44.540  28.102  34.137  1.00  0.00     0.023 A 
ATOM     86  C   UNL A   1      45.717  28.873  34.098  1.00  0.00     0.012 A 
ATOM     87  C   UNL A   1      44.472  26.979  34.985  1.00  0.00     0.148 A 
ATOM     88  C   UNL A   1      46.818  28.521  34.880  1.00  0.00     0.002 A 
ATOM     89  C   UNL A   1      45.555  26.662  35.795  1.00  0.00     0.091 A 
ATOM     90  F   UNL A   1      43.346  26.249  34.991  1.00  0.00    -0.205 F 
ATOM     91  C   UNL A   1      46.732  27.426  35.737  1.00  0.00     0.022 A 
BRANCH  89  92
ATOM     92  S   UNL A   1      45.500  25.330  37.001  1.00  0.00     0.127 S 
ATOM     93  O   UNL A   1      46.842  25.395  37.576  1.00  0.00    -0.237 OA
ATOM     94  O   UNL A   1      44.430  25.768  37.897  1.00  0.00    -0.237 OA
ATOM     95  O   UNL A   1      45.200  24.119  36.249  1.00  0.00    -0.744 OA
ENDBRANCH  89  92
ENDBRANCH  62  85
ENDBRANCH  36  37
ENDBRANCH  28  31
ENDBRANCH  26  27
ENDBRANCH   1  26
TORSDOF 17
ENDMDL
