MODEL 1
REMARK VINA RESULT:     -12.6      0.000      0.000
REMARK SMILES O=C(NCCCNC(=O)[C@@H]1[C@@H](C(=O)NCc2cc(F)cc(Br)c2)[C@@H]2C=C[C@H]1C2)c1ccc(-c2c3nc(c(-c4cccc(S(=O)(=O)[O-])c4F)c4ccc([nH]4)c(-c4cccc(S(=O)(=O)[O-])c4F)c4nc(c(-c5cccc(S(=O)(=O)[O-])c5F)c5ccc2[nH]5)C=C4)C=C3)cc1
REMARK SMILES IDX 5 1 4 2 3 3 1 4 2 5 29 7 30 8 91 9 31 10 90 11 32 12 33 13
REMARK SMILES IDX 34 14 84 15 35 16 89 17 83 18 85 19 36 20 88 21 82 22 81 23
REMARK SMILES IDX 37 25 69 26 49 27 68 28 50 29 53 30 67 31 86 32 51 33 52 34
REMARK SMILES IDX 66 36 87 37 54 38 38 39 39 40 47 41 40 42 42 43 48 44 41 45
REMARK SMILES IDX 43 46 44 47 45 48 46 49 70 50 71 51 79 52 72 53 74 54 80 55
REMARK SMILES IDX 73 56 75 57 76 58 77 59 78 60 55 61 56 62 64 63 57 64 59 65
REMARK SMILES IDX 65 66 58 67 60 68 61 69 62 70 63 71 6 72 7 73 8 74 9 76
REMARK SMILES IDX 10 77 11 78 27 79 24 80 26 81 28 82 25 83 12 84 13 85 14 86
REMARK SMILES IDX 15 88 16 89 17 90 23 91 18 92 21 93 19 94 20 95 22 96
REMARK H PARENT 3 6 85 24 53 35 7 75 14 87
REMARK Flexibility Score: inf
ROOT
ATOM      1  C   UNL A   1      31.523  31.683  26.608  1.00  0.00     0.042 C 
ENDROOT
BRANCH   1   2
ATOM      2  C   UNL A   1      32.654  32.636  27.143  1.00  0.00     0.118 C 
BRANCH   2   3
ATOM      3  N   UNL A   1      32.330  33.950  27.666  1.00  0.00    -0.352 N 
ATOM      4  O   UNL A   1      32.710  35.875  28.790  1.00  0.00    -0.269 OA
ATOM      5  C   UNL A   1      33.063  34.720  28.564  1.00  0.00     0.251 C 
ATOM      6  H   UNL A   1      31.488  34.347  27.346  1.00  0.00     0.163 HD
BRANCH   5   7
ATOM      7  C   UNL A   1      34.243  34.179  29.299  1.00  0.00     0.039 A 
ATOM      8  C   UNL A   1      34.110  33.276  30.360  1.00  0.00     0.014 A 
ATOM      9  C   UNL A   1      35.524  34.456  28.805  1.00  0.00     0.014 A 
ATOM     10  C   UNL A   1      35.256  32.728  30.978  1.00  0.00     0.010 A 
ATOM     11  C   UNL A   1      36.662  33.892  29.409  1.00  0.00     0.010 A 
ATOM     12  C   UNL A   1      36.550  33.040  30.522  1.00  0.00    -0.014 A 
BRANCH  12  13
ATOM     13  C   UNL A   1      37.788  32.483  31.161  1.00  0.00     0.031 A 
ATOM     14  C   UNL A   1      38.520  31.320  30.532  1.00  0.00     0.074 A 
ATOM     15  C   UNL A   1      38.217  32.940  32.355  1.00  0.00     0.049 A 
ATOM     16  N   UNL A   1      39.529  30.620  30.990  1.00  0.00    -0.248 NA
ATOM     17  C   UNL A   1      38.041  30.878  29.213  1.00  0.00     0.031 C 
ATOM     18  C   UNL A   1      37.594  34.026  33.109  1.00  0.00     0.029 A 
ATOM     19  N   UNL A   1      39.243  32.514  33.171  1.00  0.00    -0.354 N 
ATOM     20  C   UNL A   1      39.774  29.627  30.046  1.00  0.00     0.074 A 
ATOM     21  C   UNL A   1      38.805  29.818  28.987  1.00  0.00     0.031 C 
ATOM     22  C   UNL A   1      38.223  34.160  34.288  1.00  0.00     0.029 A 
ATOM     23  C   UNL A   1      39.265  33.140  34.398  1.00  0.00     0.049 A 
ATOM     24  H   UNL A   1      39.898  31.829  32.903  1.00  0.00     0.167 HD
ATOM     25  C   UNL A   1      40.715  28.649  30.052  1.00  0.00     0.034 A 
ATOM     26  C   UNL A   1      39.998  32.902  35.506  1.00  0.00     0.034 A 
ATOM     27  C   UNL A   1      41.689  28.463  31.096  1.00  0.00     0.049 A 
ATOM     28  C   UNL A   1      41.036  31.812  35.500  1.00  0.00     0.074 A 
ATOM     29  C   UNL A   1      42.734  27.554  31.146  1.00  0.00     0.029 A 
ATOM     30  N   UNL A   1      41.723  29.170  32.288  1.00  0.00    -0.354 N 
ATOM     31  N   UNL A   1      41.343  30.975  34.541  1.00  0.00    -0.248 NA
ATOM     32  C   UNL A   1      41.851  31.652  36.717  1.00  0.00     0.031 C 
ATOM     33  C   UNL A   1      43.367  27.679  32.388  1.00  0.00     0.029 A 
ATOM     34  C   UNL A   1      42.751  28.703  33.090  1.00  0.00     0.049 A 
ATOM     35  H   UNL A   1      41.104  29.898  32.529  1.00  0.00     0.167 HD
ATOM     36  C   UNL A   1      42.404  30.213  35.020  1.00  0.00     0.074 A 
ATOM     37  C   UNL A   1      42.694  30.692  36.354  1.00  0.00     0.031 C 
ATOM     38  C   UNL A   1      43.073  29.208  34.402  1.00  0.00     0.034 A 
BRANCH  25  39
ATOM     39  C   UNL A   1      40.744  27.694  28.881  1.00  0.00     0.023 A 
ATOM     40  C   UNL A   1      39.790  26.659  28.790  1.00  0.00     0.012 A 
ATOM     41  C   UNL A   1      41.690  27.848  27.845  1.00  0.00     0.148 A 
ATOM     42  C   UNL A   1      39.813  25.760  27.723  1.00  0.00     0.002 A 
ATOM     43  C   UNL A   1      41.675  26.978  26.760  1.00  0.00     0.091 A 
ATOM     44  F   UNL A   1      42.597  28.830  27.946  1.00  0.00    -0.205 F 
ATOM     45  C   UNL A   1      40.750  25.923  26.707  1.00  0.00     0.022 A 
BRANCH  43  46
ATOM     46  S   UNL A   1      42.787  27.161  25.361  1.00  0.00     0.127 S 
ATOM     47  O   UNL A   1      44.083  27.281  26.030  1.00  0.00    -0.237 OA
ATOM     48  O   UNL A   1      42.589  25.902  24.641  1.00  0.00    -0.237 OA
ATOM     49  O   UNL A   1      42.337  28.344  24.645  1.00  0.00    -0.744 OA
ENDBRANCH  43  46
ENDBRANCH  25  39
BRANCH  26  50
ATOM     50  C   UNL A   1      39.768  33.735  36.722  1.00  0.00     0.023 A 
ATOM     51  C   UNL A   1      40.153  35.088  36.729  1.00  0.00     0.012 A 
ATOM     52  C   UNL A   1      39.098  33.202  37.842  1.00  0.00     0.148 A 
ATOM     53  C   UNL A   1      39.880  35.896  37.835  1.00  0.00     0.002 A 
ATOM     54  C   UNL A   1      38.779  34.027  38.914  1.00  0.00     0.091 A 
ATOM     55  F   UNL A   1      38.754  31.906  37.817  1.00  0.00    -0.205 F 
ATOM     56  C   UNL A   1      39.181  35.371  38.919  1.00  0.00     0.022 A 
BRANCH  54  57
ATOM     57  S   UNL A   1      37.759  33.475  40.287  1.00  0.00     0.127 S 
ATOM     58  O   UNL A   1      38.567  32.388  40.839  1.00  0.00    -0.237 OA
ATOM     59  O   UNL A   1      37.702  34.681  41.115  1.00  0.00    -0.237 OA
ATOM     60  O   UNL A   1      36.488  33.078  39.705  1.00  0.00    -0.744 OA
ENDBRANCH  54  57
ENDBRANCH  26  50
BRANCH  38  61
ATOM     61  C   UNL A   1      44.235  28.573  35.122  1.00  0.00     0.023 A 
ATOM     62  C   UNL A   1      45.541  29.069  34.945  1.00  0.00     0.012 A 
ATOM     63  C   UNL A   1      44.005  27.555  36.071  1.00  0.00     0.148 A 
ATOM     64  C   UNL A   1      46.602  28.551  35.688  1.00  0.00     0.002 A 
ATOM     65  C   UNL A   1      45.057  27.080  36.844  1.00  0.00     0.091 A 
ATOM     66  F   UNL A   1      42.758  27.085  36.211  1.00  0.00    -0.205 F 
ATOM     67  C   UNL A   1      46.359  27.569  36.648  1.00  0.00     0.022 A 
BRANCH  65  68
ATOM     68  S   UNL A   1      44.825  25.891  38.171  1.00  0.00     0.127 S 
ATOM     69  O   UNL A   1      46.122  25.933  38.841  1.00  0.00    -0.237 OA
ATOM     70  O   UNL A   1      43.724  26.485  38.928  1.00  0.00    -0.237 OA
ATOM     71  O   UNL A   1      44.503  24.622  37.525  1.00  0.00    -0.744 OA
ENDBRANCH  65  68
ENDBRANCH  38  61
ENDBRANCH  12  13
ENDBRANCH   5   7
ENDBRANCH   2   3
ENDBRANCH   1   2
BRANCH   1  72
ATOM     72  C   UNL A   1      30.621  31.535  25.275  1.00  0.00     0.117 C 
BRANCH  72  73
ATOM     73  N   UNL A   1      30.456  30.381  24.345  1.00  0.00    -0.356 N 
ATOM     74  C   UNL A   1      31.017  29.158  24.068  1.00  0.00     0.224 C 
ATOM     75  H   UNL A   1      29.705  30.550  23.732  1.00  0.00     0.163 HD
ATOM     76  O   UNL A   1      30.467  28.465  23.208  1.00  0.00    -0.275 OA
BRANCH  74  77
ATOM     77  C   UNL A   1      32.230  28.648  24.790  1.00  0.00     0.098 C 
ATOM     78  C   UNL A   1      32.878  27.412  24.176  1.00  0.00     0.098 C 
ATOM     79  C   UNL A   1      32.074  28.134  26.269  1.00  0.00     0.025 C 
ATOM     80  C   UNL A   1      33.711  26.870  25.391  1.00  0.00     0.025 C 
ATOM     81  C   UNL A   1      31.691  26.648  26.435  1.00  0.00    -0.027 C 
ATOM     82  C   UNL A   1      33.576  27.921  26.521  1.00  0.00     0.017 C 
ATOM     83  C   UNL A   1      32.727  25.896  26.010  1.00  0.00    -0.027 C 
BRANCH  78  84
ATOM     84  C   UNL A   1      33.429  27.694  22.816  1.00  0.00     0.224 C 
ATOM     85  O   UNL A   1      34.196  28.630  22.603  1.00  0.00    -0.275 OA
ATOM     86  N   UNL A   1      32.954  26.916  21.766  1.00  0.00    -0.352 N 
ATOM     87  H   UNL A   1      33.125  27.291  20.872  1.00  0.00     0.163 HD
BRANCH  86  88
ATOM     88  C   UNL A   1      32.232  25.616  21.759  1.00  0.00     0.151 C 
BRANCH  88  89
ATOM     89  C   UNL A   1      32.708  24.343  22.485  1.00  0.00    -0.025 A 
ATOM     90  C   UNL A   1      31.923  23.422  23.182  1.00  0.00     0.044 A 
ATOM     91  C   UNL A   1      34.087  24.149  22.652  1.00  0.00     0.021 A 
ATOM     92  C   UNL A   1      32.420  22.498  24.105  1.00  0.00     0.124 A 
ATOM     93  C   UNL A   1      34.603  23.161  23.517  1.00  0.00     0.021 A 
ATOM     94  F   UNL A   1      31.562  21.723  24.786  1.00  0.00    -0.207 F 
ATOM     95  C   UNL A   1      33.772  22.366  24.295  1.00  0.00     0.055 A 
ATOM     96  Br  UNL A   1      36.471  22.908  23.623  1.00  0.00    -0.051 Br
ENDBRANCH  88  89
ENDBRANCH  86  88
ENDBRANCH  78  84
ENDBRANCH  74  77
ENDBRANCH  72  73
ENDBRANCH   1  72
TORSDOF 16
ENDMDL
MODEL 2
REMARK VINA RESULT:     -12.5      6.371     11.301
REMARK SMILES O=C(NCCCNC(=O)[C@@H]1[C@@H](C(=O)NCc2cc(F)cc(Br)c2)[C@@H]2C=C[C@H]1C2)c1ccc(-c2c3nc(c(-c4cccc(S(=O)(=O)[O-])c4F)c4ccc([nH]4)c(-c4cccc(S(=O)(=O)[O-])c4F)c4nc(c(-c5cccc(S(=O)(=O)[O-])c5F)c5ccc2[nH]5)C=C4)C=C3)cc1
REMARK SMILES IDX 5 1 4 2 3 3 1 4 2 5 29 7 30 8 91 9 31 10 90 11 32 12 33 13
REMARK SMILES IDX 34 14 84 15 35 16 89 17 83 18 85 19 36 20 88 21 82 22 81 23
REMARK SMILES IDX 37 25 69 26 49 27 68 28 50 29 53 30 67 31 86 32 51 33 52 34
REMARK SMILES IDX 66 36 87 37 54 38 38 39 39 40 47 41 40 42 42 43 48 44 41 45
REMARK SMILES IDX 43 46 44 47 45 48 46 49 70 50 71 51 79 52 72 53 74 54 80 55
REMARK SMILES IDX 73 56 75 57 76 58 77 59 78 60 55 61 56 62 64 63 57 64 59 65
REMARK SMILES IDX 65 66 58 67 60 68 61 69 62 70 63 71 6 72 7 73 8 74 9 76
REMARK SMILES IDX 10 77 11 78 27 79 24 80 26 81 28 82 25 83 12 84 13 85 14 86
REMARK SMILES IDX 15 88 16 89 17 90 23 91 18 92 21 93 19 94 20 95 22 96
REMARK H PARENT 3 6 85 24 53 35 7 75 14 87
REMARK Flexibility Score: inf
ROOT
ATOM      1  C   UNL A   1      37.439  20.054  24.850  1.00  0.00     0.042 C 
ENDROOT
BRANCH   1   2
ATOM      2  C   UNL A   1      38.669  20.251  25.809  1.00  0.00     0.118 C 
BRANCH   2   3
ATOM      3  N   UNL A   1      39.846  19.410  25.688  1.00  0.00    -0.352 N 
ATOM      4  O   UNL A   1      41.992  18.800  26.052  1.00  0.00    -0.269 OA
ATOM      5  C   UNL A   1      41.144  19.687  26.105  1.00  0.00     0.251 C 
ATOM      6  H   UNL A   1      39.709  18.536  25.257  1.00  0.00     0.163 HD
BRANCH   5   7
ATOM      7  C   UNL A   1      41.556  21.041  26.579  1.00  0.00     0.039 A 
ATOM      8  C   UNL A   1      41.935  21.282  27.905  1.00  0.00     0.014 A 
ATOM      9  C   UNL A   1      41.725  22.059  25.633  1.00  0.00     0.014 A 
ATOM     10  C   UNL A   1      42.392  22.560  28.294  1.00  0.00     0.010 A 
ATOM     11  C   UNL A   1      42.202  23.324  26.019  1.00  0.00     0.010 A 
ATOM     12  C   UNL A   1      42.518  23.605  27.360  1.00  0.00    -0.014 A 
BRANCH  12  13
ATOM     13  C   UNL A   1      42.992  24.977  27.740  1.00  0.00     0.031 A 
ATOM     14  C   UNL A   1      42.035  25.983  28.337  1.00  0.00     0.074 A 
ATOM     15  C   UNL A   1      44.252  25.375  27.468  1.00  0.00     0.049 A 
ATOM     16  N   UNL A   1      42.219  27.250  28.615  1.00  0.00    -0.248 NA
ATOM     17  C   UNL A   1      40.683  25.496  28.651  1.00  0.00     0.031 C 
ATOM     18  C   UNL A   1      45.281  24.537  26.855  1.00  0.00     0.029 A 
ATOM     19  N   UNL A   1      44.867  26.599  27.620  1.00  0.00    -0.354 N 
ATOM     20  C   UNL A   1      40.999  27.727  29.087  1.00  0.00     0.074 A 
ATOM     21  C   UNL A   1      40.081  26.606  29.058  1.00  0.00     0.031 C 
ATOM     22  C   UNL A   1      46.383  25.275  26.650  1.00  0.00     0.029 A 
ATOM     23  C   UNL A   1      46.130  26.652  27.072  1.00  0.00     0.049 A 
ATOM     24  H   UNL A   1      44.444  27.363  28.076  1.00  0.00     0.167 HD
ATOM     25  C   UNL A   1      40.668  28.973  29.509  1.00  0.00     0.034 A 
ATOM     26  C   UNL A   1      46.976  27.686  26.883  1.00  0.00     0.034 A 
ATOM     27  C   UNL A   1      41.579  30.087  29.552  1.00  0.00     0.049 A 
ATOM     28  C   UNL A   1      46.595  29.064  27.352  1.00  0.00     0.074 A 
ATOM     29  C   UNL A   1      41.357  31.363  30.044  1.00  0.00     0.029 A 
ATOM     30  N   UNL A   1      42.875  30.075  29.057  1.00  0.00    -0.354 N 
ATOM     31  N   UNL A   1      45.485  29.460  27.924  1.00  0.00    -0.248 NA
ATOM     32  C   UNL A   1      47.593  30.134  27.180  1.00  0.00     0.031 C 
ATOM     33  C   UNL A   1      42.499  32.133  29.802  1.00  0.00     0.029 A 
ATOM     34  C   UNL A   1      43.454  31.324  29.208  1.00  0.00     0.049 A 
ATOM     35  H   UNL A   1      43.317  29.291  28.656  1.00  0.00     0.167 HD
ATOM     36  C   UNL A   1      45.660  30.810  28.211  1.00  0.00     0.074 A 
ATOM     37  C   UNL A   1      46.987  31.165  27.756  1.00  0.00     0.031 C 
ATOM     38  C   UNL A   1      44.792  31.670  28.799  1.00  0.00     0.034 A 
BRANCH  25  39
ATOM     39  C   UNL A   1      39.247  29.205  29.968  1.00  0.00     0.023 A 
ATOM     40  C   UNL A   1      38.864  28.867  31.283  1.00  0.00     0.012 A 
ATOM     41  C   UNL A   1      38.298  29.801  29.110  1.00  0.00     0.148 A 
ATOM     42  C   UNL A   1      37.552  29.061  31.716  1.00  0.00     0.002 A 
ATOM     43  C   UNL A   1      37.005  30.037  29.566  1.00  0.00     0.091 A 
ATOM     44  F   UNL A   1      38.670  30.110  27.860  1.00  0.00    -0.205 F 
ATOM     45  C   UNL A   1      36.626  29.651  30.861  1.00  0.00     0.022 A 
BRANCH  43  46
ATOM     46  S   UNL A   1      35.767  30.870  28.566  1.00  0.00     0.127 S 
ATOM     47  O   UNL A   1      35.184  29.750  27.826  1.00  0.00    -0.237 OA
ATOM     48  O   UNL A   1      34.887  31.450  29.582  1.00  0.00    -0.237 OA
ATOM     49  O   UNL A   1      36.490  31.845  27.765  1.00  0.00    -0.744 OA
ENDBRANCH  43  46
ENDBRANCH  25  39
BRANCH  26  50
ATOM     50  C   UNL A   1      48.285  27.439  26.212  1.00  0.00     0.023 A 
ATOM     51  C   UNL A   1      49.378  26.962  26.960  1.00  0.00     0.012 A 
ATOM     52  C   UNL A   1      48.422  27.605  24.819  1.00  0.00     0.148 A 
ATOM     53  C   UNL A   1      50.589  26.662  26.332  1.00  0.00     0.002 A 
ATOM     54  C   UNL A   1      49.611  27.249  24.194  1.00  0.00     0.091 A 
ATOM     55  F   UNL A   1      47.372  28.075  24.131  1.00  0.00    -0.205 F 
ATOM     56  C   UNL A   1      50.700  26.790  24.949  1.00  0.00     0.022 A 
BRANCH  54  57
ATOM     57  S   UNL A   1      49.799  27.245  22.406  1.00  0.00     0.127 S 
ATOM     58  O   UNL A   1      49.570  28.653  22.081  1.00  0.00    -0.237 OA
ATOM     59  O   UNL A   1      51.184  26.796  22.256  1.00  0.00    -0.237 OA
ATOM     60  O   UNL A   1      48.801  26.316  21.903  1.00  0.00    -0.744 OA
ENDBRANCH  54  57
ENDBRANCH  26  50
BRANCH  38  61
ATOM     61  C   UNL A   1      45.249  33.085  29.051  1.00  0.00     0.023 A 
ATOM     62  C   UNL A   1      45.985  33.401  30.208  1.00  0.00     0.012 A 
ATOM     63  C   UNL A   1      45.044  34.078  28.069  1.00  0.00     0.148 A 
ATOM     64  C   UNL A   1      46.497  34.686  30.394  1.00  0.00     0.002 A 
ATOM     65  C   UNL A   1      45.600  35.340  28.236  1.00  0.00     0.091 A 
ATOM     66  F   UNL A   1      44.325  33.760  26.983  1.00  0.00    -0.205 F 
ATOM     67  C   UNL A   1      46.319  35.650  29.402  1.00  0.00     0.022 A 
BRANCH  65  68
ATOM     68  S   UNL A   1      45.510  36.613  26.971  1.00  0.00     0.127 S 
ATOM     69  O   UNL A   1      46.262  37.702  27.588  1.00  0.00    -0.237 OA
ATOM     70  O   UNL A   1      46.177  35.972  25.840  1.00  0.00    -0.237 OA
ATOM     71  O   UNL A   1      44.089  36.880  26.768  1.00  0.00    -0.744 OA
ENDBRANCH  65  68
ENDBRANCH  38  61
ENDBRANCH  12  13
ENDBRANCH   5   7
ENDBRANCH   2   3
ENDBRANCH   1   2
BRANCH   1  72
ATOM     72  C   UNL A   1      36.082  19.175  24.815  1.00  0.00     0.117 C 
BRANCH  72  73
ATOM     73  N   UNL A   1      34.655  19.601  24.887  1.00  0.00    -0.356 N 
ATOM     74  C   UNL A   1      33.897  20.723  25.119  1.00  0.00     0.224 C 
ATOM     75  H   UNL A   1      34.067  18.831  24.714  1.00  0.00     0.163 HD
ATOM     76  O   UNL A   1      32.675  20.617  24.990  1.00  0.00    -0.275 OA
BRANCH  74  77
ATOM     77  C   UNL A   1      34.508  22.045  25.483  1.00  0.00     0.098 C 
ATOM     78  C   UNL A   1      33.513  23.138  25.856  1.00  0.00     0.098 C 
ATOM     79  C   UNL A   1      35.334  22.827  24.395  1.00  0.00     0.025 C 
ATOM     80  C   UNL A   1      34.388  24.426  25.657  1.00  0.00     0.025 C 
ATOM     81  C   UNL A   1      34.527  23.766  23.474  1.00  0.00    -0.027 C 
ATOM     82  C   UNL A   1      35.823  23.939  25.337  1.00  0.00     0.017 C 
ATOM     83  C   UNL A   1      34.056  24.786  24.221  1.00  0.00    -0.027 C 
BRANCH  78  84
ATOM     84  C   UNL A   1      32.758  22.798  27.100  1.00  0.00     0.224 C 
ATOM     85  O   UNL A   1      33.323  22.439  28.130  1.00  0.00    -0.275 OA
ATOM     86  N   UNL A   1      31.370  22.798  27.019  1.00  0.00    -0.352 N 
ATOM     87  H   UNL A   1      30.920  22.322  27.754  1.00  0.00     0.163 HD
BRANCH  86  88
ATOM     88  C   UNL A   1      30.448  23.391  26.015  1.00  0.00     0.151 C 
BRANCH  88  89
ATOM     89  C   UNL A   1      30.509  24.849  25.519  1.00  0.00    -0.025 A 
ATOM     90  C   UNL A   1      30.339  25.307  24.211  1.00  0.00     0.044 A 
ATOM     91  C   UNL A   1      30.971  25.834  26.405  1.00  0.00     0.021 A 
ATOM     92  C   UNL A   1      30.746  26.563  23.752  1.00  0.00     0.124 A 
ATOM     93  C   UNL A   1      31.304  27.134  25.969  1.00  0.00     0.021 A 
ATOM     94  F   UNL A   1      30.615  26.861  22.450  1.00  0.00    -0.207 F 
ATOM     95  C   UNL A   1      31.250  27.490  24.628  1.00  0.00     0.055 A 
ATOM     96  Br  UNL A   1      31.839  28.427  27.237  1.00  0.00    -0.051 Br
ENDBRANCH  88  89
ENDBRANCH  86  88
ENDBRANCH  78  84
ENDBRANCH  74  77
ENDBRANCH  72  73
ENDBRANCH   1  72
TORSDOF 16
ENDMDL
MODEL 3
REMARK VINA RESULT:     -12.4      6.085      9.519
REMARK SMILES O=C(NCCCNC(=O)[C@@H]1[C@@H](C(=O)NCc2cc(F)cc(Br)c2)[C@@H]2C=C[C@H]1C2)c1ccc(-c2c3nc(c(-c4cccc(S(=O)(=O)[O-])c4F)c4ccc([nH]4)c(-c4cccc(S(=O)(=O)[O-])c4F)c4nc(c(-c5cccc(S(=O)(=O)[O-])c5F)c5ccc2[nH]5)C=C4)C=C3)cc1
REMARK SMILES IDX 5 1 4 2 3 3 1 4 2 5 29 7 30 8 91 9 31 10 90 11 32 12 33 13
REMARK SMILES IDX 34 14 84 15 35 16 89 17 83 18 85 19 36 20 88 21 82 22 81 23
REMARK SMILES IDX 37 25 69 26 49 27 68 28 50 29 53 30 67 31 86 32 51 33 52 34
REMARK SMILES IDX 66 36 87 37 54 38 38 39 39 40 47 41 40 42 42 43 48 44 41 45
REMARK SMILES IDX 43 46 44 47 45 48 46 49 70 50 71 51 79 52 72 53 74 54 80 55
REMARK SMILES IDX 73 56 75 57 76 58 77 59 78 60 55 61 56 62 64 63 57 64 59 65
REMARK SMILES IDX 65 66 58 67 60 68 61 69 62 70 63 71 6 72 7 73 8 74 9 76
REMARK SMILES IDX 10 77 11 78 27 79 24 80 26 81 28 82 25 83 12 84 13 85 14 86
REMARK SMILES IDX 15 88 16 89 17 90 23 91 18 92 21 93 19 94 20 95 22 96
REMARK H PARENT 3 6 85 24 53 35 7 75 14 87
REMARK Flexibility Score: inf
ROOT
ATOM      1  C   UNL A   1      37.620  19.736  24.735  1.00  0.00     0.042 C 
ENDROOT
BRANCH   1   2
ATOM      2  C   UNL A   1      38.765  20.268  25.674  1.00  0.00     0.118 C 
BRANCH   2   3
ATOM      3  N   UNL A   1      39.882  19.416  26.037  1.00  0.00    -0.352 N 
ATOM      4  O   UNL A   1      41.879  18.919  26.974  1.00  0.00    -0.269 OA
ATOM      5  C   UNL A   1      41.099  19.790  26.597  1.00  0.00     0.251 C 
ATOM      6  H   UNL A   1      39.764  18.453  25.867  1.00  0.00     0.163 HD
BRANCH   5   7
ATOM      7  C   UNL A   1      41.514  21.218  26.719  1.00  0.00     0.039 A 
ATOM      8  C   UNL A   1      41.782  22.014  25.599  1.00  0.00     0.014 A 
ATOM      9  C   UNL A   1      41.473  21.822  27.981  1.00  0.00     0.014 A 
ATOM     10  C   UNL A   1      42.097  23.382  25.755  1.00  0.00     0.010 A 
ATOM     11  C   UNL A   1      41.765  23.190  28.131  1.00  0.00     0.010 A 
ATOM     12  C   UNL A   1      42.108  23.987  27.025  1.00  0.00    -0.014 A 
BRANCH  12  13
ATOM     13  C   UNL A   1      42.446  25.435  27.228  1.00  0.00     0.031 A 
ATOM     14  C   UNL A   1      43.821  25.959  26.880  1.00  0.00     0.074 A 
ATOM     15  C   UNL A   1      41.570  26.275  27.816  1.00  0.00     0.049 A 
ATOM     16  N   UNL A   1      44.344  27.140  27.096  1.00  0.00    -0.248 NA
ATOM     17  C   UNL A   1      44.731  25.019  26.209  1.00  0.00     0.031 C 
ATOM     18  C   UNL A   1      40.222  25.911  28.249  1.00  0.00     0.029 A 
ATOM     19  N   UNL A   1      41.698  27.593  28.200  1.00  0.00    -0.354 N 
ATOM     20  C   UNL A   1      45.657  27.075  26.637  1.00  0.00     0.074 A 
ATOM     21  C   UNL A   1      45.847  25.731  26.128  1.00  0.00     0.031 C 
ATOM     22  C   UNL A   1      39.661  26.961  28.868  1.00  0.00     0.029 A 
ATOM     23  C   UNL A   1      40.622  28.062  28.921  1.00  0.00     0.049 A 
ATOM     24  H   UNL A   1      42.483  28.146  27.980  1.00  0.00     0.167 HD
ATOM     25  C   UNL A   1      46.615  28.035  26.631  1.00  0.00     0.034 A 
ATOM     26  C   UNL A   1      40.436  29.219  29.590  1.00  0.00     0.034 A 
ATOM     27  C   UNL A   1      46.428  29.375  27.124  1.00  0.00     0.049 A 
ATOM     28  C   UNL A   1      41.509  30.275  29.580  1.00  0.00     0.074 A 
ATOM     29  C   UNL A   1      47.314  30.439  27.082  1.00  0.00     0.029 A 
ATOM     30  N   UNL A   1      45.294  29.830  27.779  1.00  0.00    -0.354 N 
ATOM     31  N   UNL A   1      42.691  30.239  29.018  1.00  0.00    -0.248 NA
ATOM     32  C   UNL A   1      41.213  31.542  30.269  1.00  0.00     0.031 C 
ATOM     33  C   UNL A   1      46.734  31.521  27.753  1.00  0.00     0.029 A 
ATOM     34  C   UNL A   1      45.466  31.149  28.167  1.00  0.00     0.049 A 
ATOM     35  H   UNL A   1      44.484  29.294  27.944  1.00  0.00     0.167 HD
ATOM     36  C   UNL A   1      43.267  31.484  29.252  1.00  0.00     0.074 A 
ATOM     37  C   UNL A   1      42.301  32.256  30.004  1.00  0.00     0.031 C 
ATOM     38  C   UNL A   1      44.487  31.937  28.875  1.00  0.00     0.034 A 
BRANCH  25  39
ATOM     39  C   UNL A   1      47.970  27.673  26.068  1.00  0.00     0.023 A 
ATOM     40  C   UNL A   1      48.999  27.233  26.927  1.00  0.00     0.012 A 
ATOM     41  C   UNL A   1      48.214  27.726  24.679  1.00  0.00     0.148 A 
ATOM     42  C   UNL A   1      50.259  26.911  26.424  1.00  0.00     0.002 A 
ATOM     43  C   UNL A   1      49.458  27.355  24.180  1.00  0.00     0.091 A 
ATOM     44  F   UNL A   1      47.232  28.154  23.873  1.00  0.00    -0.205 F 
ATOM     45  C   UNL A   1      50.486  26.965  25.052  1.00  0.00     0.022 A 
BRANCH  43  46
ATOM     46  S   UNL A   1      49.817  27.311  22.420  1.00  0.00     0.127 S 
ATOM     47  O   UNL A   1      48.814  26.362  21.938  1.00  0.00    -0.237 OA
ATOM     48  O   UNL A   1      49.580  28.700  22.021  1.00  0.00    -0.237 OA
ATOM     49  O   UNL A   1      51.201  26.877  22.306  1.00  0.00    -0.744 OA
ENDBRANCH  43  46
ENDBRANCH  25  39
BRANCH  26  50
ATOM     50  C   UNL A   1      39.157  29.433  30.327  1.00  0.00     0.023 A 
ATOM     51  C   UNL A   1      38.958  28.823  31.580  1.00  0.00     0.012 A 
ATOM     52  C   UNL A   1      38.170  30.302  29.819  1.00  0.00     0.148 A 
ATOM     53  C   UNL A   1      37.794  29.070  32.311  1.00  0.00     0.002 A 
ATOM     54  C   UNL A   1      37.042  30.588  30.579  1.00  0.00     0.091 A 
ATOM     55  F   UNL A   1      38.376  30.860  28.617  1.00  0.00    -0.205 F 
ATOM     56  C   UNL A   1      36.845  29.962  31.819  1.00  0.00     0.022 A 
BRANCH  54  57
ATOM     57  S   UNL A   1      35.839  31.830  30.091  1.00  0.00     0.127 S 
ATOM     58  O   UNL A   1      35.208  31.195  28.935  1.00  0.00    -0.237 OA
ATOM     59  O   UNL A   1      34.996  31.909  31.285  1.00  0.00    -0.237 OA
ATOM     60  O   UNL A   1      36.602  33.034  29.806  1.00  0.00    -0.744 OA
ENDBRANCH  54  57
ENDBRANCH  26  50
BRANCH  38  61
ATOM     61  C   UNL A   1      44.856  33.360  29.209  1.00  0.00     0.023 A 
ATOM     62  C   UNL A   1      45.476  33.667  30.436  1.00  0.00     0.012 A 
ATOM     63  C   UNL A   1      44.690  34.377  28.245  1.00  0.00     0.148 A 
ATOM     64  C   UNL A   1      45.911  34.966  30.704  1.00  0.00     0.002 A 
ATOM     65  C   UNL A   1      45.172  35.655  28.498  1.00  0.00     0.091 A 
ATOM     66  F   UNL A   1      44.081  34.067  27.092  1.00  0.00    -0.205 F 
ATOM     67  C   UNL A   1      45.774  35.955  29.731  1.00  0.00     0.022 A 
BRANCH  65  68
ATOM     68  S   UNL A   1      45.131  36.967  27.271  1.00  0.00     0.127 S 
ATOM     69  O   UNL A   1      45.678  38.095  28.020  1.00  0.00    -0.237 OA
ATOM     70  O   UNL A   1      46.011  36.440  26.228  1.00  0.00    -0.237 OA
ATOM     71  O   UNL A   1      43.733  37.106  26.874  1.00  0.00    -0.744 OA
ENDBRANCH  65  68
ENDBRANCH  38  61
ENDBRANCH  12  13
ENDBRANCH   5   7
ENDBRANCH   2   3
ENDBRANCH   1   2
BRANCH   1  72
ATOM     72  C   UNL A   1      36.191  18.999  24.898  1.00  0.00     0.117 C 
BRANCH  72  73
ATOM     73  N   UNL A   1      34.807  19.533  24.742  1.00  0.00    -0.356 N 
ATOM     74  C   UNL A   1      34.113  20.714  24.841  1.00  0.00     0.224 C 
ATOM     75  H   UNL A   1      34.195  18.805  24.488  1.00  0.00     0.163 HD
ATOM     76  O   UNL A   1      32.921  20.697  24.524  1.00  0.00    -0.275 OA
BRANCH  74  77
ATOM     77  C   UNL A   1      34.762  21.994  25.280  1.00  0.00     0.098 C 
ATOM     78  C   UNL A   1      33.802  23.068  25.783  1.00  0.00     0.098 C 
ATOM     79  C   UNL A   1      35.553  22.848  24.223  1.00  0.00     0.025 C 
ATOM     80  C   UNL A   1      34.691  24.355  25.648  1.00  0.00     0.025 C 
ATOM     81  C   UNL A   1      34.724  23.869  23.416  1.00  0.00    -0.027 C 
ATOM     82  C   UNL A   1      36.101  23.875  25.227  1.00  0.00     0.017 C 
ATOM     83  C   UNL A   1      34.304  24.833  24.261  1.00  0.00    -0.027 C 
BRANCH  78  84
ATOM     84  C   UNL A   1      33.096  22.640  27.028  1.00  0.00     0.224 C 
ATOM     85  O   UNL A   1      33.703  22.294  28.038  1.00  0.00    -0.275 OA
ATOM     86  N   UNL A   1      31.710  22.543  26.969  1.00  0.00    -0.352 N 
ATOM     87  H   UNL A   1      31.308  22.016  27.696  1.00  0.00     0.163 HD
BRANCH  86  88
ATOM     88  C   UNL A   1      30.731  23.097  25.997  1.00  0.00     0.151 C 
BRANCH  88  89
ATOM     89  C   UNL A   1      30.703  24.560  25.515  1.00  0.00    -0.025 A 
ATOM     90  C   UNL A   1      30.561  25.017  24.203  1.00  0.00     0.044 A 
ATOM     91  C   UNL A   1      31.046  25.568  26.428  1.00  0.00     0.021 A 
ATOM     92  C   UNL A   1      30.891  26.305  23.773  1.00  0.00     0.124 A 
ATOM     93  C   UNL A   1      31.298  26.894  26.017  1.00  0.00     0.021 A 
ATOM     94  F   UNL A   1      30.800  26.606  22.468  1.00  0.00    -0.207 F 
ATOM     95  C   UNL A   1      31.280  27.260  24.678  1.00  0.00     0.055 A 
ATOM     96  Br  UNL A   1      31.671  28.211  27.319  1.00  0.00    -0.051 Br
ENDBRANCH  88  89
ENDBRANCH  86  88
ENDBRANCH  78  84
ENDBRANCH  74  77
ENDBRANCH  72  73
ENDBRANCH   1  72
TORSDOF 16
ENDMDL
