MODEL 1
REMARK VINA RESULT:     -13.7      0.000      0.000
REMARK SMILES Cc1c(C(=O)NCCCNC(=O)c2ccc(-c3c4nc(c(-c5cccc(S(=O)(=O)[O-])c5F)c5ccc([nH]5)c(-c5cccc(S(=O)(=O)[O-])c5F)c5nc(c(-c6cccc(S(=O)(=O)[O-])c6F)c6ccc3[nH]6)C=C5)C=C4)cc2)sc2c1=C(CSc1nncn1-c1ccccc1)CC(=O)N=2
REMARK SMILES IDX 7 1 6 2 4 3 5 4 3 6 1 7 2 8 78 9 76 10 77 11 79 12 96 13
REMARK SMILES IDX 93 14 94 15 95 16 80 17 81 18 82 19 83 20 86 21 84 22 85 23
REMARK SMILES IDX 87 24 88 25 92 26 89 27 91 28 90 29 8 30 9 31 10 32 11 33
REMARK SMILES IDX 12 35 13 36 14 37 75 38 15 39 74 40 16 41 17 42 18 43 68 44
REMARK SMILES IDX 19 45 73 46 67 47 69 48 20 49 72 50 66 51 65 52 21 54 53 55
REMARK SMILES IDX 33 56 52 57 34 58 37 59 51 60 70 61 35 62 36 63 50 65 71 66
REMARK SMILES IDX 38 67 22 68 23 69 31 70 24 71 26 72 32 73 25 74 27 75 28 76
REMARK SMILES IDX 29 77 30 78 54 79 55 80 63 81 56 82 58 83 64 84 57 85 59 86
REMARK SMILES IDX 60 87 61 88 62 89 39 90 40 91 48 92 41 93 43 94 49 95 42 96
REMARK SMILES IDX 44 97 45 98 46 99 47 100
REMARK H PARENT 6 5 10 34 69 53 37 64
REMARK Flexibility Score: inf
ROOT
ATOM      1  C   UNL A   1      37.396  22.095  25.689  1.00  0.00     0.118 C 
ENDROOT
BRANCH   1   2
ATOM      2  N   UNL A   1      36.969  22.469  24.313  1.00  0.00    -0.351 N 
ATOM      3  C   UNL A   1      36.010  22.823  23.428  1.00  0.00     0.261 C 
ATOM      4  O   UNL A   1      36.516  23.040  22.313  1.00  0.00    -0.268 OA
ATOM      5  H   UNL A   1      37.798  22.445  23.782  1.00  0.00     0.163 HD
BRANCH   3   6
ATOM      6  C   UNL A   1      34.497  23.061  23.524  1.00  0.00     0.098 A 
ATOM      7  C   UNL A   1      34.005  25.484  24.223  1.00  0.00     0.047 C 
ATOM      8  C   UNL A   1      33.658  24.117  23.725  1.00  0.00    -0.018 A 
ATOM      9  C   UNL A   1      32.321  23.751  24.201  1.00  0.00     0.016 A 
ATOM     10  S   UNL A   1      33.657  21.579  24.254  1.00  0.00    -0.110 S 
ATOM     11  C   UNL A   1      32.417  22.543  25.031  1.00  0.00     0.128 A 
ATOM     12  C   UNL A   1      31.183  24.458  24.328  1.00  0.00    -0.040 C 
ATOM     13  N   UNL A   1      31.756  22.235  26.086  1.00  0.00    -0.202 NA
ATOM     14  C   UNL A   1      30.609  24.444  25.732  1.00  0.00     0.135 C 
ATOM     15  C   UNL A   1      30.837  23.161  26.537  1.00  0.00     0.251 C 
ATOM     16  O   UNL A   1      30.218  23.020  27.592  1.00  0.00    -0.272 OA
BRANCH  12  17
ATOM     17  C   UNL A   1      30.470  25.430  23.413  1.00  0.00     0.110 C 
BRANCH  17  18
ATOM     18  S   UNL A   1      31.503  26.459  22.361  1.00  0.00    -0.081 SA
BRANCH  18  19
ATOM     19  C   UNL A   1      30.891  28.056  22.730  1.00  0.00     0.195 A 
ATOM     20  N   UNL A   1      29.943  28.667  22.056  1.00  0.00    -0.123 NA
ATOM     21  N   UNL A   1      31.173  28.776  23.885  1.00  0.00    -0.277 N 
ATOM     22  N   UNL A   1      29.566  29.783  22.771  1.00  0.00    -0.138 NA
ATOM     23  C   UNL A   1      30.282  29.813  23.871  1.00  0.00     0.231 A 
BRANCH  21  24
ATOM     24  C   UNL A   1      31.992  28.399  24.964  1.00  0.00     0.049 A 
ATOM     25  C   UNL A   1      31.360  27.920  26.107  1.00  0.00     0.027 A 
ATOM     26  C   UNL A   1      33.318  28.868  24.981  1.00  0.00     0.027 A 
ATOM     27  C   UNL A   1      31.902  28.257  27.314  1.00  0.00     0.002 A 
ATOM     28  C   UNL A   1      33.902  29.119  26.205  1.00  0.00     0.002 A 
ATOM     29  C   UNL A   1      33.129  28.910  27.338  1.00  0.00     0.000 A 
ENDBRANCH  21  24
ENDBRANCH  18  19
ENDBRANCH  17  18
ENDBRANCH  12  17
ENDBRANCH   3   6
ENDBRANCH   1   2
BRANCH   1  30
ATOM     30  C   UNL A   1      38.232  20.788  25.714  1.00  0.00     0.042 C 
BRANCH  30  31
ATOM     31  C   UNL A   1      39.677  20.893  26.158  1.00  0.00     0.118 C 
BRANCH  31  32
ATOM     32  N   UNL A   1      40.494  19.666  26.072  1.00  0.00    -0.352 N 
ATOM     33  C   UNL A   1      41.900  19.600  25.998  1.00  0.00     0.251 C 
ATOM     34  H   UNL A   1      40.009  18.810  26.065  1.00  0.00     0.163 HD
ATOM     35  O   UNL A   1      42.486  18.636  25.583  1.00  0.00    -0.269 OA
BRANCH  33  36
ATOM     36  C   UNL A   1      42.633  20.796  26.483  1.00  0.00     0.039 A 
ATOM     37  C   UNL A   1      43.030  21.848  25.647  1.00  0.00     0.014 A 
ATOM     38  C   UNL A   1      42.633  20.933  27.855  1.00  0.00     0.014 A 
ATOM     39  C   UNL A   1      43.247  23.105  26.220  1.00  0.00     0.010 A 
ATOM     40  C   UNL A   1      42.520  22.203  28.333  1.00  0.00     0.010 A 
ATOM     41  C   UNL A   1      42.920  23.292  27.569  1.00  0.00    -0.014 A 
BRANCH  41  42
ATOM     42  C   UNL A   1      42.818  24.602  28.214  1.00  0.00     0.031 A 
ATOM     43  C   UNL A   1      41.522  25.311  28.015  1.00  0.00     0.074 A 
ATOM     44  C   UNL A   1      43.701  24.985  29.169  1.00  0.00     0.049 A 
ATOM     45  N   UNL A   1      41.311  26.379  27.317  1.00  0.00    -0.248 NA
ATOM     46  C   UNL A   1      40.288  24.683  28.515  1.00  0.00     0.031 C 
ATOM     47  C   UNL A   1      44.849  24.223  29.700  1.00  0.00     0.029 A 
ATOM     48  N   UNL A   1      43.658  26.051  30.010  1.00  0.00    -0.354 N 
ATOM     49  C   UNL A   1      39.973  26.708  27.533  1.00  0.00     0.074 A 
ATOM     50  C   UNL A   1      39.356  25.508  28.028  1.00  0.00     0.031 C 
ATOM     51  C   UNL A   1      45.177  24.683  30.923  1.00  0.00     0.029 A 
ATOM     52  C   UNL A   1      44.441  25.906  31.154  1.00  0.00     0.049 A 
ATOM     53  H   UNL A   1      43.121  26.856  29.827  1.00  0.00     0.167 HD
ATOM     54  C   UNL A   1      39.570  28.012  27.589  1.00  0.00     0.034 A 
ATOM     55  C   UNL A   1      44.484  26.724  32.231  1.00  0.00     0.034 A 
ATOM     56  C   UNL A   1      40.621  28.887  27.114  1.00  0.00     0.049 A 
ATOM     57  C   UNL A   1      43.954  28.030  31.787  1.00  0.00     0.074 A 
ATOM     58  C   UNL A   1      41.359  28.999  25.953  1.00  0.00     0.029 A 
ATOM     59  N   UNL A   1      41.326  29.572  28.077  1.00  0.00    -0.354 N 
ATOM     60  N   UNL A   1      44.553  28.779  30.903  1.00  0.00    -0.248 NA
ATOM     61  C   UNL A   1      42.542  28.300  31.986  1.00  0.00     0.031 C 
ATOM     62  C   UNL A   1      42.678  29.329  26.387  1.00  0.00     0.029 A 
ATOM     63  C   UNL A   1      42.656  29.488  27.775  1.00  0.00     0.049 A 
ATOM     64  H   UNL A   1      40.938  30.041  28.851  1.00  0.00     0.167 HD
ATOM     65  C   UNL A   1      43.519  29.254  30.107  1.00  0.00     0.074 A 
ATOM     66  C   UNL A   1      42.309  29.046  30.903  1.00  0.00     0.031 C 
ATOM     67  C   UNL A   1      43.708  29.477  28.772  1.00  0.00     0.034 A 
BRANCH  54  68
ATOM     68  C   UNL A   1      38.440  28.571  28.447  1.00  0.00     0.023 A 
ATOM     69  C   UNL A   1      37.460  29.346  27.778  1.00  0.00     0.012 A 
ATOM     70  C   UNL A   1      38.431  28.635  29.859  1.00  0.00     0.148 A 
ATOM     71  C   UNL A   1      36.603  30.214  28.463  1.00  0.00     0.002 A 
ATOM     72  C   UNL A   1      37.529  29.448  30.541  1.00  0.00     0.091 A 
ATOM     73  F   UNL A   1      39.361  28.005  30.574  1.00  0.00    -0.205 F 
ATOM     74  C   UNL A   1      36.640  30.270  29.847  1.00  0.00     0.022 A 
BRANCH  72  75
ATOM     75  S   UNL A   1      37.510  29.528  32.339  1.00  0.00     0.127 S 
ATOM     76  O   UNL A   1      38.749  30.251  32.609  1.00  0.00    -0.237 OA
ATOM     77  O   UNL A   1      36.281  30.281  32.591  1.00  0.00    -0.237 OA
ATOM     78  O   UNL A   1      37.464  28.144  32.794  1.00  0.00    -0.744 OA
ENDBRANCH  72  75
ENDBRANCH  54  68
BRANCH  55  79
ATOM     79  C   UNL A   1      44.788  26.427  33.646  1.00  0.00     0.023 A 
ATOM     80  C   UNL A   1      46.110  26.540  34.116  1.00  0.00     0.012 A 
ATOM     81  C   UNL A   1      43.750  26.300  34.595  1.00  0.00     0.148 A 
ATOM     82  C   UNL A   1      46.388  26.571  35.488  1.00  0.00     0.002 A 
ATOM     83  C   UNL A   1      44.030  26.328  35.958  1.00  0.00     0.091 A 
ATOM     84  F   UNL A   1      42.482  26.248  34.161  1.00  0.00    -0.205 F 
ATOM     85  C   UNL A   1      45.347  26.477  36.410  1.00  0.00     0.022 A 
BRANCH  83  86
ATOM     86  S   UNL A   1      42.734  26.241  37.202  1.00  0.00     0.127 S 
ATOM     87  O   UNL A   1      42.165  24.916  36.953  1.00  0.00    -0.237 OA
ATOM     88  O   UNL A   1      43.501  26.358  38.439  1.00  0.00    -0.237 OA
ATOM     89  O   UNL A   1      41.833  27.347  36.905  1.00  0.00    -0.744 OA
ENDBRANCH  83  86
ENDBRANCH  55  79
BRANCH  67  90
ATOM     90  C   UNL A   1      45.122  29.459  28.241  1.00  0.00     0.023 A 
ATOM     91  C   UNL A   1      46.021  30.529  28.435  1.00  0.00     0.012 A 
ATOM     92  C   UNL A   1      45.610  28.261  27.694  1.00  0.00     0.148 A 
ATOM     93  C   UNL A   1      47.367  30.415  28.076  1.00  0.00     0.002 A 
ATOM     94  C   UNL A   1      46.957  28.133  27.382  1.00  0.00     0.091 A 
ATOM     95  F   UNL A   1      44.747  27.250  27.516  1.00  0.00    -0.205 F 
ATOM     96  C   UNL A   1      47.839  29.211  27.562  1.00  0.00     0.022 A 
BRANCH  94  97
ATOM     97  S   UNL A   1      47.645  26.567  26.844  1.00  0.00     0.127 S 
ATOM     98  O   UNL A   1      47.024  26.394  25.533  1.00  0.00    -0.237 OA
ATOM     99  O   UNL A   1      49.082  26.847  26.809  1.00  0.00    -0.237 OA
ATOM    100  O   UNL A   1      47.257  25.593  27.858  1.00  0.00    -0.744 OA
ENDBRANCH  94  97
ENDBRANCH  67  90
ENDBRANCH  41  42
ENDBRANCH  33  36
ENDBRANCH  31  32
ENDBRANCH  30  31
ENDBRANCH   1  30
TORSDOF 17
ENDMDL
MODEL 2
REMARK VINA RESULT:     -13.1      1.750      2.216
REMARK SMILES Cc1c(C(=O)NCCCNC(=O)c2ccc(-c3c4nc(c(-c5cccc(S(=O)(=O)[O-])c5F)c5ccc([nH]5)c(-c5cccc(S(=O)(=O)[O-])c5F)c5nc(c(-c6cccc(S(=O)(=O)[O-])c6F)c6ccc3[nH]6)C=C5)C=C4)cc2)sc2c1=C(CSc1nncn1-c1ccccc1)CC(=O)N=2
REMARK SMILES IDX 7 1 6 2 4 3 5 4 3 6 1 7 2 8 78 9 76 10 77 11 79 12 96 13
REMARK SMILES IDX 93 14 94 15 95 16 80 17 81 18 82 19 83 20 86 21 84 22 85 23
REMARK SMILES IDX 87 24 88 25 92 26 89 27 91 28 90 29 8 30 9 31 10 32 11 33
REMARK SMILES IDX 12 35 13 36 14 37 75 38 15 39 74 40 16 41 17 42 18 43 68 44
REMARK SMILES IDX 19 45 73 46 67 47 69 48 20 49 72 50 66 51 65 52 21 54 53 55
REMARK SMILES IDX 33 56 52 57 34 58 37 59 51 60 70 61 35 62 36 63 50 65 71 66
REMARK SMILES IDX 38 67 22 68 23 69 31 70 24 71 26 72 32 73 25 74 27 75 28 76
REMARK SMILES IDX 29 77 30 78 54 79 55 80 63 81 56 82 58 83 64 84 57 85 59 86
REMARK SMILES IDX 60 87 61 88 62 89 39 90 40 91 48 92 41 93 43 94 49 95 42 96
REMARK SMILES IDX 44 97 45 98 46 99 47 100
REMARK H PARENT 6 5 10 34 69 53 37 64
REMARK Flexibility Score: inf
ROOT
ATOM      1  C   UNL A   1      36.892  21.268  26.090  1.00  0.00     0.118 C 
ENDROOT
BRANCH   1   2
ATOM      2  N   UNL A   1      35.626  20.784  25.476  1.00  0.00    -0.351 N 
ATOM      3  C   UNL A   1      34.405  21.018  24.942  1.00  0.00     0.261 C 
ATOM      4  O   UNL A   1      33.893  19.950  24.562  1.00  0.00    -0.268 OA
ATOM      5  H   UNL A   1      35.725  19.805  25.443  1.00  0.00     0.163 HD
BRANCH   3   6
ATOM      6  C   UNL A   1      33.580  22.282  24.664  1.00  0.00     0.098 A 
ATOM      7  C   UNL A   1      31.990  21.906  22.681  1.00  0.00     0.047 C 
ATOM      8  C   UNL A   1      32.541  22.645  23.859  1.00  0.00    -0.018 A 
ATOM      9  C   UNL A   1      32.428  24.087  23.625  1.00  0.00     0.016 A 
ATOM     10  S   UNL A   1      34.627  23.795  24.883  1.00  0.00    -0.110 S 
ATOM     11  C   UNL A   1      33.768  24.687  23.644  1.00  0.00     0.128 A 
ATOM     12  C   UNL A   1      31.459  24.838  23.068  1.00  0.00    -0.040 C 
ATOM     13  N   UNL A   1      34.232  25.647  22.931  1.00  0.00    -0.202 NA
ATOM     14  C   UNL A   1      31.937  25.685  21.904  1.00  0.00     0.135 C 
ATOM     15  C   UNL A   1      33.379  26.193  21.992  1.00  0.00     0.251 C 
ATOM     16  O   UNL A   1      33.744  27.048  21.185  1.00  0.00    -0.272 OA
BRANCH  12  17
ATOM     17  C   UNL A   1      29.955  24.858  23.228  1.00  0.00     0.110 C 
BRANCH  17  18
ATOM     18  S   UNL A   1      29.288  25.962  24.482  1.00  0.00    -0.081 SA
BRANCH  18  19
ATOM     19  C   UNL A   1      29.772  27.524  23.859  1.00  0.00     0.195 A 
ATOM     20  N   UNL A   1      29.050  28.259  23.044  1.00  0.00    -0.123 NA
ATOM     21  N   UNL A   1      30.860  28.264  24.306  1.00  0.00    -0.277 N 
ATOM     22  N   UNL A   1      29.636  29.504  22.964  1.00  0.00    -0.138 NA
ATOM     23  C   UNL A   1      30.690  29.500  23.747  1.00  0.00     0.231 A 
BRANCH  21  24
ATOM     24  C   UNL A   1      31.784  27.927  25.311  1.00  0.00     0.049 A 
ATOM     25  C   UNL A   1      31.291  27.763  26.601  1.00  0.00     0.027 A 
ATOM     26  C   UNL A   1      33.149  28.147  25.052  1.00  0.00     0.027 A 
ATOM     27  C   UNL A   1      32.077  28.189  27.634  1.00  0.00     0.002 A 
ATOM     28  C   UNL A   1      33.965  28.485  26.111  1.00  0.00     0.002 A 
ATOM     29  C   UNL A   1      33.374  28.607  27.361  1.00  0.00     0.000 A 
ENDBRANCH  21  24
ENDBRANCH  18  19
ENDBRANCH  17  18
ENDBRANCH  12  17
ENDBRANCH   3   6
ENDBRANCH   1   2
BRANCH   1  30
ATOM     30  C   UNL A   1      38.113  21.081  25.152  1.00  0.00     0.042 C 
BRANCH  30  31
ATOM     31  C   UNL A   1      39.489  21.106  25.786  1.00  0.00     0.118 C 
BRANCH  31  32
ATOM     32  N   UNL A   1      40.203  19.818  25.888  1.00  0.00    -0.352 N 
ATOM     33  C   UNL A   1      41.595  19.640  26.018  1.00  0.00     0.251 C 
ATOM     34  H   UNL A   1      39.652  19.003  25.864  1.00  0.00     0.163 HD
ATOM     35  O   UNL A   1      42.147  18.607  25.748  1.00  0.00    -0.269 OA
BRANCH  33  36
ATOM     36  C   UNL A   1      42.354  20.807  26.531  1.00  0.00     0.039 A 
ATOM     37  C   UNL A   1      42.832  21.836  25.709  1.00  0.00     0.014 A 
ATOM     38  C   UNL A   1      42.298  20.952  27.901  1.00  0.00     0.014 A 
ATOM     39  C   UNL A   1      43.076  23.087  26.286  1.00  0.00     0.010 A 
ATOM     40  C   UNL A   1      42.216  22.230  28.368  1.00  0.00     0.010 A 
ATOM     41  C   UNL A   1      42.696  23.296  27.617  1.00  0.00    -0.014 A 
BRANCH  41  42
ATOM     42  C   UNL A   1      42.619  24.613  28.251  1.00  0.00     0.031 A 
ATOM     43  C   UNL A   1      41.357  25.366  28.007  1.00  0.00     0.074 A 
ATOM     44  C   UNL A   1      43.484  24.971  29.232  1.00  0.00     0.049 A 
ATOM     45  N   UNL A   1      41.206  26.436  27.296  1.00  0.00    -0.248 NA
ATOM     46  C   UNL A   1      40.085  24.785  28.470  1.00  0.00     0.031 C 
ATOM     47  C   UNL A   1      44.588  24.174  29.804  1.00  0.00     0.029 A 
ATOM     48  N   UNL A   1      43.452  26.045  30.065  1.00  0.00    -0.354 N 
ATOM     49  C   UNL A   1      39.873  26.812  27.467  1.00  0.00     0.074 A 
ATOM     50  C   UNL A   1      39.199  25.638  27.949  1.00  0.00     0.031 C 
ATOM     51  C   UNL A   1      44.893  24.630  31.034  1.00  0.00     0.029 A 
ATOM     52  C   UNL A   1      44.193  25.880  31.235  1.00  0.00     0.049 A 
ATOM     53  H   UNL A   1      42.950  26.866  29.860  1.00  0.00     0.167 HD
ATOM     54  C   UNL A   1      39.516  28.130  27.503  1.00  0.00     0.034 A 
ATOM     55  C   UNL A   1      44.231  26.703  32.307  1.00  0.00     0.034 A 
ATOM     56  C   UNL A   1      40.611  28.965  27.057  1.00  0.00     0.049 A 
ATOM     57  C   UNL A   1      43.762  28.024  31.839  1.00  0.00     0.074 A 
ATOM     58  C   UNL A   1      41.389  29.042  25.919  1.00  0.00     0.029 A 
ATOM     59  N   UNL A   1      41.308  29.631  28.037  1.00  0.00    -0.354 N 
ATOM     60  N   UNL A   1      44.414  28.745  30.970  1.00  0.00    -0.248 NA
ATOM     61  C   UNL A   1      42.354  28.345  31.991  1.00  0.00     0.031 C 
ATOM     62  C   UNL A   1      42.704  29.329  26.393  1.00  0.00     0.029 A 
ATOM     63  C   UNL A   1      42.644  29.499  27.779  1.00  0.00     0.049 A 
ATOM     64  H   UNL A   1      40.913  30.119  28.796  1.00  0.00     0.167 HD
ATOM     65  C   UNL A   1      43.423  29.251  30.139  1.00  0.00     0.074 A 
ATOM     66  C   UNL A   1      42.182  29.091  30.897  1.00  0.00     0.031 C 
ATOM     67  C   UNL A   1      43.662  29.458  28.809  1.00  0.00     0.034 A 
BRANCH  54  68
ATOM     68  C   UNL A   1      38.379  28.734  28.321  1.00  0.00     0.023 A 
ATOM     69  C   UNL A   1      37.434  29.518  27.611  1.00  0.00     0.012 A 
ATOM     70  C   UNL A   1      38.337  28.829  29.730  1.00  0.00     0.148 A 
ATOM     71  C   UNL A   1      36.582  30.420  28.256  1.00  0.00     0.002 A 
ATOM     72  C   UNL A   1      37.440  29.679  30.372  1.00  0.00     0.091 A 
ATOM     73  F   UNL A   1      39.235  28.193  30.481  1.00  0.00    -0.205 F 
ATOM     74  C   UNL A   1      36.587  30.505  29.640  1.00  0.00     0.022 A 
BRANCH  72  75
ATOM     75  S   UNL A   1      37.379  29.798  32.167  1.00  0.00     0.127 S 
ATOM     76  O   UNL A   1      37.267  28.393  32.546  1.00  0.00    -0.237 OA
ATOM     77  O   UNL A   1      38.666  30.424  32.468  1.00  0.00    -0.237 OA
ATOM     78  O   UNL A   1      36.224  30.636  32.467  1.00  0.00    -0.744 OA
ENDBRANCH  72  75
ENDBRANCH  54  68
BRANCH  55  79
ATOM     79  C   UNL A   1      44.479  26.406  33.733  1.00  0.00     0.023 A 
ATOM     80  C   UNL A   1      45.783  26.508  34.252  1.00  0.00     0.012 A 
ATOM     81  C   UNL A   1      43.405  26.289  34.642  1.00  0.00     0.148 A 
ATOM     82  C   UNL A   1      46.009  26.539  35.633  1.00  0.00     0.002 A 
ATOM     83  C   UNL A   1      43.634  26.316  36.014  1.00  0.00     0.091 A 
ATOM     84  F   UNL A   1      42.154  26.247  34.161  1.00  0.00    -0.205 F 
ATOM     85  C   UNL A   1      44.934  26.455  36.515  1.00  0.00     0.022 A 
BRANCH  83  86
ATOM     86  S   UNL A   1      42.291  26.242  37.209  1.00  0.00     0.127 S 
ATOM     87  O   UNL A   1      41.703  24.932  36.922  1.00  0.00    -0.237 OA
ATOM     88  O   UNL A   1      43.014  26.327  38.475  1.00  0.00    -0.237 OA
ATOM     89  O   UNL A   1      41.425  27.371  36.894  1.00  0.00    -0.744 OA
ENDBRANCH  83  86
ENDBRANCH  55  79
BRANCH  67  90
ATOM     90  C   UNL A   1      45.092  29.387  28.324  1.00  0.00     0.023 A 
ATOM     91  C   UNL A   1      45.690  28.184  27.893  1.00  0.00     0.012 A 
ATOM     92  C   UNL A   1      45.785  30.592  28.127  1.00  0.00     0.148 A 
ATOM     93  C   UNL A   1      46.955  28.181  27.298  1.00  0.00     0.002 A 
ATOM     94  C   UNL A   1      47.021  30.592  27.492  1.00  0.00     0.091 A 
ATOM     95  F   UNL A   1      45.205  31.730  28.538  1.00  0.00    -0.205 F 
ATOM     96  C   UNL A   1      47.615  29.387  27.084  1.00  0.00     0.022 A 
BRANCH  94  97
ATOM     97  S   UNL A   1      47.853  32.124  27.072  1.00  0.00     0.127 S 
ATOM     98  O   UNL A   1      46.911  32.738  26.140  1.00  0.00    -0.237 OA
ATOM     99  O   UNL A   1      47.957  32.794  28.370  1.00  0.00    -0.237 OA
ATOM    100  O   UNL A   1      49.139  31.734  26.503  1.00  0.00    -0.744 OA
ENDBRANCH  94  97
ENDBRANCH  67  90
ENDBRANCH  41  42
ENDBRANCH  33  36
ENDBRANCH  31  32
ENDBRANCH  30  31
ENDBRANCH   1  30
TORSDOF 17
ENDMDL
MODEL 3
REMARK VINA RESULT:     -13.0      1.962      2.259
REMARK SMILES Cc1c(C(=O)NCCCNC(=O)c2ccc(-c3c4nc(c(-c5cccc(S(=O)(=O)[O-])c5F)c5ccc([nH]5)c(-c5cccc(S(=O)(=O)[O-])c5F)c5nc(c(-c6cccc(S(=O)(=O)[O-])c6F)c6ccc3[nH]6)C=C5)C=C4)cc2)sc2c1=C(CSc1nncn1-c1ccccc1)CC(=O)N=2
REMARK SMILES IDX 7 1 6 2 4 3 5 4 3 6 1 7 2 8 78 9 76 10 77 11 79 12 96 13
REMARK SMILES IDX 93 14 94 15 95 16 80 17 81 18 82 19 83 20 86 21 84 22 85 23
REMARK SMILES IDX 87 24 88 25 92 26 89 27 91 28 90 29 8 30 9 31 10 32 11 33
REMARK SMILES IDX 12 35 13 36 14 37 75 38 15 39 74 40 16 41 17 42 18 43 68 44
REMARK SMILES IDX 19 45 73 46 67 47 69 48 20 49 72 50 66 51 65 52 21 54 53 55
REMARK SMILES IDX 33 56 52 57 34 58 37 59 51 60 70 61 35 62 36 63 50 65 71 66
REMARK SMILES IDX 38 67 22 68 23 69 31 70 24 71 26 72 32 73 25 74 27 75 28 76
REMARK SMILES IDX 29 77 30 78 54 79 55 80 63 81 56 82 58 83 64 84 57 85 59 86
REMARK SMILES IDX 60 87 61 88 62 89 39 90 40 91 48 92 41 93 43 94 49 95 42 96
REMARK SMILES IDX 44 97 45 98 46 99 47 100
REMARK H PARENT 6 5 10 34 69 53 37 64
REMARK Flexibility Score: inf
ROOT
ATOM      1  C   UNL A   1      37.288  21.717  25.753  1.00  0.00     0.118 C 
ENDROOT
BRANCH   1   2
ATOM      2  N   UNL A   1      36.239  20.759  25.311  1.00  0.00    -0.351 N 
ATOM      3  C   UNL A   1      34.992  20.497  24.858  1.00  0.00     0.261 C 
ATOM      4  O   UNL A   1      34.859  19.278  24.652  1.00  0.00    -0.268 OA
ATOM      5  H   UNL A   1      36.665  19.874  25.386  1.00  0.00     0.163 HD
BRANCH   3   6
ATOM      6  C   UNL A   1      33.775  21.364  24.504  1.00  0.00     0.098 A 
ATOM      7  C   UNL A   1      34.364  23.859  24.671  1.00  0.00     0.047 C 
ATOM      8  C   UNL A   1      33.508  22.687  24.309  1.00  0.00    -0.018 A 
ATOM      9  C   UNL A   1      32.097  23.050  24.455  1.00  0.00     0.016 A 
ATOM     10  S   UNL A   1      32.228  20.613  25.193  1.00  0.00    -0.110 S 
ATOM     11  C   UNL A   1      31.470  22.172  25.450  1.00  0.00     0.128 A 
ATOM     12  C   UNL A   1      31.419  24.176  24.160  1.00  0.00    -0.040 C 
ATOM     13  N   UNL A   1      30.571  22.452  26.321  1.00  0.00    -0.202 NA
ATOM     14  C   UNL A   1      30.673  24.765  25.342  1.00  0.00     0.135 C 
ATOM     15  C   UNL A   1      30.130  23.760  26.361  1.00  0.00     0.251 C 
ATOM     16  O   UNL A   1      29.346  24.167  27.218  1.00  0.00    -0.272 OA
BRANCH  12  17
ATOM     17  C   UNL A   1      31.415  25.086  22.951  1.00  0.00     0.110 C 
BRANCH  17  18
ATOM     18  S   UNL A   1      32.508  26.513  23.007  1.00  0.00    -0.081 SA
BRANCH  18  19
ATOM     19  C   UNL A   1      31.363  27.830  22.880  1.00  0.00     0.195 A 
ATOM     20  N   UNL A   1      30.441  27.932  21.949  1.00  0.00    -0.123 NA
ATOM     21  N   UNL A   1      31.148  28.804  23.848  1.00  0.00    -0.277 N 
ATOM     22  N   UNL A   1      29.589  28.955  22.305  1.00  0.00    -0.138 NA
ATOM     23  C   UNL A   1      30.003  29.438  23.453  1.00  0.00     0.231 A 
BRANCH  21  24
ATOM     24  C   UNL A   1      31.789  28.946  25.092  1.00  0.00     0.049 A 
ATOM     25  C   UNL A   1      33.050  29.533  25.096  1.00  0.00     0.027 A 
ATOM     26  C   UNL A   1      31.318  28.173  26.169  1.00  0.00     0.027 A 
ATOM     27  C   UNL A   1      33.968  29.045  25.982  1.00  0.00     0.002 A 
ATOM     28  C   UNL A   1      32.228  27.759  27.119  1.00  0.00     0.002 A 
ATOM     29  C   UNL A   1      33.556  28.117  26.931  1.00  0.00     0.000 A 
ENDBRANCH  21  24
ENDBRANCH  18  19
ENDBRANCH  17  18
ENDBRANCH  12  17
ENDBRANCH   3   6
ENDBRANCH   1   2
BRANCH   1  30
ATOM     30  C   UNL A   1      38.716  21.252  25.364  1.00  0.00     0.042 C 
BRANCH  30  31
ATOM     31  C   UNL A   1      39.628  20.789  26.482  1.00  0.00     0.118 C 
BRANCH  31  32
ATOM     32  N   UNL A   1      40.493  19.627  26.203  1.00  0.00    -0.352 N 
ATOM     33  C   UNL A   1      41.880  19.656  25.953  1.00  0.00     0.251 C 
ATOM     34  H   UNL A   1      40.059  18.744  26.191  1.00  0.00     0.163 HD
ATOM     35  O   UNL A   1      42.460  18.762  25.398  1.00  0.00    -0.269 OA
BRANCH  33  36
ATOM     36  C   UNL A   1      42.602  20.859  26.436  1.00  0.00     0.039 A 
ATOM     37  C   UNL A   1      42.941  21.937  25.607  1.00  0.00     0.014 A 
ATOM     38  C   UNL A   1      42.651  20.968  27.809  1.00  0.00     0.014 A 
ATOM     39  C   UNL A   1      43.150  23.188  26.198  1.00  0.00     0.010 A 
ATOM     40  C   UNL A   1      42.526  22.226  28.318  1.00  0.00     0.010 A 
ATOM     41  C   UNL A   1      42.870  23.340  27.562  1.00  0.00    -0.014 A 
BRANCH  41  42
ATOM     42  C   UNL A   1      42.761  24.633  28.238  1.00  0.00     0.031 A 
ATOM     43  C   UNL A   1      41.475  25.356  28.028  1.00  0.00     0.074 A 
ATOM     44  C   UNL A   1      43.625  24.985  29.222  1.00  0.00     0.049 A 
ATOM     45  N   UNL A   1      41.287  26.443  27.352  1.00  0.00    -0.248 NA
ATOM     46  C   UNL A   1      40.226  24.724  28.483  1.00  0.00     0.031 C 
ATOM     47  C   UNL A   1      44.756  24.202  29.760  1.00  0.00     0.029 A 
ATOM     48  N   UNL A   1      43.569  26.031  30.090  1.00  0.00    -0.354 N 
ATOM     49  C   UNL A   1      39.946  26.775  27.547  1.00  0.00     0.074 A 
ATOM     50  C   UNL A   1      39.311  25.567  27.996  1.00  0.00     0.031 C 
ATOM     51  C   UNL A   1      45.059  24.629  31.001  1.00  0.00     0.029 A 
ATOM     52  C   UNL A   1      44.325  25.850  31.247  1.00  0.00     0.049 A 
ATOM     53  H   UNL A   1      43.041  26.843  29.915  1.00  0.00     0.167 HD
ATOM     54  C   UNL A   1      39.551  28.080  27.627  1.00  0.00     0.034 A 
ATOM     55  C   UNL A   1      44.348  26.641  32.345  1.00  0.00     0.034 A 
ATOM     56  C   UNL A   1      40.617  28.959  27.199  1.00  0.00     0.049 A 
ATOM     57  C   UNL A   1      43.837  27.961  31.923  1.00  0.00     0.074 A 
ATOM     58  C   UNL A   1      41.382  29.096  26.058  1.00  0.00     0.029 A 
ATOM     59  N   UNL A   1      41.304  29.615  28.194  1.00  0.00    -0.354 N 
ATOM     60  N   UNL A   1      44.460  28.728  31.072  1.00  0.00    -0.248 NA
ATOM     61  C   UNL A   1      42.422  28.236  32.096  1.00  0.00     0.031 C 
ATOM     62  C   UNL A   1      42.693  29.406  26.530  1.00  0.00     0.029 A 
ATOM     63  C   UNL A   1      42.641  29.530  27.921  1.00  0.00     0.049 A 
ATOM     64  H   UNL A   1      40.902  30.067  28.971  1.00  0.00     0.167 HD
ATOM     65  C   UNL A   1      43.448  29.231  30.265  1.00  0.00     0.074 A 
ATOM     66  C   UNL A   1      42.219  29.011  31.028  1.00  0.00     0.031 C 
ATOM     67  C   UNL A   1      43.669  29.486  28.941  1.00  0.00     0.034 A 
BRANCH  54  68
ATOM     68  C   UNL A   1      38.405  28.624  28.473  1.00  0.00     0.023 A 
ATOM     69  C   UNL A   1      37.410  29.369  27.790  1.00  0.00     0.012 A 
ATOM     70  C   UNL A   1      38.387  28.706  29.883  1.00  0.00     0.148 A 
ATOM     71  C   UNL A   1      36.531  30.226  28.460  1.00  0.00     0.002 A 
ATOM     72  C   UNL A   1      37.465  29.508  30.551  1.00  0.00     0.091 A 
ATOM     73  F   UNL A   1      39.329  28.107  30.610  1.00  0.00    -0.205 F 
ATOM     74  C   UNL A   1      36.561  30.300  29.844  1.00  0.00     0.022 A 
BRANCH  72  75
ATOM     75  S   UNL A   1      37.436  29.611  32.348  1.00  0.00     0.127 S 
ATOM     76  O   UNL A   1      38.657  30.364  32.613  1.00  0.00    -0.237 OA
ATOM     77  O   UNL A   1      36.190  30.339  32.585  1.00  0.00    -0.237 OA
ATOM     78  O   UNL A   1      37.419  28.232  32.821  1.00  0.00    -0.744 OA
ENDBRANCH  72  75
ENDBRANCH  54  68
BRANCH  55  79
ATOM     79  C   UNL A   1      44.618  26.305  33.758  1.00  0.00     0.023 A 
ATOM     80  C   UNL A   1      43.611  25.710  34.541  1.00  0.00     0.012 A 
ATOM     81  C   UNL A   1      45.938  26.315  34.262  1.00  0.00     0.148 A 
ATOM     82  C   UNL A   1      43.914  25.103  35.765  1.00  0.00     0.002 A 
ATOM     83  C   UNL A   1      46.234  25.715  35.482  1.00  0.00     0.091 A 
ATOM     84  F   UNL A   1      46.915  26.830  33.501  1.00  0.00    -0.205 F 
ATOM     85  C   UNL A   1      45.227  25.094  36.231  1.00  0.00     0.022 A 
BRANCH  83  86
ATOM     86  S   UNL A   1      47.911  25.641  36.129  1.00  0.00     0.127 S 
ATOM     87  O   UNL A   1      47.846  24.468  37.002  1.00  0.00    -0.237 OA
ATOM     88  O   UNL A   1      48.693  25.459  34.910  1.00  0.00    -0.237 OA
ATOM     89  O   UNL A   1      48.113  26.902  36.832  1.00  0.00    -0.744 OA
ENDBRANCH  83  86
ENDBRANCH  55  79
BRANCH  67  90
ATOM     90  C   UNL A   1      45.095  29.472  28.442  1.00  0.00     0.023 A 
ATOM     91  C   UNL A   1      45.752  28.288  28.047  1.00  0.00     0.012 A 
ATOM     92  C   UNL A   1      45.722  30.704  28.194  1.00  0.00     0.148 A 
ATOM     93  C   UNL A   1      47.010  28.329  27.438  1.00  0.00     0.002 A 
ATOM     94  C   UNL A   1      46.950  30.745  27.546  1.00  0.00     0.091 A 
ATOM     95  F   UNL A   1      45.087  31.825  28.571  1.00  0.00    -0.205 F 
ATOM     96  C   UNL A   1      47.603  29.560  27.174  1.00  0.00     0.022 A 
BRANCH  94  97
ATOM     97  S   UNL A   1      47.697  32.302  27.061  1.00  0.00     0.127 S 
ATOM     98  O   UNL A   1      47.765  33.018  28.332  1.00  0.00    -0.237 OA
ATOM     99  O   UNL A   1      48.993  31.879  26.526  1.00  0.00    -0.237 OA
ATOM    100  O   UNL A   1      46.804  32.878  26.061  1.00  0.00    -0.744 OA
ENDBRANCH  94  97
ENDBRANCH  67  90
ENDBRANCH  41  42
ENDBRANCH  33  36
ENDBRANCH  31  32
ENDBRANCH  30  31
ENDBRANCH   1  30
TORSDOF 17
ENDMDL
