MODEL 1
REMARK VINA RESULT:     -12.9      0.000      0.000
REMARK SMILES Cc1c(Cl)cc2c(c1C)O[C@H](C(F)(F)F)C(C(=O)NCCCNC(=O)c1ccc(-c3c4nc(c(-c5cccc(S(=O)(=O)[O-])c5F)c5ccc([nH]5)c(-c5cccc(S(=O)(=O)[O-])c5F)c5nc(c(-c6cccc(S(=O)(=O)[O-])c6F)c6ccc3[nH]6)C=C5)C=C4)cc1)=C2
REMARK SMILES IDX 22 1 21 2 20 3 19 4 17 5 18 6 16 8 1 9 2 10 3 11 8 12 4 13
REMARK SMILES IDX 5 14 7 15 9 16 6 17 10 18 89 19 11 20 12 21 13 22 14 23
REMARK SMILES IDX 15 24 23 25 24 26 25 28 26 29 27 30 88 31 28 32 87 33 29 34
REMARK SMILES IDX 30 35 31 36 81 37 32 38 86 39 80 40 82 41 33 42 85 43 79 44
REMARK SMILES IDX 78 45 34 47 66 48 46 49 65 50 47 51 50 52 64 53 83 54 48 55
REMARK SMILES IDX 49 56 63 58 84 59 51 60 35 61 36 62 44 63 37 64 39 65 45 66
REMARK SMILES IDX 38 67 40 68 41 69 42 70 43 71 67 72 68 73 76 74 69 75 71 76
REMARK SMILES IDX 77 77 70 78 72 79 73 80 74 81 75 82 52 83 53 84 61 85 54 86
REMARK SMILES IDX 56 87 62 88 55 89 57 90 58 91 59 92 60 93
REMARK H PARENT 19 7 23 27 82 46 50 57
REMARK Flexibility Score: inf
ROOT
ATOM      1  C   UNL A   1      32.781  32.631  27.295  1.00  0.00     0.118 C 
ENDROOT
BRANCH   1   2
ATOM      2  C   UNL A   1      31.514  32.095  26.644  1.00  0.00     0.042 C 
BRANCH   2   3
ATOM      3  C   UNL A   1      31.589  30.597  26.398  1.00  0.00     0.118 C 
BRANCH   3   4
ATOM      4  N   UNL A   1      31.409  30.261  24.993  1.00  0.00    -0.352 N 
ATOM      5  C   UNL A   1      31.415  29.141  24.233  1.00  0.00     0.251 C 
ATOM      6  O   UNL A   1      31.177  29.313  23.034  1.00  0.00    -0.270 OA
ATOM      7  H   UNL A   1      31.236  31.064  24.450  1.00  0.00     0.163 HD
BRANCH   5   8
ATOM      8  C   UNL A   1      31.674  27.765  24.745  1.00  0.00     0.067 C 
ATOM      9  C   UNL A   1      34.141  22.137  26.980  1.00  0.00     0.046 C 
ATOM     10  C   UNL A   1      33.841  23.504  26.423  1.00  0.00    -0.026 A 
ATOM     11  C   UNL A   1      34.860  24.319  25.887  1.00  0.00     0.045 A 
ATOM     12  C   UNL A   1      32.510  23.981  26.387  1.00  0.00    -0.004 A 
ATOM     13  Cl  UNL A   1      36.509  23.796  25.804  1.00  0.00    -0.084 Cl
ATOM     14  C   UNL A   1      34.583  25.597  25.385  1.00  0.00     0.032 A 
ATOM     15  C   UNL A   1      32.258  25.271  25.886  1.00  0.00     0.131 A 
ATOM     16  C   UNL A   1      31.328  23.175  26.873  1.00  0.00     0.049 C 
ATOM     17  C   UNL A   1      33.279  26.083  25.390  1.00  0.00     0.019 A 
ATOM     18  O   UNL A   1      30.965  25.711  25.953  1.00  0.00    -0.475 OA
ATOM     19  C   UNL A   1      32.966  27.425  24.914  1.00  0.00     0.025 C 
ATOM     20  C   UNL A   1      30.592  26.769  25.039  1.00  0.00     0.314 C 
BRANCH  20  21
ATOM     21  C   UNL A   1      29.997  26.148  23.761  1.00  0.00     0.429 C 
ATOM     22  F   UNL A   1      28.817  26.737  23.447  1.00  0.00    -0.167 F 
ATOM     23  F   UNL A   1      30.800  26.300  22.680  1.00  0.00    -0.167 F 
ATOM     24  F   UNL A   1      29.765  24.821  23.885  1.00  0.00    -0.167 F 
ENDBRANCH  20  21
ENDBRANCH   5   8
ENDBRANCH   3   4
ENDBRANCH   2   3
ENDBRANCH   1   2
BRANCH   1  25
ATOM     25  N   UNL A   1      32.649  34.045  27.650  1.00  0.00    -0.352 N 
ATOM     26  C   UNL A   1      33.189  34.745  28.698  1.00  0.00     0.251 C 
ATOM     27  H   UNL A   1      32.085  34.575  27.043  1.00  0.00     0.163 HD
ATOM     28  O   UNL A   1      32.731  35.848  28.993  1.00  0.00    -0.269 OA
BRANCH  26  29
ATOM     29  C   UNL A   1      34.317  34.178  29.459  1.00  0.00     0.039 A 
ATOM     30  C   UNL A   1      34.064  33.397  30.590  1.00  0.00     0.014 A 
ATOM     31  C   UNL A   1      35.630  34.441  29.065  1.00  0.00     0.014 A 
ATOM     32  C   UNL A   1      35.132  32.833  31.287  1.00  0.00     0.010 A 
ATOM     33  C   UNL A   1      36.682  33.793  29.692  1.00  0.00     0.010 A 
ATOM     34  C   UNL A   1      36.448  33.004  30.825  1.00  0.00    -0.014 A 
BRANCH  34  35
ATOM     35  C   UNL A   1      37.602  32.394  31.523  1.00  0.00     0.031 A 
ATOM     36  C   UNL A   1      38.343  31.251  30.883  1.00  0.00     0.074 A 
ATOM     37  C   UNL A   1      37.928  32.812  32.761  1.00  0.00     0.049 A 
ATOM     38  N   UNL A   1      39.335  30.545  31.357  1.00  0.00    -0.248 NA
ATOM     39  C   UNL A   1      37.889  30.822  29.547  1.00  0.00     0.031 C 
ATOM     40  C   UNL A   1      37.233  33.862  33.508  1.00  0.00     0.029 A 
ATOM     41  N   UNL A   1      38.915  32.394  33.616  1.00  0.00    -0.354 N 
ATOM     42  C   UNL A   1      39.602  29.577  30.397  1.00  0.00     0.074 A 
ATOM     43  C   UNL A   1      38.634  29.747  29.338  1.00  0.00     0.031 C 
ATOM     44  C   UNL A   1      37.829  34.021  34.700  1.00  0.00     0.029 A 
ATOM     45  C   UNL A   1      38.925  33.065  34.817  1.00  0.00     0.049 A 
ATOM     46  H   UNL A   1      39.557  31.681  33.392  1.00  0.00     0.167 HD
ATOM     47  C   UNL A   1      40.594  28.656  30.377  1.00  0.00     0.034 A 
ATOM     48  C   UNL A   1      39.729  32.925  35.889  1.00  0.00     0.034 A 
ATOM     49  C   UNL A   1      41.582  28.529  31.412  1.00  0.00     0.049 A 
ATOM     50  C   UNL A   1      40.840  31.911  35.833  1.00  0.00     0.074 A 
ATOM     51  C   UNL A   1      42.674  27.683  31.455  1.00  0.00     0.029 A 
ATOM     52  N   UNL A   1      41.598  29.268  32.585  1.00  0.00    -0.354 N 
ATOM     53  N   UNL A   1      41.168  31.100  34.856  1.00  0.00    -0.248 NA
ATOM     54  C   UNL A   1      41.711  31.812  37.013  1.00  0.00     0.031 C 
ATOM     55  C   UNL A   1      43.336  27.891  32.668  1.00  0.00     0.029 A 
ATOM     56  C   UNL A   1      42.674  28.889  33.367  1.00  0.00     0.049 A 
ATOM     57  H   UNL A   1      40.940  29.959  32.827  1.00  0.00     0.167 HD
ATOM     58  C   UNL A   1      42.296  30.414  35.289  1.00  0.00     0.074 A 
ATOM     59  C   UNL A   1      42.610  30.923  36.609  1.00  0.00     0.031 C 
ATOM     60  C   UNL A   1      42.997  29.438  34.660  1.00  0.00     0.034 A 
BRANCH  47  61
ATOM     61  C   UNL A   1      40.702  27.764  29.168  1.00  0.00     0.023 A 
ATOM     62  C   UNL A   1      39.856  26.639  29.059  1.00  0.00     0.012 A 
ATOM     63  C   UNL A   1      41.583  28.069  28.112  1.00  0.00     0.148 A 
ATOM     64  C   UNL A   1      39.909  25.815  27.937  1.00  0.00     0.002 A 
ATOM     65  C   UNL A   1      41.593  27.271  26.974  1.00  0.00     0.091 A 
ATOM     66  F   UNL A   1      42.395  29.128  28.243  1.00  0.00    -0.205 F 
ATOM     67  C   UNL A   1      40.767  26.137  26.890  1.00  0.00     0.022 A 
BRANCH  65  68
ATOM     68  S   UNL A   1      42.596  27.647  25.533  1.00  0.00     0.127 S 
ATOM     69  O   UNL A   1      42.368  26.468  24.698  1.00  0.00    -0.237 OA
ATOM     70  O   UNL A   1      41.973  28.875  25.038  1.00  0.00    -0.237 OA
ATOM     71  O   UNL A   1      43.958  27.809  26.021  1.00  0.00    -0.744 OA
ENDBRANCH  65  68
ENDBRANCH  47  61
BRANCH  48  72
ATOM     72  C   UNL A   1      39.562  33.836  37.057  1.00  0.00     0.023 A 
ATOM     73  C   UNL A   1      39.932  35.189  36.931  1.00  0.00     0.012 A 
ATOM     74  C   UNL A   1      38.974  33.396  38.258  1.00  0.00     0.148 A 
ATOM     75  C   UNL A   1      39.736  36.083  37.984  1.00  0.00     0.002 A 
ATOM     76  C   UNL A   1      38.728  34.303  39.283  1.00  0.00     0.091 A 
ATOM     77  F   UNL A   1      38.634  32.103  38.362  1.00  0.00    -0.205 F 
ATOM     78  C   UNL A   1      39.123  35.643  39.155  1.00  0.00     0.022 A 
BRANCH  76  79
ATOM     79  S   UNL A   1      37.812  33.866  40.767  1.00  0.00     0.127 S 
ATOM     80  O   UNL A   1      36.621  33.232  40.207  1.00  0.00    -0.237 OA
ATOM     81  O   UNL A   1      38.742  32.954  41.433  1.00  0.00    -0.237 OA
ATOM     82  O   UNL A   1      37.585  35.118  41.474  1.00  0.00    -0.744 OA
ENDBRANCH  76  79
ENDBRANCH  48  72
BRANCH  60  83
ATOM     83  C   UNL A   1      44.185  28.848  35.376  1.00  0.00     0.023 A 
ATOM     84  C   UNL A   1      45.454  29.436  35.216  1.00  0.00     0.012 A 
ATOM     85  C   UNL A   1      44.020  27.795  36.298  1.00  0.00     0.148 A 
ATOM     86  C   UNL A   1      46.546  28.973  35.948  1.00  0.00     0.002 A 
ATOM     87  C   UNL A   1      45.100  27.377  37.065  1.00  0.00     0.091 A 
ATOM     88  F   UNL A   1      42.805  27.241  36.424  1.00  0.00    -0.205 F 
ATOM     89  C   UNL A   1      46.366  27.957  36.883  1.00  0.00     0.022 A 
BRANCH  87  90
ATOM     90  S   UNL A   1      44.942  26.152  38.370  1.00  0.00     0.127 S 
ATOM     91  O   UNL A   1      46.327  26.018  38.821  1.00  0.00    -0.237 OA
ATOM     92  O   UNL A   1      44.055  26.826  39.319  1.00  0.00    -0.237 OA
ATOM     93  O   UNL A   1      44.374  24.966  37.745  1.00  0.00    -0.744 OA
ENDBRANCH  87  90
ENDBRANCH  60  83
ENDBRANCH  34  35
ENDBRANCH  26  29
ENDBRANCH   1  25
TORSDOF 14
ENDMDL
MODEL 2
REMARK VINA RESULT:     -12.8      3.730      8.643
REMARK SMILES Cc1c(Cl)cc2c(c1C)O[C@H](C(F)(F)F)C(C(=O)NCCCNC(=O)c1ccc(-c3c4nc(c(-c5cccc(S(=O)(=O)[O-])c5F)c5ccc([nH]5)c(-c5cccc(S(=O)(=O)[O-])c5F)c5nc(c(-c6cccc(S(=O)(=O)[O-])c6F)c6ccc3[nH]6)C=C5)C=C4)cc1)=C2
REMARK SMILES IDX 22 1 21 2 20 3 19 4 17 5 18 6 16 8 1 9 2 10 3 11 8 12 4 13
REMARK SMILES IDX 5 14 7 15 9 16 6 17 10 18 89 19 11 20 12 21 13 22 14 23
REMARK SMILES IDX 15 24 23 25 24 26 25 28 26 29 27 30 88 31 28 32 87 33 29 34
REMARK SMILES IDX 30 35 31 36 81 37 32 38 86 39 80 40 82 41 33 42 85 43 79 44
REMARK SMILES IDX 78 45 34 47 66 48 46 49 65 50 47 51 50 52 64 53 83 54 48 55
REMARK SMILES IDX 49 56 63 58 84 59 51 60 35 61 36 62 44 63 37 64 39 65 45 66
REMARK SMILES IDX 38 67 40 68 41 69 42 70 43 71 67 72 68 73 76 74 69 75 71 76
REMARK SMILES IDX 77 77 70 78 72 79 73 80 74 81 75 82 52 83 53 84 61 85 54 86
REMARK SMILES IDX 56 87 62 88 55 89 57 90 58 91 59 92 60 93
REMARK H PARENT 19 7 23 27 82 46 50 57
REMARK Flexibility Score: inf
ROOT
ATOM      1  C   UNL A   1      33.564  28.827  26.526  1.00  0.00     0.118 C 
ENDROOT
BRANCH   1   2
ATOM      2  C   UNL A   1      33.846  28.473  25.073  1.00  0.00     0.042 C 
BRANCH   2   3
ATOM      3  C   UNL A   1      32.685  27.731  24.431  1.00  0.00     0.118 C 
BRANCH   3   4
ATOM      4  N   UNL A   1      31.798  27.135  25.419  1.00  0.00    -0.352 N 
ATOM      5  C   UNL A   1      31.636  25.925  26.003  1.00  0.00     0.251 C 
ATOM      6  O   UNL A   1      30.741  25.860  26.851  1.00  0.00    -0.270 OA
ATOM      7  H   UNL A   1      31.140  27.787  25.753  1.00  0.00     0.163 HD
BRANCH   5   8
ATOM      8  C   UNL A   1      32.453  24.715  25.698  1.00  0.00     0.067 C 
ATOM      9  C   UNL A   1      37.055  20.122  25.000  1.00  0.00     0.046 C 
ATOM     10  C   UNL A   1      36.206  21.340  25.253  1.00  0.00    -0.026 A 
ATOM     11  C   UNL A   1      36.783  22.575  25.622  1.00  0.00     0.045 A 
ATOM     12  C   UNL A   1      34.804  21.279  25.079  1.00  0.00    -0.004 A 
ATOM     13  Cl  UNL A   1      38.496  22.780  25.777  1.00  0.00    -0.084 Cl
ATOM     14  C   UNL A   1      35.992  23.703  25.872  1.00  0.00     0.032 A 
ATOM     15  C   UNL A   1      34.030  22.424  25.345  1.00  0.00     0.131 A 
ATOM     16  C   UNL A   1      34.079  20.034  24.626  1.00  0.00     0.049 C 
ATOM     17  C   UNL A   1      34.608  23.629  25.743  1.00  0.00     0.019 A 
ATOM     18  O   UNL A   1      32.674  22.282  25.241  1.00  0.00    -0.475 OA
ATOM     19  C   UNL A   1      33.755  24.774  26.039  1.00  0.00     0.025 C 
ATOM     20  C   UNL A   1      31.910  23.492  25.023  1.00  0.00     0.314 C 
BRANCH  20  21
ATOM     21  C   UNL A   1      31.702  23.694  23.510  1.00  0.00     0.429 C 
ATOM     22  F   UNL A   1      30.480  24.223  23.261  1.00  0.00    -0.167 F 
ATOM     23  F   UNL A   1      32.606  24.544  22.965  1.00  0.00    -0.167 F 
ATOM     24  F   UNL A   1      31.792  22.538  22.812  1.00  0.00    -0.167 F 
ENDBRANCH  20  21
ENDBRANCH   5   8
ENDBRANCH   3   4
ENDBRANCH   2   3
ENDBRANCH   1   2
BRANCH   1  25
ATOM     25  N   UNL A   1      33.677  30.267  26.763  1.00  0.00    -0.352 N 
ATOM     26  C   UNL A   1      34.548  30.963  27.562  1.00  0.00     0.251 C 
ATOM     27  H   UNL A   1      33.027  30.820  26.274  1.00  0.00     0.163 HD
ATOM     28  O   UNL A   1      34.301  32.132  27.856  1.00  0.00    -0.269 OA
BRANCH  26  29
ATOM     29  C   UNL A   1      35.775  30.313  28.056  1.00  0.00     0.039 A 
ATOM     30  C   UNL A   1      36.916  30.288  27.251  1.00  0.00     0.014 A 
ATOM     31  C   UNL A   1      35.785  29.704  29.312  1.00  0.00     0.014 A 
ATOM     32  C   UNL A   1      38.085  29.702  27.736  1.00  0.00     0.010 A 
ATOM     33  C   UNL A   1      36.974  29.219  29.835  1.00  0.00     0.010 A 
ATOM     34  C   UNL A   1      38.130  29.190  29.044  1.00  0.00    -0.014 A 
BRANCH  34  35
ATOM     35  C   UNL A   1      39.363  28.589  29.602  1.00  0.00     0.031 A 
ATOM     36  C   UNL A   1      39.999  29.190  30.826  1.00  0.00     0.074 A 
ATOM     37  C   UNL A   1      39.950  27.561  28.961  1.00  0.00     0.049 A 
ATOM     38  N   UNL A   1      41.107  28.851  31.428  1.00  0.00    -0.248 NA
ATOM     39  C   UNL A   1      39.316  30.346  31.437  1.00  0.00     0.031 C 
ATOM     40  C   UNL A   1      39.463  26.946  27.725  1.00  0.00     0.029 A 
ATOM     41  N   UNL A   1      41.095  26.863  29.250  1.00  0.00    -0.354 N 
ATOM     42  C   UNL A   1      41.269  29.764  32.463  1.00  0.00     0.074 A 
ATOM     43  C   UNL A   1      40.178  30.706  32.376  1.00  0.00     0.031 C 
ATOM     44  C   UNL A   1      40.289  25.948  27.374  1.00  0.00     0.029 A 
ATOM     45  C   UNL A   1      41.381  25.873  28.338  1.00  0.00     0.049 A 
ATOM     46  H   UNL A   1      41.658  27.051  30.035  1.00  0.00     0.167 HD
ATOM     47  C   UNL A   1      42.218  29.788  33.428  1.00  0.00     0.034 A 
ATOM     48  C   UNL A   1      42.409  25.002  28.289  1.00  0.00     0.034 A 
ATOM     49  C   UNL A   1      43.270  28.816  33.535  1.00  0.00     0.049 A 
ATOM     50  C   UNL A   1      43.438  25.034  29.387  1.00  0.00     0.074 A 
ATOM     51  C   UNL A   1      44.236  28.703  34.517  1.00  0.00     0.029 A 
ATOM     52  N   UNL A   1      43.493  27.790  32.629  1.00  0.00    -0.354 N 
ATOM     53  N   UNL A   1      43.496  25.814  30.440  1.00  0.00    -0.248 NA
ATOM     54  C   UNL A   1      44.525  24.047  29.309  1.00  0.00     0.031 C 
ATOM     55  C   UNL A   1      45.062  27.623  34.190  1.00  0.00     0.029 A 
ATOM     56  C   UNL A   1      44.591  27.045  33.021  1.00  0.00     0.049 A 
ATOM     57  H   UNL A   1      42.951  27.617  31.825  1.00  0.00     0.167 HD
ATOM     58  C   UNL A   1      44.608  25.398  31.164  1.00  0.00     0.074 A 
ATOM     59  C   UNL A   1      45.179  24.279  30.441  1.00  0.00     0.031 C 
ATOM     60  C   UNL A   1      45.119  25.907  32.312  1.00  0.00     0.034 A 
BRANCH  47  61
ATOM     61  C   UNL A   1      42.119  30.858  34.484  1.00  0.00     0.023 A 
ATOM     62  C   UNL A   1      41.430  30.584  35.685  1.00  0.00     0.012 A 
ATOM     63  C   UNL A   1      42.759  32.102  34.325  1.00  0.00     0.148 A 
ATOM     64  C   UNL A   1      41.351  31.541  36.695  1.00  0.00     0.002 A 
ATOM     65  C   UNL A   1      42.719  33.033  35.358  1.00  0.00     0.091 A 
ATOM     66  F   UNL A   1      43.390  32.354  33.169  1.00  0.00    -0.205 F 
ATOM     67  C   UNL A   1      42.005  32.759  36.536  1.00  0.00     0.022 A 
BRANCH  65  68
ATOM     68  S   UNL A   1      43.600  34.596  35.292  1.00  0.00     0.127 S 
ATOM     69  O   UNL A   1      43.320  35.149  36.616  1.00  0.00    -0.237 OA
ATOM     70  O   UNL A   1      44.983  34.159  35.094  1.00  0.00    -0.237 OA
ATOM     71  O   UNL A   1      43.028  35.335  34.175  1.00  0.00    -0.744 OA
ENDBRANCH  65  68
ENDBRANCH  47  61
BRANCH  48  72
ATOM     72  C   UNL A   1      42.450  23.974  27.210  1.00  0.00     0.023 A 
ATOM     73  C   UNL A   1      43.124  24.267  26.009  1.00  0.00     0.012 A 
ATOM     74  C   UNL A   1      41.897  22.692  27.391  1.00  0.00     0.148 A 
ATOM     75  C   UNL A   1      43.232  23.308  25.001  1.00  0.00     0.002 A 
ATOM     76  C   UNL A   1      42.058  21.723  26.407  1.00  0.00     0.091 A 
ATOM     77  F   UNL A   1      41.253  22.434  28.538  1.00  0.00    -0.205 F 
ATOM     78  C   UNL A   1      42.711  22.034  25.204  1.00  0.00     0.022 A 
BRANCH  76  79
ATOM     79  S   UNL A   1      41.552  20.013  26.637  1.00  0.00     0.127 S 
ATOM     80  O   UNL A   1      40.107  20.149  26.803  1.00  0.00    -0.237 OA
ATOM     81  O   UNL A   1      41.974  19.405  25.376  1.00  0.00    -0.237 OA
ATOM     82  O   UNL A   1      42.279  19.540  27.807  1.00  0.00    -0.744 OA
ENDBRANCH  76  79
ENDBRANCH  48  72
BRANCH  60  83
ATOM     83  C   UNL A   1      46.360  25.265  32.878  1.00  0.00     0.023 A 
ATOM     84  C   UNL A   1      47.625  25.795  32.555  1.00  0.00     0.012 A 
ATOM     85  C   UNL A   1      46.266  24.224  33.824  1.00  0.00     0.148 A 
ATOM     86  C   UNL A   1      48.778  25.285  33.148  1.00  0.00     0.002 A 
ATOM     87  C   UNL A   1      47.414  23.760  34.452  1.00  0.00     0.091 A 
ATOM     88  F   UNL A   1      45.053  23.727  34.107  1.00  0.00    -0.205 F 
ATOM     89  C   UNL A   1      48.672  24.281  34.107  1.00  0.00     0.022 A 
BRANCH  87  90
ATOM     90  S   UNL A   1      47.368  22.548  35.778  1.00  0.00     0.127 S 
ATOM     91  O   UNL A   1      48.787  22.240  35.949  1.00  0.00    -0.237 OA
ATOM     92  O   UNL A   1      46.773  23.314  36.875  1.00  0.00    -0.237 OA
ATOM     93  O   UNL A   1      46.547  21.448  35.292  1.00  0.00    -0.744 OA
ENDBRANCH  87  90
ENDBRANCH  60  83
ENDBRANCH  34  35
ENDBRANCH  26  29
ENDBRANCH   1  25
TORSDOF 14
ENDMDL
MODEL 3
REMARK VINA RESULT:     -12.8      5.538      8.660
REMARK SMILES Cc1c(Cl)cc2c(c1C)O[C@H](C(F)(F)F)C(C(=O)NCCCNC(=O)c1ccc(-c3c4nc(c(-c5cccc(S(=O)(=O)[O-])c5F)c5ccc([nH]5)c(-c5cccc(S(=O)(=O)[O-])c5F)c5nc(c(-c6cccc(S(=O)(=O)[O-])c6F)c6ccc3[nH]6)C=C5)C=C4)cc1)=C2
REMARK SMILES IDX 22 1 21 2 20 3 19 4 17 5 18 6 16 8 1 9 2 10 3 11 8 12 4 13
REMARK SMILES IDX 5 14 7 15 9 16 6 17 10 18 89 19 11 20 12 21 13 22 14 23
REMARK SMILES IDX 15 24 23 25 24 26 25 28 26 29 27 30 88 31 28 32 87 33 29 34
REMARK SMILES IDX 30 35 31 36 81 37 32 38 86 39 80 40 82 41 33 42 85 43 79 44
REMARK SMILES IDX 78 45 34 47 66 48 46 49 65 50 47 51 50 52 64 53 83 54 48 55
REMARK SMILES IDX 49 56 63 58 84 59 51 60 35 61 36 62 44 63 37 64 39 65 45 66
REMARK SMILES IDX 38 67 40 68 41 69 42 70 43 71 67 72 68 73 76 74 69 75 71 76
REMARK SMILES IDX 77 77 70 78 72 79 73 80 74 81 75 82 52 83 53 84 61 85 54 86
REMARK SMILES IDX 56 87 62 88 55 89 57 90 58 91 59 92 60 93
REMARK H PARENT 19 7 23 27 82 46 50 57
REMARK Flexibility Score: inf
ROOT
ATOM      1  C   UNL A   1      36.595  23.504  25.710  1.00  0.00     0.118 C 
ENDROOT
BRANCH   1   2
ATOM      2  C   UNL A   1      35.303  23.358  26.501  1.00  0.00     0.042 C 
BRANCH   2   3
ATOM      3  C   UNL A   1      34.211  22.678  25.691  1.00  0.00     0.118 C 
BRANCH   3   4
ATOM      4  N   UNL A   1      34.357  22.917  24.262  1.00  0.00    -0.352 N 
ATOM      5  C   UNL A   1      34.046  23.900  23.386  1.00  0.00     0.251 C 
ATOM      6  O   UNL A   1      34.393  23.699  22.218  1.00  0.00    -0.270 OA
ATOM      7  H   UNL A   1      34.799  22.161  23.814  1.00  0.00     0.163 HD
BRANCH   5   8
ATOM      8  C   UNL A   1      33.346  25.169  23.740  1.00  0.00     0.067 C 
ATOM      9  C   UNL A   1      31.456  31.012  25.985  1.00  0.00     0.046 C 
ATOM     10  C   UNL A   1      32.111  29.701  25.638  1.00  0.00    -0.026 A 
ATOM     11  C   UNL A   1      33.258  29.248  26.325  1.00  0.00     0.045 A 
ATOM     12  C   UNL A   1      31.556  28.871  24.636  1.00  0.00    -0.004 A 
ATOM     13  Cl  UNL A   1      33.966  30.146  27.626  1.00  0.00    -0.084 Cl
ATOM     14  C   UNL A   1      33.876  28.037  25.991  1.00  0.00     0.032 A 
ATOM     15  C   UNL A   1      32.202  27.663  24.312  1.00  0.00     0.131 A 
ATOM     16  C   UNL A   1      30.298  29.218  23.876  1.00  0.00     0.049 C 
ATOM     17  C   UNL A   1      33.355  27.242  24.975  1.00  0.00     0.019 A 
ATOM     18  O   UNL A   1      31.668  26.943  23.280  1.00  0.00    -0.475 OA
ATOM     19  C   UNL A   1      34.002  25.998  24.575  1.00  0.00     0.025 C 
ATOM     20  C   UNL A   1      31.978  25.530  23.246  1.00  0.00     0.314 C 
BRANCH  20  21
ATOM     21  C   UNL A   1      30.863  24.750  23.968  1.00  0.00     0.429 C 
ATOM     22  F   UNL A   1      30.452  23.698  23.219  1.00  0.00    -0.167 F 
ATOM     23  F   UNL A   1      31.265  24.239  25.157  1.00  0.00    -0.167 F 
ATOM     24  F   UNL A   1      29.775  25.512  24.225  1.00  0.00    -0.167 F 
ENDBRANCH  20  21
ENDBRANCH   5   8
ENDBRANCH   3   4
ENDBRANCH   2   3
ENDBRANCH   1   2
BRANCH   1  25
ATOM     25  N   UNL A   1      37.585  22.501  26.102  1.00  0.00    -0.352 N 
ATOM     26  C   UNL A   1      38.891  22.656  26.494  1.00  0.00     0.251 C 
ATOM     27  H   UNL A   1      37.265  21.571  26.080  1.00  0.00     0.163 HD
ATOM     28  O   UNL A   1      39.643  21.683  26.500  1.00  0.00    -0.269 OA
BRANCH  26  29
ATOM     29  C   UNL A   1      39.381  23.982  26.911  1.00  0.00     0.039 A 
ATOM     30  C   UNL A   1      39.971  24.828  25.969  1.00  0.00     0.014 A 
ATOM     31  C   UNL A   1      39.278  24.377  28.246  1.00  0.00     0.014 A 
ATOM     32  C   UNL A   1      40.403  26.095  26.361  1.00  0.00     0.010 A 
ATOM     33  C   UNL A   1      39.607  25.673  28.610  1.00  0.00     0.010 A 
ATOM     34  C   UNL A   1      40.196  26.537  27.678  1.00  0.00    -0.014 A 
BRANCH  34  35
ATOM     35  C   UNL A   1      40.614  27.888  28.119  1.00  0.00     0.031 A 
ATOM     36  C   UNL A   1      42.072  28.259  28.107  1.00  0.00     0.074 A 
ATOM     37  C   UNL A   1      39.694  28.743  28.606  1.00  0.00     0.049 A 
ATOM     38  N   UNL A   1      42.644  29.362  28.511  1.00  0.00    -0.248 NA
ATOM     39  C   UNL A   1      43.018  27.245  27.606  1.00  0.00     0.031 C 
ATOM     40  C   UNL A   1      38.263  28.462  28.734  1.00  0.00     0.029 A 
ATOM     41  N   UNL A   1      39.829  30.015  29.100  1.00  0.00    -0.354 N 
ATOM     42  C   UNL A   1      44.008  29.165  28.340  1.00  0.00     0.074 A 
ATOM     43  C   UNL A   1      44.186  27.818  27.850  1.00  0.00     0.031 C 
ATOM     44  C   UNL A   1      37.648  29.538  29.249  1.00  0.00     0.029 A 
ATOM     45  C   UNL A   1      38.642  30.571  29.520  1.00  0.00     0.049 A 
ATOM     46  H   UNL A   1      40.691  30.487  29.148  1.00  0.00     0.167 HD
ATOM     47  C   UNL A   1      45.020  30.043  28.532  1.00  0.00     0.034 A 
ATOM     48  C   UNL A   1      38.387  31.779  30.060  1.00  0.00     0.034 A 
ATOM     49  C   UNL A   1      44.826  31.397  28.971  1.00  0.00     0.049 A 
ATOM     50  C   UNL A   1      39.525  32.747  30.241  1.00  0.00     0.074 A 
ATOM     51  C   UNL A   1      45.773  32.392  29.123  1.00  0.00     0.029 A 
ATOM     52  N   UNL A   1      43.604  31.945  29.328  1.00  0.00    -0.354 N 
ATOM     53  N   UNL A   1      40.793  32.594  29.939  1.00  0.00    -0.248 NA
ATOM     54  C   UNL A   1      39.197  34.063  30.806  1.00  0.00     0.031 C 
ATOM     55  C   UNL A   1      45.127  33.536  29.599  1.00  0.00     0.029 A 
ATOM     56  C   UNL A   1      43.772  33.263  29.713  1.00  0.00     0.049 A 
ATOM     57  H   UNL A   1      42.743  31.467  29.311  1.00  0.00     0.167 HD
ATOM     58  C   UNL A   1      41.409  33.800  30.252  1.00  0.00     0.074 A 
ATOM     59  C   UNL A   1      40.370  34.682  30.743  1.00  0.00     0.031 C 
ATOM     60  C   UNL A   1      42.719  34.140  30.158  1.00  0.00     0.034 A 
BRANCH  47  61
ATOM     61  C   UNL A   1      46.418  29.589  28.199  1.00  0.00     0.023 A 
ATOM     62  C   UNL A   1      46.927  29.810  26.902  1.00  0.00     0.012 A 
ATOM     63  C   UNL A   1      47.249  29.009  29.177  1.00  0.00     0.148 A 
ATOM     64  C   UNL A   1      48.228  29.433  26.574  1.00  0.00     0.002 A 
ATOM     65  C   UNL A   1      48.562  28.682  28.856  1.00  0.00     0.091 A 
ATOM     66  F   UNL A   1      46.741  28.785  30.397  1.00  0.00    -0.205 F 
ATOM     67  C   UNL A   1      49.048  28.881  27.553  1.00  0.00     0.022 A 
BRANCH  65  68
ATOM     68  S   UNL A   1      49.728  28.047  30.065  1.00  0.00     0.127 S 
ATOM     69  O   UNL A   1      50.933  27.879  29.254  1.00  0.00    -0.237 OA
ATOM     70  O   UNL A   1      49.793  29.144  31.032  1.00  0.00    -0.237 OA
ATOM     71  O   UNL A   1      49.146  26.815  30.579  1.00  0.00    -0.744 OA
ENDBRANCH  65  68
ENDBRANCH  47  61
BRANCH  48  72
ATOM     72  C   UNL A   1      36.980  32.161  30.374  1.00  0.00     0.023 A 
ATOM     73  C   UNL A   1      36.481  31.932  31.671  1.00  0.00     0.012 A 
ATOM     74  C   UNL A   1      36.164  32.814  29.430  1.00  0.00     0.148 A 
ATOM     75  C   UNL A   1      35.188  32.329  32.017  1.00  0.00     0.002 A 
ATOM     76  C   UNL A   1      34.899  33.259  29.798  1.00  0.00     0.091 A 
ATOM     77  F   UNL A   1      36.655  33.017  28.199  1.00  0.00    -0.205 F 
ATOM     78  C   UNL A   1      34.403  33.003  31.086  1.00  0.00     0.022 A 
BRANCH  76  79
ATOM     79  S   UNL A   1      33.872  34.264  28.718  1.00  0.00     0.127 S 
ATOM     80  O   UNL A   1      34.779  35.357  28.376  1.00  0.00    -0.237 OA
ATOM     81  O   UNL A   1      33.588  33.333  27.626  1.00  0.00    -0.237 OA
ATOM     82  O   UNL A   1      32.709  34.635  29.511  1.00  0.00    -0.744 OA
ENDBRANCH  76  79
ENDBRANCH  48  72
BRANCH  60  83
ATOM     83  C   UNL A   1      43.121  35.528  30.588  1.00  0.00     0.023 A 
ATOM     84  C   UNL A   1      43.522  35.753  31.919  1.00  0.00     0.012 A 
ATOM     85  C   UNL A   1      43.221  36.572  29.647  1.00  0.00     0.148 A 
ATOM     86  C   UNL A   1      43.997  37.003  32.313  1.00  0.00     0.002 A 
ATOM     87  C   UNL A   1      43.748  37.798  30.034  1.00  0.00     0.091 A 
ATOM     88  F   UNL A   1      42.821  36.339  28.388  1.00  0.00    -0.205 F 
ATOM     89  C   UNL A   1      44.126  38.018  31.369  1.00  0.00     0.022 A 
BRANCH  87  90
ATOM     90  S   UNL A   1      44.055  39.130  28.868  1.00  0.00     0.127 S 
ATOM     91  O   UNL A   1      42.698  39.471  28.442  1.00  0.00    -0.237 OA
ATOM     92  O   UNL A   1      44.700  40.137  29.713  1.00  0.00    -0.237 OA
ATOM     93  O   UNL A   1      44.910  38.570  27.831  1.00  0.00    -0.744 OA
ENDBRANCH  87  90
ENDBRANCH  60  83
ENDBRANCH  34  35
ENDBRANCH  26  29
ENDBRANCH   1  25
TORSDOF 14
ENDMDL
