MODEL 1
REMARK VINA RESULT:     -10.9      0.000      0.000
REMARK SMILES O=C(CCCCc1nc(C[C@H]2CCCO2)no1)NCCCNC(=O)c1ccc(-c2c3nc(c(-c4cccc(S(=O)(=O)[O-])c4F)c4ccc([nH]4)c(-c4cccc(S(=O)(=O)[O-])c4F)c4nc(c(-c5cccc(S(=O)(=O)[O-])c5F)c5ccc2[nH]5)C=C4)C=C3)cc1
REMARK SMILES IDX 1 1 2 2 18 3 3 5 4 6 5 7 6 8 7 9 8 10 17 11 9 12 16 13 10 14
REMARK SMILES IDX 11 15 12 16 15 17 13 18 14 19 19 20 20 21 21 22 22 23 23 24
REMARK SMILES IDX 24 26 25 27 26 28 87 29 27 30 86 31 28 32 29 33 30 34 80 35
REMARK SMILES IDX 31 36 85 37 79 38 81 39 32 40 84 41 78 42 77 43 33 45 65 46
REMARK SMILES IDX 45 47 64 48 46 49 49 50 63 51 82 52 47 53 48 54 62 56 83 57
REMARK SMILES IDX 50 58 34 59 35 60 43 61 36 62 38 63 44 64 37 65 39 66 40 67
REMARK SMILES IDX 41 68 42 69 66 70 67 71 75 72 68 73 70 74 76 75 69 76 71 77
REMARK SMILES IDX 72 78 73 79 74 80 51 81 52 82 60 83 53 84 55 85 61 86 54 87
REMARK SMILES IDX 56 88 57 89 58 90 59 91
REMARK H PARENT 18 4 22 25 81 44 49 55
REMARK Flexibility Score: inf
ROOT
ATOM      1  O   UNL A   1      31.429  24.458  27.165  1.00  0.00    -0.275 OA
ATOM      2  C   UNL A   1      32.187  25.040  26.395  1.00  0.00     0.219 C 
ATOM      3  N   UNL A   1      32.128  26.384  26.120  1.00  0.00    -0.356 N 
ATOM      4  H   UNL A   1      32.836  26.783  25.565  1.00  0.00     0.163 HD
ENDROOT
BRANCH   2   5
ATOM      5  C   UNL A   1      33.252  24.313  25.604  1.00  0.00     0.100 C 
BRANCH   5   6
ATOM      6  C   UNL A   1      32.758  23.971  24.197  1.00  0.00     0.010 C 
BRANCH   6   7
ATOM      7  C   UNL A   1      33.628  24.465  23.024  1.00  0.00     0.010 C 
BRANCH   7   8
ATOM      8  C   UNL A   1      32.902  25.284  21.947  1.00  0.00     0.100 C 
BRANCH   8   9
ATOM      9  C   UNL A   1      32.421  26.583  22.469  1.00  0.00     0.226 A 
ATOM     10  N   UNL A   1      31.237  26.899  22.938  1.00  0.00    -0.196 NA
ATOM     11  O   UNL A   1      33.267  27.647  22.362  1.00  0.00    -0.339 OA
ATOM     12  C   UNL A   1      31.334  28.256  23.065  1.00  0.00     0.174 A 
ATOM     13  N   UNL A   1      32.531  28.769  22.755  1.00  0.00    -0.062 NA
BRANCH  12  14
ATOM     14  C   UNL A   1      30.163  29.089  23.408  1.00  0.00     0.113 C 
BRANCH  14  15
ATOM     15  C   UNL A   1      29.018  28.976  22.402  1.00  0.00     0.126 C 
ATOM     16  C   UNL A   1      27.655  29.376  22.950  1.00  0.00     0.035 C 
ATOM     17  O   UNL A   1      29.284  29.906  21.326  1.00  0.00    -0.378 OA
ATOM     18  C   UNL A   1      27.655  30.871  22.759  1.00  0.00     0.031 C 
ATOM     19  C   UNL A   1      28.384  31.019  21.441  1.00  0.00     0.160 C 
ENDBRANCH  14  15
ENDBRANCH  12  14
ENDBRANCH   8   9
ENDBRANCH   7   8
ENDBRANCH   6   7
ENDBRANCH   5   6
ENDBRANCH   2   5
BRANCH   3  20
ATOM     20  C   UNL A   1      31.071  27.240  26.614  1.00  0.00     0.117 C 
BRANCH  20  21
ATOM     21  C   UNL A   1      31.605  28.537  27.202  1.00  0.00     0.042 C 
BRANCH  21  22
ATOM     22  C   UNL A   1      32.539  29.324  26.287  1.00  0.00     0.118 C 
BRANCH  22  23
ATOM     23  N   UNL A   1      32.413  30.767  26.428  1.00  0.00    -0.352 N 
ATOM     24  C   UNL A   1      33.178  31.643  27.158  1.00  0.00     0.251 C 
ATOM     25  H   UNL A   1      31.670  31.173  25.926  1.00  0.00     0.163 HD
ATOM     26  O   UNL A   1      32.822  32.817  27.251  1.00  0.00    -0.269 OA
BRANCH  24  27
ATOM     27  C   UNL A   1      34.409  31.188  27.848  1.00  0.00     0.039 A 
ATOM     28  C   UNL A   1      35.449  32.104  28.036  1.00  0.00     0.014 A 
ATOM     29  C   UNL A   1      34.559  29.869  28.283  1.00  0.00     0.014 A 
ATOM     30  C   UNL A   1      36.617  31.707  28.695  1.00  0.00     0.010 A 
ATOM     31  C   UNL A   1      35.687  29.500  29.015  1.00  0.00     0.010 A 
ATOM     32  C   UNL A   1      36.740  30.406  29.211  1.00  0.00    -0.014 A 
BRANCH  32  33
ATOM     33  C   UNL A   1      37.972  29.977  29.926  1.00  0.00     0.031 A 
ATOM     34  C   UNL A   1      38.264  30.493  31.313  1.00  0.00     0.074 A 
ATOM     35  C   UNL A   1      38.858  29.167  29.314  1.00  0.00     0.049 A 
ATOM     36  N   UNL A   1      39.288  30.241  32.087  1.00  0.00    -0.248 NA
ATOM     37  C   UNL A   1      37.294  31.435  31.896  1.00  0.00     0.031 C 
ATOM     38  C   UNL A   1      38.737  28.659  27.946  1.00  0.00     0.029 A 
ATOM     39  N   UNL A   1      40.048  28.643  29.758  1.00  0.00    -0.354 N 
ATOM     40  C   UNL A   1      39.104  31.015  33.228  1.00  0.00     0.074 A 
ATOM     41  C   UNL A   1      37.893  31.777  33.028  1.00  0.00     0.031 C 
ATOM     42  C   UNL A   1      39.801  27.889  27.667  1.00  0.00     0.029 A 
ATOM     43  C   UNL A   1      40.693  27.867  28.822  1.00  0.00     0.049 A 
ATOM     44  H   UNL A   1      40.406  28.807  30.660  1.00  0.00     0.167 HD
ATOM     45  C   UNL A   1      39.854  31.064  34.355  1.00  0.00     0.034 A 
ATOM     46  C   UNL A   1      41.869  27.212  28.886  1.00  0.00     0.034 A 
ATOM     47  C   UNL A   1      41.035  30.275  34.574  1.00  0.00     0.049 A 
ATOM     48  C   UNL A   1      42.660  27.246  30.167  1.00  0.00     0.074 A 
ATOM     49  C   UNL A   1      41.817  30.192  35.712  1.00  0.00     0.029 A 
ATOM     50  N   UNL A   1      41.610  29.433  33.634  1.00  0.00    -0.354 N 
ATOM     51  N   UNL A   1      42.386  27.863  31.291  1.00  0.00    -0.248 NA
ATOM     52  C   UNL A   1      43.900  26.457  30.204  1.00  0.00     0.031 C 
ATOM     53  C   UNL A   1      42.879  29.321  35.452  1.00  0.00     0.029 A 
ATOM     54  C   UNL A   1      42.738  28.831  34.164  1.00  0.00     0.049 A 
ATOM     55  H   UNL A   1      41.265  29.285  32.724  1.00  0.00     0.167 HD
ATOM     56  C   UNL A   1      43.391  27.500  32.181  1.00  0.00     0.074 A 
ATOM     57  C   UNL A   1      44.271  26.596  31.469  1.00  0.00     0.031 C 
ATOM     58  C   UNL A   1      43.573  27.888  33.467  1.00  0.00     0.034 A 
BRANCH  45  59
ATOM     59  C   UNL A   1      39.389  31.973  35.465  1.00  0.00     0.023 A 
ATOM     60  C   UNL A   1      38.494  31.482  36.439  1.00  0.00     0.012 A 
ATOM     61  C   UNL A   1      39.877  33.290  35.578  1.00  0.00     0.148 A 
ATOM     62  C   UNL A   1      38.061  32.299  37.484  1.00  0.00     0.002 A 
ATOM     63  C   UNL A   1      39.479  34.081  36.650  1.00  0.00     0.091 A 
ATOM     64  F   UNL A   1      40.712  33.746  34.634  1.00  0.00    -0.205 F 
ATOM     65  C   UNL A   1      38.561  33.593  37.595  1.00  0.00     0.022 A 
BRANCH  63  66
ATOM     66  S   UNL A   1      40.128  35.733  36.929  1.00  0.00     0.127 S 
ATOM     67  O   UNL A   1      41.569  35.483  36.952  1.00  0.00    -0.237 OA
ATOM     68  O   UNL A   1      39.654  36.453  35.745  1.00  0.00    -0.237 OA
ATOM     69  O   UNL A   1      39.551  36.185  38.186  1.00  0.00    -0.744 OA
ENDBRANCH  63  66
ENDBRANCH  45  59
BRANCH  46  70
ATOM     70  C   UNL A   1      42.339  26.405  27.724  1.00  0.00     0.023 A 
ATOM     71  C   UNL A   1      43.221  26.984  26.790  1.00  0.00     0.012 A 
ATOM     72  C   UNL A   1      41.931  25.070  27.547  1.00  0.00     0.148 A 
ATOM     73  C   UNL A   1      43.657  26.259  25.679  1.00  0.00     0.002 A 
ATOM     74  C   UNL A   1      42.413  24.335  26.470  1.00  0.00     0.091 A 
ATOM     75  F   UNL A   1      41.084  24.541  28.443  1.00  0.00    -0.205 F 
ATOM     76  C   UNL A   1      43.260  24.933  25.524  1.00  0.00     0.022 A 
BRANCH  74  77
ATOM     77  S   UNL A   1      42.060  22.587  26.261  1.00  0.00     0.127 S 
ATOM     78  O   UNL A   1      42.649  22.017  27.470  1.00  0.00    -0.237 OA
ATOM     79  O   UNL A   1      40.596  22.579  26.226  1.00  0.00    -0.237 OA
ATOM     80  O   UNL A   1      42.693  22.203  25.008  1.00  0.00    -0.744 OA
ENDBRANCH  74  77
ENDBRANCH  46  70
BRANCH  58  81
ATOM     81  C   UNL A   1      44.737  27.295  34.220  1.00  0.00     0.023 A 
ATOM     82  C   UNL A   1      45.992  27.936  34.205  1.00  0.00     0.012 A 
ATOM     83  C   UNL A   1      44.563  26.134  35.000  1.00  0.00     0.148 A 
ATOM     84  C   UNL A   1      47.066  27.407  34.922  1.00  0.00     0.002 A 
ATOM     85  C   UNL A   1      45.622  25.643  35.753  1.00  0.00     0.091 A 
ATOM     86  F   UNL A   1      43.367  25.527  34.987  1.00  0.00    -0.205 F 
ATOM     87  C   UNL A   1      46.878  26.269  35.705  1.00  0.00     0.022 A 
BRANCH  85  88
ATOM     88  S   UNL A   1      45.441  24.245  36.867  1.00  0.00     0.127 S 
ATOM     89  O   UNL A   1      44.954  23.204  35.962  1.00  0.00    -0.237 OA
ATOM     90  O   UNL A   1      46.811  24.047  37.343  1.00  0.00    -0.237 OA
ATOM     91  O   UNL A   1      44.503  24.672  37.896  1.00  0.00    -0.744 OA
ENDBRANCH  85  88
ENDBRANCH  58  81
ENDBRANCH  32  33
ENDBRANCH  24  27
ENDBRANCH  22  23
ENDBRANCH  21  22
ENDBRANCH  20  21
ENDBRANCH   3  20
TORSDOF 19
ENDMDL
MODEL 2
REMARK VINA RESULT:     -10.6      1.780      3.381
REMARK SMILES O=C(CCCCc1nc(C[C@H]2CCCO2)no1)NCCCNC(=O)c1ccc(-c2c3nc(c(-c4cccc(S(=O)(=O)[O-])c4F)c4ccc([nH]4)c(-c4cccc(S(=O)(=O)[O-])c4F)c4nc(c(-c5cccc(S(=O)(=O)[O-])c5F)c5ccc2[nH]5)C=C4)C=C3)cc1
REMARK SMILES IDX 1 1 2 2 18 3 3 5 4 6 5 7 6 8 7 9 8 10 17 11 9 12 16 13 10 14
REMARK SMILES IDX 11 15 12 16 15 17 13 18 14 19 19 20 20 21 21 22 22 23 23 24
REMARK SMILES IDX 24 26 25 27 26 28 87 29 27 30 86 31 28 32 29 33 30 34 80 35
REMARK SMILES IDX 31 36 85 37 79 38 81 39 32 40 84 41 78 42 77 43 33 45 65 46
REMARK SMILES IDX 45 47 64 48 46 49 49 50 63 51 82 52 47 53 48 54 62 56 83 57
REMARK SMILES IDX 50 58 34 59 35 60 43 61 36 62 38 63 44 64 37 65 39 66 40 67
REMARK SMILES IDX 41 68 42 69 66 70 67 71 75 72 68 73 70 74 76 75 69 76 71 77
REMARK SMILES IDX 72 78 73 79 74 80 51 81 52 82 60 83 53 84 55 85 61 86 54 87
REMARK SMILES IDX 56 88 57 89 58 90 59 91
REMARK H PARENT 18 4 22 25 81 44 49 55
REMARK Flexibility Score: inf
ROOT
ATOM      1  O   UNL A   1      29.811  25.574  26.527  1.00  0.00    -0.275 OA
ATOM      2  C   UNL A   1      30.162  26.313  25.612  1.00  0.00     0.219 C 
ATOM      3  N   UNL A   1      31.178  27.230  25.705  1.00  0.00    -0.356 N 
ATOM      4  H   UNL A   1      31.454  27.712  24.893  1.00  0.00     0.163 HD
ENDROOT
BRANCH   2   5
ATOM      5  C   UNL A   1      29.456  26.334  24.274  1.00  0.00     0.100 C 
BRANCH   5   6
ATOM      6  C   UNL A   1      29.945  27.499  23.411  1.00  0.00     0.010 C 
BRANCH   6   7
ATOM      7  C   UNL A   1      30.858  27.138  22.222  1.00  0.00     0.010 C 
BRANCH   7   8
ATOM      8  C   UNL A   1      32.368  27.234  22.481  1.00  0.00     0.100 C 
BRANCH   8   9
ATOM      9  C   UNL A   1      32.962  25.914  22.791  1.00  0.00     0.226 A 
ATOM     10  N   UNL A   1      32.840  25.185  23.875  1.00  0.00    -0.196 NA
ATOM     11  O   UNL A   1      33.850  25.405  21.889  1.00  0.00    -0.339 OA
ATOM     12  C   UNL A   1      33.762  24.199  23.662  1.00  0.00     0.174 A 
ATOM     13  N   UNL A   1      34.391  24.259  22.480  1.00  0.00    -0.062 NA
BRANCH  12  14
ATOM     14  C   UNL A   1      34.108  23.220  24.711  1.00  0.00     0.113 C 
BRANCH  14  15
ATOM     15  C   UNL A   1      34.236  21.788  24.191  1.00  0.00     0.126 C 
ATOM     16  C   UNL A   1      34.676  20.773  25.237  1.00  0.00     0.035 C 
ATOM     17  O   UNL A   1      32.921  21.355  23.770  1.00  0.00    -0.378 OA
ATOM     18  C   UNL A   1      33.372  20.401  25.897  1.00  0.00     0.031 C 
ATOM     19  C   UNL A   1      32.415  20.411  24.726  1.00  0.00     0.160 C 
ENDBRANCH  14  15
ENDBRANCH  12  14
ENDBRANCH   8   9
ENDBRANCH   7   8
ENDBRANCH   6   7
ENDBRANCH   5   6
ENDBRANCH   2   5
BRANCH   3  20
ATOM     20  C   UNL A   1      31.864  27.518  26.947  1.00  0.00     0.117 C 
BRANCH  20  21
ATOM     21  C   UNL A   1      31.878  29.005  27.268  1.00  0.00     0.042 C 
BRANCH  21  22
ATOM     22  C   UNL A   1      32.969  29.807  26.565  1.00  0.00     0.118 C 
BRANCH  22  23
ATOM     23  N   UNL A   1      32.898  31.237  26.825  1.00  0.00    -0.352 N 
ATOM     24  C   UNL A   1      33.716  32.025  27.598  1.00  0.00     0.251 C 
ATOM     25  H   UNL A   1      32.156  31.708  26.381  1.00  0.00     0.163 HD
ATOM     26  O   UNL A   1      33.405  33.200  27.795  1.00  0.00    -0.269 OA
BRANCH  24  27
ATOM     27  C   UNL A   1      34.949  31.475  28.209  1.00  0.00     0.039 A 
ATOM     28  C   UNL A   1      36.113  32.251  28.184  1.00  0.00     0.014 A 
ATOM     29  C   UNL A   1      34.978  30.200  28.777  1.00  0.00     0.014 A 
ATOM     30  C   UNL A   1      37.288  31.764  28.764  1.00  0.00     0.010 A 
ATOM     31  C   UNL A   1      36.126  29.753  29.430  1.00  0.00     0.010 A 
ATOM     32  C   UNL A   1      37.302  30.518  29.413  1.00  0.00    -0.014 A 
BRANCH  32  33
ATOM     33  C   UNL A   1      38.543  29.996  30.046  1.00  0.00     0.031 A 
ATOM     34  C   UNL A   1      38.956  30.474  31.415  1.00  0.00     0.074 A 
ATOM     35  C   UNL A   1      39.330  29.132  29.374  1.00  0.00     0.049 A 
ATOM     36  N   UNL A   1      40.007  30.143  32.122  1.00  0.00    -0.248 NA
ATOM     37  C   UNL A   1      38.094  31.476  32.064  1.00  0.00     0.031 C 
ATOM     38  C   UNL A   1      39.087  28.649  28.013  1.00  0.00     0.029 A 
ATOM     39  N   UNL A   1      40.505  28.521  29.738  1.00  0.00    -0.354 N 
ATOM     40  C   UNL A   1      39.950  30.916  33.276  1.00  0.00     0.074 A 
ATOM     41  C   UNL A   1      38.785  31.763  33.158  1.00  0.00     0.031 C 
ATOM     42  C   UNL A   1      40.075  27.809  27.662  1.00  0.00     0.029 A 
ATOM     43  C   UNL A   1      41.033  27.712  28.758  1.00  0.00     0.049 A 
ATOM     44  H   UNL A   1      40.929  28.650  30.617  1.00  0.00     0.167 HD
ATOM     45  C   UNL A   1      40.771  30.900  34.354  1.00  0.00     0.034 A 
ATOM     46  C   UNL A   1      42.162  26.975  28.744  1.00  0.00     0.034 A 
ATOM     47  C   UNL A   1      41.904  30.027  34.493  1.00  0.00     0.049 A 
ATOM     48  C   UNL A   1      43.032  26.940  29.973  1.00  0.00     0.074 A 
ATOM     49  C   UNL A   1      42.748  29.877  35.579  1.00  0.00     0.029 A 
ATOM     50  N   UNL A   1      42.358  29.157  33.513  1.00  0.00    -0.354 N 
ATOM     51  N   UNL A   1      42.873  27.563  31.116  1.00  0.00    -0.248 NA
ATOM     52  C   UNL A   1      44.214  26.066  29.926  1.00  0.00     0.031 C 
ATOM     53  C   UNL A   1      43.728  28.937  35.247  1.00  0.00     0.029 A 
ATOM     54  C   UNL A   1      43.471  28.472  33.967  1.00  0.00     0.049 A 
ATOM     55  H   UNL A   1      41.947  29.044  32.626  1.00  0.00     0.167 HD
ATOM     56  C   UNL A   1      43.904  27.121  31.938  1.00  0.00     0.074 A 
ATOM     57  C   UNL A   1      44.671  26.165  31.166  1.00  0.00     0.031 C 
ATOM     58  C   UNL A   1      44.193  27.480  33.213  1.00  0.00     0.034 A 
BRANCH  45  59
ATOM     59  C   UNL A   1      40.441  31.826  35.497  1.00  0.00     0.023 A 
ATOM     60  C   UNL A   1      41.233  32.973  35.717  1.00  0.00     0.012 A 
ATOM     61  C   UNL A   1      39.318  31.597  36.318  1.00  0.00     0.148 A 
ATOM     62  C   UNL A   1      40.939  33.853  36.759  1.00  0.00     0.002 A 
ATOM     63  C   UNL A   1      39.004  32.505  37.323  1.00  0.00     0.091 A 
ATOM     64  F   UNL A   1      38.587  30.493  36.107  1.00  0.00    -0.205 F 
ATOM     65  C   UNL A   1      39.820  33.624  37.553  1.00  0.00     0.022 A 
BRANCH  63  66
ATOM     66  S   UNL A   1      37.537  32.345  38.348  1.00  0.00     0.127 S 
ATOM     67  O   UNL A   1      37.964  33.010  39.579  1.00  0.00    -0.237 OA
ATOM     68  O   UNL A   1      36.538  33.082  37.572  1.00  0.00    -0.237 OA
ATOM     69  O   UNL A   1      37.282  30.916  38.465  1.00  0.00    -0.744 OA
ENDBRANCH  63  66
ENDBRANCH  45  59
BRANCH  46  70
ATOM     70  C   UNL A   1      42.500  26.150  27.549  1.00  0.00     0.023 A 
ATOM     71  C   UNL A   1      43.258  26.719  26.506  1.00  0.00     0.012 A 
ATOM     72  C   UNL A   1      42.090  24.808  27.447  1.00  0.00     0.148 A 
ATOM     73  C   UNL A   1      43.568  25.976  25.366  1.00  0.00     0.002 A 
ATOM     74  C   UNL A   1      42.449  24.057  26.334  1.00  0.00     0.091 A 
ATOM     75  F   UNL A   1      41.362  24.289  28.446  1.00  0.00    -0.205 F 
ATOM     76  C   UNL A   1      43.171  24.645  25.283  1.00  0.00     0.022 A 
BRANCH  74  77
ATOM     77  S   UNL A   1      42.094  22.302  26.201  1.00  0.00     0.127 S 
ATOM     78  O   UNL A   1      42.808  21.945  24.977  1.00  0.00    -0.237 OA
ATOM     79  O   UNL A   1      42.686  21.782  27.434  1.00  0.00    -0.237 OA
ATOM     80  O   UNL A   1      40.644  22.196  26.140  1.00  0.00    -0.744 OA
ENDBRANCH  74  77
ENDBRANCH  46  70
BRANCH  58  81
ATOM     81  C   UNL A   1      45.357  26.799  33.887  1.00  0.00     0.023 A 
ATOM     82  C   UNL A   1      46.652  27.344  33.788  1.00  0.00     0.012 A 
ATOM     83  C   UNL A   1      45.149  25.651  34.678  1.00  0.00     0.148 A 
ATOM     84  C   UNL A   1      47.729  26.734  34.431  1.00  0.00     0.002 A 
ATOM     85  C   UNL A   1      46.216  25.079  35.359  1.00  0.00     0.091 A 
ATOM     86  F   UNL A   1      43.913  25.135  34.745  1.00  0.00    -0.205 F 
ATOM     87  C   UNL A   1      47.509  25.610  35.226  1.00  0.00     0.022 A 
BRANCH  85  88
ATOM     88  S   UNL A   1      46.006  23.694  36.483  1.00  0.00     0.127 S 
ATOM     89  O   UNL A   1      44.936  24.178  37.355  1.00  0.00    -0.237 OA
ATOM     90  O   UNL A   1      45.612  22.615  35.576  1.00  0.00    -0.237 OA
ATOM     91  O   UNL A   1      47.299  23.499  37.125  1.00  0.00    -0.744 OA
ENDBRANCH  85  88
ENDBRANCH  58  81
ENDBRANCH  32  33
ENDBRANCH  24  27
ENDBRANCH  22  23
ENDBRANCH  21  22
ENDBRANCH  20  21
ENDBRANCH   3  20
TORSDOF 19
ENDMDL
MODEL 3
REMARK VINA RESULT:     -10.6      2.323      4.214
REMARK SMILES O=C(CCCCc1nc(C[C@H]2CCCO2)no1)NCCCNC(=O)c1ccc(-c2c3nc(c(-c4cccc(S(=O)(=O)[O-])c4F)c4ccc([nH]4)c(-c4cccc(S(=O)(=O)[O-])c4F)c4nc(c(-c5cccc(S(=O)(=O)[O-])c5F)c5ccc2[nH]5)C=C4)C=C3)cc1
REMARK SMILES IDX 1 1 2 2 18 3 3 5 4 6 5 7 6 8 7 9 8 10 17 11 9 12 16 13 10 14
REMARK SMILES IDX 11 15 12 16 15 17 13 18 14 19 19 20 20 21 21 22 22 23 23 24
REMARK SMILES IDX 24 26 25 27 26 28 87 29 27 30 86 31 28 32 29 33 30 34 80 35
REMARK SMILES IDX 31 36 85 37 79 38 81 39 32 40 84 41 78 42 77 43 33 45 65 46
REMARK SMILES IDX 45 47 64 48 46 49 49 50 63 51 82 52 47 53 48 54 62 56 83 57
REMARK SMILES IDX 50 58 34 59 35 60 43 61 36 62 38 63 44 64 37 65 39 66 40 67
REMARK SMILES IDX 41 68 42 69 66 70 67 71 75 72 68 73 70 74 76 75 69 76 71 77
REMARK SMILES IDX 72 78 73 79 74 80 51 81 52 82 60 83 53 84 55 85 61 86 54 87
REMARK SMILES IDX 56 88 57 89 58 90 59 91
REMARK H PARENT 18 4 22 25 81 44 49 55
REMARK Flexibility Score: inf
ROOT
ATOM      1  O   UNL A   1      32.264  24.724  26.495  1.00  0.00    -0.275 OA
ATOM      2  C   UNL A   1      33.016  25.459  25.862  1.00  0.00     0.219 C 
ATOM      3  N   UNL A   1      32.727  26.758  25.527  1.00  0.00    -0.356 N 
ATOM      4  H   UNL A   1      33.428  27.303  25.102  1.00  0.00     0.163 HD
ENDROOT
BRANCH   2   5
ATOM      5  C   UNL A   1      34.346  24.983  25.322  1.00  0.00     0.100 C 
BRANCH   5   6
ATOM      6  C   UNL A   1      34.343  24.955  23.792  1.00  0.00     0.010 C 
BRANCH   6   7
ATOM      7  C   UNL A   1      34.428  23.565  23.130  1.00  0.00     0.010 C 
BRANCH   7   8
ATOM      8  C   UNL A   1      35.067  22.455  23.977  1.00  0.00     0.100 C 
BRANCH   8   9
ATOM      9  C   UNL A   1      34.064  21.477  24.455  1.00  0.00     0.226 A 
ATOM     10  N   UNL A   1      34.189  20.540  25.365  1.00  0.00    -0.196 NA
ATOM     11  O   UNL A   1      32.865  21.446  23.804  1.00  0.00    -0.339 OA
ATOM     12  C   UNL A   1      33.022  19.844  25.221  1.00  0.00     0.174 A 
ATOM     13  N   UNL A   1      32.172  20.345  24.315  1.00  0.00    -0.062 NA
BRANCH  12  14
ATOM     14  C   UNL A   1      32.783  18.573  25.935  1.00  0.00     0.113 C 
BRANCH  14  15
ATOM     15  C   UNL A   1      32.605  17.374  25.005  1.00  0.00     0.126 C 
ATOM     16  C   UNL A   1      33.485  17.402  23.763  1.00  0.00     0.035 C 
ATOM     17  O   UNL A   1      33.011  16.190  25.732  1.00  0.00    -0.378 OA
ATOM     18  C   UNL A   1      34.774  16.803  24.266  1.00  0.00     0.031 C 
ATOM     19  C   UNL A   1      34.275  15.741  25.221  1.00  0.00     0.160 C 
ENDBRANCH  14  15
ENDBRANCH  12  14
ENDBRANCH   8   9
ENDBRANCH   7   8
ENDBRANCH   6   7
ENDBRANCH   5   6
ENDBRANCH   2   5
BRANCH   3  20
ATOM     20  C   UNL A   1      31.435  27.363  25.772  1.00  0.00     0.117 C 
BRANCH  20  21
ATOM     21  C   UNL A   1      31.405  28.835  25.392  1.00  0.00     0.042 C 
BRANCH  21  22
ATOM     22  C   UNL A   1      32.669  29.617  25.738  1.00  0.00     0.118 C 
BRANCH  22  23
ATOM     23  N   UNL A   1      32.414  31.002  26.106  1.00  0.00    -0.352 N 
ATOM     24  C   UNL A   1      33.058  31.793  27.026  1.00  0.00     0.251 C 
ATOM     25  H   UNL A   1      31.672  31.434  25.625  1.00  0.00     0.163 HD
ATOM     26  O   UNL A   1      32.600  32.906  27.285  1.00  0.00    -0.269 OA
BRANCH  24  27
ATOM     27  C   UNL A   1      34.278  31.317  27.720  1.00  0.00     0.039 A 
ATOM     28  C   UNL A   1      35.312  32.228  27.959  1.00  0.00     0.014 A 
ATOM     29  C   UNL A   1      34.426  29.983  28.109  1.00  0.00     0.014 A 
ATOM     30  C   UNL A   1      36.469  31.811  28.624  1.00  0.00     0.010 A 
ATOM     31  C   UNL A   1      35.542  29.591  28.846  1.00  0.00     0.010 A 
ATOM     32  C   UNL A   1      36.588  30.492  29.094  1.00  0.00    -0.014 A 
BRANCH  32  33
ATOM     33  C   UNL A   1      37.809  30.041  29.814  1.00  0.00     0.031 A 
ATOM     34  C   UNL A   1      38.090  30.529  31.213  1.00  0.00     0.074 A 
ATOM     35  C   UNL A   1      38.696  29.234  29.197  1.00  0.00     0.049 A 
ATOM     36  N   UNL A   1      39.104  30.256  31.994  1.00  0.00    -0.248 NA
ATOM     37  C   UNL A   1      37.121  31.468  31.802  1.00  0.00     0.031 C 
ATOM     38  C   UNL A   1      38.585  28.752  27.819  1.00  0.00     0.029 A 
ATOM     39  N   UNL A   1      39.876  28.693  29.644  1.00  0.00    -0.354 N 
ATOM     40  C   UNL A   1      38.914  31.011  33.146  1.00  0.00     0.074 A 
ATOM     41  C   UNL A   1      37.711  31.786  32.947  1.00  0.00     0.031 C 
ATOM     42  C   UNL A   1      39.646  27.978  27.538  1.00  0.00     0.029 A 
ATOM     43  C   UNL A   1      40.525  27.929  28.701  1.00  0.00     0.049 A 
ATOM     44  H   UNL A   1      40.226  28.838  30.552  1.00  0.00     0.167 HD
ATOM     45  C   UNL A   1      39.652  31.034  34.281  1.00  0.00     0.034 A 
ATOM     46  C   UNL A   1      41.696  27.263  28.766  1.00  0.00     0.034 A 
ATOM     47  C   UNL A   1      40.825  30.231  34.499  1.00  0.00     0.049 A 
ATOM     48  C   UNL A   1      42.473  27.269  30.056  1.00  0.00     0.074 A 
ATOM     49  C   UNL A   1      41.594  30.122  35.644  1.00  0.00     0.029 A 
ATOM     50  N   UNL A   1      41.403  29.402  33.550  1.00  0.00    -0.354 N 
ATOM     51  N   UNL A   1      42.191  27.868  31.188  1.00  0.00    -0.248 NA
ATOM     52  C   UNL A   1      43.707  26.469  30.092  1.00  0.00     0.031 C 
ATOM     53  C   UNL A   1      42.652  29.248  35.379  1.00  0.00     0.029 A 
ATOM     54  C   UNL A   1      42.520  28.782  34.081  1.00  0.00     0.049 A 
ATOM     55  H   UNL A   1      41.067  29.273  32.634  1.00  0.00     0.167 HD
ATOM     56  C   UNL A   1      43.184  27.481  32.082  1.00  0.00     0.074 A 
ATOM     57  C   UNL A   1      44.065  26.583  31.363  1.00  0.00     0.031 C 
ATOM     58  C   UNL A   1      43.356  27.844  33.377  1.00  0.00     0.034 A 
BRANCH  45  59
ATOM     59  C   UNL A   1      39.182  31.926  35.403  1.00  0.00     0.023 A 
ATOM     60  C   UNL A   1      38.245  31.438  36.338  1.00  0.00     0.012 A 
ATOM     61  C   UNL A   1      39.706  33.224  35.566  1.00  0.00     0.148 A 
ATOM     62  C   UNL A   1      37.806  32.239  37.392  1.00  0.00     0.002 A 
ATOM     63  C   UNL A   1      39.300  33.998  36.647  1.00  0.00     0.091 A 
ATOM     64  F   UNL A   1      40.580  33.680  34.658  1.00  0.00    -0.205 F 
ATOM     65  C   UNL A   1      38.341  33.513  37.552  1.00  0.00     0.022 A 
BRANCH  63  66
ATOM     66  S   UNL A   1      39.990  35.622  36.989  1.00  0.00     0.127 S 
ATOM     67  O   UNL A   1      39.313  35.972  38.238  1.00  0.00    -0.237 OA
ATOM     68  O   UNL A   1      41.417  35.325  37.132  1.00  0.00    -0.237 OA
ATOM     69  O   UNL A   1      39.653  36.452  35.841  1.00  0.00    -0.744 OA
ENDBRANCH  63  66
ENDBRANCH  45  59
BRANCH  46  70
ATOM     70  C   UNL A   1      42.172  26.473  27.595  1.00  0.00     0.023 A 
ATOM     71  C   UNL A   1      42.935  27.108  26.595  1.00  0.00     0.012 A 
ATOM     72  C   UNL A   1      41.886  25.101  27.473  1.00  0.00     0.148 A 
ATOM     73  C   UNL A   1      43.372  26.398  25.476  1.00  0.00     0.002 A 
ATOM     74  C   UNL A   1      42.372  24.386  26.384  1.00  0.00     0.091 A 
ATOM     75  F   UNL A   1      41.151  24.518  28.431  1.00  0.00    -0.205 F 
ATOM     76  C   UNL A   1      43.098  25.037  25.374  1.00  0.00     0.022 A 
BRANCH  74  77
ATOM     77  S   UNL A   1      42.180  22.607  26.236  1.00  0.00     0.127 S 
ATOM     78  O   UNL A   1      42.807  22.136  27.469  1.00  0.00    -0.237 OA
ATOM     79  O   UNL A   1      40.724  22.466  26.192  1.00  0.00    -0.237 OA
ATOM     80  O   UNL A   1      42.857  22.238  25.002  1.00  0.00    -0.744 OA
ENDBRANCH  74  77
ENDBRANCH  46  70
BRANCH  58  81
ATOM     81  C   UNL A   1      44.506  27.229  34.131  1.00  0.00     0.023 A 
ATOM     82  C   UNL A   1      45.760  27.872  34.161  1.00  0.00     0.012 A 
ATOM     83  C   UNL A   1      44.322  26.042  34.868  1.00  0.00     0.148 A 
ATOM     84  C   UNL A   1      46.821  27.322  34.880  1.00  0.00     0.002 A 
ATOM     85  C   UNL A   1      45.367  25.528  35.624  1.00  0.00     0.091 A 
ATOM     86  F   UNL A   1      43.127  25.433  34.812  1.00  0.00    -0.205 F 
ATOM     87  C   UNL A   1      46.622  26.158  35.620  1.00  0.00     0.022 A 
BRANCH  85  88
ATOM     88  S   UNL A   1      45.169  24.093  36.687  1.00  0.00     0.127 S 
ATOM     89  O   UNL A   1      44.543  23.134  35.778  1.00  0.00    -0.237 OA
ATOM     90  O   UNL A   1      46.553  23.778  37.046  1.00  0.00    -0.237 OA
ATOM     91  O   UNL A   1      44.343  24.532  37.803  1.00  0.00    -0.744 OA
ENDBRANCH  85  88
ENDBRANCH  58  81
ENDBRANCH  32  33
ENDBRANCH  24  27
ENDBRANCH  22  23
ENDBRANCH  21  22
ENDBRANCH  20  21
ENDBRANCH   3  20
TORSDOF 19
ENDMDL
