MODEL 1
REMARK VINA RESULT:     -12.3      0.000      0.000
REMARK SMILES CN(C)C(=O)c1ccc2c(c1)N(CC(=O)NCCCNC(=O)c1ccc(-c3c4nc(c(-c5cccc(S(=O)(=O)[O-])c5F)c5ccc([nH]5)c(-c5cccc(S(=O)(=O)[O-])c5F)c5nc(c(-c6cccc(S(=O)(=O)[O-])c6F)c6ccc3[nH]6)C=C5)C=C4)cc1)C(=O)[C@@H]1CCCCN21
REMARK SMILES IDX 18 1 17 2 16 3 14 4 15 5 13 7 12 8 6 9 7 10 11 11 8 12 10 13
REMARK SMILES IDX 9 14 93 15 86 16 88 17 92 18 87 19 89 20 91 21 90 22 4 23
REMARK SMILES IDX 1 24 2 25 3 26 5 27 19 28 20 29 21 30 22 32 23 33 24 34
REMARK SMILES IDX 85 35 25 36 84 37 26 38 27 39 28 40 78 41 29 42 83 43 77 44
REMARK SMILES IDX 79 45 30 46 82 47 76 48 75 49 31 51 63 52 43 53 62 54 44 55
REMARK SMILES IDX 47 56 61 57 80 58 45 59 46 60 60 62 81 63 48 64 32 65 33 66
REMARK SMILES IDX 41 67 34 68 36 69 42 70 35 71 37 72 38 73 39 74 40 75 64 76
REMARK SMILES IDX 65 77 73 78 66 79 68 80 74 81 67 82 69 83 70 84 71 85 72 86
REMARK SMILES IDX 49 87 50 88 58 89 51 90 53 91 59 92 52 93 54 94 55 95 56 96
REMARK SMILES IDX 57 97
REMARK H PARENT 16 6 20 31 79 50 47 61
REMARK Flexibility Score: inf
ROOT
ATOM      1  C   UNL A   1      31.385  32.153  26.866  1.00  0.00     0.042 C 
ENDROOT
BRANCH   1   2
ATOM      2  C   UNL A   1      31.686  30.659  26.883  1.00  0.00     0.117 C 
BRANCH   2   3
ATOM      3  N   UNL A   1      33.081  30.378  27.154  1.00  0.00    -0.354 N 
ATOM      4  C   UNL A   1      33.990  29.693  26.409  1.00  0.00     0.240 C 
ATOM      5  O   UNL A   1      35.167  29.726  26.784  1.00  0.00    -0.273 OA
ATOM      6  H   UNL A   1      33.424  30.738  28.005  1.00  0.00     0.163 HD
BRANCH   4   7
ATOM      7  C   UNL A   1      33.610  28.997  25.095  1.00  0.00     0.225 C 
BRANCH   7   8
ATOM      8  N   UNL A   1      32.705  27.843  25.164  1.00  0.00    -0.299 N 
ATOM      9  C   UNL A   1      29.857  28.957  22.999  1.00  0.00     0.042 A 
ATOM     10  C   UNL A   1      29.044  27.836  23.006  1.00  0.00     0.016 A 
ATOM     11  C   UNL A   1      31.033  28.976  23.751  1.00  0.00     0.042 A 
ATOM     12  C   UNL A   1      29.438  26.715  23.738  1.00  0.00     0.029 A 
ATOM     13  C   UNL A   1      31.449  27.841  24.476  1.00  0.00     0.069 A 
ATOM     14  C   UNL A   1      30.636  26.676  24.485  1.00  0.00     0.062 A 
ATOM     15  N   UNL A   1      31.000  25.537  25.200  1.00  0.00    -0.358 N 
ATOM     16  C   UNL A   1      33.084  26.773  25.964  1.00  0.00     0.250 C 
ATOM     17  C   UNL A   1      32.064  25.652  26.205  1.00  0.00     0.172 C 
ATOM     18  C   UNL A   1      30.404  24.222  24.927  1.00  0.00     0.117 C 
ATOM     19  O   UNL A   1      34.174  26.760  26.550  1.00  0.00    -0.272 OA
ATOM     20  C   UNL A   1      32.816  24.322  26.325  1.00  0.00     0.035 C 
ATOM     21  C   UNL A   1      30.574  23.190  26.043  1.00  0.00     0.022 C 
ATOM     22  C   UNL A   1      31.882  23.235  26.816  1.00  0.00     0.004 C 
BRANCH   9  23
ATOM     23  C   UNL A   1      29.445  30.134  22.207  1.00  0.00     0.253 C 
ATOM     24  C   UNL A   1      28.527  32.391  22.096  1.00  0.00     0.146 C 
ATOM     25  N   UNL A   1      29.008  31.271  22.882  1.00  0.00    -0.345 N 
ATOM     26  C   UNL A   1      29.092  31.469  24.323  1.00  0.00     0.146 C 
ATOM     27  O   UNL A   1      29.520  30.052  20.984  1.00  0.00    -0.269 OA
ENDBRANCH   9  23
ENDBRANCH   7   8
ENDBRANCH   4   7
ENDBRANCH   2   3
ENDBRANCH   1   2
BRANCH   1  28
ATOM     28  C   UNL A   1      32.626  33.044  26.841  1.00  0.00     0.118 C 
BRANCH  28  29
ATOM     29  N   UNL A   1      32.533  34.194  27.731  1.00  0.00    -0.352 N 
ATOM     30  C   UNL A   1      33.293  34.538  28.826  1.00  0.00     0.251 C 
ATOM     31  H   UNL A   1      31.812  34.828  27.513  1.00  0.00     0.163 HD
ATOM     32  O   UNL A   1      32.950  35.495  29.518  1.00  0.00    -0.269 OA
BRANCH  30  33
ATOM     33  C   UNL A   1      34.487  33.746  29.193  1.00  0.00     0.039 A 
ATOM     34  C   UNL A   1      34.366  32.548  29.899  1.00  0.00     0.014 A 
ATOM     35  C   UNL A   1      35.753  34.214  28.825  1.00  0.00     0.014 A 
ATOM     36  C   UNL A   1      35.505  31.919  30.392  1.00  0.00     0.010 A 
ATOM     37  C   UNL A   1      36.898  33.534  29.252  1.00  0.00     0.010 A 
ATOM     38  C   UNL A   1      36.785  32.413  30.087  1.00  0.00    -0.014 A 
BRANCH  38  39
ATOM     39  C   UNL A   1      37.982  31.751  30.671  1.00  0.00     0.031 A 
ATOM     40  C   UNL A   1      38.405  32.034  32.089  1.00  0.00     0.074 A 
ATOM     41  C   UNL A   1      38.657  30.842  29.940  1.00  0.00     0.049 A 
ATOM     42  N   UNL A   1      39.389  31.508  32.771  1.00  0.00    -0.248 NA
ATOM     43  C   UNL A   1      37.625  33.031  32.840  1.00  0.00     0.031 C 
ATOM     44  C   UNL A   1      38.353  30.488  28.553  1.00  0.00     0.029 A 
ATOM     45  N   UNL A   1      39.717  30.036  30.266  1.00  0.00    -0.354 N 
ATOM     46  C   UNL A   1      39.367  32.127  34.015  1.00  0.00     0.074 A 
ATOM     47  C   UNL A   1      38.280  33.080  33.993  1.00  0.00     0.031 C 
ATOM     48  C   UNL A   1      39.170  29.497  28.165  1.00  0.00     0.029 A 
ATOM     49  C   UNL A   1      40.086  29.179  29.257  1.00  0.00     0.049 A 
ATOM     50  H   UNL A   1      40.171  30.068  31.140  1.00  0.00     0.167 HD
ATOM     51  C   UNL A   1      40.161  31.904  35.088  1.00  0.00     0.034 A 
ATOM     52  C   UNL A   1      41.049  28.238  29.210  1.00  0.00     0.034 A 
ATOM     53  C   UNL A   1      41.214  30.927  35.132  1.00  0.00     0.049 A 
ATOM     54  C   UNL A   1      41.916  28.009  30.412  1.00  0.00     0.074 A 
ATOM     55  C   UNL A   1      42.059  30.623  36.185  1.00  0.00     0.029 A 
ATOM     56  N   UNL A   1      41.560  30.088  34.085  1.00  0.00    -0.354 N 
ATOM     57  N   UNL A   1      41.846  28.573  31.594  1.00  0.00    -0.248 NA
ATOM     58  C   UNL A   1      42.986  27.010  30.284  1.00  0.00     0.031 C 
ATOM     59  C   UNL A   1      42.915  29.594  35.775  1.00  0.00     0.029 A 
ATOM     60  C   UNL A   1      42.600  29.260  34.468  1.00  0.00     0.049 A 
ATOM     61  H   UNL A   1      41.129  30.082  33.199  1.00  0.00     0.167 HD
ATOM     62  C   UNL A   1      42.855  27.995  32.351  1.00  0.00     0.074 A 
ATOM     63  C   UNL A   1      43.510  27.020  31.504  1.00  0.00     0.031 C 
ATOM     64  C   UNL A   1      43.217  28.265  33.628  1.00  0.00     0.034 A 
BRANCH  51  65
ATOM     65  C   UNL A   1      39.880  32.687  36.341  1.00  0.00     0.023 A 
ATOM     66  C   UNL A   1      40.554  33.908  36.546  1.00  0.00     0.012 A 
ATOM     67  C   UNL A   1      38.906  32.266  37.266  1.00  0.00     0.148 A 
ATOM     68  C   UNL A   1      40.272  34.694  37.662  1.00  0.00     0.002 A 
ATOM     69  C   UNL A   1      38.612  33.068  38.363  1.00  0.00     0.091 A 
ATOM     70  F   UNL A   1      38.292  31.093  37.057  1.00  0.00    -0.205 F 
ATOM     71  C   UNL A   1      39.295  34.279  38.565  1.00  0.00     0.022 A 
BRANCH  69  72
ATOM     72  S   UNL A   1      37.337  32.652  39.559  1.00  0.00     0.127 S 
ATOM     73  O   UNL A   1      37.476  33.741  40.526  1.00  0.00    -0.237 OA
ATOM     74  O   UNL A   1      36.122  32.709  38.746  1.00  0.00    -0.237 OA
ATOM     75  O   UNL A   1      37.673  31.327  40.061  1.00  0.00    -0.744 OA
ENDBRANCH  69  72
ENDBRANCH  51  65
BRANCH  52  76
ATOM     76  C   UNL A   1      41.180  27.403  27.986  1.00  0.00     0.023 A 
ATOM     77  C   UNL A   1      41.812  27.947  26.852  1.00  0.00     0.012 A 
ATOM     78  C   UNL A   1      40.782  26.053  27.979  1.00  0.00     0.148 A 
ATOM     79  C   UNL A   1      42.052  27.155  25.729  1.00  0.00     0.002 A 
ATOM     80  C   UNL A   1      41.063  25.259  26.874  1.00  0.00     0.091 A 
ATOM     81  F   UNL A   1      40.183  25.565  29.073  1.00  0.00    -0.205 F 
ATOM     82  C   UNL A   1      41.690  25.809  25.745  1.00  0.00     0.022 A 
BRANCH  80  83
ATOM     83  S   UNL A   1      40.745  23.492  26.844  1.00  0.00     0.127 S 
ATOM     84  O   UNL A   1      41.488  23.074  25.658  1.00  0.00    -0.237 OA
ATOM     85  O   UNL A   1      41.323  23.065  28.118  1.00  0.00    -0.237 OA
ATOM     86  O   UNL A   1      39.298  23.349  26.753  1.00  0.00    -0.744 OA
ENDBRANCH  80  83
ENDBRANCH  52  76
BRANCH  64  87
ATOM     87  C   UNL A   1      44.377  27.507  34.208  1.00  0.00     0.023 A 
ATOM     88  C   UNL A   1      45.669  28.058  34.116  1.00  0.00     0.012 A 
ATOM     89  C   UNL A   1      44.173  26.325  34.944  1.00  0.00     0.148 A 
ATOM     90  C   UNL A   1      46.748  27.438  34.747  1.00  0.00     0.002 A 
ATOM     91  C   UNL A   1      45.247  25.729  35.596  1.00  0.00     0.091 A 
ATOM     92  F   UNL A   1      42.934  25.817  35.007  1.00  0.00    -0.205 F 
ATOM     93  C   UNL A   1      46.535  26.282  35.494  1.00  0.00     0.022 A 
BRANCH  91  94
ATOM     94  S   UNL A   1      45.064  24.279  36.640  1.00  0.00     0.127 S 
ATOM     95  O   UNL A   1      44.090  24.743  37.626  1.00  0.00    -0.237 OA
ATOM     96  O   UNL A   1      44.553  23.283  35.697  1.00  0.00    -0.237 OA
ATOM     97  O   UNL A   1      46.391  23.991  37.168  1.00  0.00    -0.744 OA
ENDBRANCH  91  94
ENDBRANCH  64  87
ENDBRANCH  38  39
ENDBRANCH  30  33
ENDBRANCH  28  29
ENDBRANCH   1  28
TORSDOF 15
ENDMDL
MODEL 2
REMARK VINA RESULT:     -12.3      1.924      2.343
REMARK SMILES CN(C)C(=O)c1ccc2c(c1)N(CC(=O)NCCCNC(=O)c1ccc(-c3c4nc(c(-c5cccc(S(=O)(=O)[O-])c5F)c5ccc([nH]5)c(-c5cccc(S(=O)(=O)[O-])c5F)c5nc(c(-c6cccc(S(=O)(=O)[O-])c6F)c6ccc3[nH]6)C=C5)C=C4)cc1)C(=O)[C@@H]1CCCCN21
REMARK SMILES IDX 18 1 17 2 16 3 14 4 15 5 13 7 12 8 6 9 7 10 11 11 8 12 10 13
REMARK SMILES IDX 9 14 93 15 86 16 88 17 92 18 87 19 89 20 91 21 90 22 4 23
REMARK SMILES IDX 1 24 2 25 3 26 5 27 19 28 20 29 21 30 22 32 23 33 24 34
REMARK SMILES IDX 85 35 25 36 84 37 26 38 27 39 28 40 78 41 29 42 83 43 77 44
REMARK SMILES IDX 79 45 30 46 82 47 76 48 75 49 31 51 63 52 43 53 62 54 44 55
REMARK SMILES IDX 47 56 61 57 80 58 45 59 46 60 60 62 81 63 48 64 32 65 33 66
REMARK SMILES IDX 41 67 34 68 36 69 42 70 35 71 37 72 38 73 39 74 40 75 64 76
REMARK SMILES IDX 65 77 73 78 66 79 68 80 74 81 67 82 69 83 70 84 71 85 72 86
REMARK SMILES IDX 49 87 50 88 58 89 51 90 53 91 59 92 52 93 54 94 55 95 56 96
REMARK SMILES IDX 57 97
REMARK H PARENT 16 6 20 31 79 50 47 61
REMARK Flexibility Score: inf
ROOT
ATOM      1  C   UNL A   1      31.765  32.119  26.728  1.00  0.00     0.042 C 
ENDROOT
BRANCH   1   2
ATOM      2  C   UNL A   1      31.766  30.607  26.916  1.00  0.00     0.117 C 
BRANCH   2   3
ATOM      3  N   UNL A   1      33.105  30.058  26.986  1.00  0.00    -0.354 N 
ATOM      4  C   UNL A   1      33.517  28.763  26.916  1.00  0.00     0.240 C 
ATOM      5  O   UNL A   1      34.734  28.562  26.841  1.00  0.00    -0.273 OA
ATOM      6  H   UNL A   1      33.824  30.721  27.099  1.00  0.00     0.163 HD
BRANCH   4   7
ATOM      7  C   UNL A   1      32.527  27.595  26.821  1.00  0.00     0.225 C 
BRANCH   7   8
ATOM      8  N   UNL A   1      32.476  26.838  25.564  1.00  0.00    -0.299 N 
ATOM      9  C   UNL A   1      30.209  28.962  23.469  1.00  0.00     0.042 A 
ATOM     10  C   UNL A   1      30.226  28.285  22.262  1.00  0.00     0.016 A 
ATOM     11  C   UNL A   1      30.906  28.457  24.567  1.00  0.00     0.042 A 
ATOM     12  C   UNL A   1      30.984  27.119  22.146  1.00  0.00     0.029 A 
ATOM     13  C   UNL A   1      31.690  27.291  24.456  1.00  0.00     0.069 A 
ATOM     14  C   UNL A   1      31.733  26.589  23.221  1.00  0.00     0.062 A 
ATOM     15  N   UNL A   1      32.481  25.424  23.068  1.00  0.00    -0.358 N 
ATOM     16  C   UNL A   1      33.174  25.639  25.503  1.00  0.00     0.250 C 
ATOM     17  C   UNL A   1      32.969  24.743  24.274  1.00  0.00     0.172 C 
ATOM     18  C   UNL A   1      32.853  24.903  21.745  1.00  0.00     0.117 C 
ATOM     19  O   UNL A   1      33.868  25.248  26.451  1.00  0.00    -0.272 OA
ATOM     20  C   UNL A   1      34.286  24.020  23.970  1.00  0.00     0.035 C 
ATOM     21  C   UNL A   1      33.284  23.436  21.724  1.00  0.00     0.022 C 
ATOM     22  C   UNL A   1      34.062  22.939  22.932  1.00  0.00     0.004 C 
BRANCH   9  23
ATOM     23  C   UNL A   1      29.421  30.208  23.580  1.00  0.00     0.253 C 
ATOM     24  C   UNL A   1      27.306  31.399  23.345  1.00  0.00     0.146 C 
ATOM     25  N   UNL A   1      28.055  30.157  23.316  1.00  0.00    -0.345 N 
ATOM     26  C   UNL A   1      27.290  28.934  23.113  1.00  0.00     0.146 C 
ATOM     27  O   UNL A   1      30.017  31.230  23.912  1.00  0.00    -0.269 OA
ENDBRANCH   9  23
ENDBRANCH   7   8
ENDBRANCH   4   7
ENDBRANCH   2   3
ENDBRANCH   1   2
BRANCH   1  28
ATOM     28  C   UNL A   1      32.907  32.842  27.441  1.00  0.00     0.118 C 
BRANCH  28  29
ATOM     29  N   UNL A   1      32.569  34.198  27.853  1.00  0.00    -0.352 N 
ATOM     30  C   UNL A   1      33.121  34.998  28.828  1.00  0.00     0.251 C 
ATOM     31  H   UNL A   1      31.827  34.609  27.353  1.00  0.00     0.163 HD
ATOM     32  O   UNL A   1      32.585  36.071  29.098  1.00  0.00    -0.269 OA
BRANCH  30  33
ATOM     33  C   UNL A   1      34.322  34.559  29.571  1.00  0.00     0.039 A 
ATOM     34  C   UNL A   1      35.601  34.748  29.044  1.00  0.00     0.014 A 
ATOM     35  C   UNL A   1      34.165  33.946  30.818  1.00  0.00     0.014 A 
ATOM     36  C   UNL A   1      36.698  34.165  29.671  1.00  0.00     0.010 A 
ATOM     37  C   UNL A   1      35.280  33.432  31.488  1.00  0.00     0.010 A 
ATOM     38  C   UNL A   1      36.549  33.486  30.893  1.00  0.00    -0.014 A 
BRANCH  38  39
ATOM     39  C   UNL A   1      37.730  32.829  31.513  1.00  0.00     0.031 A 
ATOM     40  C   UNL A   1      38.201  33.227  32.887  1.00  0.00     0.074 A 
ATOM     41  C   UNL A   1      38.344  31.822  30.861  1.00  0.00     0.049 A 
ATOM     42  N   UNL A   1      39.178  32.724  33.597  1.00  0.00    -0.248 NA
ATOM     43  C   UNL A   1      37.487  34.329  33.554  1.00  0.00     0.031 C 
ATOM     44  C   UNL A   1      37.988  31.349  29.522  1.00  0.00     0.029 A 
ATOM     45  N   UNL A   1      39.375  31.002  31.242  1.00  0.00    -0.354 N 
ATOM     46  C   UNL A   1      39.216  33.461  34.774  1.00  0.00     0.074 A 
ATOM     47  C   UNL A   1      38.173  34.458  34.682  1.00  0.00     0.031 C 
ATOM     48  C   UNL A   1      38.749  30.288  29.217  1.00  0.00     0.029 A 
ATOM     49  C   UNL A   1      39.678  30.034  30.314  1.00  0.00     0.049 A 
ATOM     50  H   UNL A   1      39.851  31.097  32.098  1.00  0.00     0.167 HD
ATOM     51  C   UNL A   1      40.027  33.306  35.847  1.00  0.00     0.034 A 
ATOM     52  C   UNL A   1      40.595  29.048  30.339  1.00  0.00     0.034 A 
ATOM     53  C   UNL A   1      41.035  32.289  35.964  1.00  0.00     0.049 A 
ATOM     54  C   UNL A   1      41.482  28.896  31.540  1.00  0.00     0.074 A 
ATOM     55  C   UNL A   1      41.893  32.048  37.023  1.00  0.00     0.029 A 
ATOM     56  N   UNL A   1      41.316  31.337  34.997  1.00  0.00    -0.354 N 
ATOM     57  N   UNL A   1      41.468  29.575  32.661  1.00  0.00    -0.248 NA
ATOM     58  C   UNL A   1      42.503  27.839  31.487  1.00  0.00     0.031 C 
ATOM     59  C   UNL A   1      42.690  30.946  36.698  1.00  0.00     0.029 A 
ATOM     60  C   UNL A   1      42.327  30.501  35.438  1.00  0.00     0.049 A 
ATOM     61  H   UNL A   1      40.863  31.265  34.126  1.00  0.00     0.167 HD
ATOM     62  C   UNL A   1      42.470  29.026  33.450  1.00  0.00     0.074 A 
ATOM     63  C   UNL A   1      43.058  27.943  32.689  1.00  0.00     0.031 C 
ATOM     64  C   UNL A   1      42.876  29.402  34.687  1.00  0.00     0.034 A 
BRANCH  51  65
ATOM     65  C   UNL A   1      39.815  34.220  37.022  1.00  0.00     0.023 A 
ATOM     66  C   UNL A   1      40.167  35.579  36.901  1.00  0.00     0.012 A 
ATOM     67  C   UNL A   1      39.201  33.763  38.204  1.00  0.00     0.148 A 
ATOM     68  C   UNL A   1      39.925  36.469  37.945  1.00  0.00     0.002 A 
ATOM     69  C   UNL A   1      38.938  34.663  39.231  1.00  0.00     0.091 A 
ATOM     70  F   UNL A   1      38.889  32.463  38.301  1.00  0.00    -0.205 F 
ATOM     71  C   UNL A   1      39.302  36.014  39.105  1.00  0.00     0.022 A 
BRANCH  69  72
ATOM     72  S   UNL A   1      38.095  34.191  40.747  1.00  0.00     0.127 S 
ATOM     73  O   UNL A   1      36.971  33.413  40.226  1.00  0.00    -0.237 OA
ATOM     74  O   UNL A   1      39.117  33.402  41.434  1.00  0.00    -0.237 OA
ATOM     75  O   UNL A   1      37.736  35.436  41.411  1.00  0.00    -0.744 OA
ENDBRANCH  69  72
ENDBRANCH  51  65
BRANCH  52  76
ATOM     76  C   UNL A   1      40.657  28.093  29.201  1.00  0.00     0.023 A 
ATOM     77  C   UNL A   1      39.698  27.065  29.119  1.00  0.00     0.012 A 
ATOM     78  C   UNL A   1      41.583  28.264  28.155  1.00  0.00     0.148 A 
ATOM     79  C   UNL A   1      39.659  26.224  28.007  1.00  0.00     0.002 A 
ATOM     80  C   UNL A   1      41.509  27.451  27.032  1.00  0.00     0.091 A 
ATOM     81  F   UNL A   1      42.482  29.252  28.262  1.00  0.00    -0.205 F 
ATOM     82  C   UNL A   1      40.554  26.424  26.959  1.00  0.00     0.022 A 
BRANCH  80  83
ATOM     83  S   UNL A   1      42.538  27.704  25.581  1.00  0.00     0.127 S 
ATOM     84  O   UNL A   1      42.262  26.498  24.804  1.00  0.00    -0.237 OA
ATOM     85  O   UNL A   1      41.973  28.937  25.030  1.00  0.00    -0.237 OA
ATOM     86  O   UNL A   1      43.902  27.827  26.077  1.00  0.00    -0.744 OA
ENDBRANCH  80  83
ENDBRANCH  52  76
BRANCH  64  87
ATOM     87  C   UNL A   1      44.016  28.648  35.313  1.00  0.00     0.023 A 
ATOM     88  C   UNL A   1      45.336  29.058  35.044  1.00  0.00     0.012 A 
ATOM     89  C   UNL A   1      43.779  27.629  36.254  1.00  0.00     0.148 A 
ATOM     90  C   UNL A   1      46.409  28.457  35.703  1.00  0.00     0.002 A 
ATOM     91  C   UNL A   1      44.850  27.056  36.929  1.00  0.00     0.091 A 
ATOM     92  F   UNL A   1      42.512  27.254  36.484  1.00  0.00    -0.205 F 
ATOM     93  C   UNL A   1      46.165  27.466  36.651  1.00  0.00     0.022 A 
BRANCH  91  94
ATOM     94  S   UNL A   1      44.637  25.824  38.218  1.00  0.00     0.127 S 
ATOM     95  O   UNL A   1      43.840  26.556  39.200  1.00  0.00    -0.237 OA
ATOM     96  O   UNL A   1      43.917  24.763  37.514  1.00  0.00    -0.237 OA
ATOM     97  O   UNL A   1      45.979  25.461  38.656  1.00  0.00    -0.744 OA
ENDBRANCH  91  94
ENDBRANCH  64  87
ENDBRANCH  38  39
ENDBRANCH  30  33
ENDBRANCH  28  29
ENDBRANCH   1  28
TORSDOF 15
ENDMDL
MODEL 3
REMARK VINA RESULT:     -12.2      6.570      9.867
REMARK SMILES CN(C)C(=O)c1ccc2c(c1)N(CC(=O)NCCCNC(=O)c1ccc(-c3c4nc(c(-c5cccc(S(=O)(=O)[O-])c5F)c5ccc([nH]5)c(-c5cccc(S(=O)(=O)[O-])c5F)c5nc(c(-c6cccc(S(=O)(=O)[O-])c6F)c6ccc3[nH]6)C=C5)C=C4)cc1)C(=O)[C@@H]1CCCCN21
REMARK SMILES IDX 18 1 17 2 16 3 14 4 15 5 13 7 12 8 6 9 7 10 11 11 8 12 10 13
REMARK SMILES IDX 9 14 93 15 86 16 88 17 92 18 87 19 89 20 91 21 90 22 4 23
REMARK SMILES IDX 1 24 2 25 3 26 5 27 19 28 20 29 21 30 22 32 23 33 24 34
REMARK SMILES IDX 85 35 25 36 84 37 26 38 27 39 28 40 78 41 29 42 83 43 77 44
REMARK SMILES IDX 79 45 30 46 82 47 76 48 75 49 31 51 63 52 43 53 62 54 44 55
REMARK SMILES IDX 47 56 61 57 80 58 45 59 46 60 60 62 81 63 48 64 32 65 33 66
REMARK SMILES IDX 41 67 34 68 36 69 42 70 35 71 37 72 38 73 39 74 40 75 64 76
REMARK SMILES IDX 65 77 73 78 66 79 68 80 74 81 67 82 69 83 70 84 71 85 72 86
REMARK SMILES IDX 49 87 50 88 58 89 51 90 53 91 59 92 52 93 54 94 55 95 56 96
REMARK SMILES IDX 57 97
REMARK H PARENT 16 6 20 31 79 50 47 61
REMARK Flexibility Score: inf
ROOT
ATOM      1  C   UNL A   1      39.711  21.545  26.788  1.00  0.00     0.042 C 
ENDROOT
BRANCH   1   2
ATOM      2  C   UNL A   1      39.525  22.919  26.156  1.00  0.00     0.117 C 
BRANCH   2   3
ATOM      3  N   UNL A   1      38.280  23.547  26.550  1.00  0.00    -0.354 N 
ATOM      4  C   UNL A   1      37.065  23.529  25.937  1.00  0.00     0.240 C 
ATOM      5  O   UNL A   1      36.113  24.013  26.557  1.00  0.00    -0.273 OA
ATOM      6  H   UNL A   1      38.318  24.062  27.389  1.00  0.00     0.163 HD
BRANCH   4   7
ATOM      7  C   UNL A   1      36.845  22.842  24.582  1.00  0.00     0.225 C 
BRANCH   7   8
ATOM      8  N   UNL A   1      35.627  22.040  24.409  1.00  0.00    -0.299 N 
ATOM      9  C   UNL A   1      33.259  24.535  22.923  1.00  0.00     0.042 A 
ATOM     10  C   UNL A   1      32.139  23.755  22.691  1.00  0.00     0.016 A 
ATOM     11  C   UNL A   1      34.384  23.982  23.536  1.00  0.00     0.042 A 
ATOM     12  C   UNL A   1      32.168  22.403  23.035  1.00  0.00     0.029 A 
ATOM     13  C   UNL A   1      34.431  22.613  23.869  1.00  0.00     0.069 A 
ATOM     14  C   UNL A   1      33.297  21.792  23.625  1.00  0.00     0.062 A 
ATOM     15  N   UNL A   1      33.292  20.439  23.952  1.00  0.00    -0.358 N 
ATOM     16  C   UNL A   1      35.658  20.719  24.834  1.00  0.00     0.250 C 
ATOM     17  C   UNL A   1      34.342  19.930  24.845  1.00  0.00     0.172 C 
ATOM     18  C   UNL A   1      32.317  19.501  23.377  1.00  0.00     0.117 C 
ATOM     19  O   UNL A   1      36.692  20.211  25.287  1.00  0.00    -0.272 OA
ATOM     20  C   UNL A   1      34.645  18.465  24.512  1.00  0.00     0.035 C 
ATOM     21  C   UNL A   1      32.162  18.181  24.135  1.00  0.00     0.022 C 
ATOM     22  C   UNL A   1      33.422  17.607  24.763  1.00  0.00     0.004 C 
BRANCH   9  23
ATOM     23  C   UNL A   1      33.230  25.962  22.539  1.00  0.00     0.253 C 
ATOM     24  C   UNL A   1      32.617  28.271  23.028  1.00  0.00     0.146 C 
ATOM     25  N   UNL A   1      32.719  26.886  23.447  1.00  0.00    -0.345 N 
ATOM     26  C   UNL A   1      32.372  26.591  24.830  1.00  0.00     0.146 C 
ATOM     27  O   UNL A   1      33.671  26.262  21.432  1.00  0.00    -0.269 OA
ENDBRANCH   9  23
ENDBRANCH   7   8
ENDBRANCH   4   7
ENDBRANCH   2   3
ENDBRANCH   1   2
BRANCH   1  28
ATOM     28  C   UNL A   1      39.656  20.385  25.795  1.00  0.00     0.118 C 
BRANCH  28  29
ATOM     29  N   UNL A   1      40.627  19.334  26.076  1.00  0.00    -0.352 N 
ATOM     30  C   UNL A   1      41.972  19.414  26.353  1.00  0.00     0.251 C 
ATOM     31  H   UNL A   1      40.260  18.420  26.069  1.00  0.00     0.163 HD
ATOM     32  O   UNL A   1      42.632  18.380  26.428  1.00  0.00    -0.269 OA
BRANCH  30  33
ATOM     33  C   UNL A   1      42.630  20.728  26.522  1.00  0.00     0.039 A 
ATOM     34  C   UNL A   1      42.890  21.244  27.793  1.00  0.00     0.014 A 
ATOM     35  C   UNL A   1      42.991  21.459  25.385  1.00  0.00     0.014 A 
ATOM     36  C   UNL A   1      43.337  22.555  27.927  1.00  0.00     0.010 A 
ATOM     37  C   UNL A   1      43.519  22.747  25.524  1.00  0.00     0.010 A 
ATOM     38  C   UNL A   1      43.643  23.328  26.795  1.00  0.00    -0.014 A 
BRANCH  38  39
ATOM     39  C   UNL A   1      44.069  24.742  26.968  1.00  0.00     0.031 A 
ATOM     40  C   UNL A   1      43.111  25.775  27.501  1.00  0.00     0.074 A 
ATOM     41  C   UNL A   1      45.344  25.085  26.703  1.00  0.00     0.049 A 
ATOM     42  N   UNL A   1      43.330  27.038  27.762  1.00  0.00    -0.248 NA
ATOM     43  C   UNL A   1      41.732  25.340  27.780  1.00  0.00     0.031 C 
ATOM     44  C   UNL A   1      46.365  24.179  26.173  1.00  0.00     0.029 A 
ATOM     45  N   UNL A   1      46.006  26.276  26.864  1.00  0.00    -0.354 N 
ATOM     46  C   UNL A   1      42.118  27.554  28.206  1.00  0.00     0.074 A 
ATOM     47  C   UNL A   1      41.159  26.472  28.166  1.00  0.00     0.031 C 
ATOM     48  C   UNL A   1      47.535  24.830  26.106  1.00  0.00     0.029 A 
ATOM     49  C   UNL A   1      47.340  26.210  26.541  1.00  0.00     0.049 A 
ATOM     50  H   UNL A   1      45.567  27.098  27.181  1.00  0.00     0.167 HD
ATOM     51  C   UNL A   1      41.834  28.806  28.633  1.00  0.00     0.034 A 
ATOM     52  C   UNL A   1      48.304  27.149  26.590  1.00  0.00     0.034 A 
ATOM     53  C   UNL A   1      42.792  29.874  28.717  1.00  0.00     0.049 A 
ATOM     54  C   UNL A   1      47.965  28.531  27.067  1.00  0.00     0.074 A 
ATOM     55  C   UNL A   1      42.595  31.172  29.153  1.00  0.00     0.029 A 
ATOM     56  N   UNL A   1      44.130  29.767  28.370  1.00  0.00    -0.354 N 
ATOM     57  N   UNL A   1      46.823  28.982  27.526  1.00  0.00    -0.248 NA
ATOM     58  C   UNL A   1      49.044  29.529  27.046  1.00  0.00     0.031 C 
ATOM     59  C   UNL A   1      43.815  31.851  29.075  1.00  0.00     0.029 A 
ATOM     60  C   UNL A   1      44.772  30.973  28.591  1.00  0.00     0.049 A 
ATOM     61  H   UNL A   1      44.559  28.954  28.019  1.00  0.00     0.167 HD
ATOM     62  C   UNL A   1      47.045  30.313  27.854  1.00  0.00     0.074 A 
ATOM     63  C   UNL A   1      48.437  30.591  27.563  1.00  0.00     0.031 C 
ATOM     64  C   UNL A   1      46.166  31.225  28.334  1.00  0.00     0.034 A 
BRANCH  51  65
ATOM     65  C   UNL A   1      40.435  29.082  29.112  1.00  0.00     0.023 A 
ATOM     66  C   UNL A   1      39.460  29.477  28.175  1.00  0.00     0.012 A 
ATOM     67  C   UNL A   1      40.066  28.876  30.454  1.00  0.00     0.148 A 
ATOM     68  C   UNL A   1      38.138  29.678  28.570  1.00  0.00     0.002 A 
ATOM     69  C   UNL A   1      38.741  29.052  30.836  1.00  0.00     0.091 A 
ATOM     70  F   UNL A   1      41.016  28.516  31.330  1.00  0.00    -0.205 F 
ATOM     71  C   UNL A   1      37.777  29.456  29.897  1.00  0.00     0.022 A 
BRANCH  69  72
ATOM     72  S   UNL A   1      38.160  28.745  32.508  1.00  0.00     0.127 S 
ATOM     73  O   UNL A   1      39.029  29.629  33.286  1.00  0.00    -0.237 OA
ATOM     74  O   UNL A   1      36.764  29.174  32.432  1.00  0.00    -0.237 OA
ATOM     75  O   UNL A   1      38.349  27.321  32.745  1.00  0.00    -0.744 OA
ENDBRANCH  69  72
ENDBRANCH  51  65
BRANCH  52  76
ATOM     76  C   UNL A   1      49.697  26.770  26.234  1.00  0.00     0.023 A 
ATOM     77  C   UNL A   1      50.423  25.937  27.106  1.00  0.00     0.012 A 
ATOM     78  C   UNL A   1      50.260  27.138  24.997  1.00  0.00     0.148 A 
ATOM     79  C   UNL A   1      51.689  25.471  26.748  1.00  0.00     0.002 A 
ATOM     80  C   UNL A   1      51.501  26.635  24.629  1.00  0.00     0.091 A 
ATOM     81  F   UNL A   1      49.544  27.932  24.189  1.00  0.00    -0.205 F 
ATOM     82  C   UNL A   1      52.221  25.809  25.506  1.00  0.00     0.022 A 
BRANCH  80  83
ATOM     83  S   UNL A   1      52.219  26.916  23.007  1.00  0.00     0.127 S 
ATOM     84  O   UNL A   1      51.060  26.747  22.133  1.00  0.00    -0.237 OA
ATOM     85  O   UNL A   1      52.704  28.291  23.132  1.00  0.00    -0.237 OA
ATOM     86  O   UNL A   1      53.264  25.913  22.855  1.00  0.00    -0.744 OA
ENDBRANCH  80  83
ENDBRANCH  52  76
BRANCH  64  87
ATOM     87  C   UNL A   1      46.664  32.622  28.581  1.00  0.00     0.023 A 
ATOM     88  C   UNL A   1      47.189  32.947  29.846  1.00  0.00     0.012 A 
ATOM     89  C   UNL A   1      46.726  33.562  27.536  1.00  0.00     0.148 A 
ATOM     90  C   UNL A   1      47.767  34.197  30.069  1.00  0.00     0.002 A 
ATOM     91  C   UNL A   1      47.331  34.794  27.757  1.00  0.00     0.091 A 
ATOM     92  F   UNL A   1      46.211  33.228  26.344  1.00  0.00    -0.205 F 
ATOM     93  C   UNL A   1      47.848  35.114  29.024  1.00  0.00     0.022 A 
BRANCH  91  94
ATOM     94  S   UNL A   1      47.548  36.015  26.458  1.00  0.00     0.127 S 
ATOM     95  O   UNL A   1      46.164  36.376  26.154  1.00  0.00    -0.237 OA
ATOM     96  O   UNL A   1      48.316  37.057  27.140  1.00  0.00    -0.237 OA
ATOM     97  O   UNL A   1      48.262  35.339  25.383  1.00  0.00    -0.744 OA
ENDBRANCH  91  94
ENDBRANCH  64  87
ENDBRANCH  38  39
ENDBRANCH  30  33
ENDBRANCH  28  29
ENDBRANCH   1  28
TORSDOF 15
ENDMDL
