MODEL 1
REMARK VINA RESULT:     -13.1      0.000      0.000
REMARK SMILES O=C(CSc1nnc2sc3ccccc3n12)N[C@H](Cc1c[nH]c2ccccc12)C(=O)NCCCNC(=O)c1ccc(-c2c3nc(c(-c4cccc(S(=O)(=O)[O-])c4F)c4ccc([nH]4)c(-c4cccc(S(=O)(=O)[O-])c4F)c4nc(c(-c5cccc(S(=O)(=O)[O-])c5F)c5ccc2[nH]5)C=C4)C=C3)cc1
REMARK SMILES IDX 32 1 31 2 29 3 30 4 18 6 17 7 1 8 2 9 3 11 4 12 5 13 6 14
REMARK SMILES IDX 16 15 7 16 8 17 15 18 9 19 10 20 14 21 11 22 13 23 12 24
REMARK SMILES IDX 19 25 20 26 21 27 28 28 22 29 23 30 27 31 24 33 26 34 25 35
REMARK SMILES IDX 33 36 34 37 35 38 36 39 37 41 38 42 39 43 100 44 40 45 99 46
REMARK SMILES IDX 41 47 42 48 43 49 93 50 44 51 98 52 92 53 94 54 45 55 97 56
REMARK SMILES IDX 91 57 90 58 46 60 78 61 58 62 77 63 59 64 62 65 76 66 95 67
REMARK SMILES IDX 60 68 61 69 75 71 96 72 63 73 47 74 48 75 56 76 49 77 51 78
REMARK SMILES IDX 57 79 50 80 52 81 53 82 54 83 55 84 79 85 80 86 88 87 81 88
REMARK SMILES IDX 83 89 89 90 82 91 84 92 85 93 86 94 87 95 64 96 65 97 73 98
REMARK SMILES IDX 66 99 68 100 74 101 67 102 69 103 70 104 71 105 72 106
REMARK H PARENT 31 5 17 10 22 32 35 40 94 59 62 70
REMARK Flexibility Score: inf
ROOT
ATOM      1  C   UNL A   1      33.808  29.049  27.535  1.00  0.00     0.117 C 
ENDROOT
BRANCH   1   2
ATOM      2  N   UNL A   1      34.078  28.120  26.456  1.00  0.00    -0.354 N 
ATOM      3  C   UNL A   1      33.262  27.482  25.572  1.00  0.00     0.242 C 
ATOM      4  O   UNL A   1      33.802  26.783  24.708  1.00  0.00    -0.273 OA
ATOM      5  H   UNL A   1      35.033  27.910  26.341  1.00  0.00     0.163 HD
BRANCH   3   6
ATOM      6  C   UNL A   1      31.732  27.564  25.681  1.00  0.00     0.175 C 
BRANCH   6   7
ATOM      7  N   UNL A   1      31.217  26.429  24.884  1.00  0.00    -0.343 N 
ATOM      8  O   UNL A   1      29.887  25.620  26.555  1.00  0.00    -0.274 OA
ATOM      9  C   UNL A   1      30.477  25.423  25.499  1.00  0.00     0.231 C 
ATOM     10  H   UNL A   1      31.397  26.385  23.918  1.00  0.00     0.164 HD
BRANCH   9  11
ATOM     11  C   UNL A   1      30.656  24.071  24.824  1.00  0.00     0.178 C 
BRANCH  11  12
ATOM     12  S   UNL A   1      31.125  22.627  25.805  1.00  0.00    -0.076 SA
BRANCH  12  13
ATOM     13  C   UNL A   1      32.839  22.614  25.983  1.00  0.00     0.197 A 
ATOM     14  N   UNL A   1      33.538  23.664  26.392  1.00  0.00    -0.122 NA
ATOM     15  N   UNL A   1      33.705  21.594  25.707  1.00  0.00    -0.260 N 
ATOM     16  N   UNL A   1      34.892  23.376  26.246  1.00  0.00    -0.118 NA
ATOM     17  C   UNL A   1      34.944  22.162  25.772  1.00  0.00     0.217 A 
ATOM     18  C   UNL A   1      33.684  20.250  25.343  1.00  0.00     0.068 A 
ATOM     19  S   UNL A   1      36.216  21.117  25.246  1.00  0.00    -0.094 S 
ATOM     20  C   UNL A   1      34.978  19.844  24.974  1.00  0.00     0.055 A 
ATOM     21  C   UNL A   1      32.606  19.386  25.322  1.00  0.00     0.028 A 
ATOM     22  C   UNL A   1      35.191  18.576  24.461  1.00  0.00     0.021 A 
ATOM     23  C   UNL A   1      32.834  18.089  24.852  1.00  0.00     0.002 A 
ATOM     24  C   UNL A   1      34.105  17.699  24.389  1.00  0.00     0.002 A 
ENDBRANCH  12  13
ENDBRANCH  11  12
ENDBRANCH   9  11
ENDBRANCH   6   7
BRANCH   6  25
ATOM     25  C   UNL A   1      31.153  28.931  25.252  1.00  0.00     0.072 C 
BRANCH  25  26
ATOM     26  C   UNL A   1      30.798  29.196  23.798  1.00  0.00    -0.020 A 
ATOM     27  C   UNL A   1      31.263  28.606  22.637  1.00  0.00     0.087 A 
ATOM     28  C   UNL A   1      29.811  30.157  23.362  1.00  0.00     0.003 A 
ATOM     29  N   UNL A   1      30.533  29.058  21.572  1.00  0.00    -0.361 N 
ATOM     30  C   UNL A   1      29.662  30.031  21.980  1.00  0.00     0.046 A 
ATOM     31  C   UNL A   1      29.017  31.117  24.025  1.00  0.00     0.010 A 
ATOM     32  H   UNL A   1      30.622  28.731  20.647  1.00  0.00     0.166 HD
ATOM     33  C   UNL A   1      28.764  30.794  21.228  1.00  0.00     0.026 A 
ATOM     34  C   UNL A   1      28.132  31.912  23.283  1.00  0.00     0.001 A 
ATOM     35  C   UNL A   1      28.006  31.748  21.907  1.00  0.00     0.002 A 
ENDBRANCH  25  26
ENDBRANCH   6  25
ENDBRANCH   3   6
ENDBRANCH   1   2
BRANCH   1  36
ATOM     36  C   UNL A   1      33.864  30.510  27.104  1.00  0.00     0.042 C 
BRANCH  36  37
ATOM     37  C   UNL A   1      34.956  31.345  27.772  1.00  0.00     0.118 C 
BRANCH  37  38
ATOM     38  N   UNL A   1      34.664  31.783  29.123  1.00  0.00    -0.352 N 
ATOM     39  C   UNL A   1      35.360  31.817  30.301  1.00  0.00     0.251 C 
ATOM     40  H   UNL A   1      33.750  32.137  29.215  1.00  0.00     0.163 HD
ATOM     41  O   UNL A   1      34.825  32.455  31.212  1.00  0.00    -0.269 OA
BRANCH  39  42
ATOM     42  C   UNL A   1      36.623  31.085  30.574  1.00  0.00     0.039 A 
ATOM     43  C   UNL A   1      37.878  31.676  30.696  1.00  0.00     0.014 A 
ATOM     44  C   UNL A   1      36.536  29.678  30.604  1.00  0.00     0.014 A 
ATOM     45  C   UNL A   1      39.021  30.892  30.665  1.00  0.00     0.010 A 
ATOM     46  C   UNL A   1      37.677  28.885  30.617  1.00  0.00     0.010 A 
ATOM     47  C   UNL A   1      38.921  29.499  30.571  1.00  0.00    -0.014 A 
BRANCH  47  48
ATOM     48  C   UNL A   1      40.167  28.743  30.539  1.00  0.00     0.031 A 
ATOM     49  C   UNL A   1      40.859  28.691  31.857  1.00  0.00     0.074 A 
ATOM     50  C   UNL A   1      40.656  28.127  29.443  1.00  0.00     0.049 A 
ATOM     51  N   UNL A   1      41.943  29.308  32.200  1.00  0.00    -0.248 NA
ATOM     52  C   UNL A   1      40.163  28.028  32.970  1.00  0.00     0.031 C 
ATOM     53  C   UNL A   1      39.986  27.883  28.162  1.00  0.00     0.029 A 
ATOM     54  N   UNL A   1      41.851  27.491  29.283  1.00  0.00    -0.354 N 
ATOM     55  C   UNL A   1      42.190  28.919  33.514  1.00  0.00     0.074 A 
ATOM     56  C   UNL A   1      40.988  28.282  33.987  1.00  0.00     0.031 C 
ATOM     57  C   UNL A   1      40.680  26.954  27.464  1.00  0.00     0.029 A 
ATOM     58  C   UNL A   1      41.912  26.654  28.169  1.00  0.00     0.049 A 
ATOM     59  H   UNL A   1      42.607  27.612  29.902  1.00  0.00     0.167 HD
ATOM     60  C   UNL A   1      43.446  28.923  34.036  1.00  0.00     0.034 A 
ATOM     61  C   UNL A   1      42.883  25.744  27.903  1.00  0.00     0.034 A 
ATOM     62  C   UNL A   1      44.355  29.710  33.251  1.00  0.00     0.049 A 
ATOM     63  C   UNL A   1      44.082  26.184  28.651  1.00  0.00     0.074 A 
ATOM     64  C   UNL A   1      44.469  31.041  32.909  1.00  0.00     0.029 A 
ATOM     65  N   UNL A   1      45.139  29.015  32.366  1.00  0.00    -0.354 N 
ATOM     66  N   UNL A   1      44.730  27.286  28.400  1.00  0.00    -0.248 NA
ATOM     67  C   UNL A   1      44.340  25.578  29.946  1.00  0.00     0.031 C 
ATOM     68  C   UNL A   1      44.960  31.037  31.570  1.00  0.00     0.029 A 
ATOM     69  C   UNL A   1      45.165  29.710  31.187  1.00  0.00     0.049 A 
ATOM     70  H   UNL A   1      45.602  28.166  32.547  1.00  0.00     0.167 HD
ATOM     71  C   UNL A   1      45.117  27.745  29.651  1.00  0.00     0.074 A 
ATOM     72  C   UNL A   1      44.956  26.601  30.543  1.00  0.00     0.031 C 
ATOM     73  C   UNL A   1      45.256  29.080  29.889  1.00  0.00     0.034 A 
BRANCH  60  74
ATOM     74  C   UNL A   1      43.941  27.898  35.023  1.00  0.00     0.023 A 
ATOM     75  C   UNL A   1      44.636  28.350  36.166  1.00  0.00     0.012 A 
ATOM     76  C   UNL A   1      44.002  26.514  34.736  1.00  0.00     0.148 A 
ATOM     77  C   UNL A   1      45.362  27.467  36.975  1.00  0.00     0.002 A 
ATOM     78  C   UNL A   1      44.662  25.633  35.580  1.00  0.00     0.091 A 
ATOM     79  F   UNL A   1      43.539  26.061  33.567  1.00  0.00    -0.205 F 
ATOM     80  C   UNL A   1      45.364  26.106  36.691  1.00  0.00     0.022 A 
BRANCH  78  81
ATOM     81  S   UNL A   1      44.681  23.864  35.268  1.00  0.00     0.127 S 
ATOM     82  O   UNL A   1      45.475  23.379  36.390  1.00  0.00    -0.237 OA
ATOM     83  O   UNL A   1      43.257  23.537  35.320  1.00  0.00    -0.237 OA
ATOM     84  O   UNL A   1      45.279  23.712  33.943  1.00  0.00    -0.744 OA
ENDBRANCH  78  81
ENDBRANCH  60  74
BRANCH  61  85
ATOM     85  C   UNL A   1      42.796  24.368  27.344  1.00  0.00     0.023 A 
ATOM     86  C   UNL A   1      41.534  23.736  27.283  1.00  0.00     0.012 A 
ATOM     87  C   UNL A   1      43.845  23.819  26.575  1.00  0.00     0.148 A 
ATOM     88  C   UNL A   1      41.303  22.651  26.427  1.00  0.00     0.002 A 
ATOM     89  C   UNL A   1      43.613  22.732  25.734  1.00  0.00     0.091 A 
ATOM     90  F   UNL A   1      45.043  24.417  26.590  1.00  0.00    -0.205 F 
ATOM     91  C   UNL A   1      42.338  22.159  25.640  1.00  0.00     0.022 A 
BRANCH  89  92
ATOM     92  S   UNL A   1      44.900  22.047  24.680  1.00  0.00     0.127 S 
ATOM     93  O   UNL A   1      44.258  20.837  24.164  1.00  0.00    -0.237 OA
ATOM     94  O   UNL A   1      45.085  23.110  23.697  1.00  0.00    -0.237 OA
ATOM     95  O   UNL A   1      46.033  21.791  25.561  1.00  0.00    -0.744 OA
ENDBRANCH  89  92
ENDBRANCH  61  85
BRANCH  73  96
ATOM     96  C   UNL A   1      45.278  30.007  28.702  1.00  0.00     0.023 A 
ATOM     97  C   UNL A   1      44.101  30.466  28.073  1.00  0.00     0.012 A 
ATOM     98  C   UNL A   1      46.513  30.565  28.337  1.00  0.00     0.148 A 
ATOM     99  C   UNL A   1      44.160  31.465  27.097  1.00  0.00     0.002 A 
ATOM    100  C   UNL A   1      46.563  31.583  27.395  1.00  0.00     0.091 A 
ATOM    101  F   UNL A   1      47.614  30.116  28.957  1.00  0.00    -0.205 F 
ATOM    102  C   UNL A   1      45.389  32.035  26.769  1.00  0.00     0.022 A 
BRANCH 100 103
ATOM    103  S   UNL A   1      48.092  32.434  27.005  1.00  0.00     0.127 S 
ATOM    104  O   UNL A   1      47.651  33.424  26.026  1.00  0.00    -0.237 OA
ATOM    105  O   UNL A   1      48.475  32.986  28.306  1.00  0.00    -0.237 OA
ATOM    106  O   UNL A   1      49.005  31.419  26.494  1.00  0.00    -0.744 OA
ENDBRANCH 100 103
ENDBRANCH  73  96
ENDBRANCH  47  48
ENDBRANCH  39  42
ENDBRANCH  37  38
ENDBRANCH  36  37
ENDBRANCH   1  36
TORSDOF 19
ENDMDL
MODEL 2
REMARK VINA RESULT:     -12.9      2.967      9.553
REMARK SMILES O=C(CSc1nnc2sc3ccccc3n12)N[C@H](Cc1c[nH]c2ccccc12)C(=O)NCCCNC(=O)c1ccc(-c2c3nc(c(-c4cccc(S(=O)(=O)[O-])c4F)c4ccc([nH]4)c(-c4cccc(S(=O)(=O)[O-])c4F)c4nc(c(-c5cccc(S(=O)(=O)[O-])c5F)c5ccc2[nH]5)C=C4)C=C3)cc1
REMARK SMILES IDX 32 1 31 2 29 3 30 4 18 6 17 7 1 8 2 9 3 11 4 12 5 13 6 14
REMARK SMILES IDX 16 15 7 16 8 17 15 18 9 19 10 20 14 21 11 22 13 23 12 24
REMARK SMILES IDX 19 25 20 26 21 27 28 28 22 29 23 30 27 31 24 33 26 34 25 35
REMARK SMILES IDX 33 36 34 37 35 38 36 39 37 41 38 42 39 43 100 44 40 45 99 46
REMARK SMILES IDX 41 47 42 48 43 49 93 50 44 51 98 52 92 53 94 54 45 55 97 56
REMARK SMILES IDX 91 57 90 58 46 60 78 61 58 62 77 63 59 64 62 65 76 66 95 67
REMARK SMILES IDX 60 68 61 69 75 71 96 72 63 73 47 74 48 75 56 76 49 77 51 78
REMARK SMILES IDX 57 79 50 80 52 81 53 82 54 83 55 84 79 85 80 86 88 87 81 88
REMARK SMILES IDX 83 89 89 90 82 91 84 92 85 93 86 94 87 95 64 96 65 97 73 98
REMARK SMILES IDX 66 99 68 100 74 101 67 102 69 103 70 104 71 105 72 106
REMARK H PARENT 31 5 17 10 22 32 35 40 94 59 62 70
REMARK Flexibility Score: inf
ROOT
ATOM      1  C   UNL A   1      34.973  24.005  25.646  1.00  0.00     0.117 C 
ENDROOT
BRANCH   1   2
ATOM      2  N   UNL A   1      33.812  23.950  26.513  1.00  0.00    -0.354 N 
ATOM      3  C   UNL A   1      32.517  23.594  26.285  1.00  0.00     0.242 C 
ATOM      4  O   UNL A   1      31.754  23.590  27.257  1.00  0.00    -0.273 OA
ATOM      5  H   UNL A   1      33.994  24.222  27.441  1.00  0.00     0.163 HD
BRANCH   3   6
ATOM      6  C   UNL A   1      32.001  23.280  24.873  1.00  0.00     0.175 C 
BRANCH   6   7
ATOM      7  N   UNL A   1      30.996  24.324  24.577  1.00  0.00    -0.343 N 
ATOM      8  O   UNL A   1      32.075  25.097  22.719  1.00  0.00    -0.274 OA
ATOM      9  C   UNL A   1      31.257  25.291  23.611  1.00  0.00     0.231 C 
ATOM     10  H   UNL A   1      30.141  24.334  25.064  1.00  0.00     0.164 HD
BRANCH   9  11
ATOM     11  C   UNL A   1      30.576  26.618  23.915  1.00  0.00     0.178 C 
BRANCH  11  12
ATOM     12  S   UNL A   1      31.061  28.108  23.015  1.00  0.00    -0.076 SA
BRANCH  12  13
ATOM     13  C   UNL A   1      30.628  29.486  23.955  1.00  0.00     0.197 A 
ATOM     14  N   UNL A   1      29.581  30.253  23.685  1.00  0.00    -0.122 NA
ATOM     15  N   UNL A   1      31.278  30.001  25.041  1.00  0.00    -0.260 N 
ATOM     16  N   UNL A   1      29.627  31.369  24.514  1.00  0.00    -0.118 NA
ATOM     17  C   UNL A   1      30.688  31.212  25.257  1.00  0.00     0.217 A 
ATOM     18  C   UNL A   1      32.337  29.693  25.892  1.00  0.00     0.068 A 
ATOM     19  S   UNL A   1      31.484  32.167  26.458  1.00  0.00    -0.094 S 
ATOM     20  C   UNL A   1      32.639  30.812  26.687  1.00  0.00     0.055 A 
ATOM     21  C   UNL A   1      33.031  28.503  25.998  1.00  0.00     0.028 A 
ATOM     22  C   UNL A   1      33.734  30.789  27.533  1.00  0.00     0.021 A 
ATOM     23  C   UNL A   1      34.105  28.466  26.892  1.00  0.00     0.002 A 
ATOM     24  C   UNL A   1      34.479  29.609  27.624  1.00  0.00     0.002 A 
ENDBRANCH  12  13
ENDBRANCH  11  12
ENDBRANCH   9  11
ENDBRANCH   6   7
BRANCH   6  25
ATOM     25  C   UNL A   1      31.460  21.841  24.718  1.00  0.00     0.072 C 
BRANCH  25  26
ATOM     26  C   UNL A   1      32.364  20.645  24.966  1.00  0.00    -0.020 A 
ATOM     27  C   UNL A   1      33.121  20.305  26.073  1.00  0.00     0.087 A 
ATOM     28  C   UNL A   1      32.565  19.565  24.028  1.00  0.00     0.003 A 
ATOM     29  N   UNL A   1      33.643  19.052  25.901  1.00  0.00    -0.361 N 
ATOM     30  C   UNL A   1      33.348  18.590  24.648  1.00  0.00     0.046 A 
ATOM     31  C   UNL A   1      32.135  19.323  22.707  1.00  0.00     0.010 A 
ATOM     32  H   UNL A   1      34.157  18.557  26.580  1.00  0.00     0.166 HD
ATOM     33  C   UNL A   1      33.715  17.390  24.032  1.00  0.00     0.026 A 
ATOM     34  C   UNL A   1      32.518  18.138  22.062  1.00  0.00     0.001 A 
ATOM     35  C   UNL A   1      33.292  17.186  22.719  1.00  0.00     0.002 A 
ENDBRANCH  25  26
ENDBRANCH   6  25
ENDBRANCH   3   6
ENDBRANCH   1   2
BRANCH   1  36
ATOM     36  C   UNL A   1      35.874  22.781  25.765  1.00  0.00     0.042 C 
BRANCH  36  37
ATOM     37  C   UNL A   1      37.037  22.731  24.774  1.00  0.00     0.118 C 
BRANCH  37  38
ATOM     38  N   UNL A   1      38.184  21.955  25.202  1.00  0.00    -0.352 N 
ATOM     39  C   UNL A   1      39.132  22.088  26.181  1.00  0.00     0.251 C 
ATOM     40  H   UNL A   1      38.314  21.143  24.661  1.00  0.00     0.163 HD
ATOM     41  O   UNL A   1      39.849  21.100  26.359  1.00  0.00    -0.269 OA
BRANCH  39  42
ATOM     42  C   UNL A   1      39.405  23.330  26.948  1.00  0.00     0.039 A 
ATOM     43  C   UNL A   1      38.550  24.427  27.020  1.00  0.00     0.014 A 
ATOM     44  C   UNL A   1      40.673  23.425  27.555  1.00  0.00     0.014 A 
ATOM     45  C   UNL A   1      39.012  25.636  27.518  1.00  0.00     0.010 A 
ATOM     46  C   UNL A   1      41.127  24.622  28.096  1.00  0.00     0.010 A 
ATOM     47  C   UNL A   1      40.318  25.747  28.007  1.00  0.00    -0.014 A 
BRANCH  47  48
ATOM     48  C   UNL A   1      40.733  27.051  28.510  1.00  0.00     0.031 A 
ATOM     49  C   UNL A   1      42.084  27.462  28.038  1.00  0.00     0.074 A 
ATOM     50  C   UNL A   1      39.978  27.834  29.308  1.00  0.00     0.049 A 
ATOM     51  N   UNL A   1      43.175  27.516  28.732  1.00  0.00    -0.248 NA
ATOM     52  C   UNL A   1      42.277  27.650  26.593  1.00  0.00     0.031 C 
ATOM     53  C   UNL A   1      38.561  27.686  29.652  1.00  0.00     0.029 A 
ATOM     54  N   UNL A   1      40.312  29.010  29.913  1.00  0.00    -0.354 N 
ATOM     55  C   UNL A   1      44.151  27.976  27.850  1.00  0.00     0.074 A 
ATOM     56  C   UNL A   1      43.591  27.873  26.527  1.00  0.00     0.031 C 
ATOM     57  C   UNL A   1      38.107  28.843  30.187  1.00  0.00     0.029 A 
ATOM     58  C   UNL A   1      39.224  29.752  30.367  1.00  0.00     0.049 A 
ATOM     59  H   UNL A   1      41.245  29.309  30.019  1.00  0.00     0.167 HD
ATOM     60  C   UNL A   1      45.254  28.640  28.288  1.00  0.00     0.034 A 
ATOM     61  C   UNL A   1      39.254  31.040  30.795  1.00  0.00     0.034 A 
ATOM     62  C   UNL A   1      45.470  28.460  29.696  1.00  0.00     0.049 A 
ATOM     63  C   UNL A   1      40.647  31.306  31.218  1.00  0.00     0.074 A 
ATOM     64  C   UNL A   1      45.755  27.395  30.524  1.00  0.00     0.029 A 
ATOM     65  N   UNL A   1      45.012  29.467  30.506  1.00  0.00    -0.354 N 
ATOM     66  N   UNL A   1      41.222  30.719  32.229  1.00  0.00    -0.248 NA
ATOM     67  C   UNL A   1      41.537  31.954  30.271  1.00  0.00     0.031 C 
ATOM     68  C   UNL A   1      45.041  27.662  31.729  1.00  0.00     0.029 A 
ATOM     69  C   UNL A   1      44.401  28.895  31.589  1.00  0.00     0.049 A 
ATOM     70  H   UNL A   1      45.106  30.432  30.339  1.00  0.00     0.167 HD
ATOM     71  C   UNL A   1      42.533  30.535  31.813  1.00  0.00     0.074 A 
ATOM     72  C   UNL A   1      42.695  31.416  30.660  1.00  0.00     0.031 C 
ATOM     73  C   UNL A   1      43.265  29.479  32.268  1.00  0.00     0.034 A 
BRANCH  60  74
ATOM     74  C   UNL A   1      45.901  29.770  27.530  1.00  0.00     0.023 A 
ATOM     75  C   UNL A   1      47.310  29.860  27.537  1.00  0.00     0.012 A 
ATOM     76  C   UNL A   1      45.185  30.893  27.055  1.00  0.00     0.148 A 
ATOM     77  C   UNL A   1      47.969  31.017  27.103  1.00  0.00     0.002 A 
ATOM     78  C   UNL A   1      45.843  32.009  26.558  1.00  0.00     0.091 A 
ATOM     79  F   UNL A   1      43.858  30.946  27.213  1.00  0.00    -0.205 F 
ATOM     80  C   UNL A   1      47.237  32.086  26.600  1.00  0.00     0.022 A 
BRANCH  78  81
ATOM     81  S   UNL A   1      44.945  33.410  25.882  1.00  0.00     0.127 S 
ATOM     82  O   UNL A   1      44.107  32.764  24.881  1.00  0.00    -0.237 OA
ATOM     83  O   UNL A   1      44.241  33.910  27.062  1.00  0.00    -0.237 OA
ATOM     84  O   UNL A   1      45.973  34.317  25.373  1.00  0.00    -0.744 OA
ENDBRANCH  78  81
ENDBRANCH  60  74
BRANCH  61  85
ATOM     85  C   UNL A   1      38.299  32.159  30.571  1.00  0.00     0.023 A 
ATOM     86  C   UNL A   1      37.867  32.433  29.253  1.00  0.00     0.012 A 
ATOM     87  C   UNL A   1      37.562  32.721  31.635  1.00  0.00     0.148 A 
ATOM     88  C   UNL A   1      36.700  33.168  29.007  1.00  0.00     0.002 A 
ATOM     89  C   UNL A   1      36.407  33.461  31.384  1.00  0.00     0.091 A 
ATOM     90  F   UNL A   1      37.930  32.451  32.894  1.00  0.00    -0.205 F 
ATOM     91  C   UNL A   1      35.960  33.667  30.073  1.00  0.00     0.022 A 
BRANCH  89  92
ATOM     92  S   UNL A   1      35.395  34.131  32.712  1.00  0.00     0.127 S 
ATOM     93  O   UNL A   1      34.217  34.607  31.985  1.00  0.00    -0.237 OA
ATOM     94  O   UNL A   1      35.167  32.954  33.544  1.00  0.00    -0.237 OA
ATOM     95  O   UNL A   1      36.192  35.192  33.316  1.00  0.00    -0.744 OA
ENDBRANCH  89  92
ENDBRANCH  61  85
BRANCH  73  96
ATOM     96  C   UNL A   1      42.729  28.708  33.446  1.00  0.00     0.023 A 
ATOM     97  C   UNL A   1      41.623  27.837  33.345  1.00  0.00     0.012 A 
ATOM     98  C   UNL A   1      43.478  28.730  34.632  1.00  0.00     0.148 A 
ATOM     99  C   UNL A   1      41.274  27.004  34.413  1.00  0.00     0.002 A 
ATOM    100  C   UNL A   1      43.151  27.875  35.676  1.00  0.00     0.091 A 
ATOM    101  F   UNL A   1      44.528  29.561  34.698  1.00  0.00    -0.205 F 
ATOM    102  C   UNL A   1      42.047  27.013  35.573  1.00  0.00     0.022 A 
BRANCH 100 103
ATOM    103  S   UNL A   1      44.164  27.755  37.150  1.00  0.00     0.127 S 
ATOM    104  O   UNL A   1      43.380  26.853  37.988  1.00  0.00    -0.237 OA
ATOM    105  O   UNL A   1      45.403  27.181  36.623  1.00  0.00    -0.237 OA
ATOM    106  O   UNL A   1      44.304  29.113  37.661  1.00  0.00    -0.744 OA
ENDBRANCH 100 103
ENDBRANCH  73  96
ENDBRANCH  47  48
ENDBRANCH  39  42
ENDBRANCH  37  38
ENDBRANCH  36  37
ENDBRANCH   1  36
TORSDOF 19
ENDMDL
MODEL 3
REMARK VINA RESULT:     -12.4      3.009      9.073
REMARK SMILES O=C(CSc1nnc2sc3ccccc3n12)N[C@H](Cc1c[nH]c2ccccc12)C(=O)NCCCNC(=O)c1ccc(-c2c3nc(c(-c4cccc(S(=O)(=O)[O-])c4F)c4ccc([nH]4)c(-c4cccc(S(=O)(=O)[O-])c4F)c4nc(c(-c5cccc(S(=O)(=O)[O-])c5F)c5ccc2[nH]5)C=C4)C=C3)cc1
REMARK SMILES IDX 32 1 31 2 29 3 30 4 18 6 17 7 1 8 2 9 3 11 4 12 5 13 6 14
REMARK SMILES IDX 16 15 7 16 8 17 15 18 9 19 10 20 14 21 11 22 13 23 12 24
REMARK SMILES IDX 19 25 20 26 21 27 28 28 22 29 23 30 27 31 24 33 26 34 25 35
REMARK SMILES IDX 33 36 34 37 35 38 36 39 37 41 38 42 39 43 100 44 40 45 99 46
REMARK SMILES IDX 41 47 42 48 43 49 93 50 44 51 98 52 92 53 94 54 45 55 97 56
REMARK SMILES IDX 91 57 90 58 46 60 78 61 58 62 77 63 59 64 62 65 76 66 95 67
REMARK SMILES IDX 60 68 61 69 75 71 96 72 63 73 47 74 48 75 56 76 49 77 51 78
REMARK SMILES IDX 57 79 50 80 52 81 53 82 54 83 55 84 79 85 80 86 88 87 81 88
REMARK SMILES IDX 83 89 89 90 82 91 84 92 85 93 86 94 87 95 64 96 65 97 73 98
REMARK SMILES IDX 66 99 68 100 74 101 67 102 69 103 70 104 71 105 72 106
REMARK H PARENT 31 5 17 10 22 32 35 40 94 59 62 70
REMARK Flexibility Score: inf
ROOT
ATOM      1  C   UNL A   1      35.193  23.460  26.161  1.00  0.00     0.117 C 
ENDROOT
BRANCH   1   2
ATOM      2  N   UNL A   1      33.986  23.110  26.884  1.00  0.00    -0.354 N 
ATOM      3  C   UNL A   1      32.729  23.633  26.872  1.00  0.00     0.242 C 
ATOM      4  O   UNL A   1      31.877  23.070  27.568  1.00  0.00    -0.273 OA
ATOM      5  H   UNL A   1      34.097  22.350  27.500  1.00  0.00     0.163 HD
BRANCH   3   6
ATOM      6  C   UNL A   1      32.392  24.911  26.088  1.00  0.00     0.175 C 
BRANCH   6   7
ATOM      7  N   UNL A   1      32.325  24.499  24.669  1.00  0.00    -0.343 N 
ATOM      8  O   UNL A   1      34.258  25.560  24.078  1.00  0.00    -0.274 OA
ATOM      9  C   UNL A   1      33.192  25.061  23.737  1.00  0.00     0.231 C 
ATOM     10  H   UNL A   1      31.665  23.826  24.384  1.00  0.00     0.164 HD
BRANCH   9  11
ATOM     11  C   UNL A   1      32.579  25.146  22.346  1.00  0.00     0.178 C 
BRANCH  11  12
ATOM     12  S   UNL A   1      31.633  26.607  21.864  1.00  0.00    -0.076 SA
BRANCH  12  13
ATOM     13  C   UNL A   1      30.238  26.718  22.869  1.00  0.00     0.197 A 
ATOM     14  N   UNL A   1      29.851  25.751  23.689  1.00  0.00    -0.122 NA
ATOM     15  N   UNL A   1      29.337  27.743  22.947  1.00  0.00    -0.260 N 
ATOM     16  N   UNL A   1      28.602  26.084  24.204  1.00  0.00    -0.118 NA
ATOM     17  C   UNL A   1      28.304  27.242  23.685  1.00  0.00     0.217 A 
ATOM     18  C   UNL A   1      29.157  29.039  22.471  1.00  0.00     0.068 A 
ATOM     19  S   UNL A   1      26.927  28.285  23.746  1.00  0.00    -0.094 S 
ATOM     20  C   UNL A   1      27.847  29.464  22.752  1.00  0.00     0.055 A 
ATOM     21  C   UNL A   1      30.069  29.845  21.817  1.00  0.00     0.028 A 
ATOM     22  C   UNL A   1      27.391  30.679  22.272  1.00  0.00     0.021 A 
ATOM     23  C   UNL A   1      29.621  31.095  21.379  1.00  0.00     0.002 A 
ATOM     24  C   UNL A   1      28.284  31.493  21.569  1.00  0.00     0.002 A 
ENDBRANCH  12  13
ENDBRANCH  11  12
ENDBRANCH   9  11
ENDBRANCH   6   7
BRANCH   6  25
ATOM     25  C   UNL A   1      33.377  26.072  26.346  1.00  0.00     0.072 C 
BRANCH  25  26
ATOM     26  C   UNL A   1      32.879  27.506  26.418  1.00  0.00    -0.020 A 
ATOM     27  C   UNL A   1      31.635  28.041  26.131  1.00  0.00     0.087 A 
ATOM     28  C   UNL A   1      33.673  28.625  26.868  1.00  0.00     0.003 A 
ATOM     29  N   UNL A   1      31.609  29.358  26.500  1.00  0.00    -0.361 N 
ATOM     30  C   UNL A   1      32.849  29.750  26.923  1.00  0.00     0.046 A 
ATOM     31  C   UNL A   1      35.022  28.778  27.252  1.00  0.00     0.010 A 
ATOM     32  H   UNL A   1      30.814  29.937  26.467  1.00  0.00     0.166 HD
ATOM     33  C   UNL A   1      33.289  31.008  27.346  1.00  0.00     0.026 A 
ATOM     34  C   UNL A   1      35.488  30.038  27.651  1.00  0.00     0.001 A 
ATOM     35  C   UNL A   1      34.631  31.134  27.700  1.00  0.00     0.002 A 
ENDBRANCH  25  26
ENDBRANCH   6  25
ENDBRANCH   3   6
ENDBRANCH   1   2
BRANCH   1  36
ATOM     36  C   UNL A   1      36.033  22.251  25.767  1.00  0.00     0.042 C 
BRANCH  36  37
ATOM     37  C   UNL A   1      37.276  22.565  24.933  1.00  0.00     0.118 C 
BRANCH  37  38
ATOM     38  N   UNL A   1      38.492  21.900  25.356  1.00  0.00    -0.352 N 
ATOM     39  C   UNL A   1      39.452  22.146  26.301  1.00  0.00     0.251 C 
ATOM     40  H   UNL A   1      38.672  21.080  24.842  1.00  0.00     0.163 HD
ATOM     41  O   UNL A   1      40.250  21.226  26.495  1.00  0.00    -0.269 OA
BRANCH  39  42
ATOM     42  C   UNL A   1      39.645  23.436  27.012  1.00  0.00     0.039 A 
ATOM     43  C   UNL A   1      38.849  24.566  26.844  1.00  0.00     0.014 A 
ATOM     44  C   UNL A   1      40.785  23.531  27.835  1.00  0.00     0.014 A 
ATOM     45  C   UNL A   1      39.275  25.793  27.330  1.00  0.00     0.010 A 
ATOM     46  C   UNL A   1      41.195  24.751  28.361  1.00  0.00     0.010 A 
ATOM     47  C   UNL A   1      40.475  25.894  28.042  1.00  0.00    -0.014 A 
BRANCH  47  48
ATOM     48  C   UNL A   1      40.858  27.218  28.517  1.00  0.00     0.031 A 
ATOM     49  C   UNL A   1      42.202  27.648  28.042  1.00  0.00     0.074 A 
ATOM     50  C   UNL A   1      40.083  28.003  29.292  1.00  0.00     0.049 A 
ATOM     51  N   UNL A   1      43.289  27.742  28.739  1.00  0.00    -0.248 NA
ATOM     52  C   UNL A   1      42.399  27.806  26.593  1.00  0.00     0.031 C 
ATOM     53  C   UNL A   1      38.667  27.832  29.634  1.00  0.00     0.029 A 
ATOM     54  N   UNL A   1      40.388  29.199  29.871  1.00  0.00    -0.354 N 
ATOM     55  C   UNL A   1      44.258  28.202  27.851  1.00  0.00     0.074 A 
ATOM     56  C   UNL A   1      43.708  28.057  26.529  1.00  0.00     0.031 C 
ATOM     57  C   UNL A   1      38.185  28.991  30.139  1.00  0.00     0.029 A 
ATOM     58  C   UNL A   1      39.281  29.928  30.303  1.00  0.00     0.049 A 
ATOM     59  H   UNL A   1      41.313  29.522  29.975  1.00  0.00     0.167 HD
ATOM     60  C   UNL A   1      45.344  28.901  28.280  1.00  0.00     0.034 A 
ATOM     61  C   UNL A   1      39.281  31.226  30.701  1.00  0.00     0.034 A 
ATOM     62  C   UNL A   1      45.557  28.758  29.692  1.00  0.00     0.049 A 
ATOM     63  C   UNL A   1      40.665  31.532  31.124  1.00  0.00     0.074 A 
ATOM     64  C   UNL A   1      45.861  27.719  30.546  1.00  0.00     0.029 A 
ATOM     65  N   UNL A   1      45.073  29.774  30.476  1.00  0.00    -0.354 N 
ATOM     66  N   UNL A   1      41.248  30.981  32.151  1.00  0.00    -0.248 NA
ATOM     67  C   UNL A   1      41.546  32.177  30.166  1.00  0.00     0.031 C 
ATOM     68  C   UNL A   1      45.135  27.998  31.741  1.00  0.00     0.029 A 
ATOM     69  C   UNL A   1      44.469  29.214  31.570  1.00  0.00     0.049 A 
ATOM     70  H   UNL A   1      45.147  30.736  30.288  1.00  0.00     0.167 HD
ATOM     71  C   UNL A   1      42.565  30.816  31.746  1.00  0.00     0.074 A 
ATOM     72  C   UNL A   1      42.714  31.674  30.574  1.00  0.00     0.031 C 
ATOM     73  C   UNL A   1      43.317  29.787  32.229  1.00  0.00     0.034 A 
BRANCH  60  74
ATOM     74  C   UNL A   1      45.971  30.027  27.498  1.00  0.00     0.023 A 
ATOM     75  C   UNL A   1      47.375  30.167  27.536  1.00  0.00     0.012 A 
ATOM     76  C   UNL A   1      45.228  31.107  26.968  1.00  0.00     0.148 A 
ATOM     77  C   UNL A   1      48.004  31.331  27.078  1.00  0.00     0.002 A 
ATOM     78  C   UNL A   1      45.860  32.228  26.448  1.00  0.00     0.091 A 
ATOM     79  F   UNL A   1      43.897  31.118  27.092  1.00  0.00    -0.205 F 
ATOM     80  C   UNL A   1      47.248  32.356  26.520  1.00  0.00     0.022 A 
BRANCH  78  81
ATOM     81  S   UNL A   1      44.931  33.573  25.702  1.00  0.00     0.127 S 
ATOM     82  O   UNL A   1      44.116  34.021  26.824  1.00  0.00    -0.237 OA
ATOM     83  O   UNL A   1      46.000  34.486  25.301  1.00  0.00    -0.237 OA
ATOM     84  O   UNL A   1      44.210  32.970  24.583  1.00  0.00    -0.744 OA
ENDBRANCH  78  81
ENDBRANCH  60  74
BRANCH  61  85
ATOM     85  C   UNL A   1      38.303  32.318  30.446  1.00  0.00     0.023 A 
ATOM     86  C   UNL A   1      38.211  32.861  29.145  1.00  0.00     0.012 A 
ATOM     87  C   UNL A   1      37.250  32.588  31.347  1.00  0.00     0.148 A 
ATOM     88  C   UNL A   1      37.078  33.574  28.731  1.00  0.00     0.002 A 
ATOM     89  C   UNL A   1      36.130  33.308  30.934  1.00  0.00     0.091 A 
ATOM     90  F   UNL A   1      37.297  32.059  32.577  1.00  0.00    -0.205 F 
ATOM     91  C   UNL A   1      36.030  33.783  29.620  1.00  0.00     0.022 A 
BRANCH  89  92
ATOM     92  S   UNL A   1      34.733  33.611  32.025  1.00  0.00     0.127 S 
ATOM     93  O   UNL A   1      35.360  34.344  33.126  1.00  0.00    -0.237 OA
ATOM     94  O   UNL A   1      33.854  34.410  31.178  1.00  0.00    -0.237 OA
ATOM     95  O   UNL A   1      34.231  32.293  32.397  1.00  0.00    -0.744 OA
ENDBRANCH  89  92
ENDBRANCH  61  85
BRANCH  73  96
ATOM     96  C   UNL A   1      42.791  29.032  33.422  1.00  0.00     0.023 A 
ATOM     97  C   UNL A   1      41.737  28.099  33.327  1.00  0.00     0.012 A 
ATOM     98  C   UNL A   1      43.506  29.140  34.625  1.00  0.00     0.148 A 
ATOM     99  C   UNL A   1      41.405  27.289  34.418  1.00  0.00     0.002 A 
ATOM    100  C   UNL A   1      43.198  28.308  35.692  1.00  0.00     0.091 A 
ATOM    101  F   UNL A   1      44.508  30.030  34.684  1.00  0.00    -0.205 F 
ATOM    102  C   UNL A   1      42.146  27.383  35.595  1.00  0.00     0.022 A 
BRANCH 100 103
ATOM    103  S   UNL A   1      44.176  28.299  37.195  1.00  0.00     0.127 S 
ATOM    104  O   UNL A   1      43.883  29.613  37.759  1.00  0.00    -0.237 OA
ATOM    105  O   UNL A   1      43.597  27.173  37.929  1.00  0.00    -0.237 OA
ATOM    106  O   UNL A   1      45.559  28.096  36.780  1.00  0.00    -0.744 OA
ENDBRANCH 100 103
ENDBRANCH  73  96
ENDBRANCH  47  48
ENDBRANCH  39  42
ENDBRANCH  37  38
ENDBRANCH  36  37
ENDBRANCH   1  36
TORSDOF 19
ENDMDL
