MODEL 1
REMARK VINA RESULT:     -13.6      0.000      0.000
REMARK SMILES C[N@@H+]1CC2(CCN(C(=O)c3cc(-c4ccncc4)n[nH]3)CC2)C[C@H]1C(=O)NCCCNC(=O)c1ccc(-c2c3nc(c(-c4cccc(S(=O)(=O)[O-])c4F)c4ccc([nH]4)c(-c4cccc(S(=O)(=O)[O-])c4F)c4nc(c(-c5cccc(S(=O)(=O)[O-])c5F)c5ccc2[nH]5)C=C4)C=C3)cc1
REMARK SMILES IDX 29 1 28 2 27 3 25 4 26 5 24 7 1 8 2 9 3 10 4 12 23 13 5 14
REMARK SMILES IDX 22 15 6 16 21 17 7 18 8 19 9 20 10 21 11 22 20 23 12 24
REMARK SMILES IDX 19 25 13 27 14 28 18 29 15 30 17 31 16 32 30 33 31 34 32 35
REMARK SMILES IDX 33 37 34 38 35 39 96 40 36 41 95 42 37 43 38 44 39 45 89 46
REMARK SMILES IDX 40 47 94 48 88 49 90 50 41 51 93 52 87 53 86 54 42 56 74 57
REMARK SMILES IDX 54 58 73 59 55 60 58 61 72 62 91 63 56 64 57 65 71 67 92 68
REMARK SMILES IDX 59 69 43 70 44 71 52 72 45 73 47 74 53 75 46 76 48 77 49 78
REMARK SMILES IDX 50 79 51 80 75 81 76 82 84 83 77 84 79 85 85 86 78 87 80 88
REMARK SMILES IDX 81 89 82 90 83 91 60 92 61 93 69 94 62 95 64 96 70 97 63 98
REMARK SMILES IDX 65 99 66 100 67 101 68 102
REMARK H PARENT 27 6 2 11 20 26 31 36 90 55 58 66
REMARK Flexibility Score: inf
ROOT
ATOM      1  C   UNL A   1      31.551  31.782  26.712  1.00  0.00     0.042 C 
ENDROOT
BRANCH   1   2
ATOM      2  C   UNL A   1      31.789  30.348  26.262  1.00  0.00     0.118 C 
BRANCH   2   3
ATOM      3  N   UNL A   1      32.706  30.176  25.167  1.00  0.00    -0.351 N 
ATOM      4  C   UNL A   1      32.875  29.102  24.339  1.00  0.00     0.278 C 
ATOM      5  O   UNL A   1      33.544  29.308  23.316  1.00  0.00    -0.268 OA
ATOM      6  H   UNL A   1      33.297  30.942  24.989  1.00  0.00     0.163 HD
BRANCH   4   7
ATOM      7  C   UNL A   1      32.289  27.679  24.598  1.00  0.00     0.274 C 
ATOM      8  C   UNL A   1      30.831  26.546  23.035  1.00  0.00     0.333 C 
ATOM      9  N   UNL A   1      32.216  26.903  23.347  1.00  0.00    -0.327 N 
ATOM     10  C   UNL A   1      33.081  25.728  23.467  1.00  0.00     0.269 C 
ATOM     11  H   UNL A   1      32.548  27.470  22.566  1.00  0.00     0.348 HD
ATOM     12  C   UNL A   1      33.422  25.499  24.955  1.00  0.00     0.029 C 
ATOM     13  C   UNL A   1      32.944  26.790  25.656  1.00  0.00     0.088 C 
ATOM     14  C   UNL A   1      34.928  25.281  25.255  1.00  0.00     0.034 C 
ATOM     15  C   UNL A   1      32.716  24.204  25.457  1.00  0.00     0.034 C 
ATOM     16  C   UNL A   1      35.464  24.095  24.488  1.00  0.00     0.120 C 
ATOM     17  C   UNL A   1      33.341  22.906  24.875  1.00  0.00     0.120 C 
ATOM     18  N   UNL A   1      34.802  22.897  24.980  1.00  0.00    -0.337 N 
ATOM     19  C   UNL A   1      35.497  21.736  25.308  1.00  0.00     0.271 C 
ATOM     20  O   UNL A   1      34.957  20.629  25.317  1.00  0.00    -0.267 OA
BRANCH  19  21
ATOM     21  C   UNL A   1      36.890  21.889  25.648  1.00  0.00     0.123 A 
ATOM     22  C   UNL A   1      38.002  21.158  25.274  1.00  0.00     0.064 A 
ATOM     23  N   UNL A   1      37.376  22.875  26.457  1.00  0.00    -0.272 N 
ATOM     24  C   UNL A   1      39.088  21.704  26.003  1.00  0.00     0.093 A 
ATOM     25  N   UNL A   1      38.689  22.752  26.737  1.00  0.00    -0.175 NA
ATOM     26  H   UNL A   1      36.819  23.611  26.803  1.00  0.00     0.190 HD
BRANCH  24  27
ATOM     27  C   UNL A   1      40.462  21.222  26.013  1.00  0.00     0.005 A 
ATOM     28  C   UNL A   1      41.521  22.117  25.861  1.00  0.00     0.030 A 
ATOM     29  C   UNL A   1      40.735  19.861  26.139  1.00  0.00     0.030 A 
ATOM     30  C   UNL A   1      42.809  21.611  25.845  1.00  0.00     0.111 A 
ATOM     31  C   UNL A   1      42.057  19.452  26.098  1.00  0.00     0.111 A 
ATOM     32  N   UNL A   1      43.102  20.298  25.954  1.00  0.00    -0.265 NA
ENDBRANCH  24  27
ENDBRANCH  19  21
ENDBRANCH   4   7
ENDBRANCH   2   3
ENDBRANCH   1   2
BRANCH   1  33
ATOM     33  C   UNL A   1      32.807  32.487  27.205  1.00  0.00     0.118 C 
BRANCH  33  34
ATOM     34  N   UNL A   1      32.560  33.868  27.620  1.00  0.00    -0.352 N 
ATOM     35  C   UNL A   1      33.147  34.638  28.598  1.00  0.00     0.251 C 
ATOM     36  H   UNL A   1      31.851  34.325  27.112  1.00  0.00     0.163 HD
ATOM     37  O   UNL A   1      32.664  35.742  28.848  1.00  0.00    -0.269 OA
BRANCH  35  38
ATOM     38  C   UNL A   1      34.323  34.158  29.362  1.00  0.00     0.039 A 
ATOM     39  C   UNL A   1      34.120  33.542  30.603  1.00  0.00     0.014 A 
ATOM     40  C   UNL A   1      35.622  34.328  28.884  1.00  0.00     0.014 A 
ATOM     41  C   UNL A   1      35.208  33.031  31.320  1.00  0.00     0.010 A 
ATOM     42  C   UNL A   1      36.691  33.734  29.546  1.00  0.00     0.010 A 
ATOM     43  C   UNL A   1      36.500  33.089  30.776  1.00  0.00    -0.014 A 
BRANCH  43  44
ATOM     44  C   UNL A   1      37.674  32.485  31.459  1.00  0.00     0.031 A 
ATOM     45  C   UNL A   1      38.435  31.365  30.801  1.00  0.00     0.074 A 
ATOM     46  C   UNL A   1      37.964  32.840  32.727  1.00  0.00     0.049 A 
ATOM     47  N   UNL A   1      39.387  30.614  31.290  1.00  0.00    -0.248 NA
ATOM     48  C   UNL A   1      38.040  31.011  29.426  1.00  0.00     0.031 C 
ATOM     49  C   UNL A   1      37.231  33.831  33.517  1.00  0.00     0.029 A 
ATOM     50  N   UNL A   1      38.925  32.373  33.588  1.00  0.00    -0.354 N 
ATOM     51  C   UNL A   1      39.658  29.663  30.314  1.00  0.00     0.074 A 
ATOM     52  C   UNL A   1      38.752  29.914  29.215  1.00  0.00     0.031 C 
ATOM     53  C   UNL A   1      37.760  33.890  34.748  1.00  0.00     0.029 A 
ATOM     54  C   UNL A   1      38.854  32.930  34.844  1.00  0.00     0.049 A 
ATOM     55  H   UNL A   1      39.600  31.705  33.332  1.00  0.00     0.167 HD
ATOM     56  C   UNL A   1      40.599  28.689  30.314  1.00  0.00     0.034 A 
ATOM     57  C   UNL A   1      39.585  32.690  35.952  1.00  0.00     0.034 A 
ATOM     58  C   UNL A   1      41.561  28.504  31.365  1.00  0.00     0.049 A 
ATOM     59  C   UNL A   1      40.710  31.696  35.885  1.00  0.00     0.074 A 
ATOM     60  C   UNL A   1      42.643  27.643  31.402  1.00  0.00     0.029 A 
ATOM     61  N   UNL A   1      41.562  29.201  32.563  1.00  0.00    -0.354 N 
ATOM     62  N   UNL A   1      41.072  30.931  34.882  1.00  0.00    -0.248 NA
ATOM     63  C   UNL A   1      41.555  31.559  37.080  1.00  0.00     0.031 C 
ATOM     64  C   UNL A   1      43.303  27.823  32.623  1.00  0.00     0.029 A 
ATOM     65  C   UNL A   1      42.629  28.794  33.346  1.00  0.00     0.049 A 
ATOM     66  H   UNL A   1      40.903  29.885  32.819  1.00  0.00     0.167 HD
ATOM     67  C   UNL A   1      42.198  30.241  35.315  1.00  0.00     0.074 A 
ATOM     68  C   UNL A   1      42.474  30.697  36.663  1.00  0.00     0.031 C 
ATOM     69  C   UNL A   1      42.924  29.300  34.663  1.00  0.00     0.034 A 
BRANCH  56  70
ATOM     70  C   UNL A   1      40.682  27.806  29.098  1.00  0.00     0.023 A 
ATOM     71  C   UNL A   1      39.827  26.688  28.998  1.00  0.00     0.012 A 
ATOM     72  C   UNL A   1      41.577  28.083  28.049  1.00  0.00     0.148 A 
ATOM     73  C   UNL A   1      39.892  25.838  27.895  1.00  0.00     0.002 A 
ATOM     74  C   UNL A   1      41.609  27.253  26.933  1.00  0.00     0.091 A 
ATOM     75  F   UNL A   1      42.405  29.132  28.168  1.00  0.00    -0.205 F 
ATOM     76  C   UNL A   1      40.777  26.125  26.858  1.00  0.00     0.022 A 
BRANCH  74  77
ATOM     77  S   UNL A   1      42.673  27.598  25.526  1.00  0.00     0.127 S 
ATOM     78  O   UNL A   1      42.449  26.424  24.686  1.00  0.00    -0.237 OA
ATOM     79  O   UNL A   1      42.108  28.842  24.997  1.00  0.00    -0.237 OA
ATOM     80  O   UNL A   1      44.012  27.741  26.082  1.00  0.00    -0.744 OA
ENDBRANCH  74  77
ENDBRANCH  56  70
BRANCH  57  81
ATOM     81  C   UNL A   1      39.319  33.484  37.184  1.00  0.00     0.023 A 
ATOM     82  C   UNL A   1      38.473  32.948  38.174  1.00  0.00     0.012 A 
ATOM     83  C   UNL A   1      39.961  34.716  37.420  1.00  0.00     0.148 A 
ATOM     84  C   UNL A   1      38.257  33.633  39.372  1.00  0.00     0.002 A 
ATOM     85  C   UNL A   1      39.782  35.367  38.636  1.00  0.00     0.091 A 
ATOM     86  F   UNL A   1      40.754  35.213  36.460  1.00  0.00    -0.205 F 
ATOM     87  C   UNL A   1      38.921  34.834  39.607  1.00  0.00     0.022 A 
BRANCH  85  88
ATOM     88  S   UNL A   1      40.708  36.842  39.081  1.00  0.00     0.127 S 
ATOM     89  O   UNL A   1      41.246  36.476  40.388  1.00  0.00    -0.237 OA
ATOM     90  O   UNL A   1      41.698  36.916  38.005  1.00  0.00    -0.237 OA
ATOM     91  O   UNL A   1      39.738  37.928  39.073  1.00  0.00    -0.744 OA
ENDBRANCH  85  88
ENDBRANCH  57  81
BRANCH  69  92
ATOM     92  C   UNL A   1      44.096  28.697  35.388  1.00  0.00     0.023 A 
ATOM     93  C   UNL A   1      45.375  29.263  35.223  1.00  0.00     0.012 A 
ATOM     94  C   UNL A   1      43.919  27.635  36.297  1.00  0.00     0.148 A 
ATOM     95  C   UNL A   1      46.465  28.769  35.937  1.00  0.00     0.002 A 
ATOM     96  C   UNL A   1      45.004  27.173  37.033  1.00  0.00     0.091 A 
ATOM     97  F   UNL A   1      42.698  27.094  36.422  1.00  0.00    -0.205 F 
ATOM     98  C   UNL A   1      46.278  27.734  36.850  1.00  0.00     0.022 A 
BRANCH  96  99
ATOM     99  S   UNL A   1      44.825  25.903  38.292  1.00  0.00     0.127 S 
ATOM    100  O   UNL A   1      43.872  26.522  39.210  1.00  0.00    -0.237 OA
ATOM    101  O   UNL A   1      44.292  24.773  37.529  1.00  0.00    -0.237 OA
ATOM    102  O   UNL A   1      46.165  25.685  38.822  1.00  0.00    -0.744 OA
ENDBRANCH  96  99
ENDBRANCH  69  92
ENDBRANCH  43  44
ENDBRANCH  35  38
ENDBRANCH  33  34
ENDBRANCH   1  33
TORSDOF 15
ENDMDL
MODEL 2
REMARK VINA RESULT:     -12.9      2.349      3.103
REMARK SMILES C[N@@H+]1CC2(CCN(C(=O)c3cc(-c4ccncc4)n[nH]3)CC2)C[C@H]1C(=O)NCCCNC(=O)c1ccc(-c2c3nc(c(-c4cccc(S(=O)(=O)[O-])c4F)c4ccc([nH]4)c(-c4cccc(S(=O)(=O)[O-])c4F)c4nc(c(-c5cccc(S(=O)(=O)[O-])c5F)c5ccc2[nH]5)C=C4)C=C3)cc1
REMARK SMILES IDX 29 1 28 2 27 3 25 4 26 5 24 7 1 8 2 9 3 10 4 12 23 13 5 14
REMARK SMILES IDX 22 15 6 16 21 17 7 18 8 19 9 20 10 21 11 22 20 23 12 24
REMARK SMILES IDX 19 25 13 27 14 28 18 29 15 30 17 31 16 32 30 33 31 34 32 35
REMARK SMILES IDX 33 37 34 38 35 39 96 40 36 41 95 42 37 43 38 44 39 45 89 46
REMARK SMILES IDX 40 47 94 48 88 49 90 50 41 51 93 52 87 53 86 54 42 56 74 57
REMARK SMILES IDX 54 58 73 59 55 60 58 61 72 62 91 63 56 64 57 65 71 67 92 68
REMARK SMILES IDX 59 69 43 70 44 71 52 72 45 73 47 74 53 75 46 76 48 77 49 78
REMARK SMILES IDX 50 79 51 80 75 81 76 82 84 83 77 84 79 85 85 86 78 87 80 88
REMARK SMILES IDX 81 89 82 90 83 91 60 92 61 93 69 94 62 95 64 96 70 97 63 98
REMARK SMILES IDX 65 99 66 100 67 101 68 102
REMARK H PARENT 27 6 2 11 20 26 31 36 90 55 58 66
REMARK Flexibility Score: inf
ROOT
ATOM      1  C   UNL A   1      31.713  31.989  27.208  1.00  0.00     0.042 C 
ENDROOT
BRANCH   1   2
ATOM      2  C   UNL A   1      32.026  30.650  26.558  1.00  0.00     0.118 C 
BRANCH   2   3
ATOM      3  N   UNL A   1      31.879  29.492  27.399  1.00  0.00    -0.351 N 
ATOM      4  C   UNL A   1      31.666  28.188  27.050  1.00  0.00     0.278 C 
ATOM      5  O   UNL A   1      31.840  27.352  27.948  1.00  0.00    -0.268 OA
ATOM      6  H   UNL A   1      31.940  29.664  28.366  1.00  0.00     0.163 HD
BRANCH   4   7
ATOM      7  C   UNL A   1      31.235  27.708  25.629  1.00  0.00     0.274 C 
ATOM      8  C   UNL A   1      32.083  28.694  23.589  1.00  0.00     0.333 C 
ATOM      9  N   UNL A   1      32.367  27.769  24.686  1.00  0.00    -0.327 N 
ATOM     10  C   UNL A   1      32.661  26.415  24.212  1.00  0.00     0.269 C 
ATOM     11  H   UNL A   1      33.194  28.132  25.159  1.00  0.00     0.348 HD
ATOM     12  C   UNL A   1      31.461  25.495  24.526  1.00  0.00     0.029 C 
ATOM     13  C   UNL A   1      30.580  26.335  25.478  1.00  0.00     0.088 C 
ATOM     14  C   UNL A   1      31.826  24.155  25.215  1.00  0.00     0.034 C 
ATOM     15  C   UNL A   1      30.754  25.090  23.198  1.00  0.00     0.034 C 
ATOM     16  C   UNL A   1      32.788  23.357  24.366  1.00  0.00     0.120 C 
ATOM     17  C   UNL A   1      31.589  24.096  22.344  1.00  0.00     0.120 C 
ATOM     18  N   UNL A   1      32.106  22.979  23.139  1.00  0.00    -0.337 N 
ATOM     19  C   UNL A   1      32.139  21.683  22.629  1.00  0.00     0.271 C 
ATOM     20  O   UNL A   1      31.944  21.442  21.438  1.00  0.00    -0.267 OA
BRANCH  19  21
ATOM     21  C   UNL A   1      32.408  20.625  23.571  1.00  0.00     0.123 A 
ATOM     22  C   UNL A   1      33.027  19.399  23.407  1.00  0.00     0.064 A 
ATOM     23  N   UNL A   1      32.074  20.674  24.893  1.00  0.00    -0.272 N 
ATOM     24  C   UNL A   1      32.908  18.735  24.653  1.00  0.00     0.093 A 
ATOM     25  N   UNL A   1      32.309  19.523  25.556  1.00  0.00    -0.175 NA
ATOM     26  H   UNL A   1      31.697  21.475  25.324  1.00  0.00     0.190 HD
BRANCH  24  27
ATOM     27  C   UNL A   1      33.336  17.378  24.964  1.00  0.00     0.005 A 
ATOM     28  C   UNL A   1      34.679  17.020  24.844  1.00  0.00     0.030 A 
ATOM     29  C   UNL A   1      32.406  16.414  25.351  1.00  0.00     0.030 A 
ATOM     30  C   UNL A   1      35.033  15.711  25.119  1.00  0.00     0.111 A 
ATOM     31  C   UNL A   1      32.860  15.128  25.591  1.00  0.00     0.111 A 
ATOM     32  N   UNL A   1      34.155  14.754  25.484  1.00  0.00    -0.265 NA
ENDBRANCH  24  27
ENDBRANCH  19  21
ENDBRANCH   4   7
ENDBRANCH   2   3
ENDBRANCH   1   2
BRANCH   1  33
ATOM     33  C   UNL A   1      32.824  33.019  27.056  1.00  0.00     0.118 C 
BRANCH  33  34
ATOM     34  N   UNL A   1      32.601  34.222  27.858  1.00  0.00    -0.352 N 
ATOM     35  C   UNL A   1      33.221  34.677  28.999  1.00  0.00     0.251 C 
ATOM     36  H   UNL A   1      31.882  34.806  27.525  1.00  0.00     0.163 HD
ATOM     37  O   UNL A   1      32.755  35.661  29.571  1.00  0.00    -0.269 OA
BRANCH  35  38
ATOM     38  C   UNL A   1      34.414  33.997  29.557  1.00  0.00     0.039 A 
ATOM     39  C   UNL A   1      35.686  34.488  29.239  1.00  0.00     0.014 A 
ATOM     40  C   UNL A   1      34.297  32.867  30.368  1.00  0.00     0.014 A 
ATOM     41  C   UNL A   1      36.826  33.897  29.796  1.00  0.00     0.010 A 
ATOM     42  C   UNL A   1      35.420  32.343  30.998  1.00  0.00     0.010 A 
ATOM     43  C   UNL A   1      36.698  32.843  30.713  1.00  0.00    -0.014 A 
BRANCH  43  44
ATOM     44  C   UNL A   1      37.873  32.240  31.395  1.00  0.00     0.031 A 
ATOM     45  C   UNL A   1      38.634  31.120  30.737  1.00  0.00     0.074 A 
ATOM     46  C   UNL A   1      38.164  32.596  32.662  1.00  0.00     0.049 A 
ATOM     47  N   UNL A   1      39.586  30.370  31.226  1.00  0.00    -0.248 NA
ATOM     48  C   UNL A   1      38.238  30.765  29.363  1.00  0.00     0.031 C 
ATOM     49  C   UNL A   1      37.432  33.588  33.452  1.00  0.00     0.029 A 
ATOM     50  N   UNL A   1      39.126  32.130  33.523  1.00  0.00    -0.354 N 
ATOM     51  C   UNL A   1      39.856  29.418  30.251  1.00  0.00     0.074 A 
ATOM     52  C   UNL A   1      38.949  29.668  29.152  1.00  0.00     0.031 C 
ATOM     53  C   UNL A   1      37.962  33.648  34.683  1.00  0.00     0.029 A 
ATOM     54  C   UNL A   1      39.057  32.688  34.779  1.00  0.00     0.049 A 
ATOM     55  H   UNL A   1      39.802  31.462  33.267  1.00  0.00     0.167 HD
ATOM     56  C   UNL A   1      40.798  28.444  30.250  1.00  0.00     0.034 A 
ATOM     57  C   UNL A   1      39.788  32.449  35.886  1.00  0.00     0.034 A 
ATOM     58  C   UNL A   1      41.761  28.260  31.300  1.00  0.00     0.049 A 
ATOM     59  C   UNL A   1      40.914  31.455  35.818  1.00  0.00     0.074 A 
ATOM     60  C   UNL A   1      42.843  27.399  31.337  1.00  0.00     0.029 A 
ATOM     61  N   UNL A   1      41.763  28.958  32.498  1.00  0.00    -0.354 N 
ATOM     62  N   UNL A   1      41.275  30.690  34.816  1.00  0.00    -0.248 NA
ATOM     63  C   UNL A   1      41.760  31.320  37.013  1.00  0.00     0.031 C 
ATOM     64  C   UNL A   1      43.504  27.581  32.557  1.00  0.00     0.029 A 
ATOM     65  C   UNL A   1      42.830  28.552  33.281  1.00  0.00     0.049 A 
ATOM     66  H   UNL A   1      41.104  29.642  32.754  1.00  0.00     0.167 HD
ATOM     67  C   UNL A   1      42.401  30.000  35.249  1.00  0.00     0.074 A 
ATOM     68  C   UNL A   1      42.678  30.457  36.596  1.00  0.00     0.031 C 
ATOM     69  C   UNL A   1      43.127  29.059  34.597  1.00  0.00     0.034 A 
BRANCH  56  70
ATOM     70  C   UNL A   1      40.880  27.559  29.035  1.00  0.00     0.023 A 
ATOM     71  C   UNL A   1      40.056  26.416  28.957  1.00  0.00     0.012 A 
ATOM     72  C   UNL A   1      41.743  27.861  27.965  1.00  0.00     0.148 A 
ATOM     73  C   UNL A   1      40.122  25.565  27.855  1.00  0.00     0.002 A 
ATOM     74  C   UNL A   1      41.774  27.028  26.851  1.00  0.00     0.091 A 
ATOM     75  F   UNL A   1      42.541  28.933  28.062  1.00  0.00    -0.205 F 
ATOM     76  C   UNL A   1      40.974  25.875  26.798  1.00  0.00     0.022 A 
BRANCH  74  77
ATOM     77  S   UNL A   1      42.795  27.400  25.419  1.00  0.00     0.127 S 
ATOM     78  O   UNL A   1      42.687  26.166  24.645  1.00  0.00    -0.237 OA
ATOM     79  O   UNL A   1      42.108  28.551  24.828  1.00  0.00    -0.237 OA
ATOM     80  O   UNL A   1      44.114  27.705  25.956  1.00  0.00    -0.744 OA
ENDBRANCH  74  77
ENDBRANCH  56  70
BRANCH  57  81
ATOM     81  C   UNL A   1      39.524  33.244  37.118  1.00  0.00     0.023 A 
ATOM     82  C   UNL A   1      38.481  32.848  37.976  1.00  0.00     0.012 A 
ATOM     83  C   UNL A   1      40.344  34.328  37.486  1.00  0.00     0.148 A 
ATOM     84  C   UNL A   1      38.249  33.527  39.174  1.00  0.00     0.002 A 
ATOM     85  C   UNL A   1      40.141  34.967  38.705  1.00  0.00     0.091 A 
ATOM     86  F   UNL A   1      41.325  34.696  36.649  1.00  0.00    -0.205 F 
ATOM     87  C   UNL A   1      39.086  34.577  39.543  1.00  0.00     0.022 A 
BRANCH  85  88
ATOM     88  S   UNL A   1      41.258  36.231  39.325  1.00  0.00     0.127 S 
ATOM     89  O   UNL A   1      40.800  36.388  40.702  1.00  0.00    -0.237 OA
ATOM     90  O   UNL A   1      42.563  35.584  39.178  1.00  0.00    -0.237 OA
ATOM     91  O   UNL A   1      41.065  37.383  38.454  1.00  0.00    -0.744 OA
ENDBRANCH  85  88
ENDBRANCH  57  81
BRANCH  69  92
ATOM     92  C   UNL A   1      44.299  28.457  35.321  1.00  0.00     0.023 A 
ATOM     93  C   UNL A   1      45.591  28.964  35.083  1.00  0.00     0.012 A 
ATOM     94  C   UNL A   1      44.115  27.457  36.297  1.00  0.00     0.148 A 
ATOM     95  C   UNL A   1      46.686  28.473  35.793  1.00  0.00     0.002 A 
ATOM     96  C   UNL A   1      45.206  27.000  37.027  1.00  0.00     0.091 A 
ATOM     97  F   UNL A   1      42.880  26.970  36.491  1.00  0.00    -0.205 F 
ATOM     98  C   UNL A   1      46.492  27.501  36.772  1.00  0.00     0.022 A 
BRANCH  96  99
ATOM     99  S   UNL A   1      45.023  25.813  38.364  1.00  0.00     0.127 S 
ATOM    100  O   UNL A   1      44.059  26.486  39.232  1.00  0.00    -0.237 OA
ATOM    101  O   UNL A   1      44.502  24.633  37.672  1.00  0.00    -0.237 OA
ATOM    102  O   UNL A   1      46.360  25.638  38.918  1.00  0.00    -0.744 OA
ENDBRANCH  96  99
ENDBRANCH  69  92
ENDBRANCH  43  44
ENDBRANCH  35  38
ENDBRANCH  33  34
ENDBRANCH   1  33
TORSDOF 15
ENDMDL
MODEL 3
REMARK VINA RESULT:     -12.7      2.963      3.823
REMARK SMILES C[N@@H+]1CC2(CCN(C(=O)c3cc(-c4ccncc4)n[nH]3)CC2)C[C@H]1C(=O)NCCCNC(=O)c1ccc(-c2c3nc(c(-c4cccc(S(=O)(=O)[O-])c4F)c4ccc([nH]4)c(-c4cccc(S(=O)(=O)[O-])c4F)c4nc(c(-c5cccc(S(=O)(=O)[O-])c5F)c5ccc2[nH]5)C=C4)C=C3)cc1
REMARK SMILES IDX 29 1 28 2 27 3 25 4 26 5 24 7 1 8 2 9 3 10 4 12 23 13 5 14
REMARK SMILES IDX 22 15 6 16 21 17 7 18 8 19 9 20 10 21 11 22 20 23 12 24
REMARK SMILES IDX 19 25 13 27 14 28 18 29 15 30 17 31 16 32 30 33 31 34 32 35
REMARK SMILES IDX 33 37 34 38 35 39 96 40 36 41 95 42 37 43 38 44 39 45 89 46
REMARK SMILES IDX 40 47 94 48 88 49 90 50 41 51 93 52 87 53 86 54 42 56 74 57
REMARK SMILES IDX 54 58 73 59 55 60 58 61 72 62 91 63 56 64 57 65 71 67 92 68
REMARK SMILES IDX 59 69 43 70 44 71 52 72 45 73 47 74 53 75 46 76 48 77 49 78
REMARK SMILES IDX 50 79 51 80 75 81 76 82 84 83 77 84 79 85 85 86 78 87 80 88
REMARK SMILES IDX 81 89 82 90 83 91 60 92 61 93 69 94 62 95 64 96 70 97 63 98
REMARK SMILES IDX 65 99 66 100 67 101 68 102
REMARK H PARENT 27 6 2 11 20 26 31 36 90 55 58 66
REMARK Flexibility Score: inf
ROOT
ATOM      1  C   UNL A   1      31.767  31.905  27.308  1.00  0.00     0.042 C 
ENDROOT
BRANCH   1   2
ATOM      2  C   UNL A   1      32.211  30.576  26.714  1.00  0.00     0.118 C 
BRANCH   2   3
ATOM      3  N   UNL A   1      31.951  29.410  27.515  1.00  0.00    -0.351 N 
ATOM      4  C   UNL A   1      31.708  28.124  27.121  1.00  0.00     0.278 C 
ATOM      5  O   UNL A   1      31.777  27.264  28.010  1.00  0.00    -0.268 OA
ATOM      6  H   UNL A   1      31.946  29.560  28.487  1.00  0.00     0.163 HD
BRANCH   4   7
ATOM      7  C   UNL A   1      31.364  27.692  25.661  1.00  0.00     0.274 C 
ATOM      8  C   UNL A   1      32.393  28.691  23.712  1.00  0.00     0.333 C 
ATOM      9  N   UNL A   1      32.564  27.732  24.804  1.00  0.00    -0.327 N 
ATOM     10  C   UNL A   1      32.843  26.379  24.319  1.00  0.00     0.269 C 
ATOM     11  H   UNL A   1      33.367  28.053  25.344  1.00  0.00     0.348 HD
ATOM     12  C   UNL A   1      31.591  25.498  24.523  1.00  0.00     0.029 C 
ATOM     13  C   UNL A   1      30.674  26.348  25.429  1.00  0.00     0.088 C 
ATOM     14  C   UNL A   1      31.858  24.130  25.203  1.00  0.00     0.034 C 
ATOM     15  C   UNL A   1      30.969  25.149  23.137  1.00  0.00     0.034 C 
ATOM     16  C   UNL A   1      32.850  23.316  24.405  1.00  0.00     0.120 C 
ATOM     17  C   UNL A   1      31.828  24.144  22.322  1.00  0.00     0.120 C 
ATOM     18  N   UNL A   1      32.245  22.991  23.124  1.00  0.00    -0.337 N 
ATOM     19  C   UNL A   1      32.269  21.706  22.586  1.00  0.00     0.271 C 
ATOM     20  O   UNL A   1      32.153  21.498  21.378  1.00  0.00    -0.267 OA
BRANCH  19  21
ATOM     21  C   UNL A   1      32.431  20.618  23.518  1.00  0.00     0.123 A 
ATOM     22  C   UNL A   1      32.989  19.362  23.360  1.00  0.00     0.064 A 
ATOM     23  N   UNL A   1      32.034  20.662  24.822  1.00  0.00    -0.272 N 
ATOM     24  C   UNL A   1      32.771  18.684  24.585  1.00  0.00     0.093 A 
ATOM     25  N   UNL A   1      32.170  19.489  25.473  1.00  0.00    -0.175 NA
ATOM     26  H   UNL A   1      31.680  21.476  25.250  1.00  0.00     0.190 HD
BRANCH  24  27
ATOM     27  C   UNL A   1      33.107  17.300  24.889  1.00  0.00     0.005 A 
ATOM     28  C   UNL A   1      32.153  16.453  25.454  1.00  0.00     0.030 A 
ATOM     29  C   UNL A   1      34.392  16.815  24.652  1.00  0.00     0.030 A 
ATOM     30  C   UNL A   1      32.527  15.155  25.755  1.00  0.00     0.111 A 
ATOM     31  C   UNL A   1      34.671  15.504  25.001  1.00  0.00     0.111 A 
ATOM     32  N   UNL A   1      33.765  14.662  25.548  1.00  0.00    -0.265 NA
ENDBRANCH  24  27
ENDBRANCH  19  21
ENDBRANCH   4   7
ENDBRANCH   2   3
ENDBRANCH   1   2
BRANCH   1  33
ATOM     33  C   UNL A   1      32.564  33.100  26.802  1.00  0.00     0.118 C 
BRANCH  33  34
ATOM     34  N   UNL A   1      32.384  34.295  27.626  1.00  0.00    -0.352 N 
ATOM     35  C   UNL A   1      33.039  34.720  28.759  1.00  0.00     0.251 C 
ATOM     36  H   UNL A   1      31.671  34.900  27.317  1.00  0.00     0.163 HD
ATOM     37  O   UNL A   1      32.607  35.705  29.356  1.00  0.00    -0.269 OA
BRANCH  35  38
ATOM     38  C   UNL A   1      34.229  34.005  29.281  1.00  0.00     0.039 A 
ATOM     39  C   UNL A   1      35.504  34.448  28.909  1.00  0.00     0.014 A 
ATOM     40  C   UNL A   1      34.104  32.890  30.110  1.00  0.00     0.014 A 
ATOM     41  C   UNL A   1      36.644  33.825  29.431  1.00  0.00     0.010 A 
ATOM     42  C   UNL A   1      35.231  32.335  30.705  1.00  0.00     0.010 A 
ATOM     43  C   UNL A   1      36.515  32.787  30.365  1.00  0.00    -0.014 A 
BRANCH  43  44
ATOM     44  C   UNL A   1      37.693  32.152  31.011  1.00  0.00     0.031 A 
ATOM     45  C   UNL A   1      38.489  31.111  30.269  1.00  0.00     0.074 A 
ATOM     46  C   UNL A   1      37.958  32.401  32.308  1.00  0.00     0.049 A 
ATOM     47  N   UNL A   1      39.452  30.342  30.706  1.00  0.00    -0.248 NA
ATOM     48  C   UNL A   1      38.121  30.870  28.863  1.00  0.00     0.031 C 
ATOM     49  C   UNL A   1      37.192  33.303  33.170  1.00  0.00     0.029 A 
ATOM     50  N   UNL A   1      38.919  31.883  33.141  1.00  0.00    -0.354 N 
ATOM     51  C   UNL A   1      39.757  29.486  29.655  1.00  0.00     0.074 A 
ATOM     52  C   UNL A   1      38.860  29.812  28.568  1.00  0.00     0.031 C 
ATOM     53  C   UNL A   1      37.703  33.266  34.410  1.00  0.00     0.029 A 
ATOM     54  C   UNL A   1      38.818  32.326  34.439  1.00  0.00     0.049 A 
ATOM     55  H   UNL A   1      39.612  31.254  32.838  1.00  0.00     0.167 HD
ATOM     56  C   UNL A   1      40.721  28.536  29.584  1.00  0.00     0.034 A 
ATOM     57  C   UNL A   1      39.539  32.006  35.533  1.00  0.00     0.034 A 
ATOM     58  C   UNL A   1      41.673  28.281  30.629  1.00  0.00     0.049 A 
ATOM     59  C   UNL A   1      40.688  31.047  35.396  1.00  0.00     0.074 A 
ATOM     60  C   UNL A   1      42.775  27.444  30.608  1.00  0.00     0.029 A 
ATOM     61  N   UNL A   1      41.642  28.871  31.884  1.00  0.00    -0.354 N 
ATOM     62  N   UNL A   1      41.081  30.381  34.337  1.00  0.00    -0.248 NA
ATOM     63  C   UNL A   1      41.520  30.825  36.588  1.00  0.00     0.031 C 
ATOM     64  C   UNL A   1      43.414  27.532  31.850  1.00  0.00     0.029 A 
ATOM     65  C   UNL A   1      42.707  28.421  32.645  1.00  0.00     0.049 A 
ATOM     66  H   UNL A   1      40.964  29.516  32.188  1.00  0.00     0.167 HD
ATOM     67  C   UNL A   1      42.217  29.681  34.725  1.00  0.00     0.074 A 
ATOM     68  C   UNL A   1      42.464  30.023  36.112  1.00  0.00     0.031 C 
ATOM     69  C   UNL A   1      42.973  28.816  34.005  1.00  0.00     0.034 A 
BRANCH  56  70
ATOM     70  C   UNL A   1      40.840  27.765  28.297  1.00  0.00     0.023 A 
ATOM     71  C   UNL A   1      41.474  28.366  27.189  1.00  0.00     0.012 A 
ATOM     72  C   UNL A   1      40.355  26.449  28.183  1.00  0.00     0.148 A 
ATOM     73  C   UNL A   1      41.583  27.686  25.977  1.00  0.00     0.002 A 
ATOM     74  C   UNL A   1      40.503  25.763  26.981  1.00  0.00     0.091 A 
ATOM     75  F   UNL A   1      39.729  25.899  29.233  1.00  0.00    -0.205 F 
ATOM     76  C   UNL A   1      41.106  26.382  25.875  1.00  0.00     0.022 A 
BRANCH  74  77
ATOM     77  S   UNL A   1      39.975  24.055  26.796  1.00  0.00     0.127 S 
ATOM     78  O   UNL A   1      40.028  23.574  28.174  1.00  0.00    -0.237 OA
ATOM     79  O   UNL A   1      38.623  24.196  26.252  1.00  0.00    -0.237 OA
ATOM     80  O   UNL A   1      40.929  23.455  25.873  1.00  0.00    -0.744 OA
ENDBRANCH  74  77
ENDBRANCH  56  70
BRANCH  57  81
ATOM     81  C   UNL A   1      39.239  32.684  36.825  1.00  0.00     0.023 A 
ATOM     82  C   UNL A   1      39.828  33.934  37.095  1.00  0.00     0.012 A 
ATOM     83  C   UNL A   1      38.316  32.145  37.743  1.00  0.00     0.148 A 
ATOM     84  C   UNL A   1      39.514  34.629  38.265  1.00  0.00     0.002 A 
ATOM     85  C   UNL A   1      37.969  32.866  38.880  1.00  0.00     0.091 A 
ATOM     86  F   UNL A   1      37.776  30.948  37.471  1.00  0.00    -0.205 F 
ATOM     87  C   UNL A   1      38.577  34.102  39.149  1.00  0.00     0.022 A 
BRANCH  85  88
ATOM     88  S   UNL A   1      36.667  32.331  39.998  1.00  0.00     0.127 S 
ATOM     89  O   UNL A   1      37.200  31.064  40.494  1.00  0.00    -0.237 OA
ATOM     90  O   UNL A   1      36.643  33.417  40.979  1.00  0.00    -0.237 OA
ATOM     91  O   UNL A   1      35.465  32.240  39.181  1.00  0.00    -0.744 OA
ENDBRANCH  85  88
ENDBRANCH  57  81
BRANCH  69  92
ATOM     92  C   UNL A   1      44.149  28.178  34.692  1.00  0.00     0.023 A 
ATOM     93  C   UNL A   1      45.401  28.822  34.658  1.00  0.00     0.012 A 
ATOM     94  C   UNL A   1      43.997  26.996  35.444  1.00  0.00     0.148 A 
ATOM     95  C   UNL A   1      46.490  28.289  35.346  1.00  0.00     0.002 A 
ATOM     96  C   UNL A   1      45.079  26.492  36.157  1.00  0.00     0.091 A 
ATOM     97  F   UNL A   1      42.803  26.384  35.444  1.00  0.00    -0.205 F 
ATOM     98  C   UNL A   1      46.326  27.133  36.105  1.00  0.00     0.022 A 
BRANCH  96  99
ATOM     99  S   UNL A   1      44.923  25.056  37.227  1.00  0.00     0.127 S 
ATOM    100  O   UNL A   1      46.240  25.010  37.860  1.00  0.00    -0.237 OA
ATOM    101  O   UNL A   1      43.830  25.442  38.120  1.00  0.00    -0.237 OA
ATOM    102  O   UNL A   1      44.607  23.942  36.343  1.00  0.00    -0.744 OA
ENDBRANCH  96  99
ENDBRANCH  69  92
ENDBRANCH  43  44
ENDBRANCH  35  38
ENDBRANCH  33  34
ENDBRANCH   1  33
TORSDOF 15
ENDMDL
