MODEL 1
REMARK VINA RESULT:     -12.2      0.000      0.000
REMARK SMILES CC1(C)CCSC[C@@H]1[N@@H+]1CCNC(=O)[C@@H]1CC(=O)NCCCNC(=O)c1ccc(-c2c3nc(c(-c4cccc(S(=O)(=O)[O-])c4F)c4ccc([nH]4)c(-c4cccc(S(=O)(=O)[O-])c4F)c4nc(c(-c5cccc(S(=O)(=O)[O-])c5F)c5ccc2[nH]5)C=C4)C=C3)cc1
REMARK SMILES IDX 21 1 20 2 19 3 17 4 18 5 16 7 15 8 9 9 10 10 11 12 13 13
REMARK SMILES IDX 12 14 14 15 8 17 1 18 2 19 3 20 4 21 5 22 7 23 6 24 22 25
REMARK SMILES IDX 23 26 24 27 25 29 26 30 27 31 88 32 28 33 87 34 29 35 30 36
REMARK SMILES IDX 31 37 81 38 32 39 86 40 80 41 82 42 33 43 85 44 79 45 78 46
REMARK SMILES IDX 34 48 66 49 46 50 65 51 47 52 50 53 64 54 83 55 48 56 49 57
REMARK SMILES IDX 63 59 84 60 51 61 35 62 36 63 44 64 37 65 39 66 45 67 38 68
REMARK SMILES IDX 40 69 41 70 42 71 43 72 67 73 68 74 76 75 69 76 71 77 77 78
REMARK SMILES IDX 70 79 72 80 73 81 74 82 75 83 52 84 53 85 61 86 54 87 56 88
REMARK SMILES IDX 62 89 55 90 57 91 58 92 59 93 60 94
REMARK H PARENT 19 6 9 11 12 16 23 28 82 47 50 58
REMARK Flexibility Score: inf
ROOT
ATOM      1  C   UNL A   1      31.357  32.095  26.528  1.00  0.00     0.042 C 
ENDROOT
BRANCH   1   2
ATOM      2  C   UNL A   1      31.452  30.661  26.008  1.00  0.00     0.117 C 
BRANCH   2   3
ATOM      3  N   UNL A   1      30.895  30.477  24.678  1.00  0.00    -0.356 N 
ATOM      4  C   UNL A   1      30.690  29.368  23.910  1.00  0.00     0.226 C 
ATOM      5  O   UNL A   1      30.174  29.561  22.805  1.00  0.00    -0.275 OA
ATOM      6  H   UNL A   1      30.610  31.316  24.248  1.00  0.00     0.163 HD
BRANCH   4   7
ATOM      7  C   UNL A   1      30.951  27.945  24.389  1.00  0.00     0.175 C 
BRANCH   7   8
ATOM      8  C   UNL A   1      32.322  27.260  24.174  1.00  0.00     0.283 C 
ATOM      9  N   UNL A   1      32.974  26.409  25.196  1.00  0.00    -0.319 N 
ATOM     10  C   UNL A   1      33.507  27.241  26.293  1.00  0.00     0.284 C 
ATOM     11  H   UNL A   1      33.729  25.981  24.659  1.00  0.00     0.349 HD
ATOM     12  C   UNL A   1      34.306  28.501  25.916  1.00  0.00     0.177 C 
ATOM     13  C   UNL A   1      33.301  28.348  23.662  1.00  0.00     0.279 C 
ATOM     14  N   UNL A   1      34.068  28.996  24.586  1.00  0.00    -0.345 N 
ATOM     15  O   UNL A   1      33.339  28.699  22.483  1.00  0.00    -0.268 OA
ATOM     16  H   UNL A   1      34.483  29.850  24.328  1.00  0.00     0.163 HD
BRANCH   9  17
ATOM     17  C   UNL A   1      32.329  25.137  25.661  1.00  0.00     0.200 C 
ATOM     18  C   UNL A   1      32.790  22.701  26.382  1.00  0.00     0.017 C 
ATOM     19  C   UNL A   1      33.248  23.860  25.443  1.00  0.00     0.018 C 
ATOM     20  C   UNL A   1      34.729  24.122  25.798  1.00  0.00     0.017 C 
ATOM     21  C   UNL A   1      33.213  23.398  23.958  1.00  0.00     0.023 C 
ATOM     22  C   UNL A   1      31.856  22.937  23.439  1.00  0.00     0.070 C 
ATOM     23  C   UNL A   1      30.877  24.787  25.174  1.00  0.00     0.135 C 
ATOM     24  S   UNL A   1      30.651  24.272  23.454  1.00  0.00    -0.156 SA
ENDBRANCH   9  17
ENDBRANCH   7   8
ENDBRANCH   4   7
ENDBRANCH   2   3
ENDBRANCH   1   2
BRANCH   1  25
ATOM     25  C   UNL A   1      32.600  32.546  27.267  1.00  0.00     0.118 C 
BRANCH  25  26
ATOM     26  N   UNL A   1      32.512  33.949  27.631  1.00  0.00    -0.352 N 
ATOM     27  C   UNL A   1      33.131  34.643  28.647  1.00  0.00     0.251 C 
ATOM     28  H   UNL A   1      31.918  34.489  27.062  1.00  0.00     0.163 HD
ATOM     29  O   UNL A   1      32.678  35.738  28.973  1.00  0.00    -0.269 OA
BRANCH  27  30
ATOM     30  C   UNL A   1      34.314  34.090  29.356  1.00  0.00     0.039 A 
ATOM     31  C   UNL A   1      35.598  34.365  28.868  1.00  0.00     0.014 A 
ATOM     32  C   UNL A   1      34.177  33.248  30.459  1.00  0.00     0.014 A 
ATOM     33  C   UNL A   1      36.723  33.831  29.509  1.00  0.00     0.010 A 
ATOM     34  C   UNL A   1      35.296  32.835  31.176  1.00  0.00     0.010 A 
ATOM     35  C   UNL A   1      36.585  33.081  30.687  1.00  0.00    -0.014 A 
BRANCH  35  36
ATOM     36  C   UNL A   1      37.752  32.495  31.403  1.00  0.00     0.031 A 
ATOM     37  C   UNL A   1      38.526  31.358  30.775  1.00  0.00     0.074 A 
ATOM     38  C   UNL A   1      38.052  32.902  32.652  1.00  0.00     0.049 A 
ATOM     39  N   UNL A   1      39.489  30.634  31.283  1.00  0.00    -0.248 NA
ATOM     40  C   UNL A   1      38.135  30.949  29.412  1.00  0.00     0.031 C 
ATOM     41  C   UNL A   1      37.326  33.922  33.411  1.00  0.00     0.029 A 
ATOM     42  N   UNL A   1      39.029  32.480  33.521  1.00  0.00    -0.354 N 
ATOM     43  C   UNL A   1      39.769  29.652  30.337  1.00  0.00     0.074 A 
ATOM     44  C   UNL A   1      38.852  29.849  29.238  1.00  0.00     0.031 C 
ATOM     45  C   UNL A   1      37.881  34.049  34.626  1.00  0.00     0.029 A 
ATOM     46  C   UNL A   1      38.979  33.097  34.750  1.00  0.00     0.049 A 
ATOM     47  H   UNL A   1      39.701  31.800  33.287  1.00  0.00     0.167 HD
ATOM     48  C   UNL A   1      40.726  28.694  30.361  1.00  0.00     0.034 A 
ATOM     49  C   UNL A   1      39.725  32.908  35.857  1.00  0.00     0.034 A 
ATOM     50  C   UNL A   1      41.695  28.560  31.413  1.00  0.00     0.049 A 
ATOM     51  C   UNL A   1      40.839  31.897  35.823  1.00  0.00     0.074 A 
ATOM     52  C   UNL A   1      42.789  27.715  31.470  1.00  0.00     0.029 A 
ATOM     53  N   UNL A   1      41.688  29.289  32.590  1.00  0.00    -0.354 N 
ATOM     54  N   UNL A   1      41.199  31.101  34.846  1.00  0.00    -0.248 NA
ATOM     55  C   UNL A   1      41.674  31.784  37.028  1.00  0.00     0.031 C 
ATOM     56  C   UNL A   1      43.429  27.916  32.696  1.00  0.00     0.029 A 
ATOM     57  C   UNL A   1      42.750  28.905  33.388  1.00  0.00     0.049 A 
ATOM     58  H   UNL A   1      41.025  29.979  32.824  1.00  0.00     0.167 HD
ATOM     59  C   UNL A   1      42.317  30.414  35.307  1.00  0.00     0.074 A 
ATOM     60  C   UNL A   1      42.592  30.909  36.639  1.00  0.00     0.031 C 
ATOM     61  C   UNL A   1      43.039  29.445  34.691  1.00  0.00     0.034 A 
BRANCH  48  62
ATOM     62  C   UNL A   1      40.818  27.751  29.189  1.00  0.00     0.023 A 
ATOM     63  C   UNL A   1      39.999  26.604  29.146  1.00  0.00     0.012 A 
ATOM     64  C   UNL A   1      41.657  28.041  28.095  1.00  0.00     0.148 A 
ATOM     65  C   UNL A   1      40.038  25.743  28.050  1.00  0.00     0.002 A 
ATOM     66  C   UNL A   1      41.654  27.205  26.985  1.00  0.00     0.091 A 
ATOM     67  F   UNL A   1      42.441  29.126  28.160  1.00  0.00    -0.205 F 
ATOM     68  C   UNL A   1      40.854  26.049  26.965  1.00  0.00     0.022 A 
BRANCH  66  69
ATOM     69  S   UNL A   1      42.605  27.553  25.501  1.00  0.00     0.127 S 
ATOM     70  O   UNL A   1      43.963  27.642  26.037  1.00  0.00    -0.237 OA
ATOM     71  O   UNL A   1      42.347  26.366  24.686  1.00  0.00    -0.237 OA
ATOM     72  O   UNL A   1      42.069  28.793  24.960  1.00  0.00    -0.744 OA
ENDBRANCH  66  69
ENDBRANCH  48  62
BRANCH  49  73
ATOM     73  C   UNL A   1      39.474  33.731  37.075  1.00  0.00     0.023 A 
ATOM     74  C   UNL A   1      39.864  35.085  37.091  1.00  0.00     0.012 A 
ATOM     75  C   UNL A   1      38.831  33.190  38.205  1.00  0.00     0.148 A 
ATOM     76  C   UNL A   1      39.650  35.874  38.223  1.00  0.00     0.002 A 
ATOM     77  C   UNL A   1      38.567  33.997  39.305  1.00  0.00     0.091 A 
ATOM     78  F   UNL A   1      38.479  31.897  38.177  1.00  0.00    -0.205 F 
ATOM     79  C   UNL A   1      38.994  35.334  39.325  1.00  0.00     0.022 A 
BRANCH  77  80
ATOM     80  S   UNL A   1      37.598  33.422  40.705  1.00  0.00     0.127 S 
ATOM     81  O   UNL A   1      37.482  34.633  41.508  1.00  0.00    -0.237 OA
ATOM     82  O   UNL A   1      36.360  32.985  40.059  1.00  0.00    -0.237 OA
ATOM     83  O   UNL A   1      38.376  32.336  41.294  1.00  0.00    -0.744 OA
ENDBRANCH  77  80
ENDBRANCH  49  73
BRANCH  61  84
ATOM     84  C   UNL A   1      44.216  28.873  35.434  1.00  0.00     0.023 A 
ATOM     85  C   UNL A   1      45.487  29.462  35.290  1.00  0.00     0.012 A 
ATOM     86  C   UNL A   1      44.043  27.806  36.338  1.00  0.00     0.148 A 
ATOM     87  C   UNL A   1      46.577  28.977  36.012  1.00  0.00     0.002 A 
ATOM     88  C   UNL A   1      45.122  27.361  37.090  1.00  0.00     0.091 A 
ATOM     89  F   UNL A   1      42.828  27.250  36.446  1.00  0.00    -0.205 F 
ATOM     90  C   UNL A   1      46.392  27.937  36.920  1.00  0.00     0.022 A 
BRANCH  88  91
ATOM     91  S   UNL A   1      44.957  26.096  38.354  1.00  0.00     0.127 S 
ATOM     92  O   UNL A   1      44.000  26.714  39.269  1.00  0.00    -0.237 OA
ATOM     93  O   UNL A   1      44.430  24.963  37.592  1.00  0.00    -0.237 OA
ATOM     94  O   UNL A   1      46.294  25.890  38.894  1.00  0.00    -0.744 OA
ENDBRANCH  88  91
ENDBRANCH  61  84
ENDBRANCH  35  36
ENDBRANCH  27  30
ENDBRANCH  25  26
ENDBRANCH   1  25
TORSDOF 15
ENDMDL
MODEL 2
REMARK VINA RESULT:     -11.9      3.455      8.800
REMARK SMILES CC1(C)CCSC[C@@H]1[N@@H+]1CCNC(=O)[C@@H]1CC(=O)NCCCNC(=O)c1ccc(-c2c3nc(c(-c4cccc(S(=O)(=O)[O-])c4F)c4ccc([nH]4)c(-c4cccc(S(=O)(=O)[O-])c4F)c4nc(c(-c5cccc(S(=O)(=O)[O-])c5F)c5ccc2[nH]5)C=C4)C=C3)cc1
REMARK SMILES IDX 21 1 20 2 19 3 17 4 18 5 16 7 15 8 9 9 10 10 11 12 13 13
REMARK SMILES IDX 12 14 14 15 8 17 1 18 2 19 3 20 4 21 5 22 7 23 6 24 22 25
REMARK SMILES IDX 23 26 24 27 25 29 26 30 27 31 88 32 28 33 87 34 29 35 30 36
REMARK SMILES IDX 31 37 81 38 32 39 86 40 80 41 82 42 33 43 85 44 79 45 78 46
REMARK SMILES IDX 34 48 66 49 46 50 65 51 47 52 50 53 64 54 83 55 48 56 49 57
REMARK SMILES IDX 63 59 84 60 51 61 35 62 36 63 44 64 37 65 39 66 45 67 38 68
REMARK SMILES IDX 40 69 41 70 42 71 43 72 67 73 68 74 76 75 69 76 71 77 77 78
REMARK SMILES IDX 70 79 72 80 73 81 74 82 75 83 52 84 53 85 61 86 54 87 56 88
REMARK SMILES IDX 62 89 55 90 57 91 58 92 59 93 60 94
REMARK H PARENT 19 6 9 11 12 16 23 28 82 47 50 58
REMARK Flexibility Score: inf
ROOT
ATOM      1  C   UNL A   1      32.533  28.260  25.831  1.00  0.00     0.042 C 
ENDROOT
BRANCH   1   2
ATOM      2  C   UNL A   1      32.372  27.756  24.397  1.00  0.00     0.117 C 
BRANCH   2   3
ATOM      3  N   UNL A   1      31.001  27.444  24.031  1.00  0.00    -0.356 N 
ATOM      4  C   UNL A   1      30.347  26.263  23.827  1.00  0.00     0.226 C 
ATOM      5  O   UNL A   1      29.151  26.350  23.531  1.00  0.00    -0.275 OA
ATOM      6  H   UNL A   1      30.433  28.239  23.908  1.00  0.00     0.163 HD
BRANCH   4   7
ATOM      7  C   UNL A   1      30.977  24.896  24.057  1.00  0.00     0.175 C 
BRANCH   7   8
ATOM      8  C   UNL A   1      31.523  24.480  25.445  1.00  0.00     0.283 C 
ATOM      9  N   UNL A   1      31.957  23.102  25.768  1.00  0.00    -0.319 N 
ATOM     10  C   UNL A   1      30.786  22.213  25.907  1.00  0.00     0.284 C 
ATOM     11  H   UNL A   1      32.426  23.236  26.664  1.00  0.00     0.349 HD
ATOM     12  C   UNL A   1      29.601  22.715  26.750  1.00  0.00     0.177 C 
ATOM     13  C   UNL A   1      30.516  24.999  26.504  1.00  0.00     0.279 C 
ATOM     14  N   UNL A   1      29.542  24.143  26.926  1.00  0.00    -0.345 N 
ATOM     15  O   UNL A   1      30.517  26.165  26.900  1.00  0.00    -0.268 OA
ATOM     16  H   UNL A   1      28.754  24.522  27.378  1.00  0.00     0.163 HD
BRANCH   9  17
ATOM     17  C   UNL A   1      33.110  22.472  25.045  1.00  0.00     0.200 C 
ATOM     18  C   UNL A   1      35.204  20.989  25.339  1.00  0.00     0.017 C 
ATOM     19  C   UNL A   1      34.305  22.072  26.012  1.00  0.00     0.018 C 
ATOM     20  C   UNL A   1      33.816  21.442  27.336  1.00  0.00     0.017 C 
ATOM     21  C   UNL A   1      35.154  23.319  26.389  1.00  0.00     0.023 C 
ATOM     22  C   UNL A   1      35.865  24.012  25.233  1.00  0.00     0.070 C 
ATOM     23  C   UNL A   1      33.716  23.190  23.786  1.00  0.00     0.135 C 
ATOM     24  S   UNL A   1      34.698  24.688  24.045  1.00  0.00    -0.156 SA
ENDBRANCH   9  17
ENDBRANCH   7   8
ENDBRANCH   4   7
ENDBRANCH   2   3
ENDBRANCH   1   2
BRANCH   1  25
ATOM     25  C   UNL A   1      33.905  28.838  26.110  1.00  0.00     0.118 C 
BRANCH  25  26
ATOM     26  N   UNL A   1      33.809  30.209  26.582  1.00  0.00    -0.352 N 
ATOM     27  C   UNL A   1      34.522  30.861  27.563  1.00  0.00     0.251 C 
ATOM     28  H   UNL A   1      33.128  30.757  26.130  1.00  0.00     0.163 HD
ATOM     29  O   UNL A   1      34.070  31.910  28.020  1.00  0.00    -0.269 OA
BRANCH  27  30
ATOM     30  C   UNL A   1      35.804  30.319  28.083  1.00  0.00     0.039 A 
ATOM     31  C   UNL A   1      36.967  30.453  27.315  1.00  0.00     0.014 A 
ATOM     32  C   UNL A   1      35.867  29.620  29.287  1.00  0.00     0.014 A 
ATOM     33  C   UNL A   1      38.180  29.925  27.777  1.00  0.00     0.010 A 
ATOM     34  C   UNL A   1      37.093  29.221  29.810  1.00  0.00     0.010 A 
ATOM     35  C   UNL A   1      38.260  29.326  29.044  1.00  0.00    -0.014 A 
BRANCH  35  36
ATOM     36  C   UNL A   1      39.527  28.752  29.577  1.00  0.00     0.031 A 
ATOM     37  C   UNL A   1      40.235  29.430  30.728  1.00  0.00     0.074 A 
ATOM     38  C   UNL A   1      40.097  27.693  28.968  1.00  0.00     0.049 A 
ATOM     39  N   UNL A   1      41.402  29.162  31.253  1.00  0.00    -0.248 NA
ATOM     40  C   UNL A   1      39.567  30.594  31.338  1.00  0.00     0.031 C 
ATOM     41  C   UNL A   1      39.567  27.005  27.789  1.00  0.00     0.029 A 
ATOM     42  N   UNL A   1      41.271  27.031  29.235  1.00  0.00    -0.354 N 
ATOM     43  C   UNL A   1      41.632  30.154  32.202  1.00  0.00     0.074 A 
ATOM     44  C   UNL A   1      40.502  31.053  32.156  1.00  0.00     0.031 C 
ATOM     45  C   UNL A   1      40.408  26.020  27.437  1.00  0.00     0.029 A 
ATOM     46  C   UNL A   1      41.554  26.025  28.340  1.00  0.00     0.049 A 
ATOM     47  H   UNL A   1      41.855  27.255  29.996  1.00  0.00     0.167 HD
ATOM     48  C   UNL A   1      42.672  30.289  33.059  1.00  0.00     0.034 A 
ATOM     49  C   UNL A   1      42.622  25.208  28.247  1.00  0.00     0.034 A 
ATOM     50  C   UNL A   1      43.748  29.343  33.164  1.00  0.00     0.049 A 
ATOM     51  C   UNL A   1      43.721  25.325  29.269  1.00  0.00     0.074 A 
ATOM     52  C   UNL A   1      44.776  29.311  34.090  1.00  0.00     0.029 A 
ATOM     53  N   UNL A   1      43.935  28.263  32.318  1.00  0.00    -0.354 N 
ATOM     54  N   UNL A   1      43.828  26.163  30.271  1.00  0.00    -0.248 NA
ATOM     55  C   UNL A   1      44.826  24.360  29.173  1.00  0.00     0.031 C 
ATOM     56  C   UNL A   1      45.600  28.224  33.785  1.00  0.00     0.029 A 
ATOM     57  C   UNL A   1      45.069  27.565  32.689  1.00  0.00     0.049 A 
ATOM     58  H   UNL A   1      43.347  28.027  31.563  1.00  0.00     0.167 HD
ATOM     59  C   UNL A   1      44.995  25.810  30.940  1.00  0.00     0.074 A 
ATOM     60  C   UNL A   1      45.543  24.663  30.247  1.00  0.00     0.031 C 
ATOM     61  C   UNL A   1      45.572  26.394  32.019  1.00  0.00     0.034 A 
BRANCH  48  62
ATOM     62  C   UNL A   1      42.671  31.468  33.999  1.00  0.00     0.023 A 
ATOM     63  C   UNL A   1      43.209  32.701  33.577  1.00  0.00     0.012 A 
ATOM     64  C   UNL A   1      42.067  31.376  35.268  1.00  0.00     0.148 A 
ATOM     65  C   UNL A   1      43.177  33.815  34.414  1.00  0.00     0.002 A 
ATOM     66  C   UNL A   1      41.996  32.503  36.079  1.00  0.00     0.091 A 
ATOM     67  F   UNL A   1      41.577  30.192  35.660  1.00  0.00    -0.205 F 
ATOM     68  C   UNL A   1      42.560  33.720  35.658  1.00  0.00     0.022 A 
BRANCH  66  69
ATOM     69  S   UNL A   1      41.151  32.510  37.664  1.00  0.00     0.127 S 
ATOM     70  O   UNL A   1      39.835  31.988  37.297  1.00  0.00    -0.237 OA
ATOM     71  O   UNL A   1      41.973  31.593  38.453  1.00  0.00    -0.237 OA
ATOM     72  O   UNL A   1      41.166  33.892  38.123  1.00  0.00    -0.744 OA
ENDBRANCH  66  69
ENDBRANCH  48  62
BRANCH  49  73
ATOM     73  C   UNL A   1      42.680  24.174  27.175  1.00  0.00     0.023 A 
ATOM     74  C   UNL A   1      43.407  24.433  25.997  1.00  0.00     0.012 A 
ATOM     75  C   UNL A   1      42.040  22.928  27.325  1.00  0.00     0.148 A 
ATOM     76  C   UNL A   1      43.468  23.485  24.974  1.00  0.00     0.002 A 
ATOM     77  C   UNL A   1      42.155  21.966  26.328  1.00  0.00     0.091 A 
ATOM     78  F   UNL A   1      41.340  22.704  28.446  1.00  0.00    -0.205 F 
ATOM     79  C   UNL A   1      42.851  22.249  25.143  1.00  0.00     0.022 A 
BRANCH  77  80
ATOM     80  S   UNL A   1      41.515  20.299  26.529  1.00  0.00     0.127 S 
ATOM     81  O   UNL A   1      42.064  19.920  27.825  1.00  0.00    -0.237 OA
ATOM     82  O   UNL A   1      40.069  20.523  26.509  1.00  0.00    -0.237 OA
ATOM     83  O   UNL A   1      42.016  19.551  25.380  1.00  0.00    -0.744 OA
ENDBRANCH  77  80
ENDBRANCH  49  73
BRANCH  61  84
ATOM     84  C   UNL A   1      46.849  25.791  32.540  1.00  0.00     0.023 A 
ATOM     85  C   UNL A   1      48.088  26.269  32.076  1.00  0.00     0.012 A 
ATOM     86  C   UNL A   1      46.817  24.810  33.552  1.00  0.00     0.148 A 
ATOM     87  C   UNL A   1      49.281  25.758  32.587  1.00  0.00     0.002 A 
ATOM     88  C   UNL A   1      48.008  24.342  34.092  1.00  0.00     0.091 A 
ATOM     89  F   UNL A   1      45.626  24.358  33.968  1.00  0.00    -0.205 F 
ATOM     90  C   UNL A   1      49.240  24.805  33.602  1.00  0.00     0.022 A 
BRANCH  88  91
ATOM     91  S   UNL A   1      48.052  23.191  35.470  1.00  0.00     0.127 S 
ATOM     92  O   UNL A   1      47.430  22.005  34.885  1.00  0.00    -0.237 OA
ATOM     93  O   UNL A   1      49.488  23.065  35.723  1.00  0.00    -0.237 OA
ATOM     94  O   UNL A   1      47.302  23.823  36.547  1.00  0.00    -0.744 OA
ENDBRANCH  88  91
ENDBRANCH  61  84
ENDBRANCH  35  36
ENDBRANCH  27  30
ENDBRANCH  25  26
ENDBRANCH   1  25
TORSDOF 15
ENDMDL
MODEL 3
REMARK VINA RESULT:     -11.9      6.022     11.951
REMARK SMILES CC1(C)CCSC[C@@H]1[N@@H+]1CCNC(=O)[C@@H]1CC(=O)NCCCNC(=O)c1ccc(-c2c3nc(c(-c4cccc(S(=O)(=O)[O-])c4F)c4ccc([nH]4)c(-c4cccc(S(=O)(=O)[O-])c4F)c4nc(c(-c5cccc(S(=O)(=O)[O-])c5F)c5ccc2[nH]5)C=C4)C=C3)cc1
REMARK SMILES IDX 21 1 20 2 19 3 17 4 18 5 16 7 15 8 9 9 10 10 11 12 13 13
REMARK SMILES IDX 12 14 14 15 8 17 1 18 2 19 3 20 4 21 5 22 7 23 6 24 22 25
REMARK SMILES IDX 23 26 24 27 25 29 26 30 27 31 88 32 28 33 87 34 29 35 30 36
REMARK SMILES IDX 31 37 81 38 32 39 86 40 80 41 82 42 33 43 85 44 79 45 78 46
REMARK SMILES IDX 34 48 66 49 46 50 65 51 47 52 50 53 64 54 83 55 48 56 49 57
REMARK SMILES IDX 63 59 84 60 51 61 35 62 36 63 44 64 37 65 39 66 45 67 38 68
REMARK SMILES IDX 40 69 41 70 42 71 43 72 67 73 68 74 76 75 69 76 71 77 77 78
REMARK SMILES IDX 70 79 72 80 73 81 74 82 75 83 52 84 53 85 61 86 54 87 56 88
REMARK SMILES IDX 62 89 55 90 57 91 58 92 59 93 60 94
REMARK H PARENT 19 6 9 11 12 16 23 28 82 47 50 58
REMARK Flexibility Score: inf
ROOT
ATOM      1  C   UNL A   1      37.995  19.399  25.003  1.00  0.00     0.042 C 
ENDROOT
BRANCH   1   2
ATOM      2  C   UNL A   1      36.811  20.330  24.748  1.00  0.00     0.117 C 
BRANCH   2   3
ATOM      3  N   UNL A   1      35.517  19.725  25.010  1.00  0.00    -0.356 N 
ATOM      4  C   UNL A   1      34.239  20.196  24.904  1.00  0.00     0.226 C 
ATOM      5  O   UNL A   1      33.342  19.401  25.200  1.00  0.00    -0.275 OA
ATOM      6  H   UNL A   1      35.571  18.793  25.323  1.00  0.00     0.163 HD
BRANCH   4   7
ATOM      7  C   UNL A   1      33.887  21.568  24.346  1.00  0.00     0.175 C 
BRANCH   7   8
ATOM      8  C   UNL A   1      33.726  22.800  25.270  1.00  0.00     0.283 C 
ATOM      9  N   UNL A   1      34.150  24.166  24.885  1.00  0.00    -0.319 N 
ATOM     10  C   UNL A   1      35.622  24.274  24.914  1.00  0.00     0.284 C 
ATOM     11  H   UNL A   1      33.725  24.731  25.621  1.00  0.00     0.349 HD
ATOM     12  C   UNL A   1      36.360  23.706  26.139  1.00  0.00     0.177 C 
ATOM     13  C   UNL A   1      34.315  22.413  26.651  1.00  0.00     0.279 C 
ATOM     14  N   UNL A   1      35.618  22.732  26.896  1.00  0.00    -0.345 N 
ATOM     15  O   UNL A   1      33.680  21.761  27.480  1.00  0.00    -0.268 OA
ATOM     16  H   UNL A   1      36.079  22.269  27.634  1.00  0.00     0.163 HD
BRANCH   9  17
ATOM     17  C   UNL A   1      33.516  24.866  23.720  1.00  0.00     0.200 C 
ATOM     18  C   UNL A   1      32.691  27.155  22.853  1.00  0.00     0.017 C 
ATOM     19  C   UNL A   1      32.853  26.254  24.117  1.00  0.00     0.018 C 
ATOM     20  C   UNL A   1      33.723  27.071  25.099  1.00  0.00     0.017 C 
ATOM     21  C   UNL A   1      31.476  26.036  24.804  1.00  0.00     0.023 C 
ATOM     22  C   UNL A   1      30.403  25.377  23.944  1.00  0.00     0.070 C 
ATOM     23  C   UNL A   1      32.505  24.083  22.806  1.00  0.00     0.135 C 
ATOM     24  S   UNL A   1      30.866  23.705  23.471  1.00  0.00    -0.156 SA
ENDBRANCH   9  17
ENDBRANCH   7   8
ENDBRANCH   4   7
ENDBRANCH   2   3
ENDBRANCH   1   2
BRANCH   1  25
ATOM     25  C   UNL A   1      39.150  20.080  25.709  1.00  0.00     0.118 C 
BRANCH  25  26
ATOM     26  N   UNL A   1      40.242  19.150  25.942  1.00  0.00    -0.352 N 
ATOM     27  C   UNL A   1      41.590  19.386  26.095  1.00  0.00     0.251 C 
ATOM     28  H   UNL A   1      39.976  18.205  26.003  1.00  0.00     0.163 HD
ATOM     29  O   UNL A   1      42.370  18.444  25.964  1.00  0.00    -0.269 OA
BRANCH  27  30
ATOM     30  C   UNL A   1      42.113  20.744  26.396  1.00  0.00     0.039 A 
ATOM     31  C   UNL A   1      42.307  21.125  27.729  1.00  0.00     0.014 A 
ATOM     32  C   UNL A   1      42.353  21.674  25.385  1.00  0.00     0.014 A 
ATOM     33  C   UNL A   1      42.774  22.411  28.032  1.00  0.00     0.010 A 
ATOM     34  C   UNL A   1      42.948  22.897  25.677  1.00  0.00     0.010 A 
ATOM     35  C   UNL A   1      43.126  23.302  27.006  1.00  0.00    -0.014 A 
BRANCH  35  36
ATOM     36  C   UNL A   1      43.627  24.677  27.280  1.00  0.00     0.031 A 
ATOM     37  C   UNL A   1      42.683  25.730  27.814  1.00  0.00     0.074 A 
ATOM     38  C   UNL A   1      44.891  25.013  26.953  1.00  0.00     0.049 A 
ATOM     39  N   UNL A   1      42.890  27.008  28.002  1.00  0.00    -0.248 NA
ATOM     40  C   UNL A   1      41.309  25.302  28.136  1.00  0.00     0.031 C 
ATOM     41  C   UNL A   1      45.876  24.119  26.341  1.00  0.00     0.029 A 
ATOM     42  N   UNL A   1      45.555  26.212  27.056  1.00  0.00    -0.354 N 
ATOM     43  C   UNL A   1      41.666  27.540  28.396  1.00  0.00     0.074 A 
ATOM     44  C   UNL A   1      40.711  26.456  28.387  1.00  0.00     0.031 C 
ATOM     45  C   UNL A   1      47.015  24.796  26.126  1.00  0.00     0.029 A 
ATOM     46  C   UNL A   1      46.834  26.180  26.550  1.00  0.00     0.049 A 
ATOM     47  H   UNL A   1      45.153  27.017  27.454  1.00  0.00     0.167 HD
ATOM     48  C   UNL A   1      41.368  28.808  28.767  1.00  0.00     0.034 A 
ATOM     49  C   UNL A   1      47.754  27.158  26.428  1.00  0.00     0.034 A 
ATOM     50  C   UNL A   1      42.340  29.861  28.863  1.00  0.00     0.049 A 
ATOM     51  C   UNL A   1      47.423  28.538  26.931  1.00  0.00     0.074 A 
ATOM     52  C   UNL A   1      42.173  31.142  29.358  1.00  0.00     0.029 A 
ATOM     53  N   UNL A   1      43.660  29.756  28.458  1.00  0.00    -0.354 N 
ATOM     54  N   UNL A   1      46.309  28.973  27.468  1.00  0.00    -0.248 NA
ATOM     55  C   UNL A   1      48.486  29.550  26.849  1.00  0.00     0.031 C 
ATOM     56  C   UNL A   1      43.388  31.820  29.227  1.00  0.00     0.029 A 
ATOM     57  C   UNL A   1      44.317  30.953  28.677  1.00  0.00     0.049 A 
ATOM     58  H   UNL A   1      44.070  28.949  28.070  1.00  0.00     0.167 HD
ATOM     59  C   UNL A   1      46.546  30.300  27.812  1.00  0.00     0.074 A 
ATOM     60  C   UNL A   1      47.918  30.587  27.450  1.00  0.00     0.031 C 
ATOM     61  C   UNL A   1      45.698  31.206  28.359  1.00  0.00     0.034 A 
BRANCH  48  62
ATOM     62  C   UNL A   1      39.946  29.119  29.159  1.00  0.00     0.023 A 
ATOM     63  C   UNL A   1      38.965  29.288  28.160  1.00  0.00     0.012 A 
ATOM     64  C   UNL A   1      39.566  29.166  30.515  1.00  0.00     0.148 A 
ATOM     65  C   UNL A   1      37.636  29.531  28.503  1.00  0.00     0.002 A 
ATOM     66  C   UNL A   1      38.231  29.361  30.849  1.00  0.00     0.091 A 
ATOM     67  F   UNL A   1      40.515  29.021  31.450  1.00  0.00    -0.205 F 
ATOM     68  C   UNL A   1      37.267  29.556  29.845  1.00  0.00     0.022 A 
BRANCH  66  69
ATOM     69  S   UNL A   1      37.637  29.327  32.544  1.00  0.00     0.127 S 
ATOM     70  O   UNL A   1      37.768  27.908  32.872  1.00  0.00    -0.237 OA
ATOM     71  O   UNL A   1      38.594  30.201  33.221  1.00  0.00    -0.237 OA
ATOM     72  O   UNL A   1      36.272  29.832  32.503  1.00  0.00    -0.744 OA
ENDBRANCH  66  69
ENDBRANCH  48  62
BRANCH  49  73
ATOM     73  C   UNL A   1      49.094  26.855  25.850  1.00  0.00     0.023 A 
ATOM     74  C   UNL A   1      50.047  26.167  26.627  1.00  0.00     0.012 A 
ATOM     75  C   UNL A   1      49.421  27.220  24.529  1.00  0.00     0.148 A 
ATOM     76  C   UNL A   1      51.312  25.880  26.112  1.00  0.00     0.002 A 
ATOM     77  C   UNL A   1      50.661  26.878  24.003  1.00  0.00     0.091 A 
ATOM     78  F   UNL A   1      48.508  27.885  23.809  1.00  0.00    -0.205 F 
ATOM     79  C   UNL A   1      51.616  26.226  24.798  1.00  0.00     0.022 A 
BRANCH  77  80
ATOM     80  S   UNL A   1      51.078  27.155  22.277  1.00  0.00     0.127 S 
ATOM     81  O   UNL A   1      49.966  26.509  21.591  1.00  0.00    -0.237 OA
ATOM     82  O   UNL A   1      51.091  28.616  22.198  1.00  0.00    -0.237 OA
ATOM     83  O   UNL A   1      52.388  26.539  22.092  1.00  0.00    -0.744 OA
ENDBRANCH  77  80
ENDBRANCH  49  73
BRANCH  61  84
ATOM     84  C   UNL A   1      46.231  32.587  28.630  1.00  0.00     0.023 A 
ATOM     85  C   UNL A   1      46.912  32.849  29.833  1.00  0.00     0.012 A 
ATOM     86  C   UNL A   1      46.129  33.598  27.655  1.00  0.00     0.148 A 
ATOM     87  C   UNL A   1      47.459  34.108  30.078  1.00  0.00     0.002 A 
ATOM     88  C   UNL A   1      46.719  34.835  27.883  1.00  0.00     0.091 A 
ATOM     89  F   UNL A   1      45.462  33.332  26.523  1.00  0.00    -0.205 F 
ATOM     90  C   UNL A   1      47.373  35.095  29.099  1.00  0.00     0.022 A 
BRANCH  88  91
ATOM     91  S   UNL A   1      46.746  36.132  26.642  1.00  0.00     0.127 S 
ATOM     92  O   UNL A   1      47.338  35.438  25.500  1.00  0.00    -0.237 OA
ATOM     93  O   UNL A   1      45.325  36.449  26.493  1.00  0.00    -0.237 OA
ATOM     94  O   UNL A   1      47.550  37.210  27.203  1.00  0.00    -0.744 OA
ENDBRANCH  88  91
ENDBRANCH  61  84
ENDBRANCH  35  36
ENDBRANCH  27  30
ENDBRANCH  25  26
ENDBRANCH   1  25
TORSDOF 15
ENDMDL
