MODEL 1
REMARK VINA RESULT:     -11.9      0.000      0.000
REMARK SMILES CC[C@@H](C)c1nc2cc(C(=O)NCCCNC(=O)c3ccc(-c4c5nc(c(-c6cccc(S(=O)(=O)[O-])c6F)c6ccc([nH]6)c(-c6cccc(S(=O)(=O)[O-])c6F)c6nc(c(-c7cccc(S(=O)(=O)[O-])c7F)c7ccc4[nH]7)C=C6)C=C5)cc3)ccc2n1[C@@H](C)CC
REMARK SMILES IDX 14 1 13 2 12 3 10 4 11 5 9 7 5 8 6 9 85 10 7 11 84 12 8 13
REMARK SMILES IDX 83 14 82 15 3 16 4 17 2 18 1 19 86 20 87 21 88 22 89 23
REMARK SMILES IDX 15 24 16 25 17 26 18 28 19 29 20 30 81 31 21 32 80 33 22 34
REMARK SMILES IDX 23 35 24 36 74 37 25 38 79 39 73 40 75 41 26 42 78 43 72 44
REMARK SMILES IDX 71 45 27 47 59 48 39 49 58 50 40 51 43 52 57 53 76 54 41 55
REMARK SMILES IDX 42 56 56 58 77 59 44 60 28 61 29 62 37 63 30 64 32 65 38 66
REMARK SMILES IDX 31 67 33 68 34 69 35 70 36 71 60 72 61 73 69 74 62 75 64 76
REMARK SMILES IDX 70 77 63 78 65 79 66 80 67 81 68 82 45 83 46 84 54 85 47 86
REMARK SMILES IDX 49 87 55 88 48 89 50 90 51 91 52 92 53 93
REMARK H PARENT 12 6 16 27 75 46 43 57
REMARK Flexibility Score: inf
ROOT
ATOM      1  C   UNL A   1      32.081  30.842  26.744  1.00  0.00     0.042 C 
ENDROOT
BRANCH   1   2
ATOM      2  C   UNL A   1      31.517  29.635  25.979  1.00  0.00     0.118 C 
BRANCH   2   3
ATOM      3  N   UNL A   1      31.871  29.643  24.564  1.00  0.00    -0.352 N 
ATOM      4  C   UNL A   1      32.328  28.676  23.697  1.00  0.00     0.251 C 
ATOM      5  O   UNL A   1      32.354  28.972  22.499  1.00  0.00    -0.269 OA
ATOM      6  H   UNL A   1      31.760  30.525  24.140  1.00  0.00     0.163 HD
BRANCH   4   7
ATOM      7  C   UNL A   1      32.781  27.312  24.109  1.00  0.00     0.042 A 
ATOM      8  C   UNL A   1      32.908  22.736  23.924  1.00  0.00     0.112 A 
ATOM      9  N   UNL A   1      32.148  23.679  23.370  1.00  0.00    -0.233 NA
ATOM     10  N   UNL A   1      33.781  23.339  24.829  1.00  0.00    -0.325 N 
ATOM     11  C   UNL A   1      32.568  24.892  23.841  1.00  0.00     0.090 A 
ATOM     12  C   UNL A   1      33.599  24.717  24.744  1.00  0.00     0.068 A 
ATOM     13  C   UNL A   1      32.139  26.197  23.524  1.00  0.00     0.044 A 
ATOM     14  C   UNL A   1      34.257  25.803  25.334  1.00  0.00     0.029 A 
ATOM     15  C   UNL A   1      33.853  27.092  24.972  1.00  0.00     0.016 A 
BRANCH   8  16
ATOM     16  C   UNL A   1      32.827  21.290  23.403  1.00  0.00     0.052 C 
ATOM     17  C   UNL A   1      31.915  21.262  22.154  1.00  0.00     0.016 C 
BRANCH  16  18
ATOM     18  C   UNL A   1      32.370  20.157  24.334  1.00  0.00     0.008 C 
ATOM     19  C   UNL A   1      32.568  18.762  23.740  1.00  0.00     0.004 C 
ENDBRANCH  16  18
ENDBRANCH   8  16
BRANCH  10  20
ATOM     20  C   UNL A   1      34.787  22.777  25.728  1.00  0.00     0.085 C 
ATOM     21  C   UNL A   1      34.173  21.984  26.886  1.00  0.00     0.031 C 
BRANCH  20  22
ATOM     22  C   UNL A   1      35.990  22.149  24.997  1.00  0.00     0.022 C 
ATOM     23  C   UNL A   1      36.094  20.645  25.244  1.00  0.00     0.006 C 
ENDBRANCH  20  22
ENDBRANCH  10  20
ENDBRANCH   4   7
ENDBRANCH   2   3
ENDBRANCH   1   2
BRANCH   1  24
ATOM     24  C   UNL A   1      33.442  30.591  27.397  1.00  0.00     0.118 C 
BRANCH  24  25
ATOM     25  N   UNL A   1      33.863  31.661  28.282  1.00  0.00    -0.352 N 
ATOM     26  C   UNL A   1      34.972  31.959  29.028  1.00  0.00     0.251 C 
ATOM     27  H   UNL A   1      33.169  32.354  28.370  1.00  0.00     0.163 HD
ATOM     28  O   UNL A   1      34.910  33.031  29.639  1.00  0.00    -0.269 OA
BRANCH  26  29
ATOM     29  C   UNL A   1      36.201  31.126  29.172  1.00  0.00     0.039 A 
ATOM     30  C   UNL A   1      36.240  29.752  29.400  1.00  0.00     0.014 A 
ATOM     31  C   UNL A   1      37.433  31.811  29.064  1.00  0.00     0.014 A 
ATOM     32  C   UNL A   1      37.468  29.093  29.523  1.00  0.00     0.010 A 
ATOM     33  C   UNL A   1      38.662  31.154  29.183  1.00  0.00     0.010 A 
ATOM     34  C   UNL A   1      38.685  29.788  29.423  1.00  0.00    -0.014 A 
BRANCH  34  35
ATOM     35  C   UNL A   1      39.927  29.007  29.440  1.00  0.00     0.031 A 
ATOM     36  C   UNL A   1      40.527  28.814  30.788  1.00  0.00     0.074 A 
ATOM     37  C   UNL A   1      40.533  28.399  28.398  1.00  0.00     0.049 A 
ATOM     38  N   UNL A   1      41.546  29.438  31.287  1.00  0.00    -0.248 NA
ATOM     39  C   UNL A   1      39.868  27.888  31.717  1.00  0.00     0.031 C 
ATOM     40  C   UNL A   1      40.007  28.174  27.050  1.00  0.00     0.029 A 
ATOM     41  N   UNL A   1      41.752  27.773  28.364  1.00  0.00    -0.354 N 
ATOM     42  C   UNL A   1      41.803  28.812  32.502  1.00  0.00     0.074 A 
ATOM     43  C   UNL A   1      40.656  27.985  32.790  1.00  0.00     0.031 C 
ATOM     44  C   UNL A   1      40.806  27.296  26.399  1.00  0.00     0.029 A 
ATOM     45  C   UNL A   1      41.977  27.020  27.216  1.00  0.00     0.049 A 
ATOM     46  H   UNL A   1      42.414  27.848  29.090  1.00  0.00     0.167 HD
ATOM     47  C   UNL A   1      43.044  28.812  33.057  1.00  0.00     0.034 A 
ATOM     48  C   UNL A   1      43.044  26.227  26.960  1.00  0.00     0.034 A 
ATOM     49  C   UNL A   1      43.944  29.719  32.402  1.00  0.00     0.049 A 
ATOM     50  C   UNL A   1      44.185  26.753  27.746  1.00  0.00     0.074 A 
ATOM     51  C   UNL A   1      44.076  31.081  32.249  1.00  0.00     0.029 A 
ATOM     52  N   UNL A   1      44.765  29.125  31.482  1.00  0.00    -0.354 N 
ATOM     53  N   UNL A   1      44.761  27.899  27.513  1.00  0.00    -0.248 NA
ATOM     54  C   UNL A   1      44.617  26.071  28.960  1.00  0.00     0.031 C 
ATOM     55  C   UNL A   1      44.787  31.266  31.026  1.00  0.00     0.029 A 
ATOM     56  C   UNL A   1      45.056  30.010  30.482  1.00  0.00     0.049 A 
ATOM     57  H   UNL A   1      45.096  28.199  31.533  1.00  0.00     0.167 HD
ATOM     58  C   UNL A   1      45.289  28.269  28.734  1.00  0.00     0.074 A 
ATOM     59  C   UNL A   1      45.350  27.041  29.511  1.00  0.00     0.031 C 
ATOM     60  C   UNL A   1      45.308  29.576  29.122  1.00  0.00     0.034 A 
BRANCH  47  61
ATOM     61  C   UNL A   1      43.601  27.691  33.902  1.00  0.00     0.023 A 
ATOM     62  C   UNL A   1      44.069  26.534  33.240  1.00  0.00     0.012 A 
ATOM     63  C   UNL A   1      43.395  27.600  35.295  1.00  0.00     0.148 A 
ATOM     64  C   UNL A   1      44.312  25.343  33.934  1.00  0.00     0.002 A 
ATOM     65  C   UNL A   1      43.715  26.439  35.991  1.00  0.00     0.091 A 
ATOM     66  F   UNL A   1      42.746  28.581  35.934  1.00  0.00    -0.205 F 
ATOM     67  C   UNL A   1      44.152  25.300  35.313  1.00  0.00     0.022 A 
BRANCH  65  68
ATOM     68  S   UNL A   1      43.564  26.367  37.778  1.00  0.00     0.127 S 
ATOM     69  O   UNL A   1      42.108  26.372  37.943  1.00  0.00    -0.237 OA
ATOM     70  O   UNL A   1      44.214  25.089  38.084  1.00  0.00    -0.237 OA
ATOM     71  O   UNL A   1      44.277  27.530  38.265  1.00  0.00    -0.744 OA
ENDBRANCH  65  68
ENDBRANCH  47  61
BRANCH  48  72
ATOM     72  C   UNL A   1      43.202  25.009  26.123  1.00  0.00     0.023 A 
ATOM     73  C   UNL A   1      44.270  24.943  25.200  1.00  0.00     0.012 A 
ATOM     74  C   UNL A   1      42.511  23.813  26.416  1.00  0.00     0.148 A 
ATOM     75  C   UNL A   1      44.686  23.726  24.649  1.00  0.00     0.002 A 
ATOM     76  C   UNL A   1      42.920  22.605  25.852  1.00  0.00     0.091 A 
ATOM     77  F   UNL A   1      41.519  23.841  27.316  1.00  0.00    -0.205 F 
ATOM     78  C   UNL A   1      44.018  22.555  24.984  1.00  0.00     0.022 A 
BRANCH  76  79
ATOM     79  S   UNL A   1      42.097  21.051  26.231  1.00  0.00     0.127 S 
ATOM     80  O   UNL A   1      40.710  21.334  25.856  1.00  0.00    -0.237 OA
ATOM     81  O   UNL A   1      42.789  20.115  25.350  1.00  0.00    -0.237 OA
ATOM     82  O   UNL A   1      42.294  20.848  27.661  1.00  0.00    -0.744 OA
ENDBRANCH  76  79
ENDBRANCH  48  72
BRANCH  60  83
ATOM     83  C   UNL A   1      45.291  30.630  28.055  1.00  0.00     0.023 A 
ATOM     84  C   UNL A   1      44.100  31.062  27.440  1.00  0.00     0.012 A 
ATOM     85  C   UNL A   1      46.494  31.300  27.768  1.00  0.00     0.148 A 
ATOM     86  C   UNL A   1      44.112  32.132  26.543  1.00  0.00     0.002 A 
ATOM     87  C   UNL A   1      46.495  32.391  26.910  1.00  0.00     0.091 A 
ATOM     88  F   UNL A   1      47.615  30.873  28.371  1.00  0.00    -0.205 F 
ATOM     89  C   UNL A   1      45.307  32.805  26.288  1.00  0.00     0.022 A 
BRANCH  87  90
ATOM     90  S   UNL A   1      47.965  33.382  26.630  1.00  0.00     0.127 S 
ATOM     91  O   UNL A   1      48.161  34.015  27.932  1.00  0.00    -0.237 OA
ATOM     92  O   UNL A   1      48.959  32.364  26.288  1.00  0.00    -0.237 OA
ATOM     93  O   UNL A   1      47.640  34.293  25.540  1.00  0.00    -0.744 OA
ENDBRANCH  87  90
ENDBRANCH  60  83
ENDBRANCH  34  35
ENDBRANCH  26  29
ENDBRANCH  24  25
ENDBRANCH   1  24
TORSDOF 17
ENDMDL
MODEL 2
REMARK VINA RESULT:     -11.9      1.723      2.607
REMARK SMILES CC[C@@H](C)c1nc2cc(C(=O)NCCCNC(=O)c3ccc(-c4c5nc(c(-c6cccc(S(=O)(=O)[O-])c6F)c6ccc([nH]6)c(-c6cccc(S(=O)(=O)[O-])c6F)c6nc(c(-c7cccc(S(=O)(=O)[O-])c7F)c7ccc4[nH]7)C=C6)C=C5)cc3)ccc2n1[C@@H](C)CC
REMARK SMILES IDX 14 1 13 2 12 3 10 4 11 5 9 7 5 8 6 9 85 10 7 11 84 12 8 13
REMARK SMILES IDX 83 14 82 15 3 16 4 17 2 18 1 19 86 20 87 21 88 22 89 23
REMARK SMILES IDX 15 24 16 25 17 26 18 28 19 29 20 30 81 31 21 32 80 33 22 34
REMARK SMILES IDX 23 35 24 36 74 37 25 38 79 39 73 40 75 41 26 42 78 43 72 44
REMARK SMILES IDX 71 45 27 47 59 48 39 49 58 50 40 51 43 52 57 53 76 54 41 55
REMARK SMILES IDX 42 56 56 58 77 59 44 60 28 61 29 62 37 63 30 64 32 65 38 66
REMARK SMILES IDX 31 67 33 68 34 69 35 70 36 71 60 72 61 73 69 74 62 75 64 76
REMARK SMILES IDX 70 77 63 78 65 79 66 80 67 81 68 82 45 83 46 84 54 85 47 86
REMARK SMILES IDX 49 87 55 88 48 89 50 90 51 91 52 92 53 93
REMARK H PARENT 12 6 16 27 75 46 43 57
REMARK Flexibility Score: inf
ROOT
ATOM      1  C   UNL A   1      32.516  31.179  27.040  1.00  0.00     0.042 C 
ENDROOT
BRANCH   1   2
ATOM      2  C   UNL A   1      31.900  29.903  26.444  1.00  0.00     0.118 C 
BRANCH   2   3
ATOM      3  N   UNL A   1      31.332  30.112  25.117  1.00  0.00    -0.352 N 
ATOM      4  C   UNL A   1      30.950  29.259  24.106  1.00  0.00     0.251 C 
ATOM      5  O   UNL A   1      30.323  29.758  23.167  1.00  0.00    -0.269 OA
ATOM      6  H   UNL A   1      31.192  31.062  24.899  1.00  0.00     0.163 HD
BRANCH   4   7
ATOM      7  C   UNL A   1      31.238  27.792  24.078  1.00  0.00     0.042 A 
ATOM      8  C   UNL A   1      33.843  24.053  24.549  1.00  0.00     0.112 A 
ATOM      9  N   UNL A   1      34.072  25.365  24.551  1.00  0.00    -0.233 NA
ATOM     10  N   UNL A   1      32.504  23.833  24.229  1.00  0.00    -0.325 N 
ATOM     11  C   UNL A   1      32.884  26.002  24.319  1.00  0.00     0.090 A 
ATOM     12  C   UNL A   1      31.879  25.074  24.128  1.00  0.00     0.068 A 
ATOM     13  C   UNL A   1      32.573  27.377  24.281  1.00  0.00     0.044 A 
ATOM     14  C   UNL A   1      30.547  25.456  23.930  1.00  0.00     0.029 A 
ATOM     15  C   UNL A   1      30.247  26.822  23.946  1.00  0.00     0.016 A 
BRANCH   8  16
ATOM     16  C   UNL A   1      34.945  23.088  25.020  1.00  0.00     0.052 C 
ATOM     17  C   UNL A   1      34.938  23.042  26.566  1.00  0.00     0.016 C 
BRANCH  16  18
ATOM     18  C   UNL A   1      36.399  23.297  24.572  1.00  0.00     0.008 C 
ATOM     19  C   UNL A   1      36.656  22.882  23.122  1.00  0.00     0.004 C 
ENDBRANCH  16  18
ENDBRANCH   8  16
BRANCH  10  20
ATOM     20  C   UNL A   1      31.740  22.600  24.049  1.00  0.00     0.085 C 
ATOM     21  C   UNL A   1      32.203  21.784  22.838  1.00  0.00     0.031 C 
BRANCH  20  22
ATOM     22  C   UNL A   1      31.477  21.836  25.363  1.00  0.00     0.022 C 
ATOM     23  C   UNL A   1      30.852  22.730  26.434  1.00  0.00     0.006 C 
ENDBRANCH  20  22
ENDBRANCH  10  20
ENDBRANCH   4   7
ENDBRANCH   2   3
ENDBRANCH   1   2
BRANCH   1  24
ATOM     24  C   UNL A   1      33.949  31.005  27.546  1.00  0.00     0.118 C 
BRANCH  24  25
ATOM     25  N   UNL A   1      34.295  31.917  28.622  1.00  0.00    -0.352 N 
ATOM     26  C   UNL A   1      35.343  32.086  29.486  1.00  0.00     0.251 C 
ATOM     27  H   UNL A   1      33.591  32.589  28.768  1.00  0.00     0.163 HD
ATOM     28  O   UNL A   1      35.226  33.045  30.257  1.00  0.00    -0.269 OA
BRANCH  26  29
ATOM     29  C   UNL A   1      36.564  31.235  29.586  1.00  0.00     0.039 A 
ATOM     30  C   UNL A   1      37.880  31.666  29.434  1.00  0.00     0.014 A 
ATOM     31  C   UNL A   1      36.347  29.866  29.865  1.00  0.00     0.014 A 
ATOM     32  C   UNL A   1      38.937  30.756  29.546  1.00  0.00     0.010 A 
ATOM     33  C   UNL A   1      37.401  28.955  29.982  1.00  0.00     0.010 A 
ATOM     34  C   UNL A   1      38.706  29.396  29.813  1.00  0.00    -0.014 A 
BRANCH  34  35
ATOM     35  C   UNL A   1      39.870  28.531  30.039  1.00  0.00     0.031 A 
ATOM     36  C   UNL A   1      40.385  28.525  31.435  1.00  0.00     0.074 A 
ATOM     37  C   UNL A   1      40.466  27.704  29.153  1.00  0.00     0.049 A 
ATOM     38  N   UNL A   1      41.431  29.139  31.885  1.00  0.00    -0.248 NA
ATOM     39  C   UNL A   1      39.599  27.830  32.462  1.00  0.00     0.031 C 
ATOM     40  C   UNL A   1      39.987  27.295  27.832  1.00  0.00     0.029 A 
ATOM     41  N   UNL A   1      41.624  26.984  29.301  1.00  0.00    -0.354 N 
ATOM     42  C   UNL A   1      41.571  28.712  33.201  1.00  0.00     0.074 A 
ATOM     43  C   UNL A   1      40.341  28.045  33.552  1.00  0.00     0.031 C 
ATOM     44  C   UNL A   1      40.734  26.255  27.388  1.00  0.00     0.029 A 
ATOM     45  C   UNL A   1      41.834  26.030  28.312  1.00  0.00     0.049 A 
ATOM     46  H   UNL A   1      42.254  27.129  30.044  1.00  0.00     0.167 HD
ATOM     47  C   UNL A   1      42.779  28.707  33.826  1.00  0.00     0.034 A 
ATOM     48  C   UNL A   1      42.835  25.119  28.260  1.00  0.00     0.034 A 
ATOM     49  C   UNL A   1      43.788  29.411  33.085  1.00  0.00     0.049 A 
ATOM     50  C   UNL A   1      43.980  25.677  29.016  1.00  0.00     0.074 A 
ATOM     51  C   UNL A   1      44.052  30.710  32.716  1.00  0.00     0.029 A 
ATOM     52  N   UNL A   1      44.595  28.602  32.332  1.00  0.00    -0.354 N 
ATOM     53  N   UNL A   1      44.669  26.715  28.631  1.00  0.00    -0.248 NA
ATOM     54  C   UNL A   1      44.289  25.182  30.352  1.00  0.00     0.031 C 
ATOM     55  C   UNL A   1      44.835  30.623  31.526  1.00  0.00     0.029 A 
ATOM     56  C   UNL A   1      45.013  29.274  31.218  1.00  0.00     0.049 A 
ATOM     57  H   UNL A   1      44.837  27.675  32.557  1.00  0.00     0.167 HD
ATOM     58  C   UNL A   1      45.170  27.245  29.804  1.00  0.00     0.074 A 
ATOM     59  C   UNL A   1      45.080  26.168  30.778  1.00  0.00     0.031 C 
ATOM     60  C   UNL A   1      45.289  28.593  29.969  1.00  0.00     0.034 A 
BRANCH  47  61
ATOM     61  C   UNL A   1      43.190  27.706  34.879  1.00  0.00     0.023 A 
ATOM     62  C   UNL A   1      43.678  28.204  36.108  1.00  0.00     0.012 A 
ATOM     63  C   UNL A   1      43.408  26.340  34.602  1.00  0.00     0.148 A 
ATOM     64  C   UNL A   1      44.359  27.379  37.012  1.00  0.00     0.002 A 
ATOM     65  C   UNL A   1      44.013  25.508  35.538  1.00  0.00     0.091 A 
ATOM     66  F   UNL A   1      43.171  25.868  33.372  1.00  0.00    -0.205 F 
ATOM     67  C   UNL A   1      44.511  26.026  36.735  1.00  0.00     0.022 A 
BRANCH  65  68
ATOM     68  S   UNL A   1      44.182  23.747  35.231  1.00  0.00     0.127 S 
ATOM     69  O   UNL A   1      42.779  23.346  35.088  1.00  0.00    -0.237 OA
ATOM     70  O   UNL A   1      44.957  23.732  33.987  1.00  0.00    -0.237 OA
ATOM     71  O   UNL A   1      44.892  23.229  36.382  1.00  0.00    -0.744 OA
ENDBRANCH  65  68
ENDBRANCH  47  61
BRANCH  48  72
ATOM     72  C   UNL A   1      42.920  23.767  27.649  1.00  0.00     0.023 A 
ATOM     73  C   UNL A   1      41.835  22.874  27.801  1.00  0.00     0.012 A 
ATOM     74  C   UNL A   1      43.904  23.447  26.689  1.00  0.00     0.148 A 
ATOM     75  C   UNL A   1      41.693  21.751  26.981  1.00  0.00     0.002 A 
ATOM     76  C   UNL A   1      43.766  22.317  25.884  1.00  0.00     0.091 A 
ATOM     77  F   UNL A   1      44.924  24.296  26.498  1.00  0.00    -0.205 F 
ATOM     78  C   UNL A   1      42.652  21.478  26.013  1.00  0.00     0.022 A 
BRANCH  76  79
ATOM     79  S   UNL A   1      44.973  21.896  24.618  1.00  0.00     0.127 S 
ATOM     80  O   UNL A   1      44.864  23.028  23.696  1.00  0.00    -0.237 OA
ATOM     81  O   UNL A   1      46.215  21.849  25.384  1.00  0.00    -0.237 OA
ATOM     82  O   UNL A   1      44.520  20.630  24.057  1.00  0.00    -0.744 OA
ENDBRANCH  76  79
ENDBRANCH  48  72
BRANCH  60  83
ATOM     83  C   UNL A   1      45.420  29.446  28.740  1.00  0.00     0.023 A 
ATOM     84  C   UNL A   1      44.308  29.831  27.967  1.00  0.00     0.012 A 
ATOM     85  C   UNL A   1      46.684  29.987  28.443  1.00  0.00     0.148 A 
ATOM     86  C   UNL A   1      44.457  30.727  26.907  1.00  0.00     0.002 A 
ATOM     87  C   UNL A   1      46.820  30.911  27.417  1.00  0.00     0.091 A 
ATOM     88  F   UNL A   1      47.727  29.609  29.198  1.00  0.00    -0.205 F 
ATOM     89  C   UNL A   1      45.710  31.277  26.639  1.00  0.00     0.022 A 
BRANCH  87  90
ATOM     90  S   UNL A   1      48.371  31.754  27.093  1.00  0.00     0.127 S 
ATOM     91  O   UNL A   1      49.194  30.681  26.539  1.00  0.00    -0.237 OA
ATOM     92  O   UNL A   1      47.967  32.776  26.125  1.00  0.00    -0.237 OA
ATOM     93  O   UNL A   1      48.822  32.285  28.373  1.00  0.00    -0.744 OA
ENDBRANCH  87  90
ENDBRANCH  60  83
ENDBRANCH  34  35
ENDBRANCH  26  29
ENDBRANCH  24  25
ENDBRANCH   1  24
TORSDOF 17
ENDMDL
MODEL 3
REMARK VINA RESULT:     -11.6      4.112      7.639
REMARK SMILES CC[C@@H](C)c1nc2cc(C(=O)NCCCNC(=O)c3ccc(-c4c5nc(c(-c6cccc(S(=O)(=O)[O-])c6F)c6ccc([nH]6)c(-c6cccc(S(=O)(=O)[O-])c6F)c6nc(c(-c7cccc(S(=O)(=O)[O-])c7F)c7ccc4[nH]7)C=C6)C=C5)cc3)ccc2n1[C@@H](C)CC
REMARK SMILES IDX 14 1 13 2 12 3 10 4 11 5 9 7 5 8 6 9 85 10 7 11 84 12 8 13
REMARK SMILES IDX 83 14 82 15 3 16 4 17 2 18 1 19 86 20 87 21 88 22 89 23
REMARK SMILES IDX 15 24 16 25 17 26 18 28 19 29 20 30 81 31 21 32 80 33 22 34
REMARK SMILES IDX 23 35 24 36 74 37 25 38 79 39 73 40 75 41 26 42 78 43 72 44
REMARK SMILES IDX 71 45 27 47 59 48 39 49 58 50 40 51 43 52 57 53 76 54 41 55
REMARK SMILES IDX 42 56 56 58 77 59 44 60 28 61 29 62 37 63 30 64 32 65 38 66
REMARK SMILES IDX 31 67 33 68 34 69 35 70 36 71 60 72 61 73 69 74 62 75 64 76
REMARK SMILES IDX 70 77 63 78 65 79 66 80 67 81 68 82 45 83 46 84 54 85 47 86
REMARK SMILES IDX 49 87 55 88 48 89 50 90 51 91 52 92 53 93
REMARK H PARENT 12 6 16 27 75 46 43 57
REMARK Flexibility Score: inf
ROOT
ATOM      1  C   UNL A   1      34.572  33.308  32.079  1.00  0.00     0.042 C 
ENDROOT
BRANCH   1   2
ATOM      2  C   UNL A   1      35.567  32.602  33.013  1.00  0.00     0.118 C 
BRANCH   2   3
ATOM      3  N   UNL A   1      35.895  31.249  32.576  1.00  0.00    -0.352 N 
ATOM      4  C   UNL A   1      36.977  30.424  32.782  1.00  0.00     0.251 C 
ATOM      5  O   UNL A   1      36.857  29.251  32.420  1.00  0.00    -0.269 OA
ATOM      6  H   UNL A   1      35.195  30.841  32.017  1.00  0.00     0.163 HD
BRANCH   4   7
ATOM      7  C   UNL A   1      38.264  30.853  33.411  1.00  0.00     0.042 A 
ATOM      8  C   UNL A   1      42.062  33.385  33.809  1.00  0.00     0.112 A 
ATOM      9  N   UNL A   1      41.120  33.242  32.878  1.00  0.00    -0.233 NA
ATOM     10  N   UNL A   1      41.834  32.455  34.823  1.00  0.00    -0.325 N 
ATOM     11  C   UNL A   1      40.238  32.290  33.310  1.00  0.00     0.090 A 
ATOM     12  C   UNL A   1      40.646  31.788  34.531  1.00  0.00     0.068 A 
ATOM     13  C   UNL A   1      39.045  31.814  32.730  1.00  0.00     0.044 A 
ATOM     14  C   UNL A   1      39.890  30.839  35.231  1.00  0.00     0.029 A 
ATOM     15  C   UNL A   1      38.684  30.415  34.665  1.00  0.00     0.016 A 
BRANCH   8  16
ATOM     16  C   UNL A   1      43.057  34.555  33.711  1.00  0.00     0.052 C 
ATOM     17  C   UNL A   1      42.420  35.806  34.360  1.00  0.00     0.016 C 
BRANCH  16  18
ATOM     18  C   UNL A   1      43.619  34.979  32.345  1.00  0.00     0.008 C 
ATOM     19  C   UNL A   1      45.139  34.846  32.243  1.00  0.00     0.004 C 
ENDBRANCH  16  18
ENDBRANCH   8  16
BRANCH  10  20
ATOM     20  C   UNL A   1      42.575  32.152  36.045  1.00  0.00     0.085 C 
ATOM     21  C   UNL A   1      43.977  31.600  35.769  1.00  0.00     0.031 C 
BRANCH  20  22
ATOM     22  C   UNL A   1      42.438  33.232  37.137  1.00  0.00     0.022 C 
ATOM     23  C   UNL A   1      41.196  33.023  38.002  1.00  0.00     0.006 C 
ENDBRANCH  20  22
ENDBRANCH  10  20
ENDBRANCH   4   7
ENDBRANCH   2   3
ENDBRANCH   1   2
BRANCH   1  24
ATOM     24  C   UNL A   1      35.198  33.859  30.796  1.00  0.00     0.118 C 
BRANCH  24  25
ATOM     25  N   UNL A   1      34.691  33.230  29.590  1.00  0.00    -0.352 N 
ATOM     26  C   UNL A   1      35.053  32.184  28.785  1.00  0.00     0.251 C 
ATOM     27  H   UNL A   1      33.872  33.671  29.267  1.00  0.00     0.163 HD
ATOM     28  O   UNL A   1      34.288  31.975  27.837  1.00  0.00    -0.269 OA
BRANCH  26  29
ATOM     29  C   UNL A   1      36.254  31.313  28.938  1.00  0.00     0.039 A 
ATOM     30  C   UNL A   1      36.268  29.920  28.907  1.00  0.00     0.014 A 
ATOM     31  C   UNL A   1      37.485  31.980  29.130  1.00  0.00     0.014 A 
ATOM     32  C   UNL A   1      37.471  29.224  29.072  1.00  0.00     0.010 A 
ATOM     33  C   UNL A   1      38.689  31.287  29.291  1.00  0.00     0.010 A 
ATOM     34  C   UNL A   1      38.686  29.900  29.272  1.00  0.00    -0.014 A 
BRANCH  34  35
ATOM     35  C   UNL A   1      39.918  29.104  29.312  1.00  0.00     0.031 A 
ATOM     36  C   UNL A   1      40.492  28.907  30.671  1.00  0.00     0.074 A 
ATOM     37  C   UNL A   1      40.534  28.486  28.282  1.00  0.00     0.049 A 
ATOM     38  N   UNL A   1      41.510  29.519  31.186  1.00  0.00    -0.248 NA
ATOM     39  C   UNL A   1      39.805  27.991  31.590  1.00  0.00     0.031 C 
ATOM     40  C   UNL A   1      40.029  28.264  26.926  1.00  0.00     0.029 A 
ATOM     41  N   UNL A   1      41.747  27.845  28.271  1.00  0.00    -0.354 N 
ATOM     42  C   UNL A   1      41.737  28.893  32.407  1.00  0.00     0.074 A 
ATOM     43  C   UNL A   1      40.575  28.081  32.677  1.00  0.00     0.031 C 
ATOM     44  C   UNL A   1      40.830  27.375  26.291  1.00  0.00     0.029 A 
ATOM     45  C   UNL A   1      41.982  27.087  27.129  1.00  0.00     0.049 A 
ATOM     46  H   UNL A   1      42.396  27.914  29.008  1.00  0.00     0.167 HD
ATOM     47  C   UNL A   1      42.968  28.879  32.984  1.00  0.00     0.034 A 
ATOM     48  C   UNL A   1      43.044  26.280  26.894  1.00  0.00     0.034 A 
ATOM     49  C   UNL A   1      43.890  29.774  32.343  1.00  0.00     0.049 A 
ATOM     50  C   UNL A   1      44.177  26.793  27.698  1.00  0.00     0.074 A 
ATOM     51  C   UNL A   1      44.042  31.133  32.189  1.00  0.00     0.029 A 
ATOM     52  N   UNL A   1      44.720  29.167  31.439  1.00  0.00    -0.354 N 
ATOM     53  N   UNL A   1      44.771  27.932  27.473  1.00  0.00    -0.248 NA
ATOM     54  C   UNL A   1      44.579  26.110  28.921  1.00  0.00     0.031 C 
ATOM     55  C   UNL A   1      44.777  31.307  30.979  1.00  0.00     0.029 A 
ATOM     56  C   UNL A   1      45.040  30.046  30.442  1.00  0.00     0.049 A 
ATOM     57  H   UNL A   1      45.039  28.238  31.498  1.00  0.00     0.167 HD
ATOM     58  C   UNL A   1      45.282  28.299  28.703  1.00  0.00     0.074 A 
ATOM     59  C   UNL A   1      45.314  27.071  29.483  1.00  0.00     0.031 C 
ATOM     60  C   UNL A   1      45.310  29.605  29.088  1.00  0.00     0.034 A 
BRANCH  47  61
ATOM     61  C   UNL A   1      43.496  27.754  33.841  1.00  0.00     0.023 A 
ATOM     62  C   UNL A   1      44.025  26.618  33.188  1.00  0.00     0.012 A 
ATOM     63  C   UNL A   1      43.211  27.634  35.218  1.00  0.00     0.148 A 
ATOM     64  C   UNL A   1      44.250  25.419  33.875  1.00  0.00     0.002 A 
ATOM     65  C   UNL A   1      43.512  26.466  35.912  1.00  0.00     0.091 A 
ATOM     66  F   UNL A   1      42.508  28.591  35.834  1.00  0.00    -0.205 F 
ATOM     67  C   UNL A   1      44.010  25.347  35.241  1.00  0.00     0.022 A 
BRANCH  65  68
ATOM     68  S   UNL A   1      43.259  26.359  37.685  1.00  0.00     0.127 S 
ATOM     69  O   UNL A   1      43.913  25.084  37.992  1.00  0.00    -0.237 OA
ATOM     70  O   UNL A   1      43.972  27.547  38.163  1.00  0.00    -0.237 OA
ATOM     71  O   UNL A   1      41.823  26.412  37.866  1.00  0.00    -0.744 OA
ENDBRANCH  65  68
ENDBRANCH  47  61
BRANCH  48  72
ATOM     72  C   UNL A   1      43.201  25.058  26.062  1.00  0.00     0.023 A 
ATOM     73  C   UNL A   1      44.260  24.994  25.128  1.00  0.00     0.012 A 
ATOM     74  C   UNL A   1      42.523  23.859  26.370  1.00  0.00     0.148 A 
ATOM     75  C   UNL A   1      44.678  23.778  24.579  1.00  0.00     0.002 A 
ATOM     76  C   UNL A   1      42.934  22.651  25.808  1.00  0.00     0.091 A 
ATOM     77  F   UNL A   1      41.541  23.885  27.281  1.00  0.00    -0.205 F 
ATOM     78  C   UNL A   1      44.023  22.603  24.929  1.00  0.00     0.022 A 
BRANCH  76  79
ATOM     79  S   UNL A   1      42.127  21.093  26.206  1.00  0.00     0.127 S 
ATOM     80  O   UNL A   1      40.736  21.360  25.837  1.00  0.00    -0.237 OA
ATOM     81  O   UNL A   1      42.822  20.156  25.329  1.00  0.00    -0.237 OA
ATOM     82  O   UNL A   1      42.334  20.904  27.636  1.00  0.00    -0.744 OA
ENDBRANCH  76  79
ENDBRANCH  48  72
BRANCH  60  83
ATOM     83  C   UNL A   1      45.325  30.658  28.018  1.00  0.00     0.023 A 
ATOM     84  C   UNL A   1      44.150  31.107  27.385  1.00  0.00     0.012 A 
ATOM     85  C   UNL A   1      46.543  31.307  27.747  1.00  0.00     0.148 A 
ATOM     86  C   UNL A   1      44.192  32.174  26.487  1.00  0.00     0.002 A 
ATOM     87  C   UNL A   1      46.573  32.397  26.887  1.00  0.00     0.091 A 
ATOM     88  F   UNL A   1      47.648  30.865  28.367  1.00  0.00    -0.205 F 
ATOM     89  C   UNL A   1      45.400  32.828  26.247  1.00  0.00     0.022 A 
BRANCH  87  90
ATOM     90  S   UNL A   1      48.062  33.364  26.626  1.00  0.00     0.127 S 
ATOM     91  O   UNL A   1      48.215  34.045  27.909  1.00  0.00    -0.237 OA
ATOM     92  O   UNL A   1      49.059  32.325  26.362  1.00  0.00    -0.237 OA
ATOM     93  O   UNL A   1      47.788  34.235  25.489  1.00  0.00    -0.744 OA
ENDBRANCH  87  90
ENDBRANCH  60  83
ENDBRANCH  34  35
ENDBRANCH  26  29
ENDBRANCH  24  25
ENDBRANCH   1  24
TORSDOF 17
ENDMDL
