MODEL 1
REMARK VINA RESULT:     -11.3      0.000      0.000
REMARK SMILES O=C(NCCCNC(=O)c1ccc(C[NH2+]C[C@H]2C[C@H](O)C2)nc1)c1ccc(-c2c3nc(c(-c4cccc(S(=O)(=O)[O-])c4F)c4ccc([nH]4)c(-c4cccc(S(=O)(=O)[O-])c4F)c4nc(c(-c5cccc(S(=O)(=O)[O-])c5F)c5ccc2[nH]5)C=C4)C=C3)cc1
REMARK SMILES IDX 6 1 5 2 4 3 3 4 1 5 2 6 24 8 25 9 86 10 26 11 85 12 27 13
REMARK SMILES IDX 28 14 29 15 79 16 30 17 84 18 78 19 80 20 31 21 83 22 77 23
REMARK SMILES IDX 76 24 32 26 64 27 44 28 63 29 45 30 48 31 62 32 81 33 46 34
REMARK SMILES IDX 47 35 61 37 82 38 49 39 33 40 34 41 42 42 35 43 37 44 43 45
REMARK SMILES IDX 36 46 38 47 39 48 40 49 41 50 65 51 66 52 74 53 67 54 69 55
REMARK SMILES IDX 75 56 68 57 70 58 71 59 72 60 73 61 50 62 51 63 59 64 52 65
REMARK SMILES IDX 54 66 60 67 53 68 55 69 56 70 57 71 58 72 7 73 8 74 9 76
REMARK SMILES IDX 10 77 11 78 23 79 12 80 22 81 13 82 14 83 15 84 16 87 17 88
REMARK SMILES IDX 21 89 18 90 19 91 20 92
REMARK H PARENT 3 7 80 25 48 36 7 75 15 85 15 86 20 93
REMARK Flexibility Score: inf
ROOT
ATOM      1  C   UNL A   1      31.904  28.276  23.775  1.00  0.00     0.118 C 
ENDROOT
BRANCH   1   2
ATOM      2  C   UNL A   1      32.895  29.149  24.529  1.00  0.00     0.042 C 
BRANCH   2   3
ATOM      3  C   UNL A   1      32.470  29.463  25.955  1.00  0.00     0.118 C 
BRANCH   3   4
ATOM      4  N   UNL A   1      32.247  30.887  26.175  1.00  0.00    -0.352 N 
ATOM      5  O   UNL A   1      32.409  32.885  27.190  1.00  0.00    -0.269 OA
ATOM      6  C   UNL A   1      32.893  31.772  27.007  1.00  0.00     0.251 C 
ATOM      7  H   UNL A   1      31.517  31.278  25.644  1.00  0.00     0.163 HD
BRANCH   6   8
ATOM      8  C   UNL A   1      34.142  31.375  27.693  1.00  0.00     0.039 A 
ATOM      9  C   UNL A   1      34.381  30.039  28.017  1.00  0.00     0.014 A 
ATOM     10  C   UNL A   1      35.098  32.348  28.001  1.00  0.00     0.014 A 
ATOM     11  C   UNL A   1      35.474  29.703  28.806  1.00  0.00     0.010 A 
ATOM     12  C   UNL A   1      36.257  31.987  28.695  1.00  0.00     0.010 A 
ATOM     13  C   UNL A   1      36.438  30.668  29.137  1.00  0.00    -0.014 A 
BRANCH  13  14
ATOM     14  C   UNL A   1      37.657  30.244  29.872  1.00  0.00     0.031 A 
ATOM     15  C   UNL A   1      37.930  30.703  31.277  1.00  0.00     0.074 A 
ATOM     16  C   UNL A   1      38.522  29.417  29.250  1.00  0.00     0.049 A 
ATOM     17  N   UNL A   1      38.931  30.393  32.060  1.00  0.00    -0.248 NA
ATOM     18  C   UNL A   1      36.965  31.635  31.883  1.00  0.00     0.031 C 
ATOM     19  C   UNL A   1      38.388  28.943  27.869  1.00  0.00     0.029 A 
ATOM     20  N   UNL A   1      39.679  28.827  29.690  1.00  0.00    -0.354 N 
ATOM     21  C   UNL A   1      38.744  31.119  33.231  1.00  0.00     0.074 A 
ATOM     22  C   UNL A   1      37.534  31.892  33.054  1.00  0.00     0.031 C 
ATOM     23  C   UNL A   1      39.400  28.114  27.585  1.00  0.00     0.029 A 
ATOM     24  C   UNL A   1      40.290  28.045  28.738  1.00  0.00     0.049 A 
ATOM     25  H   UNL A   1      40.037  28.951  30.598  1.00  0.00     0.167 HD
ATOM     26  C   UNL A   1      39.505  31.129  34.351  1.00  0.00     0.034 A 
ATOM     27  C   UNL A   1      41.450  27.363  28.775  1.00  0.00     0.034 A 
ATOM     28  C   UNL A   1      40.690  30.329  34.531  1.00  0.00     0.049 A 
ATOM     29  C   UNL A   1      42.256  27.372  30.040  1.00  0.00     0.074 A 
ATOM     30  C   UNL A   1      41.488  30.218  35.657  1.00  0.00     0.029 A 
ATOM     31  N   UNL A   1      41.253  29.514  33.561  1.00  0.00    -0.354 N 
ATOM     32  N   UNL A   1      41.991  27.963  31.180  1.00  0.00    -0.248 NA
ATOM     33  C   UNL A   1      43.504  26.598  30.036  1.00  0.00     0.031 C 
ATOM     34  C   UNL A   1      42.550  29.358  35.357  1.00  0.00     0.029 A 
ATOM     35  C   UNL A   1      42.396  28.908  34.056  1.00  0.00     0.049 A 
ATOM     36  H   UNL A   1      40.893  29.385  32.654  1.00  0.00     0.167 HD
ATOM     37  C   UNL A   1      43.027  27.615  32.037  1.00  0.00     0.074 A 
ATOM     38  C   UNL A   1      43.907  26.737  31.291  1.00  0.00     0.031 C 
ATOM     39  C   UNL A   1      43.239  28.002  33.318  1.00  0.00     0.034 A 
BRANCH  26  40
ATOM     40  C   UNL A   1      39.069  32.008  35.495  1.00  0.00     0.023 A 
ATOM     41  C   UNL A   1      38.180  31.504  36.465  1.00  0.00     0.012 A 
ATOM     42  C   UNL A   1      39.601  33.304  35.654  1.00  0.00     0.148 A 
ATOM     43  C   UNL A   1      37.806  32.283  37.560  1.00  0.00     0.002 A 
ATOM     44  C   UNL A   1      39.257  34.059  36.770  1.00  0.00     0.091 A 
ATOM     45  F   UNL A   1      40.431  33.775  34.712  1.00  0.00    -0.205 F 
ATOM     46  C   UNL A   1      38.352  33.555  37.719  1.00  0.00     0.022 A 
BRANCH  44  47
ATOM     47  S   UNL A   1      39.964  35.676  37.105  1.00  0.00     0.127 S 
ATOM     48  O   UNL A   1      39.278  36.047  38.341  1.00  0.00    -0.237 OA
ATOM     49  O   UNL A   1      41.385  35.362  37.267  1.00  0.00    -0.237 OA
ATOM     50  O   UNL A   1      39.653  36.499  35.945  1.00  0.00    -0.744 OA
ENDBRANCH  44  47
ENDBRANCH  26  40
BRANCH  27  51
ATOM     51  C   UNL A   1      41.890  26.593  27.578  1.00  0.00     0.023 A 
ATOM     52  C   UNL A   1      42.628  27.237  26.567  1.00  0.00     0.012 A 
ATOM     53  C   UNL A   1      41.625  25.214  27.466  1.00  0.00     0.148 A 
ATOM     54  C   UNL A   1      43.072  26.526  25.452  1.00  0.00     0.002 A 
ATOM     55  C   UNL A   1      42.124  24.500  26.384  1.00  0.00     0.091 A 
ATOM     56  F   UNL A   1      40.909  24.623  28.434  1.00  0.00    -0.205 F 
ATOM     57  C   UNL A   1      42.832  25.157  25.367  1.00  0.00     0.022 A 
BRANCH  55  58
ATOM     58  S   UNL A   1      41.988  22.712  26.273  1.00  0.00     0.127 S 
ATOM     59  O   UNL A   1      42.653  22.442  25.001  1.00  0.00    -0.237 OA
ATOM     60  O   UNL A   1      42.725  22.278  27.460  1.00  0.00    -0.237 OA
ATOM     61  O   UNL A   1      40.561  22.424  26.317  1.00  0.00    -0.744 OA
ENDBRANCH  55  58
ENDBRANCH  27  51
BRANCH  39  62
ATOM     62  C   UNL A   1      44.458  27.454  34.012  1.00  0.00     0.023 A 
ATOM     63  C   UNL A   1      45.670  28.173  33.971  1.00  0.00     0.012 A 
ATOM     64  C   UNL A   1      44.388  26.258  34.752  1.00  0.00     0.148 A 
ATOM     65  C   UNL A   1      46.802  27.690  34.626  1.00  0.00     0.002 A 
ATOM     66  C   UNL A   1      45.506  25.810  35.444  1.00  0.00     0.091 A 
ATOM     67  F   UNL A   1      43.232  25.578  34.761  1.00  0.00    -0.205 F 
ATOM     68  C   UNL A   1      46.718  26.517  35.371  1.00  0.00     0.022 A 
BRANCH  66  69
ATOM     69  S   UNL A   1      45.463  24.361  36.504  1.00  0.00     0.127 S 
ATOM     70  O   UNL A   1      45.124  23.305  35.552  1.00  0.00    -0.237 OA
ATOM     71  O   UNL A   1      46.833  24.307  37.014  1.00  0.00    -0.237 OA
ATOM     72  O   UNL A   1      44.453  24.637  37.519  1.00  0.00    -0.744 OA
ENDBRANCH  66  69
ENDBRANCH  39  62
ENDBRANCH  13  14
ENDBRANCH   6   8
ENDBRANCH   3   4
ENDBRANCH   2   3
ENDBRANCH   1   2
BRANCH   1  73
ATOM     73  N   UNL A   1      32.464  27.747  22.538  1.00  0.00    -0.352 N 
ATOM     74  C   UNL A   1      33.046  26.530  22.294  1.00  0.00     0.252 C 
ATOM     75  H   UNL A   1      32.417  28.353  21.763  1.00  0.00     0.163 HD
ATOM     76  O   UNL A   1      33.653  26.328  21.245  1.00  0.00    -0.269 OA
BRANCH  74  77
ATOM     77  C   UNL A   1      32.951  25.462  23.294  1.00  0.00     0.058 A 
ATOM     78  C   UNL A   1      33.980  25.202  24.196  1.00  0.00     0.017 A 
ATOM     79  C   UNL A   1      31.796  24.702  23.366  1.00  0.00     0.125 A 
ATOM     80  C   UNL A   1      33.851  24.135  25.077  1.00  0.00     0.030 A 
ATOM     81  N   UNL A   1      31.647  23.658  24.215  1.00  0.00    -0.255 NA
ATOM     82  C   UNL A   1      32.682  23.373  25.046  1.00  0.00     0.094 A 
BRANCH  82  83
ATOM     83  C   UNL A   1      32.518  22.209  26.006  1.00  0.00     0.317 C 
BRANCH  83  84
ATOM     84  N   UNL A   1      31.778  21.107  25.391  1.00  0.00    -0.341 N 
ATOM     85  H   UNL A   1      30.920  21.483  24.988  1.00  0.00     0.346 HD
ATOM     86  H   UNL A   1      31.600  20.423  26.127  1.00  0.00     0.346 HD
BRANCH  84  87
ATOM     87  C   UNL A   1      32.513  20.415  24.340  1.00  0.00     0.264 C 
BRANCH  87  88
ATOM     88  C   UNL A   1      33.156  19.125  24.834  1.00  0.00     0.049 C 
ATOM     89  C   UNL A   1      34.687  19.005  24.626  1.00  0.00     0.041 C 
ATOM     90  C   UNL A   1      33.010  17.860  23.949  1.00  0.00     0.041 C 
ATOM     91  C   UNL A   1      34.472  17.510  24.297  1.00  0.00     0.115 C 
BRANCH  91  92
ATOM     92  O   UNL A   1      34.669  16.578  25.376  1.00  0.00    -0.393 OA
ATOM     93  H   UNL A   1      34.895  15.707  25.015  1.00  0.00     0.210 HD
ENDBRANCH  91  92
ENDBRANCH  87  88
ENDBRANCH  84  87
ENDBRANCH  83  84
ENDBRANCH  82  83
ENDBRANCH  74  77
ENDBRANCH   1  73
TORSDOF 18
ENDMDL
MODEL 2
REMARK VINA RESULT:     -11.2      1.693      2.064
REMARK SMILES O=C(NCCCNC(=O)c1ccc(C[NH2+]C[C@H]2C[C@H](O)C2)nc1)c1ccc(-c2c3nc(c(-c4cccc(S(=O)(=O)[O-])c4F)c4ccc([nH]4)c(-c4cccc(S(=O)(=O)[O-])c4F)c4nc(c(-c5cccc(S(=O)(=O)[O-])c5F)c5ccc2[nH]5)C=C4)C=C3)cc1
REMARK SMILES IDX 6 1 5 2 4 3 3 4 1 5 2 6 24 8 25 9 86 10 26 11 85 12 27 13
REMARK SMILES IDX 28 14 29 15 79 16 30 17 84 18 78 19 80 20 31 21 83 22 77 23
REMARK SMILES IDX 76 24 32 26 64 27 44 28 63 29 45 30 48 31 62 32 81 33 46 34
REMARK SMILES IDX 47 35 61 37 82 38 49 39 33 40 34 41 42 42 35 43 37 44 43 45
REMARK SMILES IDX 36 46 38 47 39 48 40 49 41 50 65 51 66 52 74 53 67 54 69 55
REMARK SMILES IDX 75 56 68 57 70 58 71 59 72 60 73 61 50 62 51 63 59 64 52 65
REMARK SMILES IDX 54 66 60 67 53 68 55 69 56 70 57 71 58 72 7 73 8 74 9 76
REMARK SMILES IDX 10 77 11 78 23 79 12 80 22 81 13 82 14 83 15 84 16 87 17 88
REMARK SMILES IDX 21 89 18 90 19 91 20 92
REMARK H PARENT 3 7 80 25 48 36 7 75 15 85 15 86 20 93
REMARK Flexibility Score: inf
ROOT
ATOM      1  C   UNL A   1      31.223  28.273  25.018  1.00  0.00     0.118 C 
ENDROOT
BRANCH   1   2
ATOM      2  C   UNL A   1      31.890  28.751  26.298  1.00  0.00     0.042 C 
BRANCH   2   3
ATOM      3  C   UNL A   1      33.108  29.630  26.060  1.00  0.00     0.118 C 
BRANCH   3   4
ATOM      4  N   UNL A   1      32.881  31.020  26.437  1.00  0.00    -0.352 N 
ATOM      5  O   UNL A   1      33.049  32.898  27.658  1.00  0.00    -0.269 OA
ATOM      6  C   UNL A   1      33.538  31.816  27.346  1.00  0.00     0.251 C 
ATOM      7  H   UNL A   1      32.136  31.459  25.966  1.00  0.00     0.163 HD
BRANCH   6   8
ATOM      8  C   UNL A   1      34.803  31.359  27.960  1.00  0.00     0.039 A 
ATOM      9  C   UNL A   1      34.919  30.066  28.470  1.00  0.00     0.014 A 
ATOM     10  C   UNL A   1      35.897  32.228  28.011  1.00  0.00     0.014 A 
ATOM     11  C   UNL A   1      36.051  29.704  29.190  1.00  0.00     0.010 A 
ATOM     12  C   UNL A   1      37.080  31.820  28.636  1.00  0.00     0.010 A 
ATOM     13  C   UNL A   1      37.155  30.568  29.265  1.00  0.00    -0.014 A 
BRANCH  13  14
ATOM     14  C   UNL A   1      38.394  30.096  29.934  1.00  0.00     0.031 A 
ATOM     15  C   UNL A   1      38.771  30.561  31.312  1.00  0.00     0.074 A 
ATOM     16  C   UNL A   1      39.180  29.219  29.277  1.00  0.00     0.049 A 
ATOM     17  N   UNL A   1      39.801  30.214  32.041  1.00  0.00    -0.248 NA
ATOM     18  C   UNL A   1      37.889  31.547  31.958  1.00  0.00     0.031 C 
ATOM     19  C   UNL A   1      38.942  28.733  27.914  1.00  0.00     0.029 A 
ATOM     20  N   UNL A   1      40.331  28.580  29.657  1.00  0.00    -0.354 N 
ATOM     21  C   UNL A   1      39.719  30.964  33.208  1.00  0.00     0.074 A 
ATOM     22  C   UNL A   1      38.538  31.793  33.090  1.00  0.00     0.031 C 
ATOM     23  C   UNL A   1      39.895  27.853  27.585  1.00  0.00     0.029 A 
ATOM     24  C   UNL A   1      40.847  27.756  28.684  1.00  0.00     0.049 A 
ATOM     25  H   UNL A   1      40.749  28.700  30.541  1.00  0.00     0.167 HD
ATOM     26  C   UNL A   1      40.544  30.953  34.282  1.00  0.00     0.034 A 
ATOM     27  C   UNL A   1      41.974  27.020  28.665  1.00  0.00     0.034 A 
ATOM     28  C   UNL A   1      41.698  30.099  34.405  1.00  0.00     0.049 A 
ATOM     29  C   UNL A   1      42.852  27.007  29.880  1.00  0.00     0.074 A 
ATOM     30  C   UNL A   1      42.556  29.966  35.484  1.00  0.00     0.029 A 
ATOM     31  N   UNL A   1      42.164  29.245  33.418  1.00  0.00    -0.354 N 
ATOM     32  N   UNL A   1      42.684  27.626  31.024  1.00  0.00    -0.248 NA
ATOM     33  C   UNL A   1      44.060  26.174  29.816  1.00  0.00     0.031 C 
ATOM     34  C   UNL A   1      43.556  29.051  35.137  1.00  0.00     0.029 A 
ATOM     35  C   UNL A   1      43.304  28.590  33.855  1.00  0.00     0.049 A 
ATOM     36  H   UNL A   1      41.745  29.120  32.535  1.00  0.00     0.167 HD
ATOM     37  C   UNL A   1      43.751  27.241  31.824  1.00  0.00     0.074 A 
ATOM     38  C   UNL A   1      44.543  26.310  31.043  1.00  0.00     0.031 C 
ATOM     39  C   UNL A   1      44.057  27.635  33.084  1.00  0.00     0.034 A 
BRANCH  26  40
ATOM     40  C   UNL A   1      40.219  31.869  35.434  1.00  0.00     0.023 A 
ATOM     41  C   UNL A   1      40.923  33.080  35.584  1.00  0.00     0.012 A 
ATOM     42  C   UNL A   1      39.164  31.569  36.321  1.00  0.00     0.148 A 
ATOM     43  C   UNL A   1      40.602  33.967  36.612  1.00  0.00     0.002 A 
ATOM     44  C   UNL A   1      38.822  32.477  37.317  1.00  0.00     0.091 A 
ATOM     45  F   UNL A   1      38.518  30.404  36.175  1.00  0.00    -0.205 F 
ATOM     46  C   UNL A   1      39.546  33.671  37.470  1.00  0.00     0.022 A 
BRANCH  44  47
ATOM     47  S   UNL A   1      37.430  32.225  38.424  1.00  0.00     0.127 S 
ATOM     48  O   UNL A   1      37.935  32.805  39.668  1.00  0.00    -0.237 OA
ATOM     49  O   UNL A   1      36.375  33.002  37.773  1.00  0.00    -0.237 OA
ATOM     50  O   UNL A   1      37.196  30.788  38.454  1.00  0.00    -0.744 OA
ENDBRANCH  44  47
ENDBRANCH  26  40
BRANCH  27  51
ATOM     51  C   UNL A   1      42.304  26.213  27.457  1.00  0.00     0.023 A 
ATOM     52  C   UNL A   1      43.041  26.796  26.409  1.00  0.00     0.012 A 
ATOM     53  C   UNL A   1      41.939  24.855  27.370  1.00  0.00     0.148 A 
ATOM     54  C   UNL A   1      43.384  26.048  25.283  1.00  0.00     0.002 A 
ATOM     55  C   UNL A   1      42.337  24.100  26.275  1.00  0.00     0.091 A 
ATOM     56  F   UNL A   1      41.227  24.323  28.374  1.00  0.00    -0.205 F 
ATOM     57  C   UNL A   1      43.045  24.699  25.221  1.00  0.00     0.022 A 
BRANCH  55  58
ATOM     58  S   UNL A   1      42.071  22.326  26.186  1.00  0.00     0.127 S 
ATOM     59  O   UNL A   1      42.806  21.974  24.975  1.00  0.00    -0.237 OA
ATOM     60  O   UNL A   1      42.681  21.866  27.435  1.00  0.00    -0.237 OA
ATOM     61  O   UNL A   1      40.626  22.149  26.127  1.00  0.00    -0.744 OA
ENDBRANCH  55  58
ENDBRANCH  27  51
BRANCH  39  62
ATOM     62  C   UNL A   1      45.288  27.038  33.715  1.00  0.00     0.023 A 
ATOM     63  C   UNL A   1      46.525  27.707  33.606  1.00  0.00     0.012 A 
ATOM     64  C   UNL A   1      45.208  25.848  34.463  1.00  0.00     0.148 A 
ATOM     65  C   UNL A   1      47.669  27.178  34.202  1.00  0.00     0.002 A 
ATOM     66  C   UNL A   1      46.343  25.355  35.095  1.00  0.00     0.091 A 
ATOM     67  F   UNL A   1      44.028  25.216  34.536  1.00  0.00    -0.205 F 
ATOM     68  C   UNL A   1      47.576  26.011  34.955  1.00  0.00     0.022 A 
BRANCH  66  69
ATOM     69  S   UNL A   1      46.296  23.911  36.163  1.00  0.00     0.127 S 
ATOM     70  O   UNL A   1      47.717  23.670  36.401  1.00  0.00    -0.237 OA
ATOM     71  O   UNL A   1      45.557  24.407  37.324  1.00  0.00    -0.237 OA
ATOM     72  O   UNL A   1      45.604  22.875  35.405  1.00  0.00    -0.744 OA
ENDBRANCH  66  69
ENDBRANCH  39  62
ENDBRANCH  13  14
ENDBRANCH   6   8
ENDBRANCH   3   4
ENDBRANCH   2   3
ENDBRANCH   1   2
BRANCH   1  73
ATOM     73  N   UNL A   1      32.156  28.205  23.900  1.00  0.00    -0.352 N 
ATOM     74  C   UNL A   1      32.866  27.136  23.420  1.00  0.00     0.252 C 
ATOM     75  H   UNL A   1      32.297  29.053  23.419  1.00  0.00     0.163 HD
ATOM     76  O   UNL A   1      33.767  27.302  22.601  1.00  0.00    -0.269 OA
BRANCH  74  77
ATOM     77  C   UNL A   1      32.555  25.783  23.891  1.00  0.00     0.058 A 
ATOM     78  C   UNL A   1      31.763  24.908  23.151  1.00  0.00     0.017 A 
ATOM     79  C   UNL A   1      33.081  25.346  25.095  1.00  0.00     0.125 A 
ATOM     80  C   UNL A   1      31.455  23.661  23.683  1.00  0.00     0.030 A 
ATOM     81  N   UNL A   1      32.796  24.138  25.634  1.00  0.00    -0.255 NA
ATOM     82  C   UNL A   1      31.970  23.317  24.933  1.00  0.00     0.094 A 
BRANCH  82  83
ATOM     83  C   UNL A   1      31.653  21.957  25.529  1.00  0.00     0.317 C 
BRANCH  83  84
ATOM     84  N   UNL A   1      32.824  21.372  26.182  1.00  0.00    -0.341 N 
ATOM     85  H   UNL A   1      32.505  20.644  26.821  1.00  0.00     0.346 HD
ATOM     86  H   UNL A   1      33.306  22.132  26.662  1.00  0.00     0.346 HD
BRANCH  84  87
ATOM     87  C   UNL A   1      33.783  20.780  25.258  1.00  0.00     0.264 C 
BRANCH  87  88
ATOM     88  C   UNL A   1      35.156  21.435  25.349  1.00  0.00     0.049 C 
ATOM     89  C   UNL A   1      35.569  22.321  24.146  1.00  0.00     0.041 C 
ATOM     90  C   UNL A   1      36.397  20.558  25.034  1.00  0.00     0.041 C 
ATOM     91  C   UNL A   1      37.005  21.772  24.301  1.00  0.00     0.115 C 
BRANCH  91  92
ATOM     92  O   UNL A   1      37.926  22.582  25.057  1.00  0.00    -0.393 OA
ATOM     93  H   UNL A   1      38.246  22.079  25.822  1.00  0.00     0.210 HD
ENDBRANCH  91  92
ENDBRANCH  87  88
ENDBRANCH  84  87
ENDBRANCH  83  84
ENDBRANCH  82  83
ENDBRANCH  74  77
ENDBRANCH   1  73
TORSDOF 18
ENDMDL
MODEL 3
REMARK VINA RESULT:     -11.2      4.897      9.405
REMARK SMILES O=C(NCCCNC(=O)c1ccc(C[NH2+]C[C@H]2C[C@H](O)C2)nc1)c1ccc(-c2c3nc(c(-c4cccc(S(=O)(=O)[O-])c4F)c4ccc([nH]4)c(-c4cccc(S(=O)(=O)[O-])c4F)c4nc(c(-c5cccc(S(=O)(=O)[O-])c5F)c5ccc2[nH]5)C=C4)C=C3)cc1
REMARK SMILES IDX 6 1 5 2 4 3 3 4 1 5 2 6 24 8 25 9 86 10 26 11 85 12 27 13
REMARK SMILES IDX 28 14 29 15 79 16 30 17 84 18 78 19 80 20 31 21 83 22 77 23
REMARK SMILES IDX 76 24 32 26 64 27 44 28 63 29 45 30 48 31 62 32 81 33 46 34
REMARK SMILES IDX 47 35 61 37 82 38 49 39 33 40 34 41 42 42 35 43 37 44 43 45
REMARK SMILES IDX 36 46 38 47 39 48 40 49 41 50 65 51 66 52 74 53 67 54 69 55
REMARK SMILES IDX 75 56 68 57 70 58 71 59 72 60 73 61 50 62 51 63 59 64 52 65
REMARK SMILES IDX 54 66 60 67 53 68 55 69 56 70 57 71 58 72 7 73 8 74 9 76
REMARK SMILES IDX 10 77 11 78 23 79 12 80 22 81 13 82 14 83 15 84 16 87 17 88
REMARK SMILES IDX 21 89 18 90 19 91 20 92
REMARK H PARENT 3 7 80 25 48 36 7 75 15 85 15 86 20 93
REMARK Flexibility Score: inf
ROOT
ATOM      1  C   UNL A   1      34.815  25.067  25.339  1.00  0.00     0.118 C 
ENDROOT
BRANCH   1   2
ATOM      2  C   UNL A   1      35.734  23.960  25.832  1.00  0.00     0.042 C 
BRANCH   2   3
ATOM      3  C   UNL A   1      36.910  23.686  24.908  1.00  0.00     0.118 C 
BRANCH   3   4
ATOM      4  N   UNL A   1      37.800  22.651  25.422  1.00  0.00    -0.352 N 
ATOM      5  O   UNL A   1      39.665  21.762  26.303  1.00  0.00    -0.269 OA
ATOM      6  C   UNL A   1      38.961  22.756  26.151  1.00  0.00     0.251 C 
ATOM      7  H   UNL A   1      37.526  21.729  25.213  1.00  0.00     0.163 HD
BRANCH   6   8
ATOM      8  C   UNL A   1      39.370  24.058  26.720  1.00  0.00     0.039 A 
ATOM      9  C   UNL A   1      40.025  25.005  25.931  1.00  0.00     0.014 A 
ATOM     10  C   UNL A   1      39.079  24.348  28.056  1.00  0.00     0.014 A 
ATOM     11  C   UNL A   1      40.550  26.150  26.515  1.00  0.00     0.010 A 
ATOM     12  C   UNL A   1      39.508  25.557  28.614  1.00  0.00     0.010 A 
ATOM     13  C   UNL A   1      40.281  26.452  27.859  1.00  0.00    -0.014 A 
BRANCH  13  14
ATOM     14  C   UNL A   1      40.751  27.748  28.413  1.00  0.00     0.031 A 
ATOM     15  C   UNL A   1      42.214  28.066  28.540  1.00  0.00     0.074 A 
ATOM     16  C   UNL A   1      39.826  28.652  28.795  1.00  0.00     0.049 A 
ATOM     17  N   UNL A   1      42.779  29.164  28.972  1.00  0.00    -0.248 NA
ATOM     18  C   UNL A   1      43.171  27.020  28.141  1.00  0.00     0.031 C 
ATOM     19  C   UNL A   1      38.376  28.436  28.765  1.00  0.00     0.029 A 
ATOM     20  N   UNL A   1      39.959  29.927  29.280  1.00  0.00    -0.354 N 
ATOM     21  C   UNL A   1      44.149  28.932  28.939  1.00  0.00     0.074 A 
ATOM     22  C   UNL A   1      44.333  27.583  28.448  1.00  0.00     0.031 C 
ATOM     23  C   UNL A   1      37.755  29.547  29.180  1.00  0.00     0.029 A 
ATOM     24  C   UNL A   1      38.757  30.532  29.566  1.00  0.00     0.049 A 
ATOM     25  H   UNL A   1      40.830  30.367  29.411  1.00  0.00     0.167 HD
ATOM     26  C   UNL A   1      45.158  29.771  29.274  1.00  0.00     0.034 A 
ATOM     27  C   UNL A   1      38.487  31.737  30.102  1.00  0.00     0.034 A 
ATOM     28  C   UNL A   1      44.967  31.124  29.729  1.00  0.00     0.049 A 
ATOM     29  C   UNL A   1      39.626  32.653  30.437  1.00  0.00     0.074 A 
ATOM     30  C   UNL A   1      45.930  32.074  30.026  1.00  0.00     0.029 A 
ATOM     31  N   UNL A   1      43.736  31.717  29.964  1.00  0.00    -0.354 N 
ATOM     32  N   UNL A   1      40.913  32.460  30.274  1.00  0.00    -0.248 NA
ATOM     33  C   UNL A   1      39.279  33.963  31.002  1.00  0.00     0.031 C 
ATOM     34  C   UNL A   1      45.280  33.232  30.467  1.00  0.00     0.029 A 
ATOM     35  C   UNL A   1      43.913  33.015  30.415  1.00  0.00     0.049 A 
ATOM     36  H   UNL A   1      42.864  31.280  29.828  1.00  0.00     0.167 HD
ATOM     37  C   UNL A   1      41.528  33.632  30.695  1.00  0.00     0.074 A 
ATOM     38  C   UNL A   1      40.469  34.540  31.091  1.00  0.00     0.031 C 
ATOM     39  C   UNL A   1      42.850  33.922  30.764  1.00  0.00     0.034 A 
BRANCH  26  40
ATOM     40  C   UNL A   1      46.573  29.268  29.135  1.00  0.00     0.023 A 
ATOM     41  C   UNL A   1      47.252  28.769  30.265  1.00  0.00     0.012 A 
ATOM     42  C   UNL A   1      47.200  29.214  27.873  1.00  0.00     0.148 A 
ATOM     43  C   UNL A   1      48.541  28.250  30.148  1.00  0.00     0.002 A 
ATOM     44  C   UNL A   1      48.469  28.656  27.757  1.00  0.00     0.091 A 
ATOM     45  F   UNL A   1      46.547  29.710  26.813  1.00  0.00    -0.205 F 
ATOM     46  C   UNL A   1      49.145  28.183  28.894  1.00  0.00     0.022 A 
BRANCH  44  47
ATOM     47  S   UNL A   1      49.300  28.455  26.177  1.00  0.00     0.127 S 
ATOM     48  O   UNL A   1      49.995  29.734  26.045  1.00  0.00    -0.237 OA
ATOM     49  O   UNL A   1      50.174  27.309  26.434  1.00  0.00    -0.237 OA
ATOM     50  O   UNL A   1      48.250  28.209  25.199  1.00  0.00    -0.744 OA
ENDBRANCH  44  47
ENDBRANCH  26  40
BRANCH  27  51
ATOM     51  C   UNL A   1      37.071  32.145  30.318  1.00  0.00     0.023 A 
ATOM     52  C   UNL A   1      36.506  32.047  31.603  1.00  0.00     0.012 A 
ATOM     53  C   UNL A   1      36.302  32.681  29.266  1.00  0.00     0.148 A 
ATOM     54  C   UNL A   1      35.190  32.450  31.831  1.00  0.00     0.002 A 
ATOM     55  C   UNL A   1      35.014  33.138  29.514  1.00  0.00     0.091 A 
ATOM     56  F   UNL A   1      36.856  32.754  28.048  1.00  0.00    -0.205 F 
ATOM     57  C   UNL A   1      34.449  33.008  30.792  1.00  0.00     0.022 A 
BRANCH  55  58
ATOM     58  S   UNL A   1      34.049  34.003  28.271  1.00  0.00     0.127 S 
ATOM     59  O   UNL A   1      33.259  32.917  27.698  1.00  0.00    -0.237 OA
ATOM     60  O   UNL A   1      33.293  34.957  29.083  1.00  0.00    -0.237 OA
ATOM     61  O   UNL A   1      35.022  34.619  27.378  1.00  0.00    -0.744 OA
ENDBRANCH  55  58
ENDBRANCH  27  51
BRANCH  39  62
ATOM     62  C   UNL A   1      43.231  35.293  31.259  1.00  0.00     0.023 A 
ATOM     63  C   UNL A   1      43.418  35.511  32.639  1.00  0.00     0.012 A 
ATOM     64  C   UNL A   1      43.459  36.347  30.354  1.00  0.00     0.148 A 
ATOM     65  C   UNL A   1      43.791  36.769  33.112  1.00  0.00     0.002 A 
ATOM     66  C   UNL A   1      43.880  37.583  30.829  1.00  0.00     0.091 A 
ATOM     67  F   UNL A   1      43.255  36.124  29.048  1.00  0.00    -0.205 F 
ATOM     68  C   UNL A   1      44.033  37.800  32.208  1.00  0.00     0.022 A 
BRANCH  66  69
ATOM     69  S   UNL A   1      44.306  38.939  29.731  1.00  0.00     0.127 S 
ATOM     70  O   UNL A   1      43.019  39.229  29.102  1.00  0.00    -0.237 OA
ATOM     71  O   UNL A   1      44.772  39.962  30.668  1.00  0.00    -0.237 OA
ATOM     72  O   UNL A   1      45.337  38.424  28.839  1.00  0.00    -0.744 OA
ENDBRANCH  66  69
ENDBRANCH  39  62
ENDBRANCH  13  14
ENDBRANCH   6   8
ENDBRANCH   3   4
ENDBRANCH   2   3
ENDBRANCH   1   2
BRANCH   1  73
ATOM     73  N   UNL A   1      33.628  25.212  26.172  1.00  0.00    -0.352 N 
ATOM     74  C   UNL A   1      32.450  24.513  26.142  1.00  0.00     0.252 C 
ATOM     75  H   UNL A   1      33.681  25.916  26.859  1.00  0.00     0.163 HD
ATOM     76  O   UNL A   1      31.475  24.905  26.779  1.00  0.00    -0.269 OA
BRANCH  74  77
ATOM     77  C   UNL A   1      32.347  23.291  25.338  1.00  0.00     0.058 A 
ATOM     78  C   UNL A   1      32.529  22.026  25.892  1.00  0.00     0.017 A 
ATOM     79  C   UNL A   1      32.035  23.388  23.993  1.00  0.00     0.125 A 
ATOM     80  C   UNL A   1      32.479  20.912  25.062  1.00  0.00     0.030 A 
ATOM     81  N   UNL A   1      31.981  22.320  23.164  1.00  0.00    -0.255 NA
ATOM     82  C   UNL A   1      32.223  21.096  23.703  1.00  0.00     0.094 A 
BRANCH  82  83
ATOM     83  C   UNL A   1      32.156  19.892  22.781  1.00  0.00     0.317 C 
BRANCH  83  84
ATOM     84  N   UNL A   1      32.373  18.644  23.512  1.00  0.00    -0.341 N 
ATOM     85  H   UNL A   1      31.494  18.373  23.953  1.00  0.00     0.346 HD
ATOM     86  H   UNL A   1      33.114  18.824  24.190  1.00  0.00     0.346 HD
BRANCH  84  87
ATOM     87  C   UNL A   1      32.824  17.539  22.676  1.00  0.00     0.264 C 
BRANCH  87  88
ATOM     88  C   UNL A   1      33.846  16.657  23.382  1.00  0.00     0.049 C 
ATOM     89  C   UNL A   1      33.325  15.850  24.598  1.00  0.00     0.041 C 
ATOM     90  C   UNL A   1      34.842  17.340  24.355  1.00  0.00     0.041 C 
ATOM     91  C   UNL A   1      34.676  16.129  25.295  1.00  0.00     0.115 C 
BRANCH  91  92
ATOM     92  O   UNL A   1      35.677  15.098  25.196  1.00  0.00    -0.393 OA
ATOM     93  H   UNL A   1      36.293  15.172  25.941  1.00  0.00     0.210 HD
ENDBRANCH  91  92
ENDBRANCH  87  88
ENDBRANCH  84  87
ENDBRANCH  83  84
ENDBRANCH  82  83
ENDBRANCH  74  77
ENDBRANCH   1  73
TORSDOF 18
ENDMDL
