MODEL 1
REMARK VINA RESULT:     -12.4      0.000      0.000
REMARK SMILES O=C(Cc1ccccc1-c1ccn(C(F)F)c(=O)c1)NCCCNC(=O)c1ccc(-c2c3nc(c(-c4cccc(S(=O)(=O)[O-])c4F)c4ccc([nH]4)c(-c4cccc(S(=O)(=O)[O-])c4F)c4nc(c(-c5cccc(S(=O)(=O)[O-])c5F)c5ccc2[nH]5)C=C4)C=C3)cc1
REMARK SMILES IDX 22 1 21 2 20 3 1 4 2 5 3 7 4 8 5 9 9 10 6 11 8 12 7 13 10 14
REMARK SMILES IDX 11 15 19 16 12 17 17 18 13 19 18 20 14 21 15 22 16 23 23 24
REMARK SMILES IDX 24 25 25 26 26 28 27 29 28 30 89 31 29 32 88 33 30 34 31 35
REMARK SMILES IDX 32 36 82 37 33 38 87 39 81 40 83 41 34 42 86 43 80 44 79 45
REMARK SMILES IDX 35 47 67 48 47 49 66 50 48 51 51 52 65 53 84 54 49 55 50 56
REMARK SMILES IDX 64 58 85 59 52 60 36 61 37 62 45 63 38 64 40 65 46 66 39 67
REMARK SMILES IDX 41 68 42 69 43 70 44 71 68 72 69 73 77 74 70 75 72 76 78 77
REMARK SMILES IDX 71 78 73 79 74 80 75 81 76 82 53 83 54 84 62 85 55 86 57 87
REMARK SMILES IDX 63 88 56 89 58 90 59 91 60 92 61 93
REMARK H PARENT 20 6 24 27 83 46 51 57
REMARK Flexibility Score: inf
ROOT
ATOM      1  C   UNL A   1      31.973  31.312  26.887  1.00  0.00     0.042 C 
ENDROOT
BRANCH   1   2
ATOM      2  C   UNL A   1      32.394  30.161  25.984  1.00  0.00     0.117 C 
BRANCH   2   3
ATOM      3  N   UNL A   1      31.487  29.035  26.063  1.00  0.00    -0.356 N 
ATOM      4  O   UNL A   1      33.096  27.427  26.413  1.00  0.00    -0.275 OA
ATOM      5  C   UNL A   1      31.917  27.744  26.280  1.00  0.00     0.224 C 
ATOM      6  H   UNL A   1      30.522  29.199  25.957  1.00  0.00     0.163 HD
BRANCH   5   7
ATOM      7  C   UNL A   1      30.795  26.724  26.352  1.00  0.00     0.136 C 
BRANCH   7   8
ATOM      8  C   UNL A   1      30.900  25.565  25.373  1.00  0.00    -0.031 A 
ATOM      9  C   UNL A   1      31.535  24.365  25.744  1.00  0.00     0.005 A 
ATOM     10  C   UNL A   1      30.397  25.682  24.053  1.00  0.00    -0.014 A 
ATOM     11  C   UNL A   1      31.623  23.289  24.861  1.00  0.00     0.000 A 
ATOM     12  C   UNL A   1      30.510  24.592  23.170  1.00  0.00     0.009 A 
ATOM     13  C   UNL A   1      31.109  23.400  23.576  1.00  0.00     0.001 A 
BRANCH  10  14
ATOM     14  C   UNL A   1      29.754  26.923  23.563  1.00  0.00    -0.011 A 
ATOM     15  C   UNL A   1      30.493  27.996  22.924  1.00  0.00     0.027 A 
ATOM     16  C   UNL A   1      28.430  27.069  23.753  1.00  0.00     0.080 A 
ATOM     17  C   UNL A   1      29.885  29.145  22.605  1.00  0.00     0.095 A 
ATOM     18  C   UNL A   1      27.729  28.315  23.339  1.00  0.00     0.255 A 
ATOM     19  N   UNL A   1      28.533  29.320  22.826  1.00  0.00    -0.258 N 
ATOM     20  O   UNL A   1      26.511  28.373  23.482  1.00  0.00    -0.269 OA
BRANCH  19  21
ATOM     21  C   UNL A   1      27.890  30.566  22.497  1.00  0.00     0.451 C 
ATOM     22  F   UNL A   1      28.608  31.618  22.959  1.00  0.00    -0.185 F 
ATOM     23  F   UNL A   1      27.747  30.705  21.157  1.00  0.00    -0.185 F 
ENDBRANCH  19  21
ENDBRANCH  10  14
ENDBRANCH   7   8
ENDBRANCH   5   7
ENDBRANCH   2   3
ENDBRANCH   1   2
BRANCH   1  24
ATOM     24  C   UNL A   1      33.111  32.237  27.307  1.00  0.00     0.118 C 
BRANCH  24  25
ATOM     25  N   UNL A   1      32.671  33.592  27.620  1.00  0.00    -0.352 N 
ATOM     26  C   UNL A   1      33.142  34.459  28.580  1.00  0.00     0.251 C 
ATOM     27  H   UNL A   1      31.934  33.935  27.067  1.00  0.00     0.163 HD
ATOM     28  O   UNL A   1      32.563  35.524  28.781  1.00  0.00    -0.269 OA
BRANCH  26  29
ATOM     29  C   UNL A   1      34.324  34.091  29.388  1.00  0.00     0.039 A 
ATOM     30  C   UNL A   1      34.137  33.393  30.584  1.00  0.00     0.014 A 
ATOM     31  C   UNL A   1      35.612  34.407  28.952  1.00  0.00     0.014 A 
ATOM     32  C   UNL A   1      35.248  32.935  31.300  1.00  0.00     0.010 A 
ATOM     33  C   UNL A   1      36.714  33.894  29.628  1.00  0.00     0.010 A 
ATOM     34  C   UNL A   1      36.544  33.143  30.802  1.00  0.00    -0.014 A 
BRANCH  34  35
ATOM     35  C   UNL A   1      37.745  32.566  31.462  1.00  0.00     0.031 A 
ATOM     36  C   UNL A   1      38.478  31.422  30.818  1.00  0.00     0.074 A 
ATOM     37  C   UNL A   1      38.089  32.979  32.699  1.00  0.00     0.049 A 
ATOM     38  N   UNL A   1      39.436  30.678  31.304  1.00  0.00    -0.248 NA
ATOM     39  C   UNL A   1      38.055  31.045  29.458  1.00  0.00     0.031 C 
ATOM     40  C   UNL A   1      37.415  34.034  33.458  1.00  0.00     0.029 A 
ATOM     41  N   UNL A   1      39.065  32.529  33.554  1.00  0.00    -0.354 N 
ATOM     42  C   UNL A   1      39.697  29.715  30.337  1.00  0.00     0.074 A 
ATOM     43  C   UNL A   1      38.784  29.959  29.241  1.00  0.00     0.031 C 
ATOM     44  C   UNL A   1      37.988  34.141  34.668  1.00  0.00     0.029 A 
ATOM     45  C   UNL A   1      39.045  33.141  34.785  1.00  0.00     0.049 A 
ATOM     46  H   UNL A   1      39.718  31.833  33.307  1.00  0.00     0.167 HD
ATOM     47  C   UNL A   1      40.629  28.732  30.349  1.00  0.00     0.034 A 
ATOM     48  C   UNL A   1      39.782  32.913  35.891  1.00  0.00     0.034 A 
ATOM     49  C   UNL A   1      41.572  28.529  31.414  1.00  0.00     0.049 A 
ATOM     50  C   UNL A   1      40.843  31.848  35.858  1.00  0.00     0.074 A 
ATOM     51  C   UNL A   1      42.609  27.616  31.480  1.00  0.00     0.029 A 
ATOM     52  N   UNL A   1      41.597  29.250  32.597  1.00  0.00    -0.354 N 
ATOM     53  N   UNL A   1      41.171  31.042  34.878  1.00  0.00    -0.248 NA
ATOM     54  C   UNL A   1      41.661  31.682  37.070  1.00  0.00     0.031 C 
ATOM     55  C   UNL A   1      43.257  27.780  32.708  1.00  0.00     0.029 A 
ATOM     56  C   UNL A   1      42.633  28.806  33.399  1.00  0.00     0.049 A 
ATOM     57  H   UNL A   1      40.971  29.972  32.832  1.00  0.00     0.167 HD
ATOM     58  C   UNL A   1      42.257  30.306  35.336  1.00  0.00     0.074 A 
ATOM     59  C   UNL A   1      42.540  30.767  36.679  1.00  0.00     0.031 C 
ATOM     60  C   UNL A   1      42.951  29.327  34.704  1.00  0.00     0.034 A 
BRANCH  47  61
ATOM     61  C   UNL A   1      40.716  27.835  29.142  1.00  0.00     0.023 A 
ATOM     62  C   UNL A   1      39.867  26.714  29.052  1.00  0.00     0.012 A 
ATOM     63  C   UNL A   1      41.585  28.133  28.074  1.00  0.00     0.148 A 
ATOM     64  C   UNL A   1      39.903  25.884  27.933  1.00  0.00     0.002 A 
ATOM     65  C   UNL A   1      41.584  27.325  26.943  1.00  0.00     0.091 A 
ATOM     66  F   UNL A   1      42.401  29.191  28.187  1.00  0.00    -0.205 F 
ATOM     67  C   UNL A   1      40.752  26.196  26.875  1.00  0.00     0.022 A 
BRANCH  65  68
ATOM     68  S   UNL A   1      42.582  27.691  25.494  1.00  0.00     0.127 S 
ATOM     69  O   UNL A   1      42.306  26.534  24.645  1.00  0.00    -0.237 OA
ATOM     70  O   UNL A   1      41.996  28.946  25.022  1.00  0.00    -0.237 OA
ATOM     71  O   UNL A   1      43.952  27.807  25.974  1.00  0.00    -0.744 OA
ENDBRANCH  65  68
ENDBRANCH  47  61
BRANCH  48  72
ATOM     72  C   UNL A   1      39.586  33.761  37.102  1.00  0.00     0.023 A 
ATOM     73  C   UNL A   1      40.094  35.075  37.108  1.00  0.00     0.012 A 
ATOM     74  C   UNL A   1      38.876  33.295  38.225  1.00  0.00     0.148 A 
ATOM     75  C   UNL A   1      39.923  35.899  38.219  1.00  0.00     0.002 A 
ATOM     76  C   UNL A   1      38.663  34.139  39.309  1.00  0.00     0.091 A 
ATOM     77  F   UNL A   1      38.412  32.037  38.207  1.00  0.00    -0.205 F 
ATOM     78  C   UNL A   1      39.200  35.436  39.315  1.00  0.00     0.022 A 
BRANCH  76  79
ATOM     79  S   UNL A   1      37.634  33.670  40.705  1.00  0.00     0.127 S 
ATOM     80  O   UNL A   1      36.464  33.105  40.039  1.00  0.00    -0.237 OA
ATOM     81  O   UNL A   1      38.481  32.697  41.395  1.00  0.00    -0.237 OA
ATOM     82  O   UNL A   1      37.410  34.900  41.453  1.00  0.00    -0.744 OA
ENDBRANCH  76  79
ENDBRANCH  48  72
BRANCH  60  83
ATOM     83  C   UNL A   1      44.122  28.715  35.423  1.00  0.00     0.023 A 
ATOM     84  C   UNL A   1      45.411  29.254  35.248  1.00  0.00     0.012 A 
ATOM     85  C   UNL A   1      43.924  27.677  36.355  1.00  0.00     0.148 A 
ATOM     86  C   UNL A   1      46.490  28.757  35.978  1.00  0.00     0.002 A 
ATOM     87  C   UNL A   1      44.996  27.214  37.109  1.00  0.00     0.091 A 
ATOM     88  F   UNL A   1      42.691  27.165  36.489  1.00  0.00    -0.205 F 
ATOM     89  C   UNL A   1      46.280  27.748  36.916  1.00  0.00     0.022 A 
BRANCH  87  90
ATOM     90  S   UNL A   1      44.802  25.986  38.405  1.00  0.00     0.127 S 
ATOM     91  O   UNL A   1      46.178  25.824  38.870  1.00  0.00    -0.237 OA
ATOM     92  O   UNL A   1      43.916  26.668  39.350  1.00  0.00    -0.237 OA
ATOM     93  O   UNL A   1      44.215  24.815  37.766  1.00  0.00    -0.744 OA
ENDBRANCH  87  90
ENDBRANCH  60  83
ENDBRANCH  34  35
ENDBRANCH  26  29
ENDBRANCH  24  25
ENDBRANCH   1  24
TORSDOF 16
ENDMDL
MODEL 2
REMARK VINA RESULT:     -12.4      1.838      2.832
REMARK SMILES O=C(Cc1ccccc1-c1ccn(C(F)F)c(=O)c1)NCCCNC(=O)c1ccc(-c2c3nc(c(-c4cccc(S(=O)(=O)[O-])c4F)c4ccc([nH]4)c(-c4cccc(S(=O)(=O)[O-])c4F)c4nc(c(-c5cccc(S(=O)(=O)[O-])c5F)c5ccc2[nH]5)C=C4)C=C3)cc1
REMARK SMILES IDX 22 1 21 2 20 3 1 4 2 5 3 7 4 8 5 9 9 10 6 11 8 12 7 13 10 14
REMARK SMILES IDX 11 15 19 16 12 17 17 18 13 19 18 20 14 21 15 22 16 23 23 24
REMARK SMILES IDX 24 25 25 26 26 28 27 29 28 30 89 31 29 32 88 33 30 34 31 35
REMARK SMILES IDX 32 36 82 37 33 38 87 39 81 40 83 41 34 42 86 43 80 44 79 45
REMARK SMILES IDX 35 47 67 48 47 49 66 50 48 51 51 52 65 53 84 54 49 55 50 56
REMARK SMILES IDX 64 58 85 59 52 60 36 61 37 62 45 63 38 64 40 65 46 66 39 67
REMARK SMILES IDX 41 68 42 69 43 70 44 71 68 72 69 73 77 74 70 75 72 76 78 77
REMARK SMILES IDX 71 78 73 79 74 80 75 81 76 82 53 83 54 84 62 85 55 86 57 87
REMARK SMILES IDX 63 88 56 89 58 90 59 91 60 92 61 93
REMARK H PARENT 20 6 24 27 83 46 51 57
REMARK Flexibility Score: inf
ROOT
ATOM      1  C   UNL A   1      31.914  31.476  26.665  1.00  0.00     0.042 C 
ENDROOT
BRANCH   1   2
ATOM      2  C   UNL A   1      32.358  30.091  26.216  1.00  0.00     0.117 C 
BRANCH   2   3
ATOM      3  N   UNL A   1      31.786  29.713  24.940  1.00  0.00    -0.356 N 
ATOM      4  O   UNL A   1      33.215  27.959  24.521  1.00  0.00    -0.275 OA
ATOM      5  C   UNL A   1      32.264  28.661  24.190  1.00  0.00     0.224 C 
ATOM      6  H   UNL A   1      31.024  30.232  24.593  1.00  0.00     0.163 HD
BRANCH   5   7
ATOM      7  C   UNL A   1      31.501  28.427  22.899  1.00  0.00     0.136 C 
BRANCH   7   8
ATOM      8  C   UNL A   1      29.984  28.450  23.020  1.00  0.00    -0.031 A 
ATOM      9  C   UNL A   1      29.250  29.592  22.644  1.00  0.00     0.005 A 
ATOM     10  C   UNL A   1      29.281  27.342  23.552  1.00  0.00    -0.014 A 
ATOM     11  C   UNL A   1      27.859  29.620  22.735  1.00  0.00     0.000 A 
ATOM     12  C   UNL A   1      27.879  27.395  23.653  1.00  0.00     0.009 A 
ATOM     13  C   UNL A   1      27.172  28.522  23.236  1.00  0.00     0.001 A 
BRANCH  10  14
ATOM     14  C   UNL A   1      29.976  26.118  24.014  1.00  0.00    -0.011 A 
ATOM     15  C   UNL A   1      30.535  25.136  23.103  1.00  0.00     0.027 A 
ATOM     16  C   UNL A   1      30.058  25.896  25.338  1.00  0.00     0.080 A 
ATOM     17  C   UNL A   1      31.048  23.991  23.568  1.00  0.00     0.095 A 
ATOM     18  C   UNL A   1      30.690  24.657  25.871  1.00  0.00     0.255 A 
ATOM     19  N   UNL A   1      31.107  23.736  24.924  1.00  0.00    -0.258 N 
ATOM     20  O   UNL A   1      30.791  24.532  27.088  1.00  0.00    -0.269 OA
BRANCH  19  21
ATOM     21  C   UNL A   1      31.644  22.494  25.416  1.00  0.00     0.451 C 
ATOM     22  F   UNL A   1      31.778  21.593  24.413  1.00  0.00    -0.185 F 
ATOM     23  F   UNL A   1      32.859  22.676  25.987  1.00  0.00    -0.185 F 
ENDBRANCH  19  21
ENDBRANCH  10  14
ENDBRANCH   7   8
ENDBRANCH   5   7
ENDBRANCH   2   3
ENDBRANCH   1   2
BRANCH   1  24
ATOM     24  C   UNL A   1      33.007  32.308  27.328  1.00  0.00     0.118 C 
BRANCH  24  25
ATOM     25  N   UNL A   1      32.608  33.686  27.590  1.00  0.00    -0.352 N 
ATOM     26  C   UNL A   1      33.110  34.576  28.513  1.00  0.00     0.251 C 
ATOM     27  H   UNL A   1      31.877  34.029  27.028  1.00  0.00     0.163 HD
ATOM     28  O   UNL A   1      32.563  35.664  28.675  1.00  0.00    -0.269 OA
BRANCH  26  29
ATOM     29  C   UNL A   1      34.287  34.206  29.328  1.00  0.00     0.039 A 
ATOM     30  C   UNL A   1      34.092  33.496  30.517  1.00  0.00     0.014 A 
ATOM     31  C   UNL A   1      35.577  34.531  28.906  1.00  0.00     0.014 A 
ATOM     32  C   UNL A   1      35.199  33.037  31.238  1.00  0.00     0.010 A 
ATOM     33  C   UNL A   1      36.675  34.016  29.587  1.00  0.00     0.010 A 
ATOM     34  C   UNL A   1      36.498  33.255  30.754  1.00  0.00    -0.014 A 
BRANCH  34  35
ATOM     35  C   UNL A   1      37.695  32.676  31.418  1.00  0.00     0.031 A 
ATOM     36  C   UNL A   1      38.418  31.518  30.788  1.00  0.00     0.074 A 
ATOM     37  C   UNL A   1      38.045  33.103  32.649  1.00  0.00     0.049 A 
ATOM     38  N   UNL A   1      39.371  30.773  31.283  1.00  0.00    -0.248 NA
ATOM     39  C   UNL A   1      37.990  31.127  29.434  1.00  0.00     0.031 C 
ATOM     40  C   UNL A   1      37.381  34.173  33.396  1.00  0.00     0.029 A 
ATOM     41  N   UNL A   1      39.019  32.656  33.508  1.00  0.00    -0.354 N 
ATOM     42  C   UNL A   1      39.623  29.796  30.328  1.00  0.00     0.074 A 
ATOM     43  C   UNL A   1      38.710  30.032  29.230  1.00  0.00     0.031 C 
ATOM     44  C   UNL A   1      37.957  34.291  34.603  1.00  0.00     0.029 A 
ATOM     45  C   UNL A   1      39.006  33.285  34.732  1.00  0.00     0.049 A 
ATOM     46  H   UNL A   1      39.666  31.952  33.270  1.00  0.00     0.167 HD
ATOM     47  C   UNL A   1      40.547  28.806  30.351  1.00  0.00     0.034 A 
ATOM     48  C   UNL A   1      39.743  33.066  35.839  1.00  0.00     0.034 A 
ATOM     49  C   UNL A   1      41.491  28.609  31.417  1.00  0.00     0.049 A 
ATOM     50  C   UNL A   1      40.796  31.992  35.818  1.00  0.00     0.074 A 
ATOM     51  C   UNL A   1      42.520  27.689  31.493  1.00  0.00     0.029 A 
ATOM     52  N   UNL A   1      41.523  29.345  32.590  1.00  0.00    -0.354 N 
ATOM     53  N   UNL A   1      41.116  31.170  34.848  1.00  0.00    -0.248 NA
ATOM     54  C   UNL A   1      41.615  31.835  37.031  1.00  0.00     0.031 C 
ATOM     55  C   UNL A   1      43.172  27.864  32.718  1.00  0.00     0.029 A 
ATOM     56  C   UNL A   1      42.557  28.904  33.396  1.00  0.00     0.049 A 
ATOM     57  H   UNL A   1      40.903  30.076  32.816  1.00  0.00     0.167 HD
ATOM     58  C   UNL A   1      42.197  30.432  35.314  1.00  0.00     0.074 A 
ATOM     59  C   UNL A   1      42.486  30.908  36.650  1.00  0.00     0.031 C 
ATOM     60  C   UNL A   1      42.881  29.439  34.693  1.00  0.00     0.034 A 
BRANCH  47  61
ATOM     61  C   UNL A   1      40.624  27.892  29.156  1.00  0.00     0.023 A 
ATOM     62  C   UNL A   1      39.748  26.792  29.069  1.00  0.00     0.012 A 
ATOM     63  C   UNL A   1      41.512  28.155  28.094  1.00  0.00     0.148 A 
ATOM     64  C   UNL A   1      39.775  25.948  27.960  1.00  0.00     0.002 A 
ATOM     65  C   UNL A   1      41.503  27.334  26.972  1.00  0.00     0.091 A 
ATOM     66  F   UNL A   1      42.354  29.193  28.204  1.00  0.00    -0.205 F 
ATOM     67  C   UNL A   1      40.644  26.225  26.909  1.00  0.00     0.022 A 
BRANCH  65  68
ATOM     68  S   UNL A   1      42.527  27.657  25.531  1.00  0.00     0.127 S 
ATOM     69  O   UNL A   1      42.252  26.482  24.705  1.00  0.00    -0.237 OA
ATOM     70  O   UNL A   1      41.959  28.906  25.021  1.00  0.00    -0.237 OA
ATOM     71  O   UNL A   1      43.890  27.772  26.029  1.00  0.00    -0.744 OA
ENDBRANCH  65  68
ENDBRANCH  47  61
BRANCH  48  72
ATOM     72  C   UNL A   1      39.557  33.931  37.039  1.00  0.00     0.023 A 
ATOM     73  C   UNL A   1      39.990  35.270  36.992  1.00  0.00     0.012 A 
ATOM     74  C   UNL A   1      38.927  33.454  38.204  1.00  0.00     0.148 A 
ATOM     75  C   UNL A   1      39.824  36.111  38.092  1.00  0.00     0.002 A 
ATOM     76  C   UNL A   1      38.717  34.312  39.278  1.00  0.00     0.091 A 
ATOM     77  F   UNL A   1      38.534  32.172  38.236  1.00  0.00    -0.205 F 
ATOM     78  C   UNL A   1      39.180  35.636  39.231  1.00  0.00     0.022 A 
BRANCH  76  79
ATOM     79  S   UNL A   1      37.782  33.821  40.732  1.00  0.00     0.127 S 
ATOM     80  O   UNL A   1      38.698  32.885  41.377  1.00  0.00    -0.237 OA
ATOM     81  O   UNL A   1      37.612  35.096  41.430  1.00  0.00    -0.237 OA
ATOM     82  O   UNL A   1      36.542  33.251  40.223  1.00  0.00    -0.744 OA
ENDBRANCH  76  79
ENDBRANCH  48  72
BRANCH  60  83
ATOM     83  C   UNL A   1      44.049  28.827  35.418  1.00  0.00     0.023 A 
ATOM     84  C   UNL A   1      45.333  29.390  35.280  1.00  0.00     0.012 A 
ATOM     85  C   UNL A   1      43.851  27.764  36.321  1.00  0.00     0.148 A 
ATOM     86  C   UNL A   1      46.406  28.891  36.016  1.00  0.00     0.002 A 
ATOM     87  C   UNL A   1      44.917  27.299  37.083  1.00  0.00     0.091 A 
ATOM     88  F   UNL A   1      42.624  27.231  36.422  1.00  0.00    -0.205 F 
ATOM     89  C   UNL A   1      46.195  27.856  36.926  1.00  0.00     0.022 A 
BRANCH  87  90
ATOM     90  S   UNL A   1      44.718  26.037  38.346  1.00  0.00     0.127 S 
ATOM     91  O   UNL A   1      44.126  26.803  39.440  1.00  0.00    -0.237 OA
ATOM     92  O   UNL A   1      43.808  25.091  37.700  1.00  0.00    -0.237 OA
ATOM     93  O   UNL A   1      46.053  25.511  38.602  1.00  0.00    -0.744 OA
ENDBRANCH  87  90
ENDBRANCH  60  83
ENDBRANCH  34  35
ENDBRANCH  26  29
ENDBRANCH  24  25
ENDBRANCH   1  24
TORSDOF 16
ENDMDL
MODEL 3
REMARK VINA RESULT:     -12.0      7.076     12.105
REMARK SMILES O=C(Cc1ccccc1-c1ccn(C(F)F)c(=O)c1)NCCCNC(=O)c1ccc(-c2c3nc(c(-c4cccc(S(=O)(=O)[O-])c4F)c4ccc([nH]4)c(-c4cccc(S(=O)(=O)[O-])c4F)c4nc(c(-c5cccc(S(=O)(=O)[O-])c5F)c5ccc2[nH]5)C=C4)C=C3)cc1
REMARK SMILES IDX 22 1 21 2 20 3 1 4 2 5 3 7 4 8 5 9 9 10 6 11 8 12 7 13 10 14
REMARK SMILES IDX 11 15 19 16 12 17 17 18 13 19 18 20 14 21 15 22 16 23 23 24
REMARK SMILES IDX 24 25 25 26 26 28 27 29 28 30 89 31 29 32 88 33 30 34 31 35
REMARK SMILES IDX 32 36 82 37 33 38 87 39 81 40 83 41 34 42 86 43 80 44 79 45
REMARK SMILES IDX 35 47 67 48 47 49 66 50 48 51 51 52 65 53 84 54 49 55 50 56
REMARK SMILES IDX 64 58 85 59 52 60 36 61 37 62 45 63 38 64 40 65 46 66 39 67
REMARK SMILES IDX 41 68 42 69 43 70 44 71 68 72 69 73 77 74 70 75 72 76 78 77
REMARK SMILES IDX 71 78 73 79 74 80 75 81 76 82 53 83 54 84 62 85 55 86 57 87
REMARK SMILES IDX 63 88 56 89 58 90 59 91 60 92 61 93
REMARK H PARENT 20 6 24 27 83 46 51 57
REMARK Flexibility Score: inf
ROOT
ATOM      1  C   UNL A   1      38.675  20.102  25.077  1.00  0.00     0.042 C 
ENDROOT
BRANCH   1   2
ATOM      2  C   UNL A   1      38.170  21.523  25.290  1.00  0.00     0.117 C 
BRANCH   2   3
ATOM      3  N   UNL A   1      36.995  21.816  24.495  1.00  0.00    -0.356 N 
ATOM      4  O   UNL A   1      35.488  21.786  26.234  1.00  0.00    -0.275 OA
ATOM      5  C   UNL A   1      35.735  21.931  25.040  1.00  0.00     0.224 C 
ATOM      6  H   UNL A   1      37.101  21.937  23.523  1.00  0.00     0.163 HD
BRANCH   5   7
ATOM      7  C   UNL A   1      34.654  22.266  24.029  1.00  0.00     0.136 C 
BRANCH   7   8
ATOM      8  C   UNL A   1      33.318  22.698  24.617  1.00  0.00    -0.031 A 
ATOM      9  C   UNL A   1      33.073  24.049  24.929  1.00  0.00     0.005 A 
ATOM     10  C   UNL A   1      32.308  21.746  24.900  1.00  0.00    -0.014 A 
ATOM     11  C   UNL A   1      31.847  24.459  25.453  1.00  0.00     0.000 A 
ATOM     12  C   UNL A   1      31.084  22.176  25.444  1.00  0.00     0.009 A 
ATOM     13  C   UNL A   1      30.851  23.525  25.708  1.00  0.00     0.001 A 
BRANCH  10  14
ATOM     14  C   UNL A   1      32.497  20.299  24.644  1.00  0.00    -0.011 A 
ATOM     15  C   UNL A   1      32.927  19.366  25.669  1.00  0.00     0.027 A 
ATOM     16  C   UNL A   1      32.290  19.842  23.396  1.00  0.00     0.080 A 
ATOM     17  C   UNL A   1      33.194  18.091  25.361  1.00  0.00     0.095 A 
ATOM     18  C   UNL A   1      32.518  18.411  23.055  1.00  0.00     0.255 A 
ATOM     19  N   UNL A   1      33.020  17.619  24.075  1.00  0.00    -0.258 N 
ATOM     20  O   UNL A   1      32.259  18.036  21.916  1.00  0.00    -0.269 OA
BRANCH  19  21
ATOM     21  C   UNL A   1      33.328  16.251  23.746  1.00  0.00     0.451 C 
ATOM     22  F   UNL A   1      34.462  16.174  23.009  1.00  0.00    -0.185 F 
ATOM     23  F   UNL A   1      33.496  15.504  24.863  1.00  0.00    -0.185 F 
ENDBRANCH  19  21
ENDBRANCH  10  14
ENDBRANCH   7   8
ENDBRANCH   5   7
ENDBRANCH   2   3
ENDBRANCH   1   2
BRANCH   1  24
ATOM     24  C   UNL A   1      39.392  19.498  26.281  1.00  0.00     0.118 C 
BRANCH  24  25
ATOM     25  N   UNL A   1      40.665  18.873  25.944  1.00  0.00    -0.352 N 
ATOM     26  C   UNL A   1      41.923  19.430  25.902  1.00  0.00     0.251 C 
ATOM     27  H   UNL A   1      40.619  17.918  25.714  1.00  0.00     0.163 HD
ATOM     28  O   UNL A   1      42.870  18.774  25.474  1.00  0.00    -0.269 OA
BRANCH  26  29
ATOM     29  C   UNL A   1      42.124  20.827  26.343  1.00  0.00     0.039 A 
ATOM     30  C   UNL A   1      42.409  21.080  27.688  1.00  0.00     0.014 A 
ATOM     31  C   UNL A   1      42.062  21.879  25.427  1.00  0.00     0.014 A 
ATOM     32  C   UNL A   1      42.718  22.380  28.098  1.00  0.00     0.010 A 
ATOM     33  C   UNL A   1      42.435  23.159  25.823  1.00  0.00     0.010 A 
ATOM     34  C   UNL A   1      42.778  23.422  27.159  1.00  0.00    -0.014 A 
BRANCH  34  35
ATOM     35  C   UNL A   1      43.225  24.791  27.528  1.00  0.00     0.031 A 
ATOM     36  C   UNL A   1      42.250  25.761  28.135  1.00  0.00     0.074 A 
ATOM     37  C   UNL A   1      44.465  25.200  27.190  1.00  0.00     0.049 A 
ATOM     38  N   UNL A   1      42.396  27.039  28.371  1.00  0.00    -0.248 NA
ATOM     39  C   UNL A   1      40.924  25.232  28.494  1.00  0.00     0.031 C 
ATOM     40  C   UNL A   1      45.482  24.374  26.536  1.00  0.00     0.029 A 
ATOM     41  N   UNL A   1      45.066  26.429  27.310  1.00  0.00    -0.354 N 
ATOM     42  C   UNL A   1      41.171  27.477  28.858  1.00  0.00     0.074 A 
ATOM     43  C   UNL A   1      40.286  26.333  28.867  1.00  0.00     0.031 C 
ATOM     44  C   UNL A   1      46.573  25.121  26.301  1.00  0.00     0.029 A 
ATOM     45  C   UNL A   1      46.323  26.485  26.754  1.00  0.00     0.049 A 
ATOM     46  H   UNL A   1      44.637  27.198  27.753  1.00  0.00     0.167 HD
ATOM     47  C   UNL A   1      40.821  28.715  29.282  1.00  0.00     0.034 A 
ATOM     48  C   UNL A   1      47.174  27.522  26.609  1.00  0.00     0.034 A 
ATOM     49  C   UNL A   1      41.720  29.836  29.325  1.00  0.00     0.049 A 
ATOM     50  C   UNL A   1      46.777  28.874  27.135  1.00  0.00     0.074 A 
ATOM     51  C   UNL A   1      41.484  31.107  29.817  1.00  0.00     0.029 A 
ATOM     52  N   UNL A   1      43.026  29.821  28.863  1.00  0.00    -0.354 N 
ATOM     53  N   UNL A   1      45.663  29.235  27.725  1.00  0.00    -0.248 NA
ATOM     54  C   UNL A   1      47.766  29.957  27.008  1.00  0.00     0.031 C 
ATOM     55  C   UNL A   1      42.647  31.864  29.646  1.00  0.00     0.029 A 
ATOM     56  C   UNL A   1      43.611  31.058  29.060  1.00  0.00     0.049 A 
ATOM     57  H   UNL A   1      43.472  29.044  28.455  1.00  0.00     0.167 HD
ATOM     58  C   UNL A   1      45.833  30.568  28.078  1.00  0.00     0.074 A 
ATOM     59  C   UNL A   1      47.160  30.951  27.644  1.00  0.00     0.031 C 
ATOM     60  C   UNL A   1      44.961  31.404  28.695  1.00  0.00     0.034 A 
BRANCH  47  61
ATOM     61  C   UNL A   1      39.418  28.910  29.793  1.00  0.00     0.023 A 
ATOM     62  C   UNL A   1      39.108  28.545  31.118  1.00  0.00     0.012 A 
ATOM     63  C   UNL A   1      38.427  29.510  28.990  1.00  0.00     0.148 A 
ATOM     64  C   UNL A   1      37.826  28.744  31.628  1.00  0.00     0.002 A 
ATOM     65  C   UNL A   1      37.164  29.744  29.520  1.00  0.00     0.091 A 
ATOM     66  F   UNL A   1      38.734  29.830  27.725  1.00  0.00    -0.205 F 
ATOM     67  C   UNL A   1      36.858  29.353  30.833  1.00  0.00     0.022 A 
BRANCH  65  68
ATOM     68  S   UNL A   1      35.875  30.597  28.603  1.00  0.00     0.127 S 
ATOM     69  O   UNL A   1      35.142  29.478  28.014  1.00  0.00    -0.237 OA
ATOM     70  O   UNL A   1      35.156  31.305  29.663  1.00  0.00    -0.237 OA
ATOM     71  O   UNL A   1      36.565  31.464  27.659  1.00  0.00    -0.744 OA
ENDBRANCH  65  68
ENDBRANCH  47  61
BRANCH  48  72
ATOM     72  C   UNL A   1      48.516  27.301  25.999  1.00  0.00     0.023 A 
ATOM     73  C   UNL A   1      49.567  26.828  26.808  1.00  0.00     0.012 A 
ATOM     74  C   UNL A   1      48.750  27.520  24.628  1.00  0.00     0.148 A 
ATOM     75  C   UNL A   1      50.833  26.603  26.270  1.00  0.00     0.002 A 
ATOM     76  C   UNL A   1      50.000  27.244  24.087  1.00  0.00     0.091 A 
ATOM     77  F   UNL A   1      47.741  27.984  23.876  1.00  0.00    -0.205 F 
ATOM     78  C   UNL A   1      51.048  26.801  24.909  1.00  0.00     0.022 A 
BRANCH  76  79
ATOM     79  S   UNL A   1      50.329  27.345  22.323  1.00  0.00     0.127 S 
ATOM     80  O   UNL A   1      49.246  26.538  21.769  1.00  0.00    -0.237 OA
ATOM     81  O   UNL A   1      50.214  28.783  22.074  1.00  0.00    -0.237 OA
ATOM     82  O   UNL A   1      51.674  26.815  22.147  1.00  0.00    -0.744 OA
ENDBRANCH  76  79
ENDBRANCH  48  72
BRANCH  60  83
ATOM     83  C   UNL A   1      45.419  32.805  28.996  1.00  0.00     0.023 A 
ATOM     84  C   UNL A   1      46.130  33.069  30.182  1.00  0.00     0.012 A 
ATOM     85  C   UNL A   1      45.239  33.833  28.050  1.00  0.00     0.148 A 
ATOM     86  C   UNL A   1      46.640  34.342  30.432  1.00  0.00     0.002 A 
ATOM     87  C   UNL A   1      45.787  35.089  28.286  1.00  0.00     0.091 A 
ATOM     88  F   UNL A   1      44.542  33.564  26.937  1.00  0.00    -0.205 F 
ATOM     89  C   UNL A   1      46.481  35.347  29.479  1.00  0.00     0.022 A 
BRANCH  87  90
ATOM     90  S   UNL A   1      45.714  36.413  27.075  1.00  0.00     0.127 S 
ATOM     91  O   UNL A   1      46.563  37.429  27.693  1.00  0.00    -0.237 OA
ATOM     92  O   UNL A   1      46.286  35.780  25.886  1.00  0.00    -0.237 OA
ATOM     93  O   UNL A   1      44.305  36.768  26.951  1.00  0.00    -0.744 OA
ENDBRANCH  87  90
ENDBRANCH  60  83
ENDBRANCH  34  35
ENDBRANCH  26  29
ENDBRANCH  24  25
ENDBRANCH   1  24
TORSDOF 16
ENDMDL
