MODEL 1
REMARK VINA RESULT:     -11.0      0.000      0.000
REMARK SMILES C[C@H]([NH2+][C@@H](C)[C@@H](C)C(=O)NCCCNC(=O)c1ccc(-c2c3nc(c(-c4cccc(S(=O)(=O)[O-])c4F)c4ccc([nH]4)c(-c4cccc(S(=O)(=O)[O-])c4F)c4nc(c(-c5cccc(S(=O)(=O)[O-])c5F)c5ccc2[nH]5)C=C4)C=C3)cc1)c1cccc(Br)c1
REMARK SMILES IDX 11 1 10 2 8 3 9 4 6 6 7 7 4 8 5 9 3 10 2 13 1 14 80 15 81 16
REMARK SMILES IDX 86 17 82 18 84 19 83 20 85 21 12 22 13 23 14 24 15 25 16 27
REMARK SMILES IDX 17 28 18 29 79 30 19 31 78 32 20 33 21 34 22 35 72 36 23 37
REMARK SMILES IDX 77 38 71 39 73 40 24 41 76 42 70 43 69 44 25 46 57 47 37 48
REMARK SMILES IDX 56 49 38 50 41 51 55 52 74 53 39 54 40 55 54 57 75 58 42 59
REMARK SMILES IDX 26 60 27 61 35 62 28 63 30 64 36 65 29 66 31 67 32 68 33 69
REMARK SMILES IDX 34 70 58 71 59 72 67 73 60 74 62 75 68 76 61 77 63 78 64 79
REMARK SMILES IDX 65 80 66 81 43 82 44 83 52 84 45 85 47 86 53 87 46 88 48 89
REMARK SMILES IDX 49 90 50 91 51 92
REMARK H PARENT 10 5 3 11 3 12 14 26 73 45 41 56
REMARK Flexibility Score: inf
ROOT
ATOM      1  C   UNL A   1      32.041  26.618  26.285  1.00  0.00     0.117 C 
ENDROOT
BRANCH   1   2
ATOM      2  N   UNL A   1      33.401  26.273  25.901  1.00  0.00    -0.356 N 
ATOM      3  C   UNL A   1      33.975  25.050  25.730  1.00  0.00     0.228 C 
ATOM      4  O   UNL A   1      35.153  25.000  25.373  1.00  0.00    -0.275 OA
ATOM      5  H   UNL A   1      33.995  27.041  25.740  1.00  0.00     0.163 HD
BRANCH   3   6
ATOM      6  C   UNL A   1      33.154  23.778  25.918  1.00  0.00     0.133 C 
ATOM      7  C   UNL A   1      33.897  22.951  26.985  1.00  0.00     0.024 C 
BRANCH   6   8
ATOM      8  C   UNL A   1      32.775  23.113  24.548  1.00  0.00     0.192 C 
ATOM      9  C   UNL A   1      33.512  21.764  24.400  1.00  0.00     0.076 C 
BRANCH   8  10
ATOM     10  N   UNL A   1      33.091  23.858  23.309  1.00  0.00    -0.337 N 
ATOM     11  H   UNL A   1      33.790  24.563  23.540  1.00  0.00     0.347 HD
ATOM     12  H   UNL A   1      33.408  23.152  22.643  1.00  0.00     0.347 HD
BRANCH  10  13
ATOM     13  C   UNL A   1      31.977  24.535  22.655  1.00  0.00     0.210 C 
ATOM     14  C   UNL A   1      30.656  24.252  23.393  1.00  0.00     0.081 C 
BRANCH  13  15
ATOM     15  C   UNL A   1      32.194  26.039  22.523  1.00  0.00     0.010 A 
ATOM     16  C   UNL A   1      33.468  26.596  22.319  1.00  0.00     0.010 A 
ATOM     17  C   UNL A   1      31.109  26.918  22.694  1.00  0.00     0.025 A 
ATOM     18  C   UNL A   1      33.673  27.975  22.395  1.00  0.00     0.002 A 
ATOM     19  C   UNL A   1      31.317  28.298  22.753  1.00  0.00     0.018 A 
ATOM     20  C   UNL A   1      32.598  28.829  22.629  1.00  0.00     0.016 A 
ATOM     21  Br  UNL A   1      29.853  29.458  23.053  1.00  0.00    -0.051 Br
ENDBRANCH  13  15
ENDBRANCH  10  13
ENDBRANCH   8  10
ENDBRANCH   6   8
ENDBRANCH   3   6
ENDBRANCH   1   2
BRANCH   1  22
ATOM     22  C   UNL A   1      31.958  28.039  26.814  1.00  0.00     0.042 C 
BRANCH  22  23
ATOM     23  C   UNL A   1      32.874  28.993  26.063  1.00  0.00     0.118 C 
BRANCH  23  24
ATOM     24  N   UNL A   1      32.498  30.388  26.263  1.00  0.00    -0.352 N 
ATOM     25  C   UNL A   1      33.085  31.341  27.059  1.00  0.00     0.251 C 
ATOM     26  H   UNL A   1      31.712  30.691  25.754  1.00  0.00     0.163 HD
ATOM     27  O   UNL A   1      32.511  32.398  27.278  1.00  0.00    -0.269 OA
BRANCH  25  28
ATOM     28  C   UNL A   1      34.409  31.062  27.651  1.00  0.00     0.039 A 
ATOM     29  C   UNL A   1      35.342  32.096  27.758  1.00  0.00     0.014 A 
ATOM     30  C   UNL A   1      34.712  29.782  28.120  1.00  0.00     0.014 A 
ATOM     31  C   UNL A   1      36.561  31.853  28.390  1.00  0.00     0.010 A 
ATOM     32  C   UNL A   1      35.877  29.573  28.841  1.00  0.00     0.010 A 
ATOM     33  C   UNL A   1      36.823  30.598  28.966  1.00  0.00    -0.014 A 
BRANCH  33  34
ATOM     34  C   UNL A   1      38.088  30.324  29.688  1.00  0.00     0.031 A 
ATOM     35  C   UNL A   1      39.106  29.393  29.085  1.00  0.00     0.074 A 
ATOM     36  C   UNL A   1      38.276  30.831  30.922  1.00  0.00     0.049 A 
ATOM     37  N   UNL A   1      40.230  28.962  29.593  1.00  0.00    -0.248 NA
ATOM     38  C   UNL A   1      38.803  28.846  27.751  1.00  0.00     0.031 C 
ATOM     39  C   UNL A   1      37.324  31.677  31.644  1.00  0.00     0.029 A 
ATOM     40  N   UNL A   1      39.319  30.682  31.800  1.00  0.00    -0.354 N 
ATOM     41  C   UNL A   1      40.744  28.065  28.664  1.00  0.00     0.074 A 
ATOM     42  C   UNL A   1      39.788  27.979  27.584  1.00  0.00     0.031 C 
ATOM     43  C   UNL A   1      37.831  31.979  32.850  1.00  0.00     0.029 A 
ATOM     44  C   UNL A   1      39.124  31.320  33.002  1.00  0.00     0.049 A 
ATOM     45  H   UNL A   1      40.132  30.168  31.589  1.00  0.00     0.167 HD
ATOM     46  C   UNL A   1      41.920  27.394  28.692  1.00  0.00     0.034 A 
ATOM     47  C   UNL A   1      39.893  31.357  34.107  1.00  0.00     0.034 A 
ATOM     48  C   UNL A   1      42.883  27.518  29.750  1.00  0.00     0.049 A 
ATOM     49  C   UNL A   1      41.213  30.637  34.099  1.00  0.00     0.074 A 
ATOM     50  C   UNL A   1      44.145  26.959  29.834  1.00  0.00     0.029 A 
ATOM     51  N   UNL A   1      42.689  28.243  30.916  1.00  0.00    -0.354 N 
ATOM     52  N   UNL A   1      41.754  29.917  33.145  1.00  0.00    -0.248 NA
ATOM     53  C   UNL A   1      42.046  30.762  35.303  1.00  0.00     0.031 C 
ATOM     54  C   UNL A   1      44.700  27.318  31.067  1.00  0.00     0.029 A 
ATOM     55  C   UNL A   1      43.800  28.135  31.733  1.00  0.00     0.049 A 
ATOM     56  H   UNL A   1      41.878  28.759  31.131  1.00  0.00     0.167 HD
ATOM     57  C   UNL A   1      43.004  29.535  33.618  1.00  0.00     0.074 A 
ATOM     58  C   UNL A   1      43.147  30.119  34.937  1.00  0.00     0.031 C 
ATOM     59  C   UNL A   1      43.945  28.763  33.021  1.00  0.00     0.034 A 
BRANCH  46  60
ATOM     60  C   UNL A   1      42.243  26.502  27.521  1.00  0.00     0.023 A 
ATOM     61  C   UNL A   1      42.929  27.029  26.407  1.00  0.00     0.012 A 
ATOM     62  C   UNL A   1      41.902  25.136  27.537  1.00  0.00     0.148 A 
ATOM     63  C   UNL A   1      43.231  26.222  25.310  1.00  0.00     0.002 A 
ATOM     64  C   UNL A   1      42.251  24.327  26.463  1.00  0.00     0.091 A 
ATOM     65  F   UNL A   1      41.230  24.656  28.594  1.00  0.00    -0.205 F 
ATOM     66  C   UNL A   1      42.901  24.870  25.343  1.00  0.00     0.022 A 
BRANCH  64  67
ATOM     67  S   UNL A   1      41.947  22.557  26.444  1.00  0.00     0.127 S 
ATOM     68  O   UNL A   1      40.487  22.509  26.371  1.00  0.00    -0.237 OA
ATOM     69  O   UNL A   1      42.632  22.142  25.220  1.00  0.00    -0.237 OA
ATOM     70  O   UNL A   1      42.530  22.036  27.672  1.00  0.00    -0.744 OA
ENDBRANCH  64  67
ENDBRANCH  46  60
BRANCH  47  71
ATOM     71  C   UNL A   1      39.459  32.156  35.287  1.00  0.00     0.023 A 
ATOM     72  C   UNL A   1      39.751  33.532  35.338  1.00  0.00     0.012 A 
ATOM     73  C   UNL A   1      38.732  31.568  36.340  1.00  0.00     0.148 A 
ATOM     74  C   UNL A   1      39.354  34.304  36.430  1.00  0.00     0.002 A 
ATOM     75  C   UNL A   1      38.292  32.353  37.399  1.00  0.00     0.091 A 
ATOM     76  F   UNL A   1      38.470  30.255  36.274  1.00  0.00    -0.205 F 
ATOM     77  C   UNL A   1      38.617  33.717  37.456  1.00  0.00     0.022 A 
BRANCH  75  78
ATOM     78  S   UNL A   1      37.229  31.714  38.698  1.00  0.00     0.127 S 
ATOM     79  O   UNL A   1      38.051  31.924  39.888  1.00  0.00    -0.237 OA
ATOM     80  O   UNL A   1      36.065  32.594  38.591  1.00  0.00    -0.237 OA
ATOM     81  O   UNL A   1      36.969  30.325  38.348  1.00  0.00    -0.744 OA
ENDBRANCH  75  78
ENDBRANCH  47  71
BRANCH  59  82
ATOM     82  C   UNL A   1      45.238  28.536  33.761  1.00  0.00     0.023 A 
ATOM     83  C   UNL A   1      46.304  29.445  33.614  1.00  0.00     0.012 A 
ATOM     84  C   UNL A   1      45.364  27.462  34.663  1.00  0.00     0.148 A 
ATOM     85  C   UNL A   1      47.488  29.268  34.328  1.00  0.00     0.002 A 
ATOM     86  C   UNL A   1      46.526  27.322  35.411  1.00  0.00     0.091 A 
ATOM     87  F   UNL A   1      44.344  26.598  34.775  1.00  0.00    -0.205 F 
ATOM     88  C   UNL A   1      47.594  28.216  35.235  1.00  0.00     0.022 A 
BRANCH  86  89
ATOM     89  S   UNL A   1      46.712  26.059  36.675  1.00  0.00     0.127 S 
ATOM     90  O   UNL A   1      48.030  26.375  37.219  1.00  0.00    -0.237 OA
ATOM     91  O   UNL A   1      45.594  26.354  37.573  1.00  0.00    -0.237 OA
ATOM     92  O   UNL A   1      46.611  24.780  35.986  1.00  0.00    -0.744 OA
ENDBRANCH  86  89
ENDBRANCH  59  82
ENDBRANCH  33  34
ENDBRANCH  25  28
ENDBRANCH  23  24
ENDBRANCH  22  23
ENDBRANCH   1  22
TORSDOF 17
ENDMDL
MODEL 2
REMARK VINA RESULT:     -10.9      2.852      3.930
REMARK SMILES C[C@H]([NH2+][C@@H](C)[C@@H](C)C(=O)NCCCNC(=O)c1ccc(-c2c3nc(c(-c4cccc(S(=O)(=O)[O-])c4F)c4ccc([nH]4)c(-c4cccc(S(=O)(=O)[O-])c4F)c4nc(c(-c5cccc(S(=O)(=O)[O-])c5F)c5ccc2[nH]5)C=C4)C=C3)cc1)c1cccc(Br)c1
REMARK SMILES IDX 11 1 10 2 8 3 9 4 6 6 7 7 4 8 5 9 3 10 2 13 1 14 80 15 81 16
REMARK SMILES IDX 86 17 82 18 84 19 83 20 85 21 12 22 13 23 14 24 15 25 16 27
REMARK SMILES IDX 17 28 18 29 79 30 19 31 78 32 20 33 21 34 22 35 72 36 23 37
REMARK SMILES IDX 77 38 71 39 73 40 24 41 76 42 70 43 69 44 25 46 57 47 37 48
REMARK SMILES IDX 56 49 38 50 41 51 55 52 74 53 39 54 40 55 54 57 75 58 42 59
REMARK SMILES IDX 26 60 27 61 35 62 28 63 30 64 36 65 29 66 31 67 32 68 33 69
REMARK SMILES IDX 34 70 58 71 59 72 67 73 60 74 62 75 68 76 61 77 63 78 64 79
REMARK SMILES IDX 65 80 66 81 43 82 44 83 52 84 45 85 47 86 53 87 46 88 48 89
REMARK SMILES IDX 49 90 50 91 51 92
REMARK H PARENT 10 5 3 11 3 12 14 26 73 45 41 56
REMARK Flexibility Score: inf
ROOT
ATOM      1  C   UNL A   1      31.991  30.535  25.921  1.00  0.00     0.117 C 
ENDROOT
BRANCH   1   2
ATOM      2  N   UNL A   1      31.020  30.310  24.862  1.00  0.00    -0.356 N 
ATOM      3  C   UNL A   1      30.803  29.203  24.098  1.00  0.00     0.228 C 
ATOM      4  O   UNL A   1      29.895  29.233  23.266  1.00  0.00    -0.275 OA
ATOM      5  H   UNL A   1      30.429  31.073  24.670  1.00  0.00     0.163 HD
BRANCH   3   6
ATOM      6  C   UNL A   1      31.630  27.939  24.317  1.00  0.00     0.133 C 
ATOM      7  C   UNL A   1      32.067  27.474  22.914  1.00  0.00     0.024 C 
BRANCH   6   8
ATOM      8  C   UNL A   1      30.918  26.929  25.282  1.00  0.00     0.192 C 
ATOM      9  C   UNL A   1      31.502  27.066  26.705  1.00  0.00     0.076 C 
BRANCH   8  10
ATOM     10  N   UNL A   1      31.017  25.486  24.967  1.00  0.00    -0.337 N 
ATOM     11  H   UNL A   1      30.102  25.068  25.134  1.00  0.00     0.347 HD
ATOM     12  H   UNL A   1      31.330  25.443  23.996  1.00  0.00     0.347 HD
BRANCH  10  13
ATOM     13  C   UNL A   1      32.000  24.721  25.725  1.00  0.00     0.210 C 
ATOM     14  C   UNL A   1      31.359  23.466  26.343  1.00  0.00     0.081 C 
BRANCH  13  15
ATOM     15  C   UNL A   1      33.218  24.333  24.892  1.00  0.00     0.010 A 
ATOM     16  C   UNL A   1      33.103  23.877  23.567  1.00  0.00     0.010 A 
ATOM     17  C   UNL A   1      34.497  24.341  25.479  1.00  0.00     0.025 A 
ATOM     18  C   UNL A   1      34.202  23.345  22.890  1.00  0.00     0.002 A 
ATOM     19  C   UNL A   1      35.596  23.823  24.791  1.00  0.00     0.018 A 
ATOM     20  C   UNL A   1      35.449  23.301  23.508  1.00  0.00     0.016 A 
ATOM     21  Br  UNL A   1      37.293  23.780  25.625  1.00  0.00    -0.051 Br
ENDBRANCH  13  15
ENDBRANCH  10  13
ENDBRANCH   8  10
ENDBRANCH   6   8
ENDBRANCH   3   6
ENDBRANCH   1   2
BRANCH   1  22
ATOM     22  C   UNL A   1      31.641  31.764  26.741  1.00  0.00     0.042 C 
BRANCH  22  23
ATOM     23  C   UNL A   1      32.864  32.405  27.378  1.00  0.00     0.118 C 
BRANCH  23  24
ATOM     24  N   UNL A   1      32.676  33.832  27.619  1.00  0.00    -0.352 N 
ATOM     25  C   UNL A   1      33.250  34.636  28.573  1.00  0.00     0.251 C 
ATOM     26  H   UNL A   1      32.047  34.283  27.010  1.00  0.00     0.163 HD
ATOM     27  O   UNL A   1      32.814  35.761  28.773  1.00  0.00    -0.269 OA
BRANCH  25  28
ATOM     28  C   UNL A   1      34.390  34.117  29.355  1.00  0.00     0.039 A 
ATOM     29  C   UNL A   1      34.146  33.307  30.466  1.00  0.00     0.014 A 
ATOM     30  C   UNL A   1      35.698  34.418  28.970  1.00  0.00     0.014 A 
ATOM     31  C   UNL A   1      35.222  32.751  31.156  1.00  0.00     0.010 A 
ATOM     32  C   UNL A   1      36.760  33.778  29.591  1.00  0.00     0.010 A 
ATOM     33  C   UNL A   1      36.537  32.956  30.702  1.00  0.00    -0.014 A 
BRANCH  33  34
ATOM     34  C   UNL A   1      37.699  32.338  31.384  1.00  0.00     0.031 A 
ATOM     35  C   UNL A   1      38.418  31.185  30.737  1.00  0.00     0.074 A 
ATOM     36  C   UNL A   1      38.044  32.748  32.620  1.00  0.00     0.049 A 
ATOM     37  N   UNL A   1      39.398  30.458  31.205  1.00  0.00    -0.248 NA
ATOM     38  C   UNL A   1      37.950  30.769  29.403  1.00  0.00     0.031 C 
ATOM     39  C   UNL A   1      37.368  33.800  33.383  1.00  0.00     0.029 A 
ATOM     40  N   UNL A   1      39.030  32.307  33.465  1.00  0.00    -0.354 N 
ATOM     41  C   UNL A   1      39.633  29.479  30.248  1.00  0.00     0.074 A 
ATOM     42  C   UNL A   1      38.664  29.675  29.193  1.00  0.00     0.031 C 
ATOM     43  C   UNL A   1      37.965  33.928  34.578  1.00  0.00     0.029 A 
ATOM     44  C   UNL A   1      39.039  32.945  34.682  1.00  0.00     0.049 A 
ATOM     45  H   UNL A   1      39.671  31.600  33.223  1.00  0.00     0.167 HD
ATOM     46  C   UNL A   1      40.588  28.519  30.231  1.00  0.00     0.034 A 
ATOM     47  C   UNL A   1      39.816  32.751  35.765  1.00  0.00     0.034 A 
ATOM     48  C   UNL A   1      41.574  28.358  31.263  1.00  0.00     0.049 A 
ATOM     49  C   UNL A   1      40.895  31.706  35.708  1.00  0.00     0.074 A 
ATOM     50  C   UNL A   1      42.643  27.481  31.302  1.00  0.00     0.029 A 
ATOM     51  N   UNL A   1      41.607  29.081  32.446  1.00  0.00    -0.354 N 
ATOM     52  N   UNL A   1      41.203  30.890  34.728  1.00  0.00    -0.248 NA
ATOM     53  C   UNL A   1      41.759  31.577  36.890  1.00  0.00     0.031 C 
ATOM     54  C   UNL A   1      43.301  27.651  32.524  1.00  0.00     0.029 A 
ATOM     55  C   UNL A   1      42.668  28.662  33.229  1.00  0.00     0.049 A 
ATOM     56  H   UNL A   1      40.968  29.789  32.692  1.00  0.00     0.167 HD
ATOM     57  C   UNL A   1      42.317  30.179  35.159  1.00  0.00     0.074 A 
ATOM     58  C   UNL A   1      42.641  30.674  36.482  1.00  0.00     0.031 C 
ATOM     59  C   UNL A   1      43.004  29.199  34.523  1.00  0.00     0.034 A 
BRANCH  46  60
ATOM     60  C   UNL A   1      40.634  27.601  29.037  1.00  0.00     0.023 A 
ATOM     61  C   UNL A   1      39.718  26.534  28.937  1.00  0.00     0.012 A 
ATOM     62  C   UNL A   1      41.557  27.817  27.995  1.00  0.00     0.148 A 
ATOM     63  C   UNL A   1      39.749  25.668  27.844  1.00  0.00     0.002 A 
ATOM     64  C   UNL A   1      41.548  26.981  26.885  1.00  0.00     0.091 A 
ATOM     65  F   UNL A   1      42.436  28.822  28.115  1.00  0.00    -0.205 F 
ATOM     66  C   UNL A   1      40.657  25.898  26.814  1.00  0.00     0.022 A 
BRANCH  64  67
ATOM     67  S   UNL A   1      42.619  27.243  25.467  1.00  0.00     0.127 S 
ATOM     68  O   UNL A   1      42.382  26.029  24.689  1.00  0.00    -0.237 OA
ATOM     69  O   UNL A   1      42.059  28.462  24.881  1.00  0.00    -0.237 OA
ATOM     70  O   UNL A   1      43.965  27.391  26.001  1.00  0.00    -0.744 OA
ENDBRANCH  64  67
ENDBRANCH  46  60
BRANCH  47  71
ATOM     71  C   UNL A   1      39.638  33.608  36.971  1.00  0.00     0.023 A 
ATOM     72  C   UNL A   1      38.614  33.308  37.890  1.00  0.00     0.012 A 
ATOM     73  C   UNL A   1      40.495  34.694  37.228  1.00  0.00     0.148 A 
ATOM     74  C   UNL A   1      38.428  34.092  39.028  1.00  0.00     0.002 A 
ATOM     75  C   UNL A   1      40.338  35.439  38.391  1.00  0.00     0.091 A 
ATOM     76  F   UNL A   1      41.460  34.966  36.337  1.00  0.00    -0.205 F 
ATOM     77  C   UNL A   1      39.295  35.152  39.284  1.00  0.00     0.022 A 
BRANCH  75  78
ATOM     78  S   UNL A   1      41.483  36.737  38.868  1.00  0.00     0.127 S 
ATOM     79  O   UNL A   1      40.588  37.717  39.480  1.00  0.00    -0.237 OA
ATOM     80  O   UNL A   1      42.360  36.034  39.805  1.00  0.00    -0.237 OA
ATOM     81  O   UNL A   1      42.135  37.163  37.637  1.00  0.00    -0.744 OA
ENDBRANCH  75  78
ENDBRANCH  47  71
BRANCH  59  82
ATOM     82  C   UNL A   1      44.207  28.620  35.222  1.00  0.00     0.023 A 
ATOM     83  C   UNL A   1      45.489  29.145  34.971  1.00  0.00     0.012 A 
ATOM     84  C   UNL A   1      44.051  27.605  36.186  1.00  0.00     0.148 A 
ATOM     85  C   UNL A   1      46.603  28.644  35.645  1.00  0.00     0.002 A 
ATOM     86  C   UNL A   1      45.155  27.150  36.894  1.00  0.00     0.091 A 
ATOM     87  F   UNL A   1      42.822  27.107  36.397  1.00  0.00    -0.205 F 
ATOM     88  C   UNL A   1      46.434  27.658  36.615  1.00  0.00     0.022 A 
BRANCH  86  89
ATOM     89  S   UNL A   1      45.020  25.956  38.229  1.00  0.00     0.127 S 
ATOM     90  O   UNL A   1      46.419  25.770  38.605  1.00  0.00    -0.237 OA
ATOM     91  O   UNL A   1      44.214  26.683  39.212  1.00  0.00    -0.237 OA
ATOM     92  O   UNL A   1      44.366  24.786  37.659  1.00  0.00    -0.744 OA
ENDBRANCH  86  89
ENDBRANCH  59  82
ENDBRANCH  33  34
ENDBRANCH  25  28
ENDBRANCH  23  24
ENDBRANCH  22  23
ENDBRANCH   1  22
TORSDOF 17
ENDMDL
MODEL 3
REMARK VINA RESULT:     -10.9      2.572      3.814
REMARK SMILES C[C@H]([NH2+][C@@H](C)[C@@H](C)C(=O)NCCCNC(=O)c1ccc(-c2c3nc(c(-c4cccc(S(=O)(=O)[O-])c4F)c4ccc([nH]4)c(-c4cccc(S(=O)(=O)[O-])c4F)c4nc(c(-c5cccc(S(=O)(=O)[O-])c5F)c5ccc2[nH]5)C=C4)C=C3)cc1)c1cccc(Br)c1
REMARK SMILES IDX 11 1 10 2 8 3 9 4 6 6 7 7 4 8 5 9 3 10 2 13 1 14 80 15 81 16
REMARK SMILES IDX 86 17 82 18 84 19 83 20 85 21 12 22 13 23 14 24 15 25 16 27
REMARK SMILES IDX 17 28 18 29 79 30 19 31 78 32 20 33 21 34 22 35 72 36 23 37
REMARK SMILES IDX 77 38 71 39 73 40 24 41 76 42 70 43 69 44 25 46 57 47 37 48
REMARK SMILES IDX 56 49 38 50 41 51 55 52 74 53 39 54 40 55 54 57 75 58 42 59
REMARK SMILES IDX 26 60 27 61 35 62 28 63 30 64 36 65 29 66 31 67 32 68 33 69
REMARK SMILES IDX 34 70 58 71 59 72 67 73 60 74 62 75 68 76 61 77 63 78 64 79
REMARK SMILES IDX 65 80 66 81 43 82 44 83 52 84 45 85 47 86 53 87 46 88 48 89
REMARK SMILES IDX 49 90 50 91 51 92
REMARK H PARENT 10 5 3 11 3 12 14 26 73 45 41 56
REMARK Flexibility Score: inf
ROOT
ATOM      1  C   UNL A   1      31.983  30.437  26.338  1.00  0.00     0.117 C 
ENDROOT
BRANCH   1   2
ATOM      2  N   UNL A   1      31.369  30.087  25.066  1.00  0.00    -0.356 N 
ATOM      3  C   UNL A   1      31.599  29.019  24.251  1.00  0.00     0.228 C 
ATOM      4  O   UNL A   1      30.934  28.915  23.220  1.00  0.00    -0.275 OA
ATOM      5  H   UNL A   1      30.683  30.716  24.747  1.00  0.00     0.163 HD
BRANCH   3   6
ATOM      6  C   UNL A   1      32.617  27.952  24.645  1.00  0.00     0.133 C 
ATOM      7  C   UNL A   1      33.755  28.054  23.611  1.00  0.00     0.024 C 
BRANCH   6   8
ATOM      8  C   UNL A   1      31.938  26.564  24.917  1.00  0.00     0.192 C 
ATOM      9  C   UNL A   1      31.814  26.333  26.439  1.00  0.00     0.076 C 
BRANCH   8  10
ATOM     10  N   UNL A   1      32.614  25.353  24.401  1.00  0.00    -0.337 N 
ATOM     11  H   UNL A   1      32.765  25.483  23.401  1.00  0.00     0.347 HD
ATOM     12  H   UNL A   1      33.471  25.267  24.950  1.00  0.00     0.347 HD
BRANCH  10  13
ATOM     13  C   UNL A   1      31.910  24.089  24.584  1.00  0.00     0.210 C 
ATOM     14  C   UNL A   1      30.963  23.815  23.402  1.00  0.00     0.081 C 
BRANCH  13  15
ATOM     15  C   UNL A   1      32.856  22.908  24.784  1.00  0.00     0.010 A 
ATOM     16  C   UNL A   1      34.209  23.083  25.123  1.00  0.00     0.010 A 
ATOM     17  C   UNL A   1      32.400  21.600  24.541  1.00  0.00     0.025 A 
ATOM     18  C   UNL A   1      35.100  22.009  25.111  1.00  0.00     0.002 A 
ATOM     19  C   UNL A   1      33.293  20.526  24.546  1.00  0.00     0.018 A 
ATOM     20  C   UNL A   1      34.646  20.728  24.806  1.00  0.00     0.016 A 
ATOM     21  Br  UNL A   1      32.672  18.784  24.149  1.00  0.00    -0.051 Br
ENDBRANCH  13  15
ENDBRANCH  10  13
ENDBRANCH   8  10
ENDBRANCH   6   8
ENDBRANCH   3   6
ENDBRANCH   1   2
BRANCH   1  22
ATOM     22  C   UNL A   1      31.702  31.883  26.708  1.00  0.00     0.042 C 
BRANCH  22  23
ATOM     23  C   UNL A   1      32.913  32.573  27.315  1.00  0.00     0.118 C 
BRANCH  23  24
ATOM     24  N   UNL A   1      32.649  33.972  27.631  1.00  0.00    -0.352 N 
ATOM     25  C   UNL A   1      33.155  34.745  28.647  1.00  0.00     0.251 C 
ATOM     26  H   UNL A   1      32.017  34.429  27.029  1.00  0.00     0.163 HD
ATOM     27  O   UNL A   1      32.660  35.835  28.896  1.00  0.00    -0.269 OA
BRANCH  25  28
ATOM     28  C   UNL A   1      34.296  34.236  29.434  1.00  0.00     0.039 A 
ATOM     29  C   UNL A   1      34.055  33.399  30.525  1.00  0.00     0.014 A 
ATOM     30  C   UNL A   1      35.602  34.572  29.072  1.00  0.00     0.014 A 
ATOM     31  C   UNL A   1      35.134  32.853  31.219  1.00  0.00     0.010 A 
ATOM     32  C   UNL A   1      36.670  33.943  29.694  1.00  0.00     0.010 A 
ATOM     33  C   UNL A   1      36.450  33.094  30.787  1.00  0.00    -0.014 A 
BRANCH  33  34
ATOM     34  C   UNL A   1      37.617  32.488  31.472  1.00  0.00     0.031 A 
ATOM     35  C   UNL A   1      38.358  31.352  30.820  1.00  0.00     0.074 A 
ATOM     36  C   UNL A   1      37.945  32.892  32.714  1.00  0.00     0.049 A 
ATOM     37  N   UNL A   1      39.345  30.636  31.289  1.00  0.00    -0.248 NA
ATOM     38  C   UNL A   1      37.906  30.941  29.479  1.00  0.00     0.031 C 
ATOM     39  C   UNL A   1      37.248  33.927  33.481  1.00  0.00     0.029 A 
ATOM     40  N   UNL A   1      38.932  32.459  33.563  1.00  0.00    -0.354 N 
ATOM     41  C   UNL A   1      39.602  29.669  30.325  1.00  0.00     0.074 A 
ATOM     42  C   UNL A   1      38.638  29.860  29.265  1.00  0.00     0.031 C 
ATOM     43  C   UNL A   1      37.834  34.053  34.682  1.00  0.00     0.029 A 
ATOM     44  C   UNL A   1      38.922  33.086  34.786  1.00  0.00     0.049 A 
ATOM     45  H   UNL A   1      39.586  31.764  33.319  1.00  0.00     0.167 HD
ATOM     46  C   UNL A   1      40.572  28.725  30.307  1.00  0.00     0.034 A 
ATOM     47  C   UNL A   1      39.693  32.894  35.873  1.00  0.00     0.034 A 
ATOM     48  C   UNL A   1      41.553  28.569  31.345  1.00  0.00     0.049 A 
ATOM     49  C   UNL A   1      40.789  31.866  35.814  1.00  0.00     0.074 A 
ATOM     50  C   UNL A   1      42.635  27.709  31.384  1.00  0.00     0.029 A 
ATOM     51  N   UNL A   1      41.565  29.282  32.535  1.00  0.00    -0.354 N 
ATOM     52  N   UNL A   1      41.117  31.064  34.830  1.00  0.00    -0.248 NA
ATOM     53  C   UNL A   1      41.646  31.740  37.002  1.00  0.00     0.031 C 
ATOM     54  C   UNL A   1      43.281  27.878  32.613  1.00  0.00     0.029 A 
ATOM     55  C   UNL A   1      42.627  28.872  33.322  1.00  0.00     0.049 A 
ATOM     56  H   UNL A   1      40.914  29.978  32.782  1.00  0.00     0.167 HD
ATOM     57  C   UNL A   1      42.238  30.366  35.263  1.00  0.00     0.074 A 
ATOM     58  C   UNL A   1      42.544  30.854  36.592  1.00  0.00     0.031 C 
ATOM     59  C   UNL A   1      42.945  29.402  34.623  1.00  0.00     0.034 A 
BRANCH  46  60
ATOM     60  C   UNL A   1      40.642  27.818  29.105  1.00  0.00     0.023 A 
ATOM     61  C   UNL A   1      39.767  26.717  29.006  1.00  0.00     0.012 A 
ATOM     62  C   UNL A   1      41.544  28.078  28.055  1.00  0.00     0.148 A 
ATOM     63  C   UNL A   1      39.820  25.862  27.906  1.00  0.00     0.002 A 
ATOM     64  C   UNL A   1      41.556  27.251  26.939  1.00  0.00     0.091 A 
ATOM     65  F   UNL A   1      42.384  29.117  28.174  1.00  0.00    -0.205 F 
ATOM     66  C   UNL A   1      40.707  26.135  26.868  1.00  0.00     0.022 A 
BRANCH  64  67
ATOM     67  S   UNL A   1      42.601  27.566  25.512  1.00  0.00     0.127 S 
ATOM     68  O   UNL A   1      42.387  26.358  24.717  1.00  0.00    -0.237 OA
ATOM     69  O   UNL A   1      41.998  28.777  24.953  1.00  0.00    -0.237 OA
ATOM     70  O   UNL A   1      43.949  27.744  26.031  1.00  0.00    -0.744 OA
ENDBRANCH  64  67
ENDBRANCH  46  60
BRANCH  47  71
ATOM     71  C   UNL A   1      39.493  33.738  37.084  1.00  0.00     0.023 A 
ATOM     72  C   UNL A   1      39.934  35.075  37.078  1.00  0.00     0.012 A 
ATOM     73  C   UNL A   1      38.840  33.234  38.225  1.00  0.00     0.148 A 
ATOM     74  C   UNL A   1      39.756  35.887  38.198  1.00  0.00     0.002 A 
ATOM     75  C   UNL A   1      38.617  34.065  39.318  1.00  0.00     0.091 A 
ATOM     76  F   UNL A   1      38.432  31.957  38.212  1.00  0.00    -0.205 F 
ATOM     77  C   UNL A   1      39.090  35.386  39.314  1.00  0.00     0.022 A 
BRANCH  75  78
ATOM     78  S   UNL A   1      37.656  33.548  40.744  1.00  0.00     0.127 S 
ATOM     79  O   UNL A   1      37.590  34.782  41.523  1.00  0.00    -0.237 OA
ATOM     80  O   UNL A   1      36.394  33.142  40.123  1.00  0.00    -0.237 OA
ATOM     81  O   UNL A   1      38.406  32.458  41.352  1.00  0.00    -0.744 OA
ENDBRANCH  75  78
ENDBRANCH  47  71
BRANCH  59  82
ATOM     82  C   UNL A   1      44.151  28.835  35.326  1.00  0.00     0.023 A 
ATOM     83  C   UNL A   1      45.421  29.410  35.124  1.00  0.00     0.012 A 
ATOM     84  C   UNL A   1      44.008  27.780  36.248  1.00  0.00     0.148 A 
ATOM     85  C   UNL A   1      46.536  28.920  35.803  1.00  0.00     0.002 A 
ATOM     86  C   UNL A   1      45.112  27.333  36.962  1.00  0.00     0.091 A 
ATOM     87  F   UNL A   1      42.793  27.235  36.412  1.00  0.00    -0.205 F 
ATOM     88  C   UNL A   1      46.379  27.892  36.731  1.00  0.00     0.022 A 
BRANCH  86  89
ATOM     89  S   UNL A   1      44.988  26.085  38.248  1.00  0.00     0.127 S 
ATOM     90  O   UNL A   1      44.032  26.699  39.167  1.00  0.00    -0.237 OA
ATOM     91  O   UNL A   1      44.471  24.932  37.509  1.00  0.00    -0.237 OA
ATOM     92  O   UNL A   1      46.335  25.912  38.773  1.00  0.00    -0.744 OA
ENDBRANCH  86  89
ENDBRANCH  59  82
ENDBRANCH  33  34
ENDBRANCH  25  28
ENDBRANCH  23  24
ENDBRANCH  22  23
ENDBRANCH   1  22
TORSDOF 17
ENDMDL
