MODEL 1
REMARK VINA RESULT:     -13.6      0.000      0.000
REMARK SMILES Cc1ccc(S(=O)(=O)N2CCCC2)cc1C(=O)N[C@H](CC1=c2ccccc2=NC1)C(=O)NCCCNC(=O)c1ccc(-c2c3nc(c(-c4cccc(S(=O)(=O)[O-])c4F)c4ccc([nH]4)c(-c4cccc(S(=O)(=O)[O-])c4F)c4nc(c(-c5cccc(S(=O)(=O)[O-])c5F)c5ccc2[nH]5)C=C4)C=C3)cc1
REMARK SMILES IDX 33 1 32 2 30 3 31 4 19 6 18 7 16 8 17 9 15 11 1 12 2 13 3 14
REMARK SMILES IDX 4 15 14 16 5 17 6 18 7 19 8 20 9 21 10 22 13 23 11 24 12 25
REMARK SMILES IDX 20 26 21 27 22 28 29 29 23 30 27 31 28 32 24 33 26 34 25 35
REMARK SMILES IDX 34 36 35 37 36 38 37 39 38 41 39 42 40 43 101 44 41 45
REMARK SMILES IDX 100 46 42 47 43 48 44 49 94 50 45 51 99 52 93 53 95 54 46 55
REMARK SMILES IDX 98 56 92 57 91 58 47 60 79 61 59 62 78 63 60 64 63 65 77 66
REMARK SMILES IDX 96 67 61 68 62 69 76 71 97 72 64 73 48 74 49 75 57 76 50 77
REMARK SMILES IDX 52 78 58 79 51 80 53 81 54 82 55 83 56 84 80 85 81 86 89 87
REMARK SMILES IDX 82 88 84 89 90 90 83 91 85 92 86 93 87 94 88 95 65 96 66 97
REMARK SMILES IDX 74 98 67 99 69 100 75 101 68 102 70 103 71 104 72 105 73 106
REMARK H PARENT 32 5 18 10 36 40 95 59 63 70
REMARK Flexibility Score: inf
ROOT
ATOM      1  C   UNL A   1      34.665  29.063  27.524  1.00  0.00     0.117 C 
ENDROOT
BRANCH   1   2
ATOM      2  N   UNL A   1      34.563  28.377  26.258  1.00  0.00    -0.354 N 
ATOM      3  C   UNL A   1      33.512  27.968  25.507  1.00  0.00     0.242 C 
ATOM      4  O   UNL A   1      33.836  27.505  24.409  1.00  0.00    -0.273 OA
ATOM      5  H   UNL A   1      35.436  28.161  25.859  1.00  0.00     0.163 HD
BRANCH   3   6
ATOM      6  C   UNL A   1      32.001  28.159  25.872  1.00  0.00     0.175 C 
BRANCH   6   7
ATOM      7  N   UNL A   1      31.100  27.005  26.210  1.00  0.00    -0.340 N 
ATOM      8  C   UNL A   1      30.815  25.674  26.064  1.00  0.00     0.252 C 
ATOM      9  O   UNL A   1      29.814  25.350  26.727  1.00  0.00    -0.269 OA
ATOM     10  H   UNL A   1      30.401  27.369  26.799  1.00  0.00     0.164 HD
BRANCH   8  11
ATOM     11  C   UNL A   1      31.484  24.551  25.308  1.00  0.00     0.044 A 
ATOM     12  C   UNL A   1      30.490  24.882  22.985  1.00  0.00     0.045 C 
ATOM     13  C   UNL A   1      31.329  24.177  23.970  1.00  0.00    -0.038 A 
ATOM     14  C   UNL A   1      31.973  23.033  23.453  1.00  0.00     0.005 A 
ATOM     15  C   UNL A   1      32.806  22.259  24.232  1.00  0.00     0.022 A 
ATOM     16  C   UNL A   1      32.381  23.755  26.082  1.00  0.00     0.035 A 
ATOM     17  C   UNL A   1      33.014  22.618  25.556  1.00  0.00     0.083 A 
BRANCH  17  18
ATOM     18  S   UNL A   1      34.005  21.478  26.498  1.00  0.00     0.243 S 
ATOM     19  O   UNL A   1      34.039  22.015  27.841  1.00  0.00    -0.207 OA
ATOM     20  O   UNL A   1      33.475  20.154  26.237  1.00  0.00    -0.207 OA
BRANCH  18  21
ATOM     21  N   UNL A   1      35.554  21.516  25.909  1.00  0.00    -0.198 NA
ATOM     22  C   UNL A   1      36.307  22.762  25.747  1.00  0.00     0.102 C 
ATOM     23  C   UNL A   1      36.105  20.438  25.080  1.00  0.00     0.102 C 
ATOM     24  C   UNL A   1      37.244  22.465  24.583  1.00  0.00     0.018 C 
ATOM     25  C   UNL A   1      37.490  20.972  24.719  1.00  0.00     0.018 C 
ENDBRANCH  18  21
ENDBRANCH  17  18
ENDBRANCH   8  11
ENDBRANCH   6   7
BRANCH   6  26
ATOM     26  C   UNL A   1      31.267  29.452  25.321  1.00  0.00     0.068 C 
BRANCH  26  27
ATOM     27  C   UNL A   1      30.597  29.500  23.958  1.00  0.00    -0.037 C 
ATOM     28  C   UNL A   1      29.691  30.365  23.496  1.00  0.00     0.001 A 
ATOM     29  C   UNL A   1      30.800  28.428  22.917  1.00  0.00     0.174 C 
ATOM     30  C   UNL A   1      29.025  31.518  24.010  1.00  0.00     0.010 A 
ATOM     31  C   UNL A   1      29.437  29.903  22.119  1.00  0.00     0.065 A 
ATOM     32  N   UNL A   1      29.951  28.770  21.759  1.00  0.00    -0.280 NA
ATOM     33  C   UNL A   1      28.258  32.246  23.182  1.00  0.00     0.001 A 
ATOM     34  C   UNL A   1      28.627  30.777  21.251  1.00  0.00     0.028 A 
ATOM     35  C   UNL A   1      28.100  31.892  21.781  1.00  0.00     0.002 A 
ENDBRANCH  26  27
ENDBRANCH   6  26
ENDBRANCH   3   6
ENDBRANCH   1   2
BRANCH   1  36
ATOM     36  C   UNL A   1      35.117  30.496  27.347  1.00  0.00     0.042 C 
BRANCH  36  37
ATOM     37  C   UNL A   1      35.460  31.241  28.631  1.00  0.00     0.118 C 
BRANCH  37  38
ATOM     38  N   UNL A   1      34.584  32.412  28.720  1.00  0.00    -0.352 N 
ATOM     39  C   UNL A   1      34.548  33.472  29.602  1.00  0.00     0.251 C 
ATOM     40  H   UNL A   1      33.893  32.449  28.020  1.00  0.00     0.163 HD
ATOM     41  O   UNL A   1      33.544  34.170  29.683  1.00  0.00    -0.269 OA
BRANCH  39  42
ATOM     42  C   UNL A   1      35.811  33.862  30.254  1.00  0.00     0.039 A 
ATOM     43  C   UNL A   1      36.843  34.155  29.353  1.00  0.00     0.014 A 
ATOM     44  C   UNL A   1      36.075  33.400  31.537  1.00  0.00     0.014 A 
ATOM     45  C   UNL A   1      38.107  33.650  29.596  1.00  0.00     0.010 A 
ATOM     46  C   UNL A   1      37.314  32.834  31.749  1.00  0.00     0.010 A 
ATOM     47  C   UNL A   1      38.284  32.876  30.733  1.00  0.00    -0.014 A 
BRANCH  47  48
ATOM     48  C   UNL A   1      39.456  32.058  30.978  1.00  0.00     0.031 A 
ATOM     49  C   UNL A   1      39.529  30.745  30.317  1.00  0.00     0.074 A 
ATOM     50  C   UNL A   1      40.513  32.578  31.641  1.00  0.00     0.049 A 
ATOM     51  N   UNL A   1      40.431  29.866  30.570  1.00  0.00    -0.248 NA
ATOM     52  C   UNL A   1      38.532  30.295  29.347  1.00  0.00     0.031 C 
ATOM     53  C   UNL A   1      41.896  32.115  31.580  1.00  0.00     0.029 A 
ATOM     54  N   UNL A   1      40.510  33.503  32.694  1.00  0.00    -0.354 N 
ATOM     55  C   UNL A   1      40.331  28.901  29.598  1.00  0.00     0.074 A 
ATOM     56  C   UNL A   1      39.061  29.131  28.961  1.00  0.00     0.031 C 
ATOM     57  C   UNL A   1      42.540  32.523  32.683  1.00  0.00     0.029 A 
ATOM     58  C   UNL A   1      41.542  33.099  33.565  1.00  0.00     0.049 A 
ATOM     59  H   UNL A   1      39.910  34.276  32.803  1.00  0.00     0.167 HD
ATOM     60  C   UNL A   1      41.416  28.123  29.351  1.00  0.00     0.034 A 
ATOM     61  C   UNL A   1      41.353  32.737  34.868  1.00  0.00     0.034 A 
ATOM     62  C   UNL A   1      42.397  28.249  30.434  1.00  0.00     0.049 A 
ATOM     63  C   UNL A   1      41.829  31.327  35.174  1.00  0.00     0.074 A 
ATOM     64  C   UNL A   1      43.599  28.921  30.561  1.00  0.00     0.029 A 
ATOM     65  N   UNL A   1      42.034  27.842  31.715  1.00  0.00    -0.354 N 
ATOM     66  N   UNL A   1      42.208  30.469  34.266  1.00  0.00    -0.248 NA
ATOM     67  C   UNL A   1      41.904  30.763  36.520  1.00  0.00     0.031 C 
ATOM     68  C   UNL A   1      43.893  29.019  31.952  1.00  0.00     0.029 A 
ATOM     69  C   UNL A   1      42.899  28.362  32.662  1.00  0.00     0.049 A 
ATOM     70  H   UNL A   1      41.264  27.263  31.920  1.00  0.00     0.167 HD
ATOM     71  C   UNL A   1      42.444  29.246  34.840  1.00  0.00     0.074 A 
ATOM     72  C   UNL A   1      42.313  29.507  36.264  1.00  0.00     0.031 C 
ATOM     73  C   UNL A   1      42.665  28.122  34.085  1.00  0.00     0.034 A 
BRANCH  60  74
ATOM     74  C   UNL A   1      41.696  27.381  28.059  1.00  0.00     0.023 A 
ATOM     75  C   UNL A   1      41.391  28.059  26.858  1.00  0.00     0.012 A 
ATOM     76  C   UNL A   1      42.108  26.031  27.925  1.00  0.00     0.148 A 
ATOM     77  C   UNL A   1      41.475  27.438  25.606  1.00  0.00     0.002 A 
ATOM     78  C   UNL A   1      42.258  25.433  26.669  1.00  0.00     0.091 A 
ATOM     79  F   UNL A   1      42.268  25.262  29.004  1.00  0.00    -0.205 F 
ATOM     80  C   UNL A   1      41.923  26.129  25.508  1.00  0.00     0.022 A 
BRANCH  78  81
ATOM     81  S   UNL A   1      42.886  23.754  26.470  1.00  0.00     0.127 S 
ATOM     82  O   UNL A   1      43.069  23.663  25.023  1.00  0.00    -0.237 OA
ATOM     83  O   UNL A   1      44.131  23.790  27.239  1.00  0.00    -0.237 OA
ATOM     84  O   UNL A   1      41.868  22.870  27.026  1.00  0.00    -0.744 OA
ENDBRANCH  78  81
ENDBRANCH  60  74
BRANCH  61  85
ATOM     85  C   UNL A   1      40.219  33.445  35.526  1.00  0.00     0.023 A 
ATOM     86  C   UNL A   1      38.964  32.788  35.491  1.00  0.00     0.012 A 
ATOM     87  C   UNL A   1      40.435  34.447  36.486  1.00  0.00     0.148 A 
ATOM     88  C   UNL A   1      38.007  33.016  36.479  1.00  0.00     0.002 A 
ATOM     89  C   UNL A   1      39.473  34.668  37.472  1.00  0.00     0.091 A 
ATOM     90  F   UNL A   1      41.607  35.095  36.482  1.00  0.00    -0.205 F 
ATOM     91  C   UNL A   1      38.279  33.927  37.492  1.00  0.00     0.022 A 
BRANCH  89  92
ATOM     92  S   UNL A   1      39.755  35.788  38.850  1.00  0.00     0.127 S 
ATOM     93  O   UNL A   1      38.657  35.433  39.744  1.00  0.00    -0.237 OA
ATOM     94  O   UNL A   1      41.080  35.376  39.311  1.00  0.00    -0.237 OA
ATOM     95  O   UNL A   1      39.709  37.120  38.269  1.00  0.00    -0.744 OA
ENDBRANCH  89  92
ENDBRANCH  61  85
BRANCH  73  96
ATOM     96  C   UNL A   1      42.660  26.688  34.601  1.00  0.00     0.023 A 
ATOM     97  C   UNL A   1      41.556  26.127  35.274  1.00  0.00     0.012 A 
ATOM     98  C   UNL A   1      43.721  25.794  34.289  1.00  0.00     0.148 A 
ATOM     99  C   UNL A   1      41.525  24.783  35.670  1.00  0.00     0.002 A 
ATOM    100  C   UNL A   1      43.635  24.434  34.581  1.00  0.00     0.091 A 
ATOM    101  F   UNL A   1      44.843  26.259  33.720  1.00  0.00    -0.205 F 
ATOM    102  C   UNL A   1      42.553  23.929  35.302  1.00  0.00     0.022 A 
BRANCH 100 103
ATOM    103  S   UNL A   1      44.820  23.267  33.894  1.00  0.00     0.127 S 
ATOM    104  O   UNL A   1      44.349  21.996  34.436  1.00  0.00    -0.237 OA
ATOM    105  O   UNL A   1      44.622  23.424  32.451  1.00  0.00    -0.237 OA
ATOM    106  O   UNL A   1      46.118  23.732  34.368  1.00  0.00    -0.744 OA
ENDBRANCH 100 103
ENDBRANCH  73  96
ENDBRANCH  47  48
ENDBRANCH  39  42
ENDBRANCH  37  38
ENDBRANCH  36  37
ENDBRANCH   1  36
TORSDOF 19
ENDMDL
MODEL 2
REMARK VINA RESULT:     -13.0      4.618     10.307
REMARK SMILES Cc1ccc(S(=O)(=O)N2CCCC2)cc1C(=O)N[C@H](CC1=c2ccccc2=NC1)C(=O)NCCCNC(=O)c1ccc(-c2c3nc(c(-c4cccc(S(=O)(=O)[O-])c4F)c4ccc([nH]4)c(-c4cccc(S(=O)(=O)[O-])c4F)c4nc(c(-c5cccc(S(=O)(=O)[O-])c5F)c5ccc2[nH]5)C=C4)C=C3)cc1
REMARK SMILES IDX 33 1 32 2 30 3 31 4 19 6 18 7 16 8 17 9 15 11 1 12 2 13 3 14
REMARK SMILES IDX 4 15 14 16 5 17 6 18 7 19 8 20 9 21 10 22 13 23 11 24 12 25
REMARK SMILES IDX 20 26 21 27 22 28 29 29 23 30 27 31 28 32 24 33 26 34 25 35
REMARK SMILES IDX 34 36 35 37 36 38 37 39 38 41 39 42 40 43 101 44 41 45
REMARK SMILES IDX 100 46 42 47 43 48 44 49 94 50 45 51 99 52 93 53 95 54 46 55
REMARK SMILES IDX 98 56 92 57 91 58 47 60 79 61 59 62 78 63 60 64 63 65 77 66
REMARK SMILES IDX 96 67 61 68 62 69 76 71 97 72 64 73 48 74 49 75 57 76 50 77
REMARK SMILES IDX 52 78 58 79 51 80 53 81 54 82 55 83 56 84 80 85 81 86 89 87
REMARK SMILES IDX 82 88 84 89 90 90 83 91 85 92 86 93 87 94 88 95 65 96 66 97
REMARK SMILES IDX 74 98 67 99 69 100 75 101 68 102 70 103 71 104 72 105 73 106
REMARK H PARENT 32 5 18 10 36 40 95 59 63 70
REMARK Flexibility Score: inf
ROOT
ATOM      1  C   UNL A   1      37.303  22.851  25.923  1.00  0.00     0.117 C 
ENDROOT
BRANCH   1   2
ATOM      2  N   UNL A   1      37.300  22.596  24.503  1.00  0.00    -0.354 N 
ATOM      3  C   UNL A   1      36.449  22.931  23.503  1.00  0.00     0.242 C 
ATOM      4  O   UNL A   1      36.854  22.618  22.379  1.00  0.00    -0.273 OA
ATOM      5  H   UNL A   1      38.073  22.069  24.198  1.00  0.00     0.163 HD
BRANCH   3   6
ATOM      6  C   UNL A   1      35.130  23.759  23.666  1.00  0.00     0.175 C 
BRANCH   6   7
ATOM      7  N   UNL A   1      34.232  24.085  22.507  1.00  0.00    -0.340 N 
ATOM      8  C   UNL A   1      33.079  24.674  22.062  1.00  0.00     0.252 C 
ATOM      9  O   UNL A   1      32.966  24.574  20.828  1.00  0.00    -0.269 OA
ATOM     10  H   UNL A   1      34.668  23.706  21.710  1.00  0.00     0.164 HD
BRANCH   8  11
ATOM     11  C   UNL A   1      31.972  25.430  22.756  1.00  0.00     0.044 A 
ATOM     12  C   UNL A   1      30.404  23.519  23.377  1.00  0.00     0.045 C 
ATOM     13  C   UNL A   1      30.785  24.941  23.309  1.00  0.00    -0.038 A 
ATOM     14  C   UNL A   1      29.813  25.815  23.842  1.00  0.00     0.005 A 
ATOM     15  C   UNL A   1      30.008  27.179  23.872  1.00  0.00     0.022 A 
ATOM     16  C   UNL A   1      32.164  26.842  22.833  1.00  0.00     0.035 A 
ATOM     17  C   UNL A   1      31.189  27.702  23.364  1.00  0.00     0.083 A 
BRANCH  17  18
ATOM     18  S   UNL A   1      31.276  29.479  23.338  1.00  0.00     0.243 S 
ATOM     19  O   UNL A   1      31.360  29.882  24.725  1.00  0.00    -0.207 OA
ATOM     20  O   UNL A   1      32.319  29.831  22.395  1.00  0.00    -0.207 OA
BRANCH  18  21
ATOM     21  N   UNL A   1      29.847  30.068  22.737  1.00  0.00    -0.198 NA
ATOM     22  C   UNL A   1      28.713  30.416  23.596  1.00  0.00     0.102 C 
ATOM     23  C   UNL A   1      29.426  29.840  21.350  1.00  0.00     0.102 C 
ATOM     24  C   UNL A   1      27.501  30.176  22.705  1.00  0.00     0.018 C 
ATOM     25  C   UNL A   1      28.038  30.477  21.315  1.00  0.00     0.018 C 
ENDBRANCH  18  21
ENDBRANCH  17  18
ENDBRANCH   8  11
ENDBRANCH   6   7
BRANCH   6  26
ATOM     26  C   UNL A   1      35.030  24.751  24.899  1.00  0.00     0.068 C 
BRANCH  26  27
ATOM     27  C   UNL A   1      33.730  25.011  25.643  1.00  0.00    -0.037 C 
ATOM     28  C   UNL A   1      33.284  26.146  26.187  1.00  0.00     0.001 A 
ATOM     29  C   UNL A   1      32.760  23.910  25.987  1.00  0.00     0.174 C 
ATOM     30  C   UNL A   1      33.765  27.485  26.292  1.00  0.00     0.010 A 
ATOM     31  C   UNL A   1      31.973  25.772  26.749  1.00  0.00     0.065 A 
ATOM     32  N   UNL A   1      31.657  24.516  26.757  1.00  0.00    -0.280 NA
ATOM     33  C   UNL A   1      32.954  28.427  26.803  1.00  0.00     0.001 A 
ATOM     34  C   UNL A   1      31.116  26.863  27.246  1.00  0.00     0.028 A 
ATOM     35  C   UNL A   1      31.603  28.114  27.238  1.00  0.00     0.002 A 
ENDBRANCH  26  27
ENDBRANCH   6  26
ENDBRANCH   3   6
ENDBRANCH   1   2
BRANCH   1  36
ATOM     36  C   UNL A   1      38.262  23.964  26.288  1.00  0.00     0.042 C 
BRANCH  36  37
ATOM     37  C   UNL A   1      39.360  23.591  27.275  1.00  0.00     0.118 C 
BRANCH  37  38
ATOM     38  N   UNL A   1      39.782  22.219  26.982  1.00  0.00    -0.352 N 
ATOM     39  C   UNL A   1      41.003  21.686  26.625  1.00  0.00     0.251 C 
ATOM     40  H   UNL A   1      39.060  21.555  27.055  1.00  0.00     0.163 HD
ATOM     41  O   UNL A   1      41.063  20.569  26.124  1.00  0.00    -0.269 OA
BRANCH  39  42
ATOM     42  C   UNL A   1      42.216  22.395  27.072  1.00  0.00     0.039 A 
ATOM     43  C   UNL A   1      42.364  22.435  28.464  1.00  0.00     0.014 A 
ATOM     44  C   UNL A   1      42.759  23.377  26.254  1.00  0.00     0.014 A 
ATOM     45  C   UNL A   1      42.731  23.626  29.064  1.00  0.00     0.010 A 
ATOM     46  C   UNL A   1      43.056  24.584  26.849  1.00  0.00     0.010 A 
ATOM     47  C   UNL A   1      42.939  24.725  28.242  1.00  0.00    -0.014 A 
BRANCH  47  48
ATOM     48  C   UNL A   1      43.053  26.085  28.729  1.00  0.00     0.031 A 
ATOM     49  C   UNL A   1      41.859  26.943  28.659  1.00  0.00     0.074 A 
ATOM     50  C   UNL A   1      44.168  26.474  29.387  1.00  0.00     0.049 A 
ATOM     51  N   UNL A   1      41.869  28.203  28.910  1.00  0.00    -0.248 NA
ATOM     52  C   UNL A   1      40.554  26.443  28.231  1.00  0.00     0.031 C 
ATOM     53  C   UNL A   1      44.286  27.587  30.324  1.00  0.00     0.029 A 
ATOM     54  N   UNL A   1      45.492  26.072  29.168  1.00  0.00    -0.354 N 
ATOM     55  C   UNL A   1      40.557  28.602  28.994  1.00  0.00     0.074 A 
ATOM     56  C   UNL A   1      39.792  27.524  28.426  1.00  0.00     0.031 C 
ATOM     57  C   UNL A   1      45.572  27.962  30.394  1.00  0.00     0.029 A 
ATOM     58  C   UNL A   1      46.283  27.222  29.367  1.00  0.00     0.049 A 
ATOM     59  H   UNL A   1      45.807  25.171  28.924  1.00  0.00     0.167 HD
ATOM     60  C   UNL A   1      40.273  29.736  29.684  1.00  0.00     0.034 A 
ATOM     61  C   UNL A   1      47.078  27.786  28.412  1.00  0.00     0.034 A 
ATOM     62  C   UNL A   1      41.495  30.512  29.924  1.00  0.00     0.049 A 
ATOM     63  C   UNL A   1      46.725  29.234  28.115  1.00  0.00     0.074 A 
ATOM     64  C   UNL A   1      42.304  30.704  31.029  1.00  0.00     0.029 A 
ATOM     65  N   UNL A   1      42.198  31.007  28.829  1.00  0.00    -0.354 N 
ATOM     66  N   UNL A   1      45.663  29.837  28.574  1.00  0.00    -0.248 NA
ATOM     67  C   UNL A   1      47.527  30.114  27.269  1.00  0.00     0.031 C 
ATOM     68  C   UNL A   1      43.553  31.208  30.566  1.00  0.00     0.029 A 
ATOM     69  C   UNL A   1      43.483  31.372  29.191  1.00  0.00     0.049 A 
ATOM     70  H   UNL A   1      41.831  31.085  27.918  1.00  0.00     0.167 HD
ATOM     71  C   UNL A   1      45.551  31.086  28.019  1.00  0.00     0.074 A 
ATOM     72  C   UNL A   1      46.787  31.237  27.268  1.00  0.00     0.031 C 
ATOM     73  C   UNL A   1      44.425  31.852  28.181  1.00  0.00     0.034 A 
BRANCH  60  74
ATOM     74  C   UNL A   1      38.935  30.080  30.309  1.00  0.00     0.023 A 
ATOM     75  C   UNL A   1      38.447  29.193  31.294  1.00  0.00     0.012 A 
ATOM     76  C   UNL A   1      38.057  31.124  29.920  1.00  0.00     0.148 A 
ATOM     77  C   UNL A   1      37.169  29.321  31.849  1.00  0.00     0.002 A 
ATOM     78  C   UNL A   1      36.808  31.291  30.525  1.00  0.00     0.091 A 
ATOM     79  F   UNL A   1      38.362  31.916  28.891  1.00  0.00    -0.205 F 
ATOM     80  C   UNL A   1      36.352  30.379  31.477  1.00  0.00     0.022 A 
BRANCH  78  81
ATOM     81  S   UNL A   1      35.721  32.675  30.126  1.00  0.00     0.127 S 
ATOM     82  O   UNL A   1      35.518  32.502  28.688  1.00  0.00    -0.237 OA
ATOM     83  O   UNL A   1      34.542  32.396  30.945  1.00  0.00    -0.237 OA
ATOM     84  O   UNL A   1      36.443  33.883  30.511  1.00  0.00    -0.744 OA
ENDBRANCH  78  81
ENDBRANCH  60  74
BRANCH  61  85
ATOM     85  C   UNL A   1      47.639  26.801  27.444  1.00  0.00     0.023 A 
ATOM     86  C   UNL A   1      46.820  26.476  26.335  1.00  0.00     0.012 A 
ATOM     87  C   UNL A   1      49.019  26.547  27.368  1.00  0.00     0.148 A 
ATOM     88  C   UNL A   1      47.379  26.051  25.130  1.00  0.00     0.002 A 
ATOM     89  C   UNL A   1      49.570  26.125  26.159  1.00  0.00     0.091 A 
ATOM     90  F   UNL A   1      49.777  26.816  28.439  1.00  0.00    -0.205 F 
ATOM     91  C   UNL A   1      48.758  25.915  25.032  1.00  0.00     0.022 A 
BRANCH  89  92
ATOM     92  S   UNL A   1      51.345  25.970  25.920  1.00  0.00     0.127 S 
ATOM     93  O   UNL A   1      51.604  24.656  26.501  1.00  0.00    -0.237 OA
ATOM     94  O   UNL A   1      51.464  26.032  24.464  1.00  0.00    -0.237 OA
ATOM     95  O   UNL A   1      51.921  27.108  26.619  1.00  0.00    -0.744 OA
ENDBRANCH  89  92
ENDBRANCH  61  85
BRANCH  73  96
ATOM     96  C   UNL A   1      44.085  33.113  27.394  1.00  0.00     0.023 A 
ATOM     97  C   UNL A   1      44.058  33.144  25.985  1.00  0.00     0.012 A 
ATOM     98  C   UNL A   1      43.626  34.286  28.053  1.00  0.00     0.148 A 
ATOM     99  C   UNL A   1      43.662  34.282  25.269  1.00  0.00     0.002 A 
ATOM    100  C   UNL A   1      43.122  35.372  27.339  1.00  0.00     0.091 A 
ATOM    101  F   UNL A   1      43.690  34.372  29.390  1.00  0.00    -0.205 F 
ATOM    102  C   UNL A   1      43.170  35.387  25.945  1.00  0.00     0.022 A 
BRANCH 100 103
ATOM    103  S   UNL A   1      42.245  36.701  28.177  1.00  0.00     0.127 S 
ATOM    104  O   UNL A   1      43.288  37.270  29.025  1.00  0.00    -0.237 OA
ATOM    105  O   UNL A   1      41.830  37.559  27.064  1.00  0.00    -0.237 OA
ATOM    106  O   UNL A   1      41.140  36.043  28.862  1.00  0.00    -0.744 OA
ENDBRANCH 100 103
ENDBRANCH  73  96
ENDBRANCH  47  48
ENDBRANCH  39  42
ENDBRANCH  37  38
ENDBRANCH  36  37
ENDBRANCH   1  36
TORSDOF 19
ENDMDL
MODEL 3
REMARK VINA RESULT:     -13.0      2.922      4.283
REMARK SMILES Cc1ccc(S(=O)(=O)N2CCCC2)cc1C(=O)N[C@H](CC1=c2ccccc2=NC1)C(=O)NCCCNC(=O)c1ccc(-c2c3nc(c(-c4cccc(S(=O)(=O)[O-])c4F)c4ccc([nH]4)c(-c4cccc(S(=O)(=O)[O-])c4F)c4nc(c(-c5cccc(S(=O)(=O)[O-])c5F)c5ccc2[nH]5)C=C4)C=C3)cc1
REMARK SMILES IDX 33 1 32 2 30 3 31 4 19 6 18 7 16 8 17 9 15 11 1 12 2 13 3 14
REMARK SMILES IDX 4 15 14 16 5 17 6 18 7 19 8 20 9 21 10 22 13 23 11 24 12 25
REMARK SMILES IDX 20 26 21 27 22 28 29 29 23 30 27 31 28 32 24 33 26 34 25 35
REMARK SMILES IDX 34 36 35 37 36 38 37 39 38 41 39 42 40 43 101 44 41 45
REMARK SMILES IDX 100 46 42 47 43 48 44 49 94 50 45 51 99 52 93 53 95 54 46 55
REMARK SMILES IDX 98 56 92 57 91 58 47 60 79 61 59 62 78 63 60 64 63 65 77 66
REMARK SMILES IDX 96 67 61 68 62 69 76 71 97 72 64 73 48 74 49 75 57 76 50 77
REMARK SMILES IDX 52 78 58 79 51 80 53 81 54 82 55 83 56 84 80 85 81 86 89 87
REMARK SMILES IDX 82 88 84 89 90 90 83 91 85 92 86 93 87 94 88 95 65 96 66 97
REMARK SMILES IDX 74 98 67 99 69 100 75 101 68 102 70 103 71 104 72 105 73 106
REMARK H PARENT 32 5 18 10 36 40 95 59 63 70
REMARK Flexibility Score: inf
ROOT
ATOM      1  C   UNL A   1      32.359  28.799  25.826  1.00  0.00     0.117 C 
ENDROOT
BRANCH   1   2
ATOM      2  N   UNL A   1      32.128  27.583  26.568  1.00  0.00    -0.354 N 
ATOM      3  C   UNL A   1      31.951  26.291  26.198  1.00  0.00     0.242 C 
ATOM      4  O   UNL A   1      31.891  25.505  27.150  1.00  0.00    -0.273 OA
ATOM      5  H   UNL A   1      32.090  27.719  27.542  1.00  0.00     0.163 HD
BRANCH   3   6
ATOM      6  C   UNL A   1      31.953  25.755  24.727  1.00  0.00     0.175 C 
BRANCH   6   7
ATOM      7  N   UNL A   1      33.221  25.499  23.962  1.00  0.00    -0.340 N 
ATOM      8  C   UNL A   1      34.276  24.663  23.710  1.00  0.00     0.252 C 
ATOM      9  O   UNL A   1      35.024  25.130  22.834  1.00  0.00    -0.269 OA
ATOM     10  H   UNL A   1      33.352  26.284  23.382  1.00  0.00     0.164 HD
BRANCH   8  11
ATOM     11  C   UNL A   1      34.671  23.309  24.248  1.00  0.00     0.044 A 
ATOM     12  C   UNL A   1      37.117  23.724  24.835  1.00  0.00     0.045 C 
ATOM     13  C   UNL A   1      35.916  22.877  24.715  1.00  0.00    -0.038 A 
ATOM     14  C   UNL A   1      36.127  21.535  25.098  1.00  0.00     0.005 A 
ATOM     15  C   UNL A   1      35.109  20.606  25.061  1.00  0.00     0.022 A 
ATOM     16  C   UNL A   1      33.627  22.336  24.255  1.00  0.00     0.035 A 
ATOM     17  C   UNL A   1      33.850  21.003  24.636  1.00  0.00     0.083 A 
BRANCH  17  18
ATOM     18  S   UNL A   1      32.651  19.694  24.508  1.00  0.00     0.243 S 
ATOM     19  O   UNL A   1      31.689  19.948  25.558  1.00  0.00    -0.207 OA
ATOM     20  O   UNL A   1      32.242  19.640  23.119  1.00  0.00    -0.207 OA
BRANCH  18  21
ATOM     21  N   UNL A   1      33.400  18.258  24.860  1.00  0.00    -0.198 NA
ATOM     22  C   UNL A   1      34.631  17.825  24.192  1.00  0.00     0.102 C 
ATOM     23  C   UNL A   1      32.687  17.128  25.466  1.00  0.00     0.102 C 
ATOM     24  C   UNL A   1      34.539  16.305  24.222  1.00  0.00     0.018 C 
ATOM     25  C   UNL A   1      33.756  16.038  25.497  1.00  0.00     0.018 C 
ENDBRANCH  18  21
ENDBRANCH  17  18
ENDBRANCH   8  11
ENDBRANCH   6   7
BRANCH   6  26
ATOM     26  C   UNL A   1      30.672  26.038  23.837  1.00  0.00     0.068 C 
BRANCH  26  27
ATOM     27  C   UNL A   1      30.376  27.399  23.230  1.00  0.00    -0.037 C 
ATOM     28  C   UNL A   1      29.212  28.047  23.143  1.00  0.00     0.001 A 
ATOM     29  C   UNL A   1      31.418  28.200  22.490  1.00  0.00     0.174 C 
ATOM     30  C   UNL A   1      27.868  27.789  23.548  1.00  0.00     0.010 A 
ATOM     31  C   UNL A   1      29.564  29.310  22.468  1.00  0.00     0.065 A 
ATOM     32  N   UNL A   1      30.762  29.424  21.990  1.00  0.00    -0.280 NA
ATOM     33  C   UNL A   1      26.953  28.765  23.416  1.00  0.00     0.001 A 
ATOM     34  C   UNL A   1      28.526  30.354  22.404  1.00  0.00     0.028 A 
ATOM     35  C   UNL A   1      27.303  30.071  22.881  1.00  0.00     0.002 A 
ENDBRANCH  26  27
ENDBRANCH   6  26
ENDBRANCH   3   6
ENDBRANCH   1   2
BRANCH   1  36
ATOM     36  C   UNL A   1      33.607  29.513  26.299  1.00  0.00     0.042 C 
BRANCH  36  37
ATOM     37  C   UNL A   1      33.456  30.325  27.579  1.00  0.00     0.118 C 
BRANCH  37  38
ATOM     38  N   UNL A   1      34.562  31.282  27.639  1.00  0.00    -0.352 N 
ATOM     39  C   UNL A   1      35.783  31.245  28.281  1.00  0.00     0.251 C 
ATOM     40  H   UNL A   1      34.406  32.107  27.124  1.00  0.00     0.163 HD
ATOM     41  O   UNL A   1      36.418  32.278  28.454  1.00  0.00    -0.269 OA
BRANCH  39  42
ATOM     42  C   UNL A   1      36.380  29.921  28.536  1.00  0.00     0.039 A 
ATOM     43  C   UNL A   1      36.820  29.747  29.854  1.00  0.00     0.014 A 
ATOM     44  C   UNL A   1      36.959  29.231  27.479  1.00  0.00     0.014 A 
ATOM     45  C   UNL A   1      38.057  29.171  30.077  1.00  0.00     0.010 A 
ATOM     46  C   UNL A   1      38.222  28.722  27.689  1.00  0.00     0.010 A 
ATOM     47  C   UNL A   1      38.800  28.791  28.968  1.00  0.00    -0.014 A 
BRANCH  47  48
ATOM     48  C   UNL A   1      40.205  28.438  29.021  1.00  0.00     0.031 A 
ATOM     49  C   UNL A   1      40.568  27.024  28.835  1.00  0.00     0.074 A 
ATOM     50  C   UNL A   1      41.143  29.412  29.056  1.00  0.00     0.049 A 
ATOM     51  N   UNL A   1      41.753  26.560  29.013  1.00  0.00    -0.248 NA
ATOM     52  C   UNL A   1      39.585  25.998  28.488  1.00  0.00     0.031 C 
ATOM     53  C   UNL A   1      42.540  29.294  28.652  1.00  0.00     0.029 A 
ATOM     54  N   UNL A   1      41.074  30.663  29.684  1.00  0.00    -0.354 N 
ATOM     55  C   UNL A   1      41.761  25.284  28.505  1.00  0.00     0.074 A 
ATOM     56  C   UNL A   1      40.376  24.933  28.330  1.00  0.00     0.031 C 
ATOM     57  C   UNL A   1      43.250  30.258  29.256  1.00  0.00     0.029 A 
ATOM     58  C   UNL A   1      42.362  30.903  30.205  1.00  0.00     0.049 A 
ATOM     59  H   UNL A   1      40.288  31.252  29.749  1.00  0.00     0.167 HD
ATOM     60  C   UNL A   1      42.953  24.743  28.145  1.00  0.00     0.034 A 
ATOM     61  C   UNL A   1      42.636  31.081  31.531  1.00  0.00     0.034 A 
ATOM     62  C   UNL A   1      44.062  25.527  28.701  1.00  0.00     0.049 A 
ATOM     63  C   UNL A   1      43.634  30.074  32.078  1.00  0.00     0.074 A 
ATOM     64  C   UNL A   1      44.946  26.446  28.165  1.00  0.00     0.029 A 
ATOM     65  N   UNL A   1      44.189  25.617  30.084  1.00  0.00    -0.354 N 
ATOM     66  N   UNL A   1      44.054  29.028  31.420  1.00  0.00    -0.248 NA
ATOM     67  C   UNL A   1      44.228  30.152  33.411  1.00  0.00     0.031 C 
ATOM     68  C   UNL A   1      45.517  27.175  29.246  1.00  0.00     0.029 A 
ATOM     69  C   UNL A   1      45.022  26.665  30.436  1.00  0.00     0.049 A 
ATOM     70  H   UNL A   1      43.745  25.016  30.726  1.00  0.00     0.167 HD
ATOM     71  C   UNL A   1      44.835  28.242  32.228  1.00  0.00     0.074 A 
ATOM     72  C   UNL A   1      44.974  29.033  33.440  1.00  0.00     0.031 C 
ATOM     73  C   UNL A   1      45.242  26.989  31.845  1.00  0.00     0.034 A 
BRANCH  60  74
ATOM     74  C   UNL A   1      43.149  23.618  27.148  1.00  0.00     0.023 A 
ATOM     75  C   UNL A   1      43.922  23.911  26.003  1.00  0.00     0.012 A 
ATOM     76  C   UNL A   1      42.533  22.341  27.174  1.00  0.00     0.148 A 
ATOM     77  C   UNL A   1      44.066  23.006  24.945  1.00  0.00     0.002 A 
ATOM     78  C   UNL A   1      42.734  21.411  26.149  1.00  0.00     0.091 A 
ATOM     79  F   UNL A   1      41.661  22.030  28.135  1.00  0.00    -0.205 F 
ATOM     80  C   UNL A   1      43.485  21.749  25.022  1.00  0.00     0.022 A 
BRANCH  78  81
ATOM     81  S   UNL A   1      42.051  19.743  26.213  1.00  0.00     0.127 S 
ATOM     82  O   UNL A   1      42.431  19.307  27.556  1.00  0.00    -0.237 OA
ATOM     83  O   UNL A   1      40.619  19.981  26.034  1.00  0.00    -0.237 OA
ATOM     84  O   UNL A   1      42.674  19.006  25.120  1.00  0.00    -0.744 OA
ENDBRANCH  78  81
ENDBRANCH  60  74
BRANCH  61  85
ATOM     85  C   UNL A   1      41.524  31.719  32.291  1.00  0.00     0.023 A 
ATOM     86  C   UNL A   1      41.184  33.041  31.913  1.00  0.00     0.012 A 
ATOM     87  C   UNL A   1      40.587  30.954  33.006  1.00  0.00     0.148 A 
ATOM     88  C   UNL A   1      39.895  33.534  32.110  1.00  0.00     0.002 A 
ATOM     89  C   UNL A   1      39.299  31.454  33.196  1.00  0.00     0.091 A 
ATOM     90  F   UNL A   1      40.935  29.721  33.398  1.00  0.00    -0.205 F 
ATOM     91  C   UNL A   1      38.942  32.725  32.714  1.00  0.00     0.022 A 
BRANCH  89  92
ATOM     92  S   UNL A   1      37.987  30.463  33.922  1.00  0.00     0.127 S 
ATOM     93  O   UNL A   1      36.800  31.217  33.528  1.00  0.00    -0.237 OA
ATOM     94  O   UNL A   1      38.156  29.183  33.236  1.00  0.00    -0.237 OA
ATOM     95  O   UNL A   1      38.284  30.426  35.345  1.00  0.00    -0.744 OA
ENDBRANCH  89  92
ENDBRANCH  61  85
BRANCH  73  96
ATOM     96  C   UNL A   1      45.865  25.938  32.757  1.00  0.00     0.023 A 
ATOM     97  C   UNL A   1      47.257  25.829  32.949  1.00  0.00     0.012 A 
ATOM     98  C   UNL A   1      45.053  25.111  33.581  1.00  0.00     0.148 A 
ATOM     99  C   UNL A   1      47.817  24.916  33.854  1.00  0.00     0.002 A 
ATOM    100  C   UNL A   1      45.610  24.292  34.561  1.00  0.00     0.091 A 
ATOM    101  F   UNL A   1      43.722  25.095  33.410  1.00  0.00    -0.205 F 
ATOM    102  C   UNL A   1      46.994  24.165  34.679  1.00  0.00     0.022 A 
BRANCH 100 103
ATOM    103  S   UNL A   1      44.573  23.510  35.808  1.00  0.00     0.127 S 
ATOM    104  O   UNL A   1      43.815  24.643  36.331  1.00  0.00    -0.237 OA
ATOM    105  O   UNL A   1      43.784  22.562  35.017  1.00  0.00    -0.237 OA
ATOM    106  O   UNL A   1      45.511  22.878  36.727  1.00  0.00    -0.744 OA
ENDBRANCH 100 103
ENDBRANCH  73  96
ENDBRANCH  47  48
ENDBRANCH  39  42
ENDBRANCH  37  38
ENDBRANCH  36  37
ENDBRANCH   1  36
TORSDOF 19
ENDMDL
