MODEL 1
REMARK VINA RESULT:     -11.9      0.000      0.000
REMARK SMILES CSCC[C@@H](NS(=O)(=O)c1ccc(F)c(C)c1)C(=O)NCCCNC(=O)c1ccc(-c2c3nc(c(-c4cccc(S(=O)(=O)[O-])c4F)c4ccc([nH]4)c(-c4cccc(S(=O)(=O)[O-])c4F)c4nc(c(-c5cccc(S(=O)(=O)[O-])c5F)c5ccc2[nH]5)C=C4)C=C3)cc1
REMARK SMILES IDX 22 1 21 2 20 3 18 4 19 5 5 7 4 8 3 9 2 10 1 11 6 12 7 14
REMARK SMILES IDX 8 15 9 16 10 17 11 18 17 19 12 20 15 21 13 22 16 23 14 24
REMARK SMILES IDX 23 25 24 26 25 27 26 29 27 30 28 31 89 32 29 33 88 34 30 35
REMARK SMILES IDX 31 36 32 37 82 38 33 39 87 40 81 41 83 42 34 43 86 44 80 45
REMARK SMILES IDX 79 46 35 48 67 49 47 50 66 51 48 52 51 53 65 54 84 55 49 56
REMARK SMILES IDX 50 57 64 59 85 60 52 61 36 62 37 63 45 64 38 65 40 66 46 67
REMARK SMILES IDX 39 68 41 69 42 70 43 71 44 72 68 73 69 74 77 75 70 76 72 77
REMARK SMILES IDX 78 78 71 79 73 80 74 81 75 82 76 83 53 84 54 85 62 86 55 87
REMARK SMILES IDX 57 88 63 89 56 90 58 91 59 92 60 93 61 94
REMARK H PARENT 20 6 6 13 24 28 83 47 51 58
REMARK Flexibility Score: inf
ROOT
ATOM      1  C   UNL A   1      32.893  28.892  26.222  1.00  0.00     0.042 C 
ENDROOT
BRANCH   1   2
ATOM      2  C   UNL A   1      33.124  29.191  24.750  1.00  0.00     0.117 C 
BRANCH   2   3
ATOM      3  N   UNL A   1      31.865  29.509  24.093  1.00  0.00    -0.355 N 
ATOM      4  C   UNL A   1      31.025  28.688  23.396  1.00  0.00     0.238 C 
ATOM      5  O   UNL A   1      30.058  29.180  22.813  1.00  0.00    -0.273 OA
ATOM      6  H   UNL A   1      31.578  30.448  24.161  1.00  0.00     0.163 HD
BRANCH   4   7
ATOM      7  C   UNL A   1      31.308  27.194  23.341  1.00  0.00     0.159 C 
BRANCH   7   8
ATOM      8  C   UNL A   1      30.060  26.550  23.978  1.00  0.00     0.041 C 
BRANCH   8   9
ATOM      9  C   UNL A   1      30.163  25.141  24.536  1.00  0.00     0.071 C 
BRANCH   9  10
ATOM     10  S   UNL A   1      31.382  24.933  25.867  1.00  0.00    -0.165 SA
ATOM     11  C   UNL A   1      30.824  23.361  26.565  1.00  0.00     0.085 C 
ENDBRANCH   9  10
ENDBRANCH   8   9
ENDBRANCH   7   8
BRANCH   7  12
ATOM     12  N   UNL A   1      31.590  26.751  21.952  1.00  0.00    -0.199 NA
ATOM     13  H   UNL A   1      31.508  27.585  21.371  1.00  0.00     0.142 HD
BRANCH  12  14
ATOM     14  S   UNL A   1      33.028  26.007  21.491  1.00  0.00     0.241 S 
ATOM     15  O   UNL A   1      32.857  25.509  20.145  1.00  0.00    -0.207 OA
ATOM     16  O   UNL A   1      34.016  27.027  21.780  1.00  0.00    -0.207 OA
BRANCH  14  17
ATOM     17  C   UNL A   1      33.408  24.622  22.556  1.00  0.00     0.082 A 
ATOM     18  C   UNL A   1      32.732  23.409  22.449  1.00  0.00     0.025 A 
ATOM     19  C   UNL A   1      34.497  24.710  23.445  1.00  0.00     0.028 A 
ATOM     20  C   UNL A   1      33.038  22.333  23.284  1.00  0.00     0.041 A 
ATOM     21  C   UNL A   1      34.885  23.590  24.208  1.00  0.00    -0.014 A 
ATOM     22  C   UNL A   1      34.117  22.426  24.146  1.00  0.00     0.126 A 
ATOM     23  C   UNL A   1      36.135  23.569  25.037  1.00  0.00     0.047 C 
ATOM     24  F   UNL A   1      34.470  21.350  24.861  1.00  0.00    -0.207 F 
ENDBRANCH  14  17
ENDBRANCH  12  14
ENDBRANCH   7  12
ENDBRANCH   4   7
ENDBRANCH   2   3
ENDBRANCH   1   2
BRANCH   1  25
ATOM     25  C   UNL A   1      34.135  29.255  26.986  1.00  0.00     0.118 C 
BRANCH  25  26
ATOM     26  N   UNL A   1      34.113  30.665  27.370  1.00  0.00    -0.352 N 
ATOM     27  C   UNL A   1      34.879  31.251  28.360  1.00  0.00     0.251 C 
ATOM     28  H   UNL A   1      33.495  31.252  26.878  1.00  0.00     0.163 HD
ATOM     29  O   UNL A   1      34.529  32.250  28.947  1.00  0.00    -0.269 OA
BRANCH  27  30
ATOM     30  C   UNL A   1      36.145  30.571  28.661  1.00  0.00     0.039 A 
ATOM     31  C   UNL A   1      36.340  29.851  29.843  1.00  0.00     0.014 A 
ATOM     32  C   UNL A   1      37.130  30.661  27.682  1.00  0.00     0.014 A 
ATOM     33  C   UNL A   1      37.557  29.209  30.027  1.00  0.00     0.010 A 
ATOM     34  C   UNL A   1      38.197  29.834  27.745  1.00  0.00     0.010 A 
ATOM     35  C   UNL A   1      38.465  29.224  28.968  1.00  0.00    -0.014 A 
BRANCH  35  36
ATOM     36  C   UNL A   1      39.825  28.742  29.021  1.00  0.00     0.031 A 
ATOM     37  C   UNL A   1      40.073  27.332  28.732  1.00  0.00     0.074 A 
ATOM     38  C   UNL A   1      40.738  29.738  29.116  1.00  0.00     0.049 A 
ATOM     39  N   UNL A   1      41.070  26.670  29.184  1.00  0.00    -0.248 NA
ATOM     40  C   UNL A   1      39.157  26.503  27.943  1.00  0.00     0.031 C 
ATOM     41  C   UNL A   1      42.156  29.780  28.823  1.00  0.00     0.029 A 
ATOM     42  N   UNL A   1      40.478  31.013  29.627  1.00  0.00    -0.354 N 
ATOM     43  C   UNL A   1      41.166  25.536  28.407  1.00  0.00     0.074 A 
ATOM     44  C   UNL A   1      39.861  25.370  27.816  1.00  0.00     0.031 C 
ATOM     45  C   UNL A   1      42.690  30.865  29.423  1.00  0.00     0.029 A 
ATOM     46  C   UNL A   1      41.644  31.497  30.218  1.00  0.00     0.049 A 
ATOM     47  H   UNL A   1      39.619  31.489  29.578  1.00  0.00     0.167 HD
ATOM     48  C   UNL A   1      42.405  25.021  28.169  1.00  0.00     0.034 A 
ATOM     49  C   UNL A   1      41.636  31.641  31.580  1.00  0.00     0.034 A 
ATOM     50  C   UNL A   1      43.406  25.880  28.791  1.00  0.00     0.049 A 
ATOM     51  C   UNL A   1      42.490  30.558  32.195  1.00  0.00     0.074 A 
ATOM     52  C   UNL A   1      44.197  26.896  28.280  1.00  0.00     0.029 A 
ATOM     53  N   UNL A   1      43.401  26.034  30.167  1.00  0.00    -0.354 N 
ATOM     54  N   UNL A   1      42.657  29.373  31.667  1.00  0.00    -0.248 NA
ATOM     55  C   UNL A   1      43.308  30.772  33.382  1.00  0.00     0.031 C 
ATOM     56  C   UNL A   1      44.609  27.711  29.369  1.00  0.00     0.029 A 
ATOM     57  C   UNL A   1      44.054  27.194  30.527  1.00  0.00     0.049 A 
ATOM     58  H   UNL A   1      42.988  25.403  30.800  1.00  0.00     0.167 HD
ATOM     59  C   UNL A   1      43.662  28.726  32.337  1.00  0.00     0.074 A 
ATOM     60  C   UNL A   1      44.006  29.624  33.425  1.00  0.00     0.031 C 
ATOM     61  C   UNL A   1      44.186  27.532  31.933  1.00  0.00     0.034 A 
BRANCH  48  62
ATOM     62  C   UNL A   1      42.751  23.956  27.155  1.00  0.00     0.023 A 
ATOM     63  C   UNL A   1      43.651  24.167  26.089  1.00  0.00     0.012 A 
ATOM     64  C   UNL A   1      42.148  22.678  27.215  1.00  0.00     0.148 A 
ATOM     65  C   UNL A   1      43.982  23.152  25.178  1.00  0.00     0.002 A 
ATOM     66  C   UNL A   1      42.463  21.677  26.298  1.00  0.00     0.091 A 
ATOM     67  F   UNL A   1      41.244  22.399  28.163  1.00  0.00    -0.205 F 
ATOM     68  C   UNL A   1      43.388  21.902  25.280  1.00  0.00     0.022 A 
BRANCH  66  69
ATOM     69  S   UNL A   1      41.638  20.088  26.440  1.00  0.00     0.127 S 
ATOM     70  O   UNL A   1      40.227  20.446  26.345  1.00  0.00    -0.237 OA
ATOM     71  O   UNL A   1      42.200  19.323  25.332  1.00  0.00    -0.237 OA
ATOM     72  O   UNL A   1      42.050  19.615  27.763  1.00  0.00    -0.744 OA
ENDBRANCH  66  69
ENDBRANCH  48  62
BRANCH  49  73
ATOM     73  C   UNL A   1      40.296  32.136  32.068  1.00  0.00     0.023 A 
ATOM     74  C   UNL A   1      39.932  33.491  31.947  1.00  0.00     0.012 A 
ATOM     75  C   UNL A   1      39.688  31.373  33.097  1.00  0.00     0.148 A 
ATOM     76  C   UNL A   1      39.104  34.091  32.913  1.00  0.00     0.002 A 
ATOM     77  C   UNL A   1      38.940  31.996  34.096  1.00  0.00     0.091 A 
ATOM     78  F   UNL A   1      39.974  30.062  33.174  1.00  0.00    -0.205 F 
ATOM     79  C   UNL A   1      38.655  33.360  34.018  1.00  0.00     0.022 A 
BRANCH  77  80
ATOM     80  S   UNL A   1      38.602  31.093  35.619  1.00  0.00     0.127 S 
ATOM     81  O   UNL A   1      38.050  29.833  35.131  1.00  0.00    -0.237 OA
ATOM     82  O   UNL A   1      39.910  31.028  36.266  1.00  0.00    -0.237 OA
ATOM     83  O   UNL A   1      37.648  31.947  36.328  1.00  0.00    -0.744 OA
ENDBRANCH  77  80
ENDBRANCH  49  73
BRANCH  61  84
ATOM     84  C   UNL A   1      44.977  26.580  32.792  1.00  0.00     0.023 A 
ATOM     85  C   UNL A   1      46.374  26.449  32.556  1.00  0.00     0.012 A 
ATOM     86  C   UNL A   1      44.413  25.693  33.711  1.00  0.00     0.148 A 
ATOM     87  C   UNL A   1      47.151  25.469  33.168  1.00  0.00     0.002 A 
ATOM     88  C   UNL A   1      45.220  24.816  34.430  1.00  0.00     0.091 A 
ATOM     89  F   UNL A   1      43.086  25.627  33.869  1.00  0.00    -0.205 F 
ATOM     90  C   UNL A   1      46.577  24.663  34.135  1.00  0.00     0.022 A 
BRANCH  88  91
ATOM     91  S   UNL A   1      44.504  24.007  35.855  1.00  0.00     0.127 S 
ATOM     92  O   UNL A   1      43.504  23.134  35.246  1.00  0.00    -0.237 OA
ATOM     93  O   UNL A   1      45.644  23.348  36.483  1.00  0.00    -0.237 OA
ATOM     94  O   UNL A   1      43.945  25.116  36.629  1.00  0.00    -0.744 OA
ENDBRANCH  88  91
ENDBRANCH  61  84
ENDBRANCH  35  36
ENDBRANCH  27  30
ENDBRANCH  25  26
ENDBRANCH   1  25
TORSDOF 19
ENDMDL
MODEL 2
REMARK VINA RESULT:     -11.3      1.358      2.133
REMARK SMILES CSCC[C@@H](NS(=O)(=O)c1ccc(F)c(C)c1)C(=O)NCCCNC(=O)c1ccc(-c2c3nc(c(-c4cccc(S(=O)(=O)[O-])c4F)c4ccc([nH]4)c(-c4cccc(S(=O)(=O)[O-])c4F)c4nc(c(-c5cccc(S(=O)(=O)[O-])c5F)c5ccc2[nH]5)C=C4)C=C3)cc1
REMARK SMILES IDX 22 1 21 2 20 3 18 4 19 5 5 7 4 8 3 9 2 10 1 11 6 12 7 14
REMARK SMILES IDX 8 15 9 16 10 17 11 18 17 19 12 20 15 21 13 22 16 23 14 24
REMARK SMILES IDX 23 25 24 26 25 27 26 29 27 30 28 31 89 32 29 33 88 34 30 35
REMARK SMILES IDX 31 36 32 37 82 38 33 39 87 40 81 41 83 42 34 43 86 44 80 45
REMARK SMILES IDX 79 46 35 48 67 49 47 50 66 51 48 52 51 53 65 54 84 55 49 56
REMARK SMILES IDX 50 57 64 59 85 60 52 61 36 62 37 63 45 64 38 65 40 66 46 67
REMARK SMILES IDX 39 68 41 69 42 70 43 71 44 72 68 73 69 74 77 75 70 76 72 77
REMARK SMILES IDX 78 78 71 79 73 80 74 81 75 82 76 83 53 84 54 85 62 86 55 87
REMARK SMILES IDX 57 88 63 89 56 90 58 91 59 92 60 93 61 94
REMARK H PARENT 20 6 6 13 24 28 83 47 51 58
REMARK Flexibility Score: inf
ROOT
ATOM      1  C   UNL A   1      32.943  29.169  27.174  1.00  0.00     0.042 C 
ENDROOT
BRANCH   1   2
ATOM      2  C   UNL A   1      32.315  30.007  26.073  1.00  0.00     0.117 C 
BRANCH   2   3
ATOM      3  N   UNL A   1      33.050  29.842  24.828  1.00  0.00    -0.355 N 
ATOM      4  C   UNL A   1      32.834  28.957  23.810  1.00  0.00     0.238 C 
ATOM      5  O   UNL A   1      33.647  28.900  22.887  1.00  0.00    -0.273 OA
ATOM      6  H   UNL A   1      33.810  30.454  24.701  1.00  0.00     0.163 HD
BRANCH   4   7
ATOM      7  C   UNL A   1      31.610  28.055  23.846  1.00  0.00     0.159 C 
BRANCH   7   8
ATOM      8  C   UNL A   1      30.800  28.467  22.600  1.00  0.00     0.041 C 
BRANCH   8   9
ATOM      9  C   UNL A   1      29.310  28.723  22.743  1.00  0.00     0.071 C 
BRANCH   9  10
ATOM     10  S   UNL A   1      28.728  30.280  22.010  1.00  0.00    -0.165 SA
ATOM     11  C   UNL A   1      27.679  30.889  23.351  1.00  0.00     0.085 C 
ENDBRANCH   9  10
ENDBRANCH   8   9
ENDBRANCH   7   8
BRANCH   7  12
ATOM     12  N   UNL A   1      31.998  26.622  23.882  1.00  0.00    -0.199 NA
ATOM     13  H   UNL A   1      32.922  26.594  24.314  1.00  0.00     0.142 HD
BRANCH  12  14
ATOM     14  S   UNL A   1      31.091  25.435  24.658  1.00  0.00     0.241 S 
ATOM     15  O   UNL A   1      30.163  26.098  25.546  1.00  0.00    -0.207 OA
ATOM     16  O   UNL A   1      30.608  24.634  23.550  1.00  0.00    -0.207 OA
BRANCH  14  17
ATOM     17  C   UNL A   1      32.134  24.363  25.638  1.00  0.00     0.082 A 
ATOM     18  C   UNL A   1      31.636  23.656  26.729  1.00  0.00     0.025 A 
ATOM     19  C   UNL A   1      33.462  24.128  25.231  1.00  0.00     0.028 A 
ATOM     20  C   UNL A   1      32.459  22.819  27.486  1.00  0.00     0.041 A 
ATOM     21  C   UNL A   1      34.263  23.197  25.921  1.00  0.00    -0.014 A 
ATOM     22  C   UNL A   1      33.759  22.587  27.071  1.00  0.00     0.126 A 
ATOM     23  C   UNL A   1      35.618  22.777  25.435  1.00  0.00     0.047 C 
ATOM     24  F   UNL A   1      34.503  21.697  27.741  1.00  0.00    -0.207 F 
ENDBRANCH  14  17
ENDBRANCH  12  14
ENDBRANCH   7  12
ENDBRANCH   4   7
ENDBRANCH   2   3
ENDBRANCH   1   2
BRANCH   1  25
ATOM     25  C   UNL A   1      34.343  29.660  27.411  1.00  0.00     0.118 C 
BRANCH  25  26
ATOM     26  N   UNL A   1      34.329  30.971  28.057  1.00  0.00    -0.352 N 
ATOM     27  C   UNL A   1      35.096  31.351  29.143  1.00  0.00     0.251 C 
ATOM     28  H   UNL A   1      33.717  31.645  27.685  1.00  0.00     0.163 HD
ATOM     29  O   UNL A   1      34.750  32.223  29.910  1.00  0.00    -0.269 OA
BRANCH  27  30
ATOM     30  C   UNL A   1      36.356  30.617  29.311  1.00  0.00     0.039 A 
ATOM     31  C   UNL A   1      36.552  29.705  30.352  1.00  0.00     0.014 A 
ATOM     32  C   UNL A   1      37.333  30.862  28.352  1.00  0.00     0.014 A 
ATOM     33  C   UNL A   1      37.763  29.029  30.412  1.00  0.00     0.010 A 
ATOM     34  C   UNL A   1      38.391  30.024  28.262  1.00  0.00     0.010 A 
ATOM     35  C   UNL A   1      38.662  29.213  29.361  1.00  0.00    -0.014 A 
BRANCH  35  36
ATOM     36  C   UNL A   1      40.016  28.716  29.318  1.00  0.00     0.031 A 
ATOM     37  C   UNL A   1      40.230  27.317  28.958  1.00  0.00     0.074 A 
ATOM     38  C   UNL A   1      40.946  29.697  29.402  1.00  0.00     0.049 A 
ATOM     39  N   UNL A   1      41.242  26.625  29.325  1.00  0.00    -0.248 NA
ATOM     40  C   UNL A   1      39.261  26.530  28.189  1.00  0.00     0.031 C 
ATOM     41  C   UNL A   1      42.346  29.736  29.032  1.00  0.00     0.029 A 
ATOM     42  N   UNL A   1      40.732  30.952  29.979  1.00  0.00    -0.354 N 
ATOM     43  C   UNL A   1      41.279  25.524  28.499  1.00  0.00     0.074 A 
ATOM     44  C   UNL A   1      39.942  25.396  27.976  1.00  0.00     0.031 C 
ATOM     45  C   UNL A   1      42.927  30.789  29.644  1.00  0.00     0.029 A 
ATOM     46  C   UNL A   1      41.935  31.399  30.523  1.00  0.00     0.049 A 
ATOM     47  H   UNL A   1      39.877  31.439  29.997  1.00  0.00     0.167 HD
ATOM     48  C   UNL A   1      42.497  25.006  28.170  1.00  0.00     0.034 A 
ATOM     49  C   UNL A   1      42.005  31.487  31.887  1.00  0.00     0.034 A 
ATOM     50  C   UNL A   1      43.542  25.828  28.770  1.00  0.00     0.049 A 
ATOM     51  C   UNL A   1      42.877  30.370  32.408  1.00  0.00     0.074 A 
ATOM     52  C   UNL A   1      44.316  26.856  28.257  1.00  0.00     0.029 A 
ATOM     53  N   UNL A   1      43.616  25.924  30.149  1.00  0.00    -0.354 N 
ATOM     54  N   UNL A   1      43.000  29.206  31.823  1.00  0.00    -0.248 NA
ATOM     55  C   UNL A   1      43.764  30.525  33.555  1.00  0.00     0.031 C 
ATOM     56  C   UNL A   1      44.799  27.621  29.353  1.00  0.00     0.029 A 
ATOM     57  C   UNL A   1      44.303  27.062  30.518  1.00  0.00     0.049 A 
ATOM     58  H   UNL A   1      43.231  25.272  30.778  1.00  0.00     0.167 HD
ATOM     59  C   UNL A   1      44.032  28.521  32.409  1.00  0.00     0.074 A 
ATOM     60  C   UNL A   1      44.448  29.369  33.512  1.00  0.00     0.031 C 
ATOM     61  C   UNL A   1      44.518  27.340  31.928  1.00  0.00     0.034 A 
BRANCH  48  62
ATOM     62  C   UNL A   1      42.772  23.980  27.096  1.00  0.00     0.023 A 
ATOM     63  C   UNL A   1      43.554  24.250  25.953  1.00  0.00     0.012 A 
ATOM     64  C   UNL A   1      42.217  22.682  27.177  1.00  0.00     0.148 A 
ATOM     65  C   UNL A   1      43.823  23.270  24.984  1.00  0.00     0.002 A 
ATOM     66  C   UNL A   1      42.469  21.716  26.205  1.00  0.00     0.091 A 
ATOM     67  F   UNL A   1      41.421  22.348  28.202  1.00  0.00    -0.205 F 
ATOM     68  C   UNL A   1      43.280  21.999  25.107  1.00  0.00     0.022 A 
BRANCH  66  69
ATOM     69  S   UNL A   1      41.711  20.098  26.380  1.00  0.00     0.127 S 
ATOM     70  O   UNL A   1      42.252  19.362  25.243  1.00  0.00    -0.237 OA
ATOM     71  O   UNL A   1      42.144  19.672  27.707  1.00  0.00    -0.237 OA
ATOM     72  O   UNL A   1      40.280  20.387  26.283  1.00  0.00    -0.744 OA
ENDBRANCH  66  69
ENDBRANCH  48  62
BRANCH  49  73
ATOM     73  C   UNL A   1      40.701  31.975  32.470  1.00  0.00     0.023 A 
ATOM     74  C   UNL A   1      40.344  33.336  32.417  1.00  0.00     0.012 A 
ATOM     75  C   UNL A   1      40.146  31.181  33.506  1.00  0.00     0.148 A 
ATOM     76  C   UNL A   1      39.580  33.908  33.450  1.00  0.00     0.002 A 
ATOM     77  C   UNL A   1      39.464  31.775  34.568  1.00  0.00     0.091 A 
ATOM     78  F   UNL A   1      40.423  29.867  33.520  1.00  0.00    -0.205 F 
ATOM     79  C   UNL A   1      39.189  33.144  34.553  1.00  0.00     0.022 A 
BRANCH  77  80
ATOM     80  S   UNL A   1      39.206  30.823  36.076  1.00  0.00     0.127 S 
ATOM     81  O   UNL A   1      39.549  31.779  37.123  1.00  0.00    -0.237 OA
ATOM     82  O   UNL A   1      37.802  30.427  35.985  1.00  0.00    -0.237 OA
ATOM     83  O   UNL A   1      40.134  29.699  35.945  1.00  0.00    -0.744 OA
ENDBRANCH  77  80
ENDBRANCH  49  73
BRANCH  61  84
ATOM     84  C   UNL A   1      45.343  26.344  32.702  1.00  0.00     0.023 A 
ATOM     85  C   UNL A   1      46.754  26.344  32.521  1.00  0.00     0.012 A 
ATOM     86  C   UNL A   1      44.811  25.310  33.474  1.00  0.00     0.148 A 
ATOM     87  C   UNL A   1      47.579  25.351  33.046  1.00  0.00     0.002 A 
ATOM     88  C   UNL A   1      45.652  24.408  34.118  1.00  0.00     0.091 A 
ATOM     89  F   UNL A   1      43.487  25.131  33.556  1.00  0.00    -0.205 F 
ATOM     90  C   UNL A   1      47.028  24.390  33.876  1.00  0.00     0.022 A 
BRANCH  88  91
ATOM     91  S   UNL A   1      44.942  23.376  35.395  1.00  0.00     0.127 S 
ATOM     92  O   UNL A   1      46.118  22.700  35.936  1.00  0.00    -0.237 OA
ATOM     93  O   UNL A   1      44.281  24.331  36.278  1.00  0.00    -0.237 OA
ATOM     94  O   UNL A   1      44.030  22.503  34.656  1.00  0.00    -0.744 OA
ENDBRANCH  88  91
ENDBRANCH  61  84
ENDBRANCH  35  36
ENDBRANCH  27  30
ENDBRANCH  25  26
ENDBRANCH   1  25
TORSDOF 19
ENDMDL
MODEL 3
REMARK VINA RESULT:     -11.2      2.430      3.268
REMARK SMILES CSCC[C@@H](NS(=O)(=O)c1ccc(F)c(C)c1)C(=O)NCCCNC(=O)c1ccc(-c2c3nc(c(-c4cccc(S(=O)(=O)[O-])c4F)c4ccc([nH]4)c(-c4cccc(S(=O)(=O)[O-])c4F)c4nc(c(-c5cccc(S(=O)(=O)[O-])c5F)c5ccc2[nH]5)C=C4)C=C3)cc1
REMARK SMILES IDX 22 1 21 2 20 3 18 4 19 5 5 7 4 8 3 9 2 10 1 11 6 12 7 14
REMARK SMILES IDX 8 15 9 16 10 17 11 18 17 19 12 20 15 21 13 22 16 23 14 24
REMARK SMILES IDX 23 25 24 26 25 27 26 29 27 30 28 31 89 32 29 33 88 34 30 35
REMARK SMILES IDX 31 36 32 37 82 38 33 39 87 40 81 41 83 42 34 43 86 44 80 45
REMARK SMILES IDX 79 46 35 48 67 49 47 50 66 51 48 52 51 53 65 54 84 55 49 56
REMARK SMILES IDX 50 57 64 59 85 60 52 61 36 62 37 63 45 64 38 65 40 66 46 67
REMARK SMILES IDX 39 68 41 69 42 70 43 71 44 72 68 73 69 74 77 75 70 76 72 77
REMARK SMILES IDX 78 78 71 79 73 80 74 81 75 82 76 83 53 84 54 85 62 86 55 87
REMARK SMILES IDX 57 88 63 89 56 90 58 91 59 92 60 93 61 94
REMARK H PARENT 20 6 6 13 24 28 83 47 51 58
REMARK Flexibility Score: inf
ROOT
ATOM      1  C   UNL A   1      33.136  29.101  27.116  1.00  0.00     0.042 C 
ENDROOT
BRANCH   1   2
ATOM      2  C   UNL A   1      32.121  29.679  26.143  1.00  0.00     0.117 C 
BRANCH   2   3
ATOM      3  N   UNL A   1      32.647  29.650  24.786  1.00  0.00    -0.355 N 
ATOM      4  C   UNL A   1      32.215  28.928  23.710  1.00  0.00     0.238 C 
ATOM      5  O   UNL A   1      32.873  28.957  22.669  1.00  0.00    -0.273 OA
ATOM      6  H   UNL A   1      33.423  30.231  24.621  1.00  0.00     0.163 HD
BRANCH   4   7
ATOM      7  C   UNL A   1      30.945  28.099  23.822  1.00  0.00     0.159 C 
BRANCH   7   8
ATOM      8  C   UNL A   1      29.976  28.751  22.815  1.00  0.00     0.041 C 
BRANCH   8   9
ATOM      9  C   UNL A   1      29.421  30.132  23.116  1.00  0.00     0.071 C 
BRANCH   9  10
ATOM     10  S   UNL A   1      28.027  30.640  22.069  1.00  0.00    -0.165 SA
ATOM     11  C   UNL A   1      28.391  32.402  21.889  1.00  0.00     0.085 C 
ENDBRANCH   9  10
ENDBRANCH   8   9
ENDBRANCH   7   8
BRANCH   7  12
ATOM     12  N   UNL A   1      31.218  26.660  23.572  1.00  0.00    -0.199 NA
ATOM     13  H   UNL A   1      32.196  26.608  23.288  1.00  0.00     0.142 HD
BRANCH  12  14
ATOM     14  S   UNL A   1      31.011  25.462  24.736  1.00  0.00     0.241 S 
ATOM     15  O   UNL A   1      30.422  26.076  25.904  1.00  0.00    -0.207 OA
ATOM     16  O   UNL A   1      30.298  24.433  24.005  1.00  0.00    -0.207 OA
BRANCH  14  17
ATOM     17  C   UNL A   1      32.580  24.747  25.210  1.00  0.00     0.082 A 
ATOM     18  C   UNL A   1      33.791  25.327  24.841  1.00  0.00     0.025 A 
ATOM     19  C   UNL A   1      32.601  23.639  26.080  1.00  0.00     0.028 A 
ATOM     20  C   UNL A   1      35.010  24.762  25.220  1.00  0.00     0.041 A 
ATOM     21  C   UNL A   1      33.827  23.134  26.559  1.00  0.00    -0.014 A 
ATOM     22  C   UNL A   1      35.019  23.680  26.083  1.00  0.00     0.126 A 
ATOM     23  C   UNL A   1      33.907  22.073  27.617  1.00  0.00     0.047 C 
ATOM     24  F   UNL A   1      36.195  23.217  26.527  1.00  0.00    -0.207 F 
ENDBRANCH  14  17
ENDBRANCH  12  14
ENDBRANCH   7  12
ENDBRANCH   4   7
ENDBRANCH   2   3
ENDBRANCH   1   2
BRANCH   1  25
ATOM     25  C   UNL A   1      34.450  29.801  26.913  1.00  0.00     0.118 C 
BRANCH  25  26
ATOM     26  N   UNL A   1      34.397  31.164  27.439  1.00  0.00    -0.352 N 
ATOM     27  C   UNL A   1      35.066  31.633  28.553  1.00  0.00     0.251 C 
ATOM     28  H   UNL A   1      33.830  31.807  26.954  1.00  0.00     0.163 HD
ATOM     29  O   UNL A   1      34.666  32.570  29.206  1.00  0.00    -0.269 OA
BRANCH  27  30
ATOM     30  C   UNL A   1      36.295  30.907  28.900  1.00  0.00     0.039 A 
ATOM     31  C   UNL A   1      36.278  29.577  29.326  1.00  0.00     0.014 A 
ATOM     32  C   UNL A   1      37.482  31.617  28.747  1.00  0.00     0.014 A 
ATOM     33  C   UNL A   1      37.491  28.959  29.597  1.00  0.00     0.010 A 
ATOM     34  C   UNL A   1      38.656  30.946  28.758  1.00  0.00     0.010 A 
ATOM     35  C   UNL A   1      38.658  29.668  29.311  1.00  0.00    -0.014 A 
BRANCH  35  36
ATOM     36  C   UNL A   1      39.997  29.254  29.657  1.00  0.00     0.031 A 
ATOM     37  C   UNL A   1      40.600  28.156  28.905  1.00  0.00     0.074 A 
ATOM     38  C   UNL A   1      40.615  30.109  30.506  1.00  0.00     0.049 A 
ATOM     39  N   UNL A   1      41.512  27.385  29.364  1.00  0.00    -0.248 NA
ATOM     40  C   UNL A   1      40.167  27.775  27.557  1.00  0.00     0.031 C 
ATOM     41  C   UNL A   1      42.014  30.321  30.814  1.00  0.00     0.029 A 
ATOM     42  N   UNL A   1      39.959  30.983  31.378  1.00  0.00    -0.354 N 
ATOM     43  C   UNL A   1      42.073  26.757  28.274  1.00  0.00     0.074 A 
ATOM     44  C   UNL A   1      41.085  26.856  27.228  1.00  0.00     0.031 C 
ATOM     45  C   UNL A   1      42.103  31.007  31.974  1.00  0.00     0.029 A 
ATOM     46  C   UNL A   1      40.754  31.159  32.508  1.00  0.00     0.049 A 
ATOM     47  H   UNL A   1      39.083  31.403  31.220  1.00  0.00     0.167 HD
ATOM     48  C   UNL A   1      43.400  26.448  28.320  1.00  0.00     0.034 A 
ATOM     49  C   UNL A   1      40.285  30.642  33.685  1.00  0.00     0.034 A 
ATOM     50  C   UNL A   1      43.959  26.936  29.576  1.00  0.00     0.049 A 
ATOM     51  C   UNL A   1      41.096  29.419  34.043  1.00  0.00     0.074 A 
ATOM     52  C   UNL A   1      44.653  28.094  29.890  1.00  0.00     0.029 A 
ATOM     53  N   UNL A   1      43.486  26.420  30.771  1.00  0.00    -0.354 N 
ATOM     54  N   UNL A   1      41.655  28.630  33.161  1.00  0.00    -0.248 NA
ATOM     55  C   UNL A   1      41.434  29.066  35.416  1.00  0.00     0.031 C 
ATOM     56  C   UNL A   1      44.526  28.306  31.290  1.00  0.00     0.029 A 
ATOM     57  C   UNL A   1      43.745  27.288  31.810  1.00  0.00     0.049 A 
ATOM     58  H   UNL A   1      43.027  25.554  30.864  1.00  0.00     0.167 HD
ATOM     59  C   UNL A   1      42.502  27.769  33.809  1.00  0.00     0.074 A 
ATOM     60  C   UNL A   1      42.295  28.053  35.218  1.00  0.00     0.031 C 
ATOM     61  C   UNL A   1      43.354  26.923  33.160  1.00  0.00     0.034 A 
BRANCH  48  62
ATOM     62  C   UNL A   1      44.255  26.000  27.159  1.00  0.00     0.023 A 
ATOM     63  C   UNL A   1      45.286  26.791  26.608  1.00  0.00     0.012 A 
ATOM     64  C   UNL A   1      44.033  24.749  26.538  1.00  0.00     0.148 A 
ATOM     65  C   UNL A   1      46.089  26.339  25.549  1.00  0.00     0.002 A 
ATOM     66  C   UNL A   1      44.818  24.310  25.475  1.00  0.00     0.091 A 
ATOM     67  F   UNL A   1      43.045  23.950  26.961  1.00  0.00    -0.205 F 
ATOM     68  C   UNL A   1      45.857  25.095  24.978  1.00  0.00     0.022 A 
BRANCH  66  69
ATOM     69  S   UNL A   1      44.456  22.713  24.737  1.00  0.00     0.127 S 
ATOM     70  O   UNL A   1      45.290  22.712  23.540  1.00  0.00    -0.237 OA
ATOM     71  O   UNL A   1      44.816  21.772  25.792  1.00  0.00    -0.237 OA
ATOM     72  O   UNL A   1      43.019  22.788  24.468  1.00  0.00    -0.744 OA
ENDBRANCH  66  69
ENDBRANCH  48  62
BRANCH  49  73
ATOM     73  C   UNL A   1      38.790  30.811  33.797  1.00  0.00     0.023 A 
ATOM     74  C   UNL A   1      37.907  29.840  33.287  1.00  0.00     0.012 A 
ATOM     75  C   UNL A   1      38.320  32.144  33.908  1.00  0.00     0.148 A 
ATOM     76  C   UNL A   1      36.656  30.221  32.770  1.00  0.00     0.002 A 
ATOM     77  C   UNL A   1      37.116  32.525  33.315  1.00  0.00     0.091 A 
ATOM     78  F   UNL A   1      39.130  33.062  34.461  1.00  0.00    -0.205 F 
ATOM     79  C   UNL A   1      36.284  31.569  32.730  1.00  0.00     0.022 A 
BRANCH  77  80
ATOM     80  S   UNL A   1      36.793  34.278  33.053  1.00  0.00     0.127 S 
ATOM     81  O   UNL A   1      38.004  34.731  32.376  1.00  0.00    -0.237 OA
ATOM     82  O   UNL A   1      35.564  34.277  32.263  1.00  0.00    -0.237 OA
ATOM     83  O   UNL A   1      36.611  34.808  34.404  1.00  0.00    -0.744 OA
ENDBRANCH  77  80
ENDBRANCH  49  73
BRANCH  61  84
ATOM     84  C   UNL A   1      44.002  25.698  33.752  1.00  0.00     0.023 A 
ATOM     85  C   UNL A   1      43.184  24.578  34.063  1.00  0.00     0.012 A 
ATOM     86  C   UNL A   1      45.334  25.633  34.164  1.00  0.00     0.148 A 
ATOM     87  C   UNL A   1      43.654  23.478  34.776  1.00  0.00     0.002 A 
ATOM     88  C   UNL A   1      45.836  24.472  34.743  1.00  0.00     0.091 A 
ATOM     89  F   UNL A   1      46.131  26.705  34.069  1.00  0.00    -0.205 F 
ATOM     90  C   UNL A   1      44.999  23.410  35.095  1.00  0.00     0.022 A 
BRANCH  88  91
ATOM     91  S   UNL A   1      47.612  24.310  34.875  1.00  0.00     0.127 S 
ATOM     92  O   UNL A   1      47.776  22.877  35.105  1.00  0.00    -0.237 OA
ATOM     93  O   UNL A   1      48.098  24.821  33.598  1.00  0.00    -0.237 OA
ATOM     94  O   UNL A   1      47.944  25.147  36.027  1.00  0.00    -0.744 OA
ENDBRANCH  88  91
ENDBRANCH  61  84
ENDBRANCH  35  36
ENDBRANCH  27  30
ENDBRANCH  25  26
ENDBRANCH   1  25
TORSDOF 19
ENDMDL
