MODEL 1
REMARK VINA RESULT:     -11.9      0.000      0.000
REMARK SMILES CN(CC(N)=O)S(=O)(=O)c1ccc(C(=O)NCCCNC(=O)c2ccc(-c3c4nc(c(-c5cccc(S(=O)(=O)[O-])c5F)c5ccc([nH]5)c(-c5cccc(S(=O)(=O)[O-])c5F)c5nc(c(-c6cccc(S(=O)(=O)[O-])c6F)c6ccc3[nH]6)C=C5)C=C4)cc2)cc1Br
REMARK SMILES IDX 17 1 16 2 14 3 15 4 13 6 10 7 11 8 87 9 12 10 86 11 88 12
REMARK SMILES IDX 7 13 8 14 9 15 2 16 1 17 3 18 4 19 5 20 6 21 18 24 19 25
REMARK SMILES IDX 20 26 21 27 22 29 23 30 24 31 85 32 25 33 84 34 26 35 27 36
REMARK SMILES IDX 28 37 78 38 29 39 83 40 77 41 79 42 30 43 82 44 76 45 75 46
REMARK SMILES IDX 31 48 63 49 43 50 62 51 44 52 47 53 61 54 80 55 45 56 46 57
REMARK SMILES IDX 60 59 81 60 48 61 32 62 33 63 41 64 34 65 36 66 42 67 35 68
REMARK SMILES IDX 37 69 38 70 39 71 40 72 64 73 65 74 73 75 66 76 68 77 74 78
REMARK SMILES IDX 67 79 69 80 70 81 71 82 72 83 49 84 50 85 58 86 51 87 53 88
REMARK SMILES IDX 59 89 52 90 54 91 55 92 56 93 57 94
REMARK H PARENT 16 5 5 22 5 23 20 28 79 47 47 58
REMARK Flexibility Score: inf
ROOT
ATOM      1  C   UNL A   1      32.065  28.051  23.208  1.00  0.00     0.118 C 
ENDROOT
BRANCH   1   2
ATOM      2  N   UNL A   1      32.591  27.425  22.008  1.00  0.00    -0.352 N 
ATOM      3  C   UNL A   1      32.958  26.138  21.708  1.00  0.00     0.251 C 
ATOM      4  O   UNL A   1      33.268  25.901  20.540  1.00  0.00    -0.269 OA
ATOM      5  H   UNL A   1      32.709  28.051  21.258  1.00  0.00     0.163 HD
BRANCH   3   6
ATOM      6  C   UNL A   1      32.949  25.010  22.687  1.00  0.00     0.041 A 
ATOM      7  C   UNL A   1      33.013  22.755  24.387  1.00  0.00     0.096 A 
ATOM      8  C   UNL A   1      33.862  22.826  23.278  1.00  0.00     0.024 A 
ATOM      9  C   UNL A   1      32.203  23.849  24.699  1.00  0.00     0.038 A 
ATOM     10  C   UNL A   1      33.809  23.933  22.426  1.00  0.00     0.015 A 
ATOM     11  C   UNL A   1      32.195  24.975  23.860  1.00  0.00     0.031 A 
ATOM     12  Br  UNL A   1      31.109  23.971  26.250  1.00  0.00    -0.049 Br
BRANCH   7  13
ATOM     13  S   UNL A   1      32.980  21.285  25.380  1.00  0.00     0.244 S 
ATOM     14  O   UNL A   1      31.643  20.734  25.322  1.00  0.00    -0.207 OA
ATOM     15  O   UNL A   1      33.616  21.621  26.633  1.00  0.00    -0.207 OA
BRANCH  13  16
ATOM     16  N   UNL A   1      33.994  20.150  24.582  1.00  0.00    -0.192 NA
ATOM     17  C   UNL A   1      35.415  20.304  25.003  1.00  0.00     0.125 C 
BRANCH  16  18
ATOM     18  C   UNL A   1      33.576  18.720  24.608  1.00  0.00     0.201 C 
BRANCH  18  19
ATOM     19  C   UNL A   1      32.860  18.179  23.386  1.00  0.00     0.232 C 
ATOM     20  N   UNL A   1      32.209  19.106  22.620  1.00  0.00    -0.369 N 
ATOM     21  O   UNL A   1      32.881  16.994  23.063  1.00  0.00    -0.274 OA
ATOM     22  H   UNL A   1      32.202  20.052  22.892  1.00  0.00     0.159 HD
ATOM     23  H   UNL A   1      31.746  18.828  21.797  1.00  0.00     0.159 HD
ENDBRANCH  18  19
ENDBRANCH  16  18
ENDBRANCH  13  16
ENDBRANCH   7  13
ENDBRANCH   3   6
ENDBRANCH   1   2
BRANCH   1  24
ATOM     24  C   UNL A   1      33.102  28.953  23.879  1.00  0.00     0.042 C 
BRANCH  24  25
ATOM     25  C   UNL A   1      32.913  29.085  25.388  1.00  0.00     0.118 C 
BRANCH  25  26
ATOM     26  N   UNL A   1      32.599  30.453  25.780  1.00  0.00    -0.352 N 
ATOM     27  C   UNL A   1      33.108  31.219  26.800  1.00  0.00     0.251 C 
ATOM     28  H   UNL A   1      31.914  30.897  25.229  1.00  0.00     0.163 HD
ATOM     29  O   UNL A   1      32.542  32.268  27.098  1.00  0.00    -0.269 OA
BRANCH  27  30
ATOM     30  C   UNL A   1      34.320  30.798  27.538  1.00  0.00     0.039 A 
ATOM     31  C   UNL A   1      35.331  31.737  27.766  1.00  0.00     0.014 A 
ATOM     32  C   UNL A   1      34.492  29.475  27.956  1.00  0.00     0.014 A 
ATOM     33  C   UNL A   1      36.491  31.362  28.451  1.00  0.00     0.010 A 
ATOM     34  C   UNL A   1      35.617  29.120  28.696  1.00  0.00     0.010 A 
ATOM     35  C   UNL A   1      36.633  30.055  28.942  1.00  0.00    -0.014 A 
BRANCH  35  36
ATOM     36  C   UNL A   1      37.833  29.643  29.716  1.00  0.00     0.031 A 
ATOM     37  C   UNL A   1      38.084  30.214  31.086  1.00  0.00     0.074 A 
ATOM     38  C   UNL A   1      38.746  28.832  29.147  1.00  0.00     0.049 A 
ATOM     39  N   UNL A   1      39.113  30.046  31.874  1.00  0.00    -0.248 NA
ATOM     40  C   UNL A   1      37.054  31.115  31.632  1.00  0.00     0.031 C 
ATOM     41  C   UNL A   1      38.654  28.274  27.796  1.00  0.00     0.029 A 
ATOM     42  N   UNL A   1      39.947  28.364  29.618  1.00  0.00    -0.354 N 
ATOM     43  C   UNL A   1      38.880  30.850  32.985  1.00  0.00     0.074 A 
ATOM     44  C   UNL A   1      37.621  31.526  32.756  1.00  0.00     0.031 C 
ATOM     45  C   UNL A   1      39.753  27.544  27.546  1.00  0.00     0.029 A 
ATOM     46  C   UNL A   1      40.638  27.603  28.704  1.00  0.00     0.049 A 
ATOM     47  H   UNL A   1      40.281  28.554  30.524  1.00  0.00     0.167 HD
ATOM     48  C   UNL A   1      39.629  30.992  34.103  1.00  0.00     0.034 A 
ATOM     49  C   UNL A   1      41.853  27.025  28.786  1.00  0.00     0.034 A 
ATOM     50  C   UNL A   1      40.851  30.276  34.350  1.00  0.00     0.049 A 
ATOM     51  C   UNL A   1      42.639  27.153  30.062  1.00  0.00     0.074 A 
ATOM     52  C   UNL A   1      41.634  30.277  35.491  1.00  0.00     0.029 A 
ATOM     53  N   UNL A   1      41.469  29.429  33.441  1.00  0.00    -0.354 N 
ATOM     54  N   UNL A   1      42.325  27.791  31.163  1.00  0.00    -0.248 NA
ATOM     55  C   UNL A   1      43.930  26.451  30.123  1.00  0.00     0.031 C 
ATOM     56  C   UNL A   1      42.734  29.441  35.266  1.00  0.00     0.029 A 
ATOM     57  C   UNL A   1      42.625  28.906  33.993  1.00  0.00     0.049 A 
ATOM     58  H   UNL A   1      41.134  29.231  32.538  1.00  0.00     0.167 HD
ATOM     59  C   UNL A   1      43.358  27.540  32.058  1.00  0.00     0.074 A 
ATOM     60  C   UNL A   1      44.299  26.675  31.377  1.00  0.00     0.031 C 
ATOM     61  C   UNL A   1      43.521  27.997  33.324  1.00  0.00     0.034 A 
BRANCH  48  62
ATOM     62  C   UNL A   1      39.115  31.914  35.179  1.00  0.00     0.023 A 
ATOM     63  C   UNL A   1      39.210  33.309  35.000  1.00  0.00     0.012 A 
ATOM     64  C   UNL A   1      38.488  31.407  36.335  1.00  0.00     0.148 A 
ATOM     65  C   UNL A   1      38.720  34.186  35.967  1.00  0.00     0.002 A 
ATOM     66  C   UNL A   1      37.965  32.289  37.276  1.00  0.00     0.091 A 
ATOM     67  F   UNL A   1      38.424  30.078  36.501  1.00  0.00    -0.205 F 
ATOM     68  C   UNL A   1      38.090  33.677  37.099  1.00  0.00     0.022 A 
BRANCH  66  69
ATOM     69  S   UNL A   1      37.067  31.733  38.730  1.00  0.00     0.127 S 
ATOM     70  O   UNL A   1      36.825  30.327  38.408  1.00  0.00    -0.237 OA
ATOM     71  O   UNL A   1      38.042  31.954  39.798  1.00  0.00    -0.237 OA
ATOM     72  O   UNL A   1      35.879  32.572  38.811  1.00  0.00    -0.744 OA
ENDBRANCH  66  69
ENDBRANCH  48  62
BRANCH  49  73
ATOM     73  C   UNL A   1      42.364  26.209  27.649  1.00  0.00     0.023 A 
ATOM     74  C   UNL A   1      43.269  26.787  26.738  1.00  0.00     0.012 A 
ATOM     75  C   UNL A   1      41.993  24.860  27.486  1.00  0.00     0.148 A 
ATOM     76  C   UNL A   1      43.773  26.047  25.668  1.00  0.00     0.002 A 
ATOM     77  C   UNL A   1      42.541  24.113  26.449  1.00  0.00     0.091 A 
ATOM     78  F   UNL A   1      41.120  24.330  28.355  1.00  0.00    -0.205 F 
ATOM     79  C   UNL A   1      43.419  24.709  25.530  1.00  0.00     0.022 A 
BRANCH  77  80
ATOM     80  S   UNL A   1      42.244  22.349  26.276  1.00  0.00     0.127 S 
ATOM     81  O   UNL A   1      42.806  21.828  27.518  1.00  0.00    -0.237 OA
ATOM     82  O   UNL A   1      40.784  22.294  26.187  1.00  0.00    -0.237 OA
ATOM     83  O   UNL A   1      42.931  21.958  25.052  1.00  0.00    -0.744 OA
ENDBRANCH  77  80
ENDBRANCH  49  73
BRANCH  61  84
ATOM     84  C   UNL A   1      44.744  27.548  34.078  1.00  0.00     0.023 A 
ATOM     85  C   UNL A   1      45.906  28.344  34.061  1.00  0.00     0.012 A 
ATOM     86  C   UNL A   1      44.713  26.382  34.869  1.00  0.00     0.148 A 
ATOM     87  C   UNL A   1      47.029  27.972  34.799  1.00  0.00     0.002 A 
ATOM     88  C   UNL A   1      45.821  26.043  35.638  1.00  0.00     0.091 A 
ATOM     89  F   UNL A   1      43.605  25.628  34.854  1.00  0.00    -0.205 F 
ATOM     90  C   UNL A   1      46.982  26.831  35.596  1.00  0.00     0.022 A 
BRANCH  88  91
ATOM     91  S   UNL A   1      45.814  24.644  36.765  1.00  0.00     0.127 S 
ATOM     92  O   UNL A   1      44.680  24.964  37.631  1.00  0.00    -0.237 OA
ATOM     93  O   UNL A   1      45.592  23.516  35.861  1.00  0.00    -0.237 OA
ATOM     94  O   UNL A   1      47.118  24.648  37.414  1.00  0.00    -0.744 OA
ENDBRANCH  88  91
ENDBRANCH  61  84
ENDBRANCH  35  36
ENDBRANCH  27  30
ENDBRANCH  25  26
ENDBRANCH  24  25
ENDBRANCH   1  24
TORSDOF 17
ENDMDL
MODEL 2
REMARK VINA RESULT:     -11.8      5.570      8.811
REMARK SMILES CN(CC(N)=O)S(=O)(=O)c1ccc(C(=O)NCCCNC(=O)c2ccc(-c3c4nc(c(-c5cccc(S(=O)(=O)[O-])c5F)c5ccc([nH]5)c(-c5cccc(S(=O)(=O)[O-])c5F)c5nc(c(-c6cccc(S(=O)(=O)[O-])c6F)c6ccc3[nH]6)C=C5)C=C4)cc2)cc1Br
REMARK SMILES IDX 17 1 16 2 14 3 15 4 13 6 10 7 11 8 87 9 12 10 86 11 88 12
REMARK SMILES IDX 7 13 8 14 9 15 2 16 1 17 3 18 4 19 5 20 6 21 18 24 19 25
REMARK SMILES IDX 20 26 21 27 22 29 23 30 24 31 85 32 25 33 84 34 26 35 27 36
REMARK SMILES IDX 28 37 78 38 29 39 83 40 77 41 79 42 30 43 82 44 76 45 75 46
REMARK SMILES IDX 31 48 63 49 43 50 62 51 44 52 47 53 61 54 80 55 45 56 46 57
REMARK SMILES IDX 60 59 81 60 48 61 32 62 33 63 41 64 34 65 36 66 42 67 35 68
REMARK SMILES IDX 37 69 38 70 39 71 40 72 64 73 65 74 73 75 66 76 68 77 74 78
REMARK SMILES IDX 67 79 69 80 70 81 71 82 72 83 49 84 50 85 58 86 51 87 53 88
REMARK SMILES IDX 59 89 52 90 54 91 55 92 56 93 57 94
REMARK H PARENT 16 5 5 22 5 23 20 28 79 47 47 58
REMARK Flexibility Score: inf
ROOT
ATOM      1  C   UNL A   1      36.859  20.534  24.646  1.00  0.00     0.118 C 
ENDROOT
BRANCH   1   2
ATOM      2  N   UNL A   1      35.550  20.020  25.007  1.00  0.00    -0.352 N 
ATOM      3  C   UNL A   1      34.318  20.606  25.144  1.00  0.00     0.251 C 
ATOM      4  O   UNL A   1      33.361  19.860  25.358  1.00  0.00    -0.269 OA
ATOM      5  H   UNL A   1      35.546  19.053  25.192  1.00  0.00     0.163 HD
BRANCH   3   6
ATOM      6  C   UNL A   1      34.062  22.070  24.994  1.00  0.00     0.041 A 
ATOM      7  C   UNL A   1      33.562  24.849  24.921  1.00  0.00     0.096 A 
ATOM      8  C   UNL A   1      34.079  24.256  26.078  1.00  0.00     0.024 A 
ATOM      9  C   UNL A   1      33.386  24.072  23.775  1.00  0.00     0.038 A 
ATOM     10  C   UNL A   1      34.301  22.876  26.117  1.00  0.00     0.015 A 
ATOM     11  C   UNL A   1      33.659  22.695  23.814  1.00  0.00     0.031 A 
ATOM     12  Br  UNL A   1      32.839  24.754  22.086  1.00  0.00    -0.049 Br
BRANCH   7  13
ATOM     13  S   UNL A   1      33.143  26.574  24.926  1.00  0.00     0.244 S 
ATOM     14  O   UNL A   1      33.776  27.193  23.782  1.00  0.00    -0.207 OA
ATOM     15  O   UNL A   1      33.365  27.046  26.274  1.00  0.00    -0.207 OA
BRANCH  13  16
ATOM     16  N   UNL A   1      31.451  26.653  24.632  1.00  0.00    -0.192 NA
ATOM     17  C   UNL A   1      30.686  25.903  25.667  1.00  0.00     0.125 C 
BRANCH  16  18
ATOM     18  C   UNL A   1      30.860  28.000  24.393  1.00  0.00     0.201 C 
BRANCH  18  19
ATOM     19  C   UNL A   1      30.351  28.303  22.998  1.00  0.00     0.232 C 
ATOM     20  N   UNL A   1      31.303  28.357  22.017  1.00  0.00    -0.369 N 
ATOM     21  O   UNL A   1      29.162  28.457  22.734  1.00  0.00    -0.274 OA
ATOM     22  H   UNL A   1      32.252  28.231  22.245  1.00  0.00     0.159 HD
ATOM     23  H   UNL A   1      31.039  28.522  21.083  1.00  0.00     0.159 HD
ENDBRANCH  18  19
ENDBRANCH  16  18
ENDBRANCH  13  16
ENDBRANCH   7  13
ENDBRANCH   3   6
ENDBRANCH   1   2
BRANCH   1  24
ATOM     24  C   UNL A   1      37.968  19.526  24.946  1.00  0.00     0.042 C 
BRANCH  24  25
ATOM     25  C   UNL A   1      38.980  20.019  25.979  1.00  0.00     0.118 C 
BRANCH  25  26
ATOM     26  N   UNL A   1      40.173  19.183  26.013  1.00  0.00    -0.352 N 
ATOM     27  C   UNL A   1      41.498  19.538  26.081  1.00  0.00     0.251 C 
ATOM     28  H   UNL A   1      40.003  18.214  25.982  1.00  0.00     0.163 HD
ATOM     29  O   UNL A   1      42.356  18.683  25.869  1.00  0.00    -0.269 OA
BRANCH  27  30
ATOM     30  C   UNL A   1      41.901  20.925  26.403  1.00  0.00     0.039 A 
ATOM     31  C   UNL A   1      42.211  21.247  27.728  1.00  0.00     0.014 A 
ATOM     32  C   UNL A   1      41.920  21.921  25.422  1.00  0.00     0.014 A 
ATOM     33  C   UNL A   1      42.584  22.554  28.060  1.00  0.00     0.010 A 
ATOM     34  C   UNL A   1      42.355  23.205  25.743  1.00  0.00     0.010 A 
ATOM     35  C   UNL A   1      42.681  23.538  27.065  1.00  0.00    -0.014 A 
BRANCH  35  36
ATOM     36  C   UNL A   1      43.122  24.922  27.382  1.00  0.00     0.031 A 
ATOM     37  C   UNL A   1      42.168  25.892  28.024  1.00  0.00     0.074 A 
ATOM     38  C   UNL A   1      44.348  25.333  27.002  1.00  0.00     0.049 A 
ATOM     39  N   UNL A   1      42.338  27.160  28.294  1.00  0.00    -0.248 NA
ATOM     40  C   UNL A   1      40.836  25.377  28.387  1.00  0.00     0.031 C 
ATOM     41  C   UNL A   1      45.336  24.508  26.303  1.00  0.00     0.029 A 
ATOM     42  N   UNL A   1      44.958  26.556  27.117  1.00  0.00    -0.354 N 
ATOM     43  C   UNL A   1      41.128  27.606  28.815  1.00  0.00     0.074 A 
ATOM     44  C   UNL A   1      40.222  26.477  28.799  1.00  0.00     0.031 C 
ATOM     45  C   UNL A   1      46.425  25.250  26.049  1.00  0.00     0.029 A 
ATOM     46  C   UNL A   1      46.206  26.606  26.540  1.00  0.00     0.049 A 
ATOM     47  H   UNL A   1      44.543  27.324  27.571  1.00  0.00     0.167 HD
ATOM     48  C   UNL A   1      40.807  28.833  29.288  1.00  0.00     0.034 A 
ATOM     49  C   UNL A   1      47.071  27.631  26.411  1.00  0.00     0.034 A 
ATOM     50  C   UNL A   1      41.727  29.937  29.352  1.00  0.00     0.049 A 
ATOM     51  C   UNL A   1      46.712  28.970  26.997  1.00  0.00     0.074 A 
ATOM     52  C   UNL A   1      41.529  31.191  29.902  1.00  0.00     0.029 A 
ATOM     53  N   UNL A   1      43.020  29.918  28.853  1.00  0.00    -0.354 N 
ATOM     54  N   UNL A   1      45.619  29.326  27.628  1.00  0.00    -0.248 NA
ATOM     55  C   UNL A   1      47.716  30.037  26.886  1.00  0.00     0.031 C 
ATOM     56  C   UNL A   1      42.699  31.937  29.721  1.00  0.00     0.029 A 
ATOM     57  C   UNL A   1      43.631  31.140  29.075  1.00  0.00     0.049 A 
ATOM     58  H   UNL A   1      43.441  29.150  28.405  1.00  0.00     0.167 HD
ATOM     59  C   UNL A   1      45.818  30.644  28.020  1.00  0.00     0.074 A 
ATOM     60  C   UNL A   1      47.144  31.017  27.572  1.00  0.00     0.031 C 
ATOM     61  C   UNL A   1      44.974  31.477  28.678  1.00  0.00     0.034 A 
BRANCH  48  62
ATOM     62  C   UNL A   1      39.416  29.033  29.835  1.00  0.00     0.023 A 
ATOM     63  C   UNL A   1      39.138  28.671  31.168  1.00  0.00     0.012 A 
ATOM     64  C   UNL A   1      38.406  29.630  29.056  1.00  0.00     0.148 A 
ATOM     65  C   UNL A   1      37.868  28.867  31.708  1.00  0.00     0.002 A 
ATOM     66  C   UNL A   1      37.153  29.861  29.615  1.00  0.00     0.091 A 
ATOM     67  F   UNL A   1      38.681  29.950  27.783  1.00  0.00    -0.205 F 
ATOM     68  C   UNL A   1      36.879  29.470  30.936  1.00  0.00     0.022 A 
BRANCH  66  69
ATOM     69  S   UNL A   1      35.836  30.702  28.727  1.00  0.00     0.127 S 
ATOM     70  O   UNL A   1      35.106  29.576  28.147  1.00  0.00    -0.237 OA
ATOM     71  O   UNL A   1      35.130  31.395  29.805  1.00  0.00    -0.237 OA
ATOM     72  O   UNL A   1      36.496  31.581  27.772  1.00  0.00    -0.744 OA
ENDBRANCH  66  69
ENDBRANCH  48  62
BRANCH  49  73
ATOM     73  C   UNL A   1      48.395  27.407  25.766  1.00  0.00     0.023 A 
ATOM     74  C   UNL A   1      49.488  27.003  26.557  1.00  0.00     0.012 A 
ATOM     75  C   UNL A   1      48.570  27.554  24.376  1.00  0.00     0.148 A 
ATOM     76  C   UNL A   1      50.738  26.776  25.982  1.00  0.00     0.002 A 
ATOM     77  C   UNL A   1      49.805  27.274  23.802  1.00  0.00     0.091 A 
ATOM     78  F   UNL A   1      47.523  27.953  23.641  1.00  0.00    -0.205 F 
ATOM     79  C   UNL A   1      50.894  26.900  24.604  1.00  0.00     0.022 A 
BRANCH  77  80
ATOM     80  S   UNL A   1      50.060  27.280  22.023  1.00  0.00     0.127 S 
ATOM     81  O   UNL A   1      49.851  28.686  21.695  1.00  0.00    -0.237 OA
ATOM     82  O   UNL A   1      51.444  26.818  21.913  1.00  0.00    -0.237 OA
ATOM     83  O   UNL A   1      49.076  26.348  21.488  1.00  0.00    -0.744 OA
ENDBRANCH  77  80
ENDBRANCH  49  73
BRANCH  61  84
ATOM     84  C   UNL A   1      45.462  32.866  28.989  1.00  0.00     0.023 A 
ATOM     85  C   UNL A   1      46.156  33.109  30.191  1.00  0.00     0.012 A 
ATOM     86  C   UNL A   1      45.307  33.909  28.055  1.00  0.00     0.148 A 
ATOM     87  C   UNL A   1      46.666  34.376  30.470  1.00  0.00     0.002 A 
ATOM     88  C   UNL A   1      45.858  35.158  28.320  1.00  0.00     0.091 A 
ATOM     89  F   UNL A   1      44.625  33.663  26.927  1.00  0.00    -0.205 F 
ATOM     90  C   UNL A   1      46.528  35.396  29.531  1.00  0.00     0.022 A 
BRANCH  88  91
ATOM     91  S   UNL A   1      45.811  36.501  27.127  1.00  0.00     0.127 S 
ATOM     92  O   UNL A   1      46.342  35.853  25.929  1.00  0.00    -0.237 OA
ATOM     93  O   UNL A   1      44.383  36.816  27.069  1.00  0.00    -0.237 OA
ATOM     94  O   UNL A   1      46.639  37.561  27.686  1.00  0.00    -0.744 OA
ENDBRANCH  88  91
ENDBRANCH  61  84
ENDBRANCH  35  36
ENDBRANCH  27  30
ENDBRANCH  25  26
ENDBRANCH  24  25
ENDBRANCH   1  24
TORSDOF 17
ENDMDL
MODEL 3
REMARK VINA RESULT:     -11.8      2.560      8.364
REMARK SMILES CN(CC(N)=O)S(=O)(=O)c1ccc(C(=O)NCCCNC(=O)c2ccc(-c3c4nc(c(-c5cccc(S(=O)(=O)[O-])c5F)c5ccc([nH]5)c(-c5cccc(S(=O)(=O)[O-])c5F)c5nc(c(-c6cccc(S(=O)(=O)[O-])c6F)c6ccc3[nH]6)C=C5)C=C4)cc2)cc1Br
REMARK SMILES IDX 17 1 16 2 14 3 15 4 13 6 10 7 11 8 87 9 12 10 86 11 88 12
REMARK SMILES IDX 7 13 8 14 9 15 2 16 1 17 3 18 4 19 5 20 6 21 18 24 19 25
REMARK SMILES IDX 20 26 21 27 22 29 23 30 24 31 85 32 25 33 84 34 26 35 27 36
REMARK SMILES IDX 28 37 78 38 29 39 83 40 77 41 79 42 30 43 82 44 76 45 75 46
REMARK SMILES IDX 31 48 63 49 43 50 62 51 44 52 47 53 61 54 80 55 45 56 46 57
REMARK SMILES IDX 60 59 81 60 48 61 32 62 33 63 41 64 34 65 36 66 42 67 35 68
REMARK SMILES IDX 37 69 38 70 39 71 40 72 64 73 65 74 73 75 66 76 68 77 74 78
REMARK SMILES IDX 67 79 69 80 70 81 71 82 72 83 49 84 50 85 58 86 51 87 53 88
REMARK SMILES IDX 59 89 52 90 54 91 55 92 56 93 57 94
REMARK H PARENT 16 5 5 22 5 23 20 28 79 47 47 58
REMARK Flexibility Score: inf
ROOT
ATOM      1  C   UNL A   1      31.792  30.634  26.516  1.00  0.00     0.118 C 
ENDROOT
BRANCH   1   2
ATOM      2  N   UNL A   1      33.112  30.205  26.943  1.00  0.00    -0.352 N 
ATOM      3  C   UNL A   1      33.775  29.006  26.874  1.00  0.00     0.251 C 
ATOM      4  O   UNL A   1      34.953  28.995  27.234  1.00  0.00    -0.269 OA
ATOM      5  H   UNL A   1      33.638  30.919  27.370  1.00  0.00     0.163 HD
BRANCH   3   6
ATOM      6  C   UNL A   1      33.179  27.745  26.345  1.00  0.00     0.041 A 
ATOM      7  C   UNL A   1      31.944  25.340  25.522  1.00  0.00     0.096 A 
ATOM      8  C   UNL A   1      31.348  26.140  26.503  1.00  0.00     0.024 A 
ATOM      9  C   UNL A   1      33.104  25.788  24.887  1.00  0.00     0.038 A 
ATOM     10  C   UNL A   1      31.975  27.316  26.924  1.00  0.00     0.015 A 
ATOM     11  C   UNL A   1      33.698  26.997  25.287  1.00  0.00     0.031 A 
ATOM     12  Br  UNL A   1      33.950  24.897  23.436  1.00  0.00    -0.049 Br
BRANCH   7  13
ATOM     13  S   UNL A   1      31.219  23.776  25.098  1.00  0.00     0.244 S 
ATOM     14  O   UNL A   1      30.849  23.818  23.700  1.00  0.00    -0.207 OA
ATOM     15  O   UNL A   1      30.261  23.473  26.136  1.00  0.00    -0.207 OA
BRANCH  13  16
ATOM     16  N   UNL A   1      32.484  22.618  25.218  1.00  0.00    -0.192 NA
ATOM     17  C   UNL A   1      32.771  22.276  26.639  1.00  0.00     0.125 C 
BRANCH  16  18
ATOM     18  C   UNL A   1      32.372  21.393  24.379  1.00  0.00     0.201 C 
BRANCH  18  19
ATOM     19  C   UNL A   1      32.917  20.100  24.952  1.00  0.00     0.232 C 
ATOM     20  N   UNL A   1      34.280  20.004  25.011  1.00  0.00    -0.369 N 
ATOM     21  O   UNL A   1      32.201  19.197  25.377  1.00  0.00    -0.274 OA
ATOM     22  H   UNL A   1      34.840  20.737  24.667  1.00  0.00     0.159 HD
ATOM     23  H   UNL A   1      34.701  19.203  25.398  1.00  0.00     0.159 HD
ENDBRANCH  18  19
ENDBRANCH  16  18
ENDBRANCH  13  16
ENDBRANCH   7  13
ENDBRANCH   3   6
ENDBRANCH   1   2
BRANCH   1  24
ATOM     24  C   UNL A   1      31.546  32.110  26.828  1.00  0.00     0.042 C 
BRANCH  24  25
ATOM     25  C   UNL A   1      32.826  32.903  27.084  1.00  0.00     0.118 C 
BRANCH  25  26
ATOM     26  N   UNL A   1      32.549  34.216  27.651  1.00  0.00    -0.352 N 
ATOM     27  C   UNL A   1      33.058  34.818  28.776  1.00  0.00     0.251 C 
ATOM     28  H   UNL A   1      31.893  34.755  27.152  1.00  0.00     0.163 HD
ATOM     29  O   UNL A   1      32.521  35.838  29.201  1.00  0.00    -0.269 OA
BRANCH  27  30
ATOM     30  C   UNL A   1      34.236  34.257  29.474  1.00  0.00     0.039 A 
ATOM     31  C   UNL A   1      34.048  33.603  30.695  1.00  0.00     0.014 A 
ATOM     32  C   UNL A   1      35.528  34.422  28.965  1.00  0.00     0.014 A 
ATOM     33  C   UNL A   1      35.147  33.073  31.381  1.00  0.00     0.010 A 
ATOM     34  C   UNL A   1      36.612  33.836  29.614  1.00  0.00     0.010 A 
ATOM     35  C   UNL A   1      36.436  33.166  30.834  1.00  0.00    -0.014 A 
BRANCH  35  36
ATOM     36  C   UNL A   1      37.614  32.570  31.516  1.00  0.00     0.031 A 
ATOM     37  C   UNL A   1      38.361  31.429  30.879  1.00  0.00     0.074 A 
ATOM     38  C   UNL A   1      37.949  32.989  32.752  1.00  0.00     0.049 A 
ATOM     39  N   UNL A   1      39.352  30.722  31.356  1.00  0.00    -0.248 NA
ATOM     40  C   UNL A   1      37.918  31.008  29.538  1.00  0.00     0.031 C 
ATOM     41  C   UNL A   1      37.255  34.034  33.507  1.00  0.00     0.029 A 
ATOM     42  N   UNL A   1      38.936  32.563  33.605  1.00  0.00    -0.354 N 
ATOM     43  C   UNL A   1      39.623  29.749  30.401  1.00  0.00     0.074 A 
ATOM     44  C   UNL A   1      38.674  29.941  29.325  1.00  0.00     0.031 C 
ATOM     45  C   UNL A   1      37.834  34.165  34.711  1.00  0.00     0.029 A 
ATOM     46  C   UNL A   1      38.921  33.198  34.825  1.00  0.00     0.049 A 
ATOM     47  H   UNL A   1      39.593  31.870  33.366  1.00  0.00     0.167 HD
ATOM     48  C   UNL A   1      40.589  28.802  30.404  1.00  0.00     0.034 A 
ATOM     49  C   UNL A   1      39.689  33.015  35.918  1.00  0.00     0.034 A 
ATOM     50  C   UNL A   1      41.565  28.651  31.450  1.00  0.00     0.049 A 
ATOM     51  C   UNL A   1      40.793  31.993  35.873  1.00  0.00     0.074 A 
ATOM     52  C   UNL A   1      42.644  27.785  31.502  1.00  0.00     0.029 A 
ATOM     53  N   UNL A   1      41.584  29.384  32.626  1.00  0.00    -0.354 N 
ATOM     54  N   UNL A   1      41.132  31.190  34.894  1.00  0.00    -0.248 NA
ATOM     55  C   UNL A   1      41.642  31.877  37.067  1.00  0.00     0.031 C 
ATOM     56  C   UNL A   1      43.306  27.985  32.718  1.00  0.00     0.029 A 
ATOM     57  C   UNL A   1      42.650  28.988  33.414  1.00  0.00     0.049 A 
ATOM     58  H   UNL A   1      40.933  30.082  32.866  1.00  0.00     0.167 HD
ATOM     59  C   UNL A   1      42.253  30.499  35.339  1.00  0.00     0.074 A 
ATOM     60  C   UNL A   1      42.547  30.993  36.668  1.00  0.00     0.031 C 
ATOM     61  C   UNL A   1      42.966  29.532  34.710  1.00  0.00     0.034 A 
BRANCH  48  62
ATOM     62  C   UNL A   1      40.681  27.889  29.208  1.00  0.00     0.023 A 
ATOM     63  C   UNL A   1      39.855  26.749  29.141  1.00  0.00     0.012 A 
ATOM     64  C   UNL A   1      41.535  28.187  28.127  1.00  0.00     0.148 A 
ATOM     65  C   UNL A   1      39.900  25.900  28.036  1.00  0.00     0.002 A 
ATOM     66  C   UNL A   1      41.545  27.358  27.010  1.00  0.00     0.091 A 
ATOM     67  F   UNL A   1      42.330  29.263  28.215  1.00  0.00    -0.205 F 
ATOM     68  C   UNL A   1      40.737  26.210  26.967  1.00  0.00     0.022 A 
BRANCH  66  69
ATOM     69  S   UNL A   1      42.530  27.712  25.550  1.00  0.00     0.127 S 
ATOM     70  O   UNL A   1      43.875  27.803  26.116  1.00  0.00    -0.237 OA
ATOM     71  O   UNL A   1      42.296  26.528  24.723  1.00  0.00    -0.237 OA
ATOM     72  O   UNL A   1      41.998  28.951  24.998  1.00  0.00    -0.744 OA
ENDBRANCH  66  69
ENDBRANCH  48  62
BRANCH  49  73
ATOM     73  C   UNL A   1      39.488  33.874  37.118  1.00  0.00     0.023 A 
ATOM     74  C   UNL A   1      39.902  35.219  37.079  1.00  0.00     0.012 A 
ATOM     75  C   UNL A   1      38.859  33.382  38.278  1.00  0.00     0.148 A 
ATOM     76  C   UNL A   1      39.719  36.053  38.183  1.00  0.00     0.002 A 
ATOM     77  C   UNL A   1      38.631  34.232  39.355  1.00  0.00     0.091 A 
ATOM     78  F   UNL A   1      38.484  32.095  38.302  1.00  0.00    -0.205 F 
ATOM     79  C   UNL A   1      39.074  35.564  39.315  1.00  0.00     0.022 A 
BRANCH  77  80
ATOM     80  S   UNL A   1      37.691  33.722  40.798  1.00  0.00     0.127 S 
ATOM     81  O   UNL A   1      38.618  32.802  41.449  1.00  0.00    -0.237 OA
ATOM     82  O   UNL A   1      37.491  34.994  41.495  1.00  0.00    -0.237 OA
ATOM     83  O   UNL A   1      36.467  33.130  40.275  1.00  0.00    -0.744 OA
ENDBRANCH  77  80
ENDBRANCH  49  73
BRANCH  61  84
ATOM     84  C   UNL A   1      44.158  28.962  35.430  1.00  0.00     0.023 A 
ATOM     85  C   UNL A   1      45.428  29.547  35.251  1.00  0.00     0.012 A 
ATOM     86  C   UNL A   1      44.006  27.903  36.347  1.00  0.00     0.148 A 
ATOM     87  C   UNL A   1      46.533  29.068  35.953  1.00  0.00     0.002 A 
ATOM     88  C   UNL A   1      45.104  27.461  37.077  1.00  0.00     0.091 A 
ATOM     89  F   UNL A   1      42.794  27.347  36.487  1.00  0.00    -0.205 F 
ATOM     90  C   UNL A   1      46.369  28.036  36.874  1.00  0.00     0.022 A 
BRANCH  88  91
ATOM     91  S   UNL A   1      44.965  26.203  38.352  1.00  0.00     0.127 S 
ATOM     92  O   UNL A   1      44.597  25.025  37.568  1.00  0.00    -0.237 OA
ATOM     93  O   UNL A   1      46.319  26.169  38.905  1.00  0.00    -0.237 OA
ATOM     94  O   UNL A   1      43.948  26.683  39.278  1.00  0.00    -0.744 OA
ENDBRANCH  88  91
ENDBRANCH  61  84
ENDBRANCH  35  36
ENDBRANCH  27  30
ENDBRANCH  25  26
ENDBRANCH  24  25
ENDBRANCH   1  24
TORSDOF 17
ENDMDL
