MODEL 1
REMARK VINA RESULT:     -12.3      0.000      0.000
REMARK SMILES C=C[C@@H]1[C@@H](O)C[C@H]2[C@]3(CC[C@]4(C)[C@@H]([C@H](C)CCC=C(C)C)CC[C@]24C)C[C@]13CCC(=O)NCCCNC(=O)c1ccc(-c2c3nc(c(-c4cccc(S(=O)(=O)[O-])c4F)c4ccc([nH]4)c(-c4cccc(S(=O)(=O)[O-])c4F)c4nc(c(-c5cccc(S(=O)(=O)[O-])c5F)c5ccc2[nH]5)C=C4)C=C3)cc1
REMARK SMILES IDX 30 1 31 2 32 3 29 5 28 6 27 7 3 8 4 9 6 10 8 11 26 12 7 13
REMARK SMILES IDX 9 14 24 15 10 16 11 17 23 18 25 19 13 20 12 21 22 22 2 23
REMARK SMILES IDX 1 24 5 25 14 27 15 28 16 29 17 30 18 31 19 32 20 33 21 34
REMARK SMILES IDX 33 35 34 36 35 37 36 38 37 39 38 41 39 42 40 43 101 44 41 45
REMARK SMILES IDX 100 46 42 47 43 48 44 49 94 50 45 51 99 52 93 53 95 54 46 55
REMARK SMILES IDX 98 56 92 57 91 58 47 60 79 61 59 62 78 63 60 64 63 65 77 66
REMARK SMILES IDX 96 67 61 68 62 69 76 71 97 72 64 73 48 74 49 75 57 76 50 77
REMARK SMILES IDX 52 78 58 79 51 80 53 81 54 82 55 83 56 84 80 85 81 86 89 87
REMARK SMILES IDX 82 88 84 89 90 90 83 91 85 92 86 93 87 94 88 95 65 96 66 97
REMARK SMILES IDX 74 98 67 99 69 100 75 101 68 102 70 103 71 104 72 105 73 106
REMARK H PARENT 32 4 5 26 36 40 95 59 63 70
REMARK Flexibility Score: inf
ROOT
ATOM      1  C   UNL A   1      33.225  29.313  26.875  1.00  0.00     0.220 C 
ATOM      2  O   UNL A   1      34.125  28.953  27.638  1.00  0.00    -0.275 OA
ATOM      3  N   UNL A   1      32.482  30.400  27.237  1.00  0.00    -0.356 N 
ATOM      4  H   UNL A   1      32.703  30.789  28.114  1.00  0.00     0.163 HD
ENDROOT
BRANCH   1   5
ATOM      5  C   UNL A   1      33.003  28.602  25.547  1.00  0.00     0.100 C 
BRANCH   5   6
ATOM      6  C   UNL A   1      31.907  27.531  25.544  1.00  0.00     0.018 C 
BRANCH   6   7
ATOM      7  C   UNL A   1      31.903  26.479  24.408  1.00  0.00    -0.014 C 
ATOM      8  C   UNL A   1      31.934  27.091  22.963  1.00  0.00     0.047 C 
ATOM      9  C   UNL A   1      32.562  26.218  21.840  1.00  0.00     0.122 C 
ATOM     10  C   UNL A   1      32.672  24.737  22.143  1.00  0.00     0.037 C 
ATOM     11  C   UNL A   1      32.692  25.138  24.656  1.00  0.00    -0.019 C 
ATOM     12  C   UNL A   1      31.203  25.172  24.701  1.00  0.00     0.016 C 
ATOM     13  C   UNL A   1      33.404  24.466  23.468  1.00  0.00     0.005 C 
ATOM     14  C   UNL A   1      33.342  24.834  25.995  1.00  0.00     0.008 C 
ATOM     15  C   UNL A   1      33.677  22.909  23.705  1.00  0.00    -0.023 C 
ATOM     16  C   UNL A   1      33.499  23.332  26.228  1.00  0.00     0.008 C 
ATOM     17  C   UNL A   1      34.301  22.614  25.136  1.00  0.00    -0.024 C 
ATOM     18  C   UNL A   1      34.843  22.434  22.788  1.00  0.00     0.008 C 
ATOM     19  C   UNL A   1      32.382  22.116  23.392  1.00  0.00     0.012 C 
ATOM     20  C   UNL A   1      35.742  23.202  24.948  1.00  0.00    -0.002 C 
ATOM     21  C   UNL A   1      34.346  21.087  25.448  1.00  0.00     0.012 C 
ATOM     22  C   UNL A   1      36.153  22.634  23.579  1.00  0.00     0.005 C 
BRANCH   8  23
ATOM     23  C   UNL A   1      30.613  27.572  22.392  1.00  0.00    -0.028 C 
ATOM     24  C   UNL A   1      29.948  28.670  22.784  1.00  0.00     0.004 C 
ENDBRANCH   8  23
BRANCH   9  25
ATOM     25  O   UNL A   1      33.843  26.724  21.455  1.00  0.00    -0.392 OA
ATOM     26  H   UNL A   1      34.027  27.543  21.941  1.00  0.00     0.210 HD
ENDBRANCH   9  25
BRANCH  20  27
ATOM     27  C   UNL A   1      36.868  23.176  26.031  1.00  0.00    -0.010 C 
ATOM     28  C   UNL A   1      37.237  24.533  26.639  1.00  0.00     0.008 C 
BRANCH  27  29
ATOM     29  C   UNL A   1      38.184  22.502  25.533  1.00  0.00     0.008 C 
BRANCH  29  30
ATOM     30  C   UNL A   1      39.404  22.546  26.478  1.00  0.00     0.027 C 
BRANCH  30  31
ATOM     31  C   UNL A   1      40.134  21.261  26.738  1.00  0.00    -0.028 C 
ATOM     32  C   UNL A   1      41.304  21.090  27.384  1.00  0.00    -0.080 C 
ATOM     33  C   UNL A   1      41.882  19.716  27.551  1.00  0.00     0.039 C 
ATOM     34  C   UNL A   1      42.133  22.209  27.946  1.00  0.00     0.039 C 
ENDBRANCH  30  31
ENDBRANCH  29  30
ENDBRANCH  27  29
ENDBRANCH  20  27
ENDBRANCH   6   7
ENDBRANCH   5   6
ENDBRANCH   1   5
BRANCH   3  35
ATOM     35  C   UNL A   1      31.417  31.062  26.513  1.00  0.00     0.117 C 
BRANCH  35  36
ATOM     36  C   UNL A   1      31.496  32.576  26.621  1.00  0.00     0.042 C 
BRANCH  36  37
ATOM     37  C   UNL A   1      32.766  33.104  27.241  1.00  0.00     0.118 C 
BRANCH  37  38
ATOM     38  N   UNL A   1      32.577  34.430  27.814  1.00  0.00    -0.352 N 
ATOM     39  C   UNL A   1      33.148  35.040  28.908  1.00  0.00     0.251 C 
ATOM     40  H   UNL A   1      31.925  34.988  27.333  1.00  0.00     0.163 HD
ATOM     41  O   UNL A   1      32.646  36.089  29.314  1.00  0.00    -0.269 OA
BRANCH  39  42
ATOM     42  C   UNL A   1      34.329  34.472  29.614  1.00  0.00     0.039 A 
ATOM     43  C   UNL A   1      35.598  34.591  29.031  1.00  0.00     0.014 A 
ATOM     44  C   UNL A   1      34.209  33.763  30.808  1.00  0.00     0.014 A 
ATOM     45  C   UNL A   1      36.721  34.035  29.659  1.00  0.00     0.010 A 
ATOM     46  C   UNL A   1      35.339  33.355  31.508  1.00  0.00     0.010 A 
ATOM     47  C   UNL A   1      36.604  33.427  30.918  1.00  0.00    -0.014 A 
BRANCH  47  48
ATOM     48  C   UNL A   1      37.753  32.782  31.609  1.00  0.00     0.031 A 
ATOM     49  C   UNL A   1      38.485  31.639  30.943  1.00  0.00     0.074 A 
ATOM     50  C   UNL A   1      38.077  33.140  32.867  1.00  0.00     0.049 A 
ATOM     51  N   UNL A   1      39.430  30.869  31.418  1.00  0.00    -0.248 NA
ATOM     52  C   UNL A   1      38.061  31.279  29.577  1.00  0.00     0.031 C 
ATOM     53  C   UNL A   1      37.390  34.160  33.662  1.00  0.00     0.029 A 
ATOM     54  N   UNL A   1      39.046  32.657  33.711  1.00  0.00    -0.354 N 
ATOM     55  C   UNL A   1      39.658  29.901  30.445  1.00  0.00     0.074 A 
ATOM     56  C   UNL A   1      38.722  30.152  29.373  1.00  0.00     0.031 C 
ATOM     57  C   UNL A   1      37.961  34.229  34.874  1.00  0.00     0.029 A 
ATOM     58  C   UNL A   1      39.029  33.238  34.957  1.00  0.00     0.049 A 
ATOM     59  H   UNL A   1      39.691  31.961  33.449  1.00  0.00     0.167 HD
ATOM     60  C   UNL A   1      40.584  28.913  30.422  1.00  0.00     0.034 A 
ATOM     61  C   UNL A   1      39.779  32.991  36.050  1.00  0.00     0.034 A 
ATOM     62  C   UNL A   1      41.563  28.717  31.454  1.00  0.00     0.049 A 
ATOM     63  C   UNL A   1      40.862  31.949  35.975  1.00  0.00     0.074 A 
ATOM     64  C   UNL A   1      42.631  27.839  31.472  1.00  0.00     0.029 A 
ATOM     65  N   UNL A   1      41.591  29.409  32.656  1.00  0.00    -0.354 N 
ATOM     66  N   UNL A   1      41.178  31.158  34.978  1.00  0.00    -0.248 NA
ATOM     67  C   UNL A   1      41.716  31.790  37.161  1.00  0.00     0.031 C 
ATOM     68  C   UNL A   1      43.285  27.977  32.702  1.00  0.00     0.029 A 
ATOM     69  C   UNL A   1      42.647  28.967  33.432  1.00  0.00     0.049 A 
ATOM     70  H   UNL A   1      40.953  30.112  32.917  1.00  0.00     0.167 HD
ATOM     71  C   UNL A   1      42.282  30.429  35.402  1.00  0.00     0.074 A 
ATOM     72  C   UNL A   1      42.593  30.886  36.742  1.00  0.00     0.031 C 
ATOM     73  C   UNL A   1      42.971  29.462  34.746  1.00  0.00     0.034 A 
BRANCH  60  74
ATOM     74  C   UNL A   1      40.606  28.000  29.221  1.00  0.00     0.023 A 
ATOM     75  C   UNL A   1      39.732  26.892  29.160  1.00  0.00     0.012 A 
ATOM     76  C   UNL A   1      41.476  28.248  28.141  1.00  0.00     0.148 A 
ATOM     77  C   UNL A   1      39.764  26.016  28.076  1.00  0.00     0.002 A 
ATOM     78  C   UNL A   1      41.465  27.399  27.039  1.00  0.00     0.091 A 
ATOM     79  F   UNL A   1      42.314  29.289  28.219  1.00  0.00    -0.205 F 
ATOM     80  C   UNL A   1      40.624  26.274  27.013  1.00  0.00     0.022 A 
BRANCH  78  81
ATOM     81  S   UNL A   1      42.471  27.698  25.582  1.00  0.00     0.127 S 
ATOM     82  O   UNL A   1      42.196  26.504  24.783  1.00  0.00    -0.237 OA
ATOM     83  O   UNL A   1      41.890  28.932  25.052  1.00  0.00    -0.237 OA
ATOM     84  O   UNL A   1      43.839  27.833  26.063  1.00  0.00    -0.744 OA
ENDBRANCH  78  81
ENDBRANCH  60  74
BRANCH  61  85
ATOM     85  C   UNL A   1      39.560  33.798  37.283  1.00  0.00     0.023 A 
ATOM     86  C   UNL A   1      40.013  35.130  37.330  1.00  0.00     0.012 A 
ATOM     87  C   UNL A   1      38.840  33.274  38.375  1.00  0.00     0.148 A 
ATOM     88  C   UNL A   1      39.771  35.922  38.454  1.00  0.00     0.002 A 
ATOM     89  C   UNL A   1      38.558  34.084  39.469  1.00  0.00     0.091 A 
ATOM     90  F   UNL A   1      38.406  32.009  38.298  1.00  0.00    -0.205 F 
ATOM     91  C   UNL A   1      39.037  35.403  39.517  1.00  0.00     0.022 A 
BRANCH  89  92
ATOM     92  S   UNL A   1      37.522  33.540  40.831  1.00  0.00     0.127 S 
ATOM     93  O   UNL A   1      37.373  34.775  41.604  1.00  0.00    -0.237 OA
ATOM     94  O   UNL A   1      36.313  33.110  40.124  1.00  0.00    -0.237 OA
ATOM     95  O   UNL A   1      38.257  32.482  41.496  1.00  0.00    -0.744 OA
ENDBRANCH  89  92
ENDBRANCH  61  85
BRANCH  73  96
ATOM     96  C   UNL A   1      44.154  28.844  35.442  1.00  0.00     0.023 A 
ATOM     97  C   UNL A   1      45.437  29.402  35.275  1.00  0.00     0.012 A 
ATOM     98  C   UNL A   1      43.976  27.772  36.338  1.00  0.00     0.148 A 
ATOM     99  C   UNL A   1      46.529  28.883  35.971  1.00  0.00     0.002 A 
ATOM    100  C   UNL A   1      45.059  27.294  37.066  1.00  0.00     0.091 A 
ATOM    101  F   UNL A   1      42.750  27.246  36.469  1.00  0.00    -0.205 F 
ATOM    102  C   UNL A   1      46.338  27.841  36.875  1.00  0.00     0.022 A 
BRANCH 100 103
ATOM    103  S   UNL A   1      44.887  26.026  38.326  1.00  0.00     0.127 S 
ATOM    104  O   UNL A   1      46.257  25.914  38.824  1.00  0.00    -0.237 OA
ATOM    105  O   UNL A   1      43.947  26.644  39.261  1.00  0.00    -0.237 OA
ATOM    106  O   UNL A   1      44.375  24.846  37.643  1.00  0.00    -0.744 OA
ENDBRANCH 100 103
ENDBRANCH  73  96
ENDBRANCH  47  48
ENDBRANCH  39  42
ENDBRANCH  37  38
ENDBRANCH  36  37
ENDBRANCH  35  36
ENDBRANCH   3  35
TORSDOF 21
ENDMDL
MODEL 2
REMARK VINA RESULT:     -11.9      0.708      7.316
REMARK SMILES C=C[C@@H]1[C@@H](O)C[C@H]2[C@]3(CC[C@]4(C)[C@@H]([C@H](C)CCC=C(C)C)CC[C@]24C)C[C@]13CCC(=O)NCCCNC(=O)c1ccc(-c2c3nc(c(-c4cccc(S(=O)(=O)[O-])c4F)c4ccc([nH]4)c(-c4cccc(S(=O)(=O)[O-])c4F)c4nc(c(-c5cccc(S(=O)(=O)[O-])c5F)c5ccc2[nH]5)C=C4)C=C3)cc1
REMARK SMILES IDX 30 1 31 2 32 3 29 5 28 6 27 7 3 8 4 9 6 10 8 11 26 12 7 13
REMARK SMILES IDX 9 14 24 15 10 16 11 17 23 18 25 19 13 20 12 21 22 22 2 23
REMARK SMILES IDX 1 24 5 25 14 27 15 28 16 29 17 30 18 31 19 32 20 33 21 34
REMARK SMILES IDX 33 35 34 36 35 37 36 38 37 39 38 41 39 42 40 43 101 44 41 45
REMARK SMILES IDX 100 46 42 47 43 48 44 49 94 50 45 51 99 52 93 53 95 54 46 55
REMARK SMILES IDX 98 56 92 57 91 58 47 60 79 61 59 62 78 63 60 64 63 65 77 66
REMARK SMILES IDX 96 67 61 68 62 69 76 71 97 72 64 73 48 74 49 75 57 76 50 77
REMARK SMILES IDX 52 78 58 79 51 80 53 81 54 82 55 83 56 84 80 85 81 86 89 87
REMARK SMILES IDX 82 88 84 89 90 90 83 91 85 92 86 93 87 94 88 95 65 96 66 97
REMARK SMILES IDX 74 98 67 99 69 100 75 101 68 102 70 103 71 104 72 105 73 106
REMARK H PARENT 32 4 5 26 36 40 95 59 63 70
REMARK Flexibility Score: inf
ROOT
ATOM      1  C   UNL A   1      33.165  29.377  26.805  1.00  0.00     0.220 C 
ATOM      2  O   UNL A   1      34.083  28.927  27.495  1.00  0.00    -0.275 OA
ATOM      3  N   UNL A   1      32.630  30.581  27.165  1.00  0.00    -0.356 N 
ATOM      4  H   UNL A   1      33.000  30.978  27.986  1.00  0.00     0.163 HD
ENDROOT
BRANCH   1   5
ATOM      5  C   UNL A   1      32.697  28.638  25.558  1.00  0.00     0.100 C 
BRANCH   5   6
ATOM      6  C   UNL A   1      32.146  27.227  25.792  1.00  0.00     0.018 C 
BRANCH   6   7
ATOM      7  C   UNL A   1      32.176  26.218  24.618  1.00  0.00    -0.014 C 
ATOM      8  C   UNL A   1      32.150  26.881  23.197  1.00  0.00     0.047 C 
ATOM      9  C   UNL A   1      32.801  26.082  22.033  1.00  0.00     0.122 C 
ATOM     10  C   UNL A   1      32.992  24.600  22.279  1.00  0.00     0.037 C 
ATOM     11  C   UNL A   1      33.037  24.912  24.804  1.00  0.00    -0.019 C 
ATOM     12  C   UNL A   1      31.549  24.866  24.875  1.00  0.00     0.016 C 
ATOM     13  C   UNL A   1      33.760  24.320  23.582  1.00  0.00     0.005 C 
ATOM     14  C   UNL A   1      33.726  24.594  26.121  1.00  0.00     0.008 C 
ATOM     15  C   UNL A   1      34.117  22.771  23.757  1.00  0.00    -0.023 C 
ATOM     16  C   UNL A   1      33.964  23.095  26.296  1.00  0.00     0.008 C 
ATOM     17  C   UNL A   1      34.782  22.458  25.166  1.00  0.00    -0.024 C 
ATOM     18  C   UNL A   1      35.289  22.390  22.804  1.00  0.00     0.008 C 
ATOM     19  C   UNL A   1      32.859  21.924  23.436  1.00  0.00     0.012 C 
ATOM     20  C   UNL A   1      36.186  23.127  24.976  1.00  0.00    -0.002 C 
ATOM     21  C   UNL A   1      34.910  20.926  25.421  1.00  0.00     0.012 C 
ATOM     22  C   UNL A   1      36.602  22.629  23.580  1.00  0.00     0.005 C 
BRANCH   8  23
ATOM     23  C   UNL A   1      30.796  27.314  22.665  1.00  0.00    -0.028 C 
ATOM     24  C   UNL A   1      30.105  28.389  23.074  1.00  0.00     0.004 C 
ENDBRANCH   8  23
BRANCH   9  25
ATOM     25  O   UNL A   1      34.047  26.668  21.645  1.00  0.00    -0.392 OA
ATOM     26  H   UNL A   1      33.892  27.332  20.956  1.00  0.00     0.210 HD
ENDBRANCH   9  25
BRANCH  20  27
ATOM     27  C   UNL A   1      37.332  23.120  26.038  1.00  0.00    -0.010 C 
ATOM     28  C   UNL A   1      37.956  24.484  26.351  1.00  0.00     0.008 C 
BRANCH  27  29
ATOM     29  C   UNL A   1      38.490  22.134  25.688  1.00  0.00     0.008 C 
BRANCH  29  30
ATOM     30  C   UNL A   1      39.669  22.046  26.681  1.00  0.00     0.027 C 
BRANCH  30  31
ATOM     31  C   UNL A   1      41.047  21.860  26.116  1.00  0.00    -0.028 C 
ATOM     32  C   UNL A   1      42.225  22.167  26.691  1.00  0.00    -0.080 C 
ATOM     33  C   UNL A   1      43.512  21.903  25.966  1.00  0.00     0.039 C 
ATOM     34  C   UNL A   1      42.367  22.812  28.039  1.00  0.00     0.039 C 
ENDBRANCH  30  31
ENDBRANCH  29  30
ENDBRANCH  27  29
ENDBRANCH  20  27
ENDBRANCH   6   7
ENDBRANCH   5   6
ENDBRANCH   1   5
BRANCH   3  35
ATOM     35  C   UNL A   1      31.597  31.356  26.510  1.00  0.00     0.117 C 
BRANCH  35  36
ATOM     36  C   UNL A   1      31.615  32.816  26.928  1.00  0.00     0.042 C 
BRANCH  36  37
ATOM     37  C   UNL A   1      32.915  33.290  27.531  1.00  0.00     0.118 C 
BRANCH  37  38
ATOM     38  N   UNL A   1      32.753  34.552  28.240  1.00  0.00    -0.352 N 
ATOM     39  C   UNL A   1      33.326  35.026  29.399  1.00  0.00     0.251 C 
ATOM     40  H   UNL A   1      32.122  35.177  27.815  1.00  0.00     0.163 HD
ATOM     41  O   UNL A   1      32.846  36.040  29.909  1.00  0.00    -0.269 OA
BRANCH  39  42
ATOM     42  C   UNL A   1      34.481  34.353  30.053  1.00  0.00     0.039 A 
ATOM     43  C   UNL A   1      35.778  34.617  29.591  1.00  0.00     0.014 A 
ATOM     44  C   UNL A   1      34.315  33.415  31.070  1.00  0.00     0.014 A 
ATOM     45  C   UNL A   1      36.880  33.970  30.166  1.00  0.00     0.010 A 
ATOM     46  C   UNL A   1      35.415  32.899  31.746  1.00  0.00     0.010 A 
ATOM     47  C   UNL A   1      36.710  33.118  31.267  1.00  0.00    -0.014 A 
BRANCH  47  48
ATOM     48  C   UNL A   1      37.837  32.372  31.889  1.00  0.00     0.031 A 
ATOM     49  C   UNL A   1      38.397  32.828  33.217  1.00  0.00     0.074 A 
ATOM     50  C   UNL A   1      38.430  31.360  31.226  1.00  0.00     0.049 A 
ATOM     51  N   UNL A   1      39.444  32.393  33.870  1.00  0.00    -0.248 NA
ATOM     52  C   UNL A   1      37.720  33.960  33.876  1.00  0.00     0.031 C 
ATOM     53  C   UNL A   1      38.052  30.883  29.894  1.00  0.00     0.029 A 
ATOM     54  N   UNL A   1      39.501  30.574  31.570  1.00  0.00    -0.354 N 
ATOM     55  C   UNL A   1      39.589  33.238  34.966  1.00  0.00     0.074 A 
ATOM     56  C   UNL A   1      38.551  34.238  34.867  1.00  0.00     0.031 C 
ATOM     57  C   UNL A   1      38.875  29.884  29.536  1.00  0.00     0.029 A 
ATOM     58  C   UNL A   1      39.859  29.674  30.594  1.00  0.00     0.049 A 
ATOM     59  H   UNL A   1      39.969  30.647  32.433  1.00  0.00     0.167 HD
ATOM     60  C   UNL A   1      40.477  33.171  35.986  1.00  0.00     0.034 A 
ATOM     61  C   UNL A   1      40.874  28.788  30.547  1.00  0.00     0.034 A 
ATOM     62  C   UNL A   1      41.455  32.129  36.121  1.00  0.00     0.049 A 
ATOM     63  C   UNL A   1      41.798  28.669  31.729  1.00  0.00     0.074 A 
ATOM     64  C   UNL A   1      42.313  31.885  37.178  1.00  0.00     0.029 A 
ATOM     65  N   UNL A   1      41.710  31.157  35.165  1.00  0.00    -0.354 N 
ATOM     66  N   UNL A   1      41.809  29.366  32.840  1.00  0.00    -0.248 NA
ATOM     67  C   UNL A   1      42.824  27.619  31.669  1.00  0.00     0.031 C 
ATOM     68  C   UNL A   1      43.110  30.784  36.845  1.00  0.00     0.029 A 
ATOM     69  C   UNL A   1      42.723  30.321  35.597  1.00  0.00     0.049 A 
ATOM     70  H   UNL A   1      41.237  31.075  34.304  1.00  0.00     0.167 HD
ATOM     71  C   UNL A   1      42.821  28.823  33.622  1.00  0.00     0.074 A 
ATOM     72  C   UNL A   1      43.389  27.725  32.865  1.00  0.00     0.031 C 
ATOM     73  C   UNL A   1      43.248  29.204  34.852  1.00  0.00     0.034 A 
BRANCH  60  74
ATOM     74  C   UNL A   1      40.398  34.233  37.055  1.00  0.00     0.023 A 
ATOM     75  C   UNL A   1      40.993  35.495  36.842  1.00  0.00     0.012 A 
ATOM     76  C   UNL A   1      39.716  33.991  38.264  1.00  0.00     0.148 A 
ATOM     77  C   UNL A   1      40.964  36.475  37.833  1.00  0.00     0.002 A 
ATOM     78  C   UNL A   1      39.644  34.992  39.227  1.00  0.00     0.091 A 
ATOM     79  F   UNL A   1      39.173  32.783  38.463  1.00  0.00    -0.205 F 
ATOM     80  C   UNL A   1      40.282  36.227  39.021  1.00  0.00     0.022 A 
BRANCH  78  81
ATOM     81  S   UNL A   1      38.715  34.800  40.751  1.00  0.00     0.127 S 
ATOM     82  O   UNL A   1      37.519  34.101  40.281  1.00  0.00    -0.237 OA
ATOM     83  O   UNL A   1      39.617  33.983  41.563  1.00  0.00    -0.237 OA
ATOM     84  O   UNL A   1      38.498  36.147  41.259  1.00  0.00    -0.744 OA
ENDBRANCH  78  81
ENDBRANCH  60  74
BRANCH  61  85
ATOM     85  C   UNL A   1      41.018  27.905  29.356  1.00  0.00     0.023 A 
ATOM     86  C   UNL A   1      40.236  26.738  29.258  1.00  0.00     0.012 A 
ATOM     87  C   UNL A   1      41.869  28.257  28.290  1.00  0.00     0.148 A 
ATOM     88  C   UNL A   1      40.314  25.925  28.126  1.00  0.00     0.002 A 
ATOM     89  C   UNL A   1      41.904  27.471  27.144  1.00  0.00     0.091 A 
ATOM     90  F   UNL A   1      42.590  29.382  28.402  1.00  0.00    -0.205 F 
ATOM     91  C   UNL A   1      41.140  26.296  27.067  1.00  0.00     0.022 A 
BRANCH  89  92
ATOM     92  S   UNL A   1      42.847  27.930  25.687  1.00  0.00     0.127 S 
ATOM     93  O   UNL A   1      42.248  27.073  24.661  1.00  0.00    -0.237 OA
ATOM     94  O   UNL A   1      42.518  29.353  25.563  1.00  0.00    -0.237 OA
ATOM     95  O   UNL A   1      44.232  27.642  25.998  1.00  0.00    -0.744 OA
ENDBRANCH  89  92
ENDBRANCH  61  85
BRANCH  73  96
ATOM     96  C   UNL A   1      44.364  28.417  35.486  1.00  0.00     0.023 A 
ATOM     97  C   UNL A   1      45.699  28.666  35.113  1.00  0.00     0.012 A 
ATOM     98  C   UNL A   1      44.092  27.502  36.522  1.00  0.00     0.148 A 
ATOM     99  C   UNL A   1      46.746  27.995  35.745  1.00  0.00     0.002 A 
ATOM    100  C   UNL A   1      45.143  26.876  37.182  1.00  0.00     0.091 A 
ATOM    101  F   UNL A   1      42.813  27.269  36.850  1.00  0.00    -0.205 F 
ATOM    102  C   UNL A   1      46.469  27.112  36.786  1.00  0.00     0.022 A 
BRANCH 100 103
ATOM    103  S   UNL A   1      44.887  25.805  38.601  1.00  0.00     0.127 S 
ATOM    104  O   UNL A   1      44.143  24.696  38.006  1.00  0.00    -0.237 OA
ATOM    105  O   UNL A   1      46.258  25.479  38.994  1.00  0.00    -0.237 OA
ATOM    106  O   UNL A   1      44.150  26.597  39.576  1.00  0.00    -0.744 OA
ENDBRANCH 100 103
ENDBRANCH  73  96
ENDBRANCH  47  48
ENDBRANCH  39  42
ENDBRANCH  37  38
ENDBRANCH  36  37
ENDBRANCH  35  36
ENDBRANCH   3  35
TORSDOF 21
ENDMDL
MODEL 3
REMARK VINA RESULT:     -11.8      1.995      7.281
REMARK SMILES C=C[C@@H]1[C@@H](O)C[C@H]2[C@]3(CC[C@]4(C)[C@@H]([C@H](C)CCC=C(C)C)CC[C@]24C)C[C@]13CCC(=O)NCCCNC(=O)c1ccc(-c2c3nc(c(-c4cccc(S(=O)(=O)[O-])c4F)c4ccc([nH]4)c(-c4cccc(S(=O)(=O)[O-])c4F)c4nc(c(-c5cccc(S(=O)(=O)[O-])c5F)c5ccc2[nH]5)C=C4)C=C3)cc1
REMARK SMILES IDX 30 1 31 2 32 3 29 5 28 6 27 7 3 8 4 9 6 10 8 11 26 12 7 13
REMARK SMILES IDX 9 14 24 15 10 16 11 17 23 18 25 19 13 20 12 21 22 22 2 23
REMARK SMILES IDX 1 24 5 25 14 27 15 28 16 29 17 30 18 31 19 32 20 33 21 34
REMARK SMILES IDX 33 35 34 36 35 37 36 38 37 39 38 41 39 42 40 43 101 44 41 45
REMARK SMILES IDX 100 46 42 47 43 48 44 49 94 50 45 51 99 52 93 53 95 54 46 55
REMARK SMILES IDX 98 56 92 57 91 58 47 60 79 61 59 62 78 63 60 64 63 65 77 66
REMARK SMILES IDX 96 67 61 68 62 69 76 71 97 72 64 73 48 74 49 75 57 76 50 77
REMARK SMILES IDX 52 78 58 79 51 80 53 81 54 82 55 83 56 84 80 85 81 86 89 87
REMARK SMILES IDX 82 88 84 89 90 90 83 91 85 92 86 93 87 94 88 95 65 96 66 97
REMARK SMILES IDX 74 98 67 99 69 100 75 101 68 102 70 103 71 104 72 105 73 106
REMARK H PARENT 32 4 5 26 36 40 95 59 63 70
REMARK Flexibility Score: inf
ROOT
ATOM      1  C   UNL A   1      33.479  29.589  27.117  1.00  0.00     0.220 C 
ATOM      2  O   UNL A   1      34.260  28.653  26.930  1.00  0.00    -0.275 OA
ATOM      3  N   UNL A   1      34.009  30.834  27.293  1.00  0.00    -0.356 N 
ATOM      4  H   UNL A   1      34.992  30.877  27.297  1.00  0.00     0.163 HD
ENDROOT
BRANCH   1   5
ATOM      5  C   UNL A   1      31.973  29.360  27.086  1.00  0.00     0.100 C 
BRANCH   5   6
ATOM      6  C   UNL A   1      31.527  27.900  26.961  1.00  0.00     0.018 C 
BRANCH   6   7
ATOM      7  C   UNL A   1      31.271  27.322  25.548  1.00  0.00    -0.014 C 
ATOM      8  C   UNL A   1      31.447  28.360  24.385  1.00  0.00     0.047 C 
ATOM      9  C   UNL A   1      31.848  27.799  22.992  1.00  0.00     0.122 C 
ATOM     10  C   UNL A   1      31.600  26.319  22.784  1.00  0.00     0.037 C 
ATOM     11  C   UNL A   1      31.717  25.835  25.279  1.00  0.00    -0.019 C 
ATOM     12  C   UNL A   1      30.279  26.185  25.453  1.00  0.00     0.016 C 
ATOM     13  C   UNL A   1      32.246  25.460  23.884  1.00  0.00     0.005 C 
ATOM     14  C   UNL A   1      32.276  24.959  26.388  1.00  0.00     0.008 C 
ATOM     15  C   UNL A   1      32.139  23.895  23.575  1.00  0.00    -0.023 C 
ATOM     16  C   UNL A   1      32.069  23.472  26.103  1.00  0.00     0.008 C 
ATOM     17  C   UNL A   1      32.675  23.002  24.775  1.00  0.00    -0.024 C 
ATOM     18  C   UNL A   1      33.157  23.507  22.462  1.00  0.00     0.008 C 
ATOM     19  C   UNL A   1      30.692  23.567  23.126  1.00  0.00     0.012 C 
ATOM     20  C   UNL A   1      34.215  23.280  24.674  1.00  0.00    -0.002 C 
ATOM     21  C   UNL A   1      32.354  21.492  24.567  1.00  0.00     0.012 C 
ATOM     22  C   UNL A   1      34.478  23.128  23.165  1.00  0.00     0.005 C 
BRANCH   8  23
ATOM     23  C   UNL A   1      30.280  29.291  24.112  1.00  0.00    -0.028 C 
ATOM     24  C   UNL A   1      29.647  29.422  22.935  1.00  0.00     0.004 C 
ENDBRANCH   8  23
BRANCH   9  25
ATOM     25  O   UNL A   1      33.212  28.104  22.691  1.00  0.00    -0.392 OA
ATOM     26  H   UNL A   1      33.352  29.061  22.753  1.00  0.00     0.210 HD
ENDBRANCH   9  25
BRANCH  20  27
ATOM     27  C   UNL A   1      35.302  22.638  25.594  1.00  0.00    -0.010 C 
ATOM     28  C   UNL A   1      34.774  21.843  26.792  1.00  0.00     0.008 C 
BRANCH  27  29
ATOM     29  C   UNL A   1      36.345  23.669  26.127  1.00  0.00     0.008 C 
BRANCH  29  30
ATOM     30  C   UNL A   1      37.825  23.438  25.753  1.00  0.00     0.027 C 
BRANCH  30  31
ATOM     31  C   UNL A   1      38.336  22.028  25.761  1.00  0.00    -0.028 C 
ATOM     32  C   UNL A   1      39.557  21.592  26.127  1.00  0.00    -0.080 C 
ATOM     33  C   UNL A   1      39.887  20.129  26.071  1.00  0.00     0.039 C 
ATOM     34  C   UNL A   1      40.677  22.486  26.573  1.00  0.00     0.039 C 
ENDBRANCH  30  31
ENDBRANCH  29  30
ENDBRANCH  27  29
ENDBRANCH  20  27
ENDBRANCH   6   7
ENDBRANCH   5   6
ENDBRANCH   1   5
BRANCH   3  35
ATOM     35  C   UNL A   1      33.331  32.101  27.472  1.00  0.00     0.117 C 
BRANCH  35  36
ATOM     36  C   UNL A   1      34.100  33.049  28.376  1.00  0.00     0.042 C 
BRANCH  36  37
ATOM     37  C   UNL A   1      33.763  34.510  28.199  1.00  0.00     0.118 C 
BRANCH  37  38
ATOM     38  N   UNL A   1      33.171  35.077  29.403  1.00  0.00    -0.352 N 
ATOM     39  C   UNL A   1      33.429  34.853  30.737  1.00  0.00     0.251 C 
ATOM     40  H   UNL A   1      32.460  35.736  29.233  1.00  0.00     0.163 HD
ATOM     41  O   UNL A   1      32.628  35.295  31.563  1.00  0.00    -0.269 OA
BRANCH  39  42
ATOM     42  C   UNL A   1      34.620  34.094  31.205  1.00  0.00     0.039 A 
ATOM     43  C   UNL A   1      35.901  34.596  30.934  1.00  0.00     0.014 A 
ATOM     44  C   UNL A   1      34.511  32.863  31.848  1.00  0.00     0.014 A 
ATOM     45  C   UNL A   1      37.040  33.883  31.333  1.00  0.00     0.010 A 
ATOM     46  C   UNL A   1      35.631  32.240  32.385  1.00  0.00     0.010 A 
ATOM     47  C   UNL A   1      36.915  32.705  32.083  1.00  0.00    -0.014 A 
BRANCH  47  48
ATOM     48  C   UNL A   1      38.087  31.885  32.495  1.00  0.00     0.031 A 
ATOM     49  C   UNL A   1      38.810  32.204  33.784  1.00  0.00     0.074 A 
ATOM     50  C   UNL A   1      38.571  30.931  31.675  1.00  0.00     0.049 A 
ATOM     51  N   UNL A   1      39.914  31.692  34.265  1.00  0.00    -0.248 NA
ATOM     52  C   UNL A   1      38.244  33.278  34.621  1.00  0.00     0.031 C 
ATOM     53  C   UNL A   1      38.028  30.589  30.360  1.00  0.00     0.029 A 
ATOM     54  N   UNL A   1      39.654  30.100  31.815  1.00  0.00    -0.354 N 
ATOM     55  C   UNL A   1      40.207  32.426  35.410  1.00  0.00     0.074 A 
ATOM     56  C   UNL A   1      39.192  33.447  35.528  1.00  0.00     0.031 C 
ATOM     57  C   UNL A   1      38.776  29.617  29.816  1.00  0.00     0.029 A 
ATOM     58  C   UNL A   1      39.871  29.291  30.725  1.00  0.00     0.049 A 
ATOM     59  H   UNL A   1      40.220  30.083  32.620  1.00  0.00     0.167 HD
ATOM     60  C   UNL A   1      41.206  32.249  36.307  1.00  0.00     0.034 A 
ATOM     61  C   UNL A   1      40.849  28.398  30.476  1.00  0.00     0.034 A 
ATOM     62  C   UNL A   1      42.165  31.182  36.228  1.00  0.00     0.049 A 
ATOM     63  C   UNL A   1      41.901  28.153  31.524  1.00  0.00     0.074 A 
ATOM     64  C   UNL A   1      43.133  30.825  37.149  1.00  0.00     0.029 A 
ATOM     65  N   UNL A   1      42.280  30.303  35.162  1.00  0.00    -0.354 N 
ATOM     66  N   UNL A   1      42.060  28.740  32.686  1.00  0.00    -0.248 NA
ATOM     67  C   UNL A   1      42.885  27.097  31.246  1.00  0.00     0.031 C 
ATOM     68  C   UNL A   1      43.856  29.749  36.622  1.00  0.00     0.029 A 
ATOM     69  C   UNL A   1      43.314  29.413  35.392  1.00  0.00     0.049 A 
ATOM     70  H   UNL A   1      41.709  30.310  34.360  1.00  0.00     0.167 HD
ATOM     71  C   UNL A   1      43.141  28.109  33.289  1.00  0.00     0.074 A 
ATOM     72  C   UNL A   1      43.588  27.080  32.371  1.00  0.00     0.031 C 
ATOM     73  C   UNL A   1      43.719  28.365  34.489  1.00  0.00     0.034 A 
BRANCH  60  74
ATOM     74  C   UNL A   1      41.281  33.205  37.472  1.00  0.00     0.023 A 
ATOM     75  C   UNL A   1      40.485  32.985  38.617  1.00  0.00     0.012 A 
ATOM     76  C   UNL A   1      42.154  34.310  37.445  1.00  0.00     0.148 A 
ATOM     77  C   UNL A   1      40.511  33.878  39.687  1.00  0.00     0.002 A 
ATOM     78  C   UNL A   1      42.214  35.167  38.538  1.00  0.00     0.091 A 
ATOM     79  F   UNL A   1      42.889  34.520  36.345  1.00  0.00    -0.205 F 
ATOM     80  C   UNL A   1      41.381  34.963  39.652  1.00  0.00     0.022 A 
BRANCH  78  81
ATOM     81  S   UNL A   1      43.367  36.541  38.624  1.00  0.00     0.127 S 
ATOM     82  O   UNL A   1      44.655  35.851  38.562  1.00  0.00    -0.237 OA
ATOM     83  O   UNL A   1      43.028  37.305  37.423  1.00  0.00    -0.237 OA
ATOM     84  O   UNL A   1      43.079  37.226  39.877  1.00  0.00    -0.744 OA
ENDBRANCH  78  81
ENDBRANCH  60  74
BRANCH  61  85
ATOM     85  C   UNL A   1      40.830  27.631  29.200  1.00  0.00     0.023 A 
ATOM     86  C   UNL A   1      39.867  26.620  29.011  1.00  0.00     0.012 A 
ATOM     87  C   UNL A   1      41.711  27.949  28.148  1.00  0.00     0.148 A 
ATOM     88  C   UNL A   1      39.795  25.926  27.802  1.00  0.00     0.002 A 
ATOM     89  C   UNL A   1      41.600  27.289  26.929  1.00  0.00     0.091 A 
ATOM     90  F   UNL A   1      42.608  28.926  28.347  1.00  0.00    -0.205 F 
ATOM     91  C   UNL A   1      40.654  26.267  26.760  1.00  0.00     0.022 A 
BRANCH  89  92
ATOM     92  S   UNL A   1      42.584  27.738  25.495  1.00  0.00     0.127 S 
ATOM     93  O   UNL A   1      42.395  26.574  24.627  1.00  0.00    -0.237 OA
ATOM     94  O   UNL A   1      41.903  28.955  25.045  1.00  0.00    -0.237 OA
ATOM     95  O   UNL A   1      43.936  27.932  25.981  1.00  0.00    -0.744 OA
ENDBRANCH  89  92
ENDBRANCH  61  85
BRANCH  73  96
ATOM     96  C   UNL A   1      44.879  27.503  34.911  1.00  0.00     0.023 A 
ATOM     97  C   UNL A   1      46.199  27.955  34.712  1.00  0.00     0.012 A 
ATOM     98  C   UNL A   1      44.657  26.291  35.593  1.00  0.00     0.148 A 
ATOM     99  C   UNL A   1      47.280  27.199  35.164  1.00  0.00     0.002 A 
ATOM    100  C   UNL A   1      45.737  25.569  36.086  1.00  0.00     0.091 A 
ATOM    101  F   UNL A   1      43.394  25.872  35.757  1.00  0.00    -0.205 F 
ATOM    102  C   UNL A   1      47.050  26.016  35.861  1.00  0.00     0.022 A 
BRANCH 100 103
ATOM    103  S   UNL A   1      45.532  24.090  37.084  1.00  0.00     0.127 S 
ATOM    104  O   UNL A   1      46.919  23.744  37.391  1.00  0.00    -0.237 OA
ATOM    105  O   UNL A   1      44.761  24.590  38.223  1.00  0.00    -0.237 OA
ATOM    106  O   UNL A   1      44.823  23.134  36.246  1.00  0.00    -0.744 OA
ENDBRANCH 100 103
ENDBRANCH  73  96
ENDBRANCH  47  48
ENDBRANCH  39  42
ENDBRANCH  37  38
ENDBRANCH  36  37
ENDBRANCH  35  36
ENDBRANCH   3  35
TORSDOF 21
ENDMDL
