MODEL 1
REMARK VINA RESULT:     -12.0      0.000      0.000
REMARK SMILES COCC[C@@]1(C(=O)NCCCNC(=O)c2ccc(-c3c4nc(c(-c5cccc(S(=O)(=O)[O-])c5F)c5ccc([nH]5)c(-c5cccc(S(=O)(=O)[O-])c5F)c5nc(c(-c6cccc(S(=O)(=O)[O-])c6F)c6ccc3[nH]6)C=C5)C=C4)cc2)CCC[N@@H+](Cc2cccc3c2OC(C)(C)C3)C1
REMARK SMILES IDX 10 1 9 2 8 3 6 4 7 5 5 7 78 8 94 9 79 10 81 11 80 12 4 14
REMARK SMILES IDX 3 15 2 16 1 17 82 18 83 19 84 20 88 21 85 22 87 23 89 24
REMARK SMILES IDX 86 25 93 26 90 27 91 28 92 29 11 30 12 31 13 32 14 34 15 35
REMARK SMILES IDX 16 36 77 37 17 38 76 39 18 40 19 41 20 42 70 43 21 44 75 45
REMARK SMILES IDX 69 46 71 47 22 48 74 49 68 50 67 51 23 53 55 54 35 55 54 56
REMARK SMILES IDX 36 57 39 58 53 59 72 60 37 61 38 62 52 64 73 65 40 66 24 67
REMARK SMILES IDX 25 68 33 69 26 70 28 71 34 72 27 73 29 74 30 75 31 76 32 77
REMARK SMILES IDX 56 78 57 79 65 80 58 81 60 82 66 83 59 84 61 85 62 86 63 87
REMARK SMILES IDX 64 88 41 89 42 90 50 91 43 92 45 93 51 94 44 95 46 96 47 97
REMARK SMILES IDX 48 98 49 99
REMARK H PARENT 8 6 81 13 12 33 71 52 39 63
REMARK Flexibility Score: inf
ROOT
ATOM      1  C   UNL A   1      31.569  31.729  26.645  1.00  0.00     0.042 C 
ENDROOT
BRANCH   1   2
ATOM      2  C   UNL A   1      31.792  30.347  26.063  1.00  0.00     0.117 C 
BRANCH   2   3
ATOM      3  N   UNL A   1      31.587  29.310  27.047  1.00  0.00    -0.355 N 
ATOM      4  C   UNL A   1      31.927  28.010  27.101  1.00  0.00     0.232 C 
ATOM      5  O   UNL A   1      31.689  27.474  28.196  1.00  0.00    -0.274 OA
ATOM      6  H   UNL A   1      31.098  29.619  27.844  1.00  0.00     0.163 HD
BRANCH   4   7
ATOM      7  C   UNL A   1      32.440  27.141  25.925  1.00  0.00     0.100 C 
ATOM      8  C   UNL A   1      31.249  27.098  24.925  1.00  0.00     0.029 C 
ATOM      9  C   UNL A   1      32.840  25.654  26.154  1.00  0.00     0.279 C 
ATOM     10  C   UNL A   1      30.111  26.236  25.491  1.00  0.00     0.063 C 
ATOM     11  N   UNL A   1      31.759  24.805  26.693  1.00  0.00    -0.330 N 
ATOM     12  C   UNL A   1      30.586  24.815  25.814  1.00  0.00     0.262 C 
ATOM     13  H   UNL A   1      31.467  25.233  27.573  1.00  0.00     0.348 HD
BRANCH   7  14
ATOM     14  C   UNL A   1      33.702  27.934  25.419  1.00  0.00     0.051 C 
BRANCH  14  15
ATOM     15  C   UNL A   1      33.964  27.994  23.911  1.00  0.00     0.161 C 
BRANCH  15  16
ATOM     16  O   UNL A   1      33.507  29.211  23.314  1.00  0.00    -0.385 OA
ATOM     17  C   UNL A   1      32.528  29.036  22.300  1.00  0.00     0.194 C 
ENDBRANCH  15  16
ENDBRANCH  14  15
ENDBRANCH   7  14
BRANCH  11  18
ATOM     18  C   UNL A   1      32.199  23.433  27.124  1.00  0.00     0.303 C 
BRANCH  18  19
ATOM     19  C   UNL A   1      32.691  22.517  26.016  1.00  0.00     0.049 A 
ATOM     20  C   UNL A   1      31.793  21.803  25.225  1.00  0.00     0.013 A 
ATOM     21  C   UNL A   1      33.948  22.685  25.479  1.00  0.00     0.132 A 
ATOM     22  C   UNL A   1      32.088  21.592  23.870  1.00  0.00     0.001 A 
ATOM     23  C   UNL A   1      34.131  22.789  24.123  1.00  0.00    -0.001 A 
ATOM     24  O   UNL A   1      35.137  22.585  26.144  1.00  0.00    -0.487 OA
ATOM     25  C   UNL A   1      33.211  22.202  23.285  1.00  0.00     0.008 A 
ATOM     26  C   UNL A   1      35.415  23.515  23.934  1.00  0.00     0.087 C 
ATOM     27  C   UNL A   1      36.161  22.921  25.148  1.00  0.00     0.108 C 
ATOM     28  C   UNL A   1      37.003  21.746  24.601  1.00  0.00     0.057 C 
ATOM     29  C   UNL A   1      37.062  23.856  25.947  1.00  0.00     0.057 C 
ENDBRANCH  18  19
ENDBRANCH  11  18
ENDBRANCH   4   7
ENDBRANCH   2   3
ENDBRANCH   1   2
BRANCH   1  30
ATOM     30  C   UNL A   1      32.820  32.292  27.302  1.00  0.00     0.118 C 
BRANCH  30  31
ATOM     31  N   UNL A   1      32.699  33.724  27.566  1.00  0.00    -0.352 N 
ATOM     32  C   UNL A   1      33.246  34.487  28.569  1.00  0.00     0.251 C 
ATOM     33  H   UNL A   1      32.139  34.219  26.926  1.00  0.00     0.163 HD
ATOM     34  O   UNL A   1      32.794  35.599  28.809  1.00  0.00    -0.269 OA
BRANCH  32  35
ATOM     35  C   UNL A   1      34.382  33.956  29.347  1.00  0.00     0.039 A 
ATOM     36  C   UNL A   1      34.143  33.068  30.397  1.00  0.00     0.014 A 
ATOM     37  C   UNL A   1      35.685  34.354  29.043  1.00  0.00     0.014 A 
ATOM     38  C   UNL A   1      35.223  32.530  31.100  1.00  0.00     0.010 A 
ATOM     39  C   UNL A   1      36.758  33.733  29.664  1.00  0.00     0.010 A 
ATOM     40  C   UNL A   1      36.539  32.832  30.714  1.00  0.00    -0.014 A 
BRANCH  40  41
ATOM     41  C   UNL A   1      37.707  32.217  31.389  1.00  0.00     0.031 A 
ATOM     42  C   UNL A   1      38.455  31.092  30.728  1.00  0.00     0.074 A 
ATOM     43  C   UNL A   1      38.018  32.596  32.644  1.00  0.00     0.049 A 
ATOM     44  N   UNL A   1      39.452  30.384  31.189  1.00  0.00    -0.248 NA
ATOM     45  C   UNL A   1      38.000  30.683  29.388  1.00  0.00     0.031 C 
ATOM     46  C   UNL A   1      37.299  33.604  33.425  1.00  0.00     0.029 A 
ATOM     47  N   UNL A   1      38.999  32.153  33.494  1.00  0.00    -0.354 N 
ATOM     48  C   UNL A   1      39.709  29.419  30.224  1.00  0.00     0.074 A 
ATOM     49  C   UNL A   1      38.740  29.607  29.168  1.00  0.00     0.031 C 
ATOM     50  C   UNL A   1      37.863  33.705  34.638  1.00  0.00     0.029 A 
ATOM     51  C   UNL A   1      38.958  32.745  34.734  1.00  0.00     0.049 A 
ATOM     52  H   UNL A   1      39.667  31.476  33.241  1.00  0.00     0.167 HD
ATOM     53  C   UNL A   1      40.681  28.476  30.204  1.00  0.00     0.034 A 
ATOM     54  C   UNL A   1      39.707  32.529  35.832  1.00  0.00     0.034 A 
ATOM     55  C   UNL A   1      41.664  28.324  31.241  1.00  0.00     0.049 A 
ATOM     56  C   UNL A   1      40.819  31.520  35.767  1.00  0.00     0.074 A 
ATOM     57  C   UNL A   1      42.764  27.485  31.267  1.00  0.00     0.029 A 
ATOM     58  N   UNL A   1      41.656  29.010  32.446  1.00  0.00    -0.354 N 
ATOM     59  N   UNL A   1      41.166  30.741  34.772  1.00  0.00    -0.248 NA
ATOM     60  C   UNL A   1      41.666  31.386  36.959  1.00  0.00     0.031 C 
ATOM     61  C   UNL A   1      43.395  27.633  32.506  1.00  0.00     0.029 A 
ATOM     62  C   UNL A   1      42.715  28.597  33.235  1.00  0.00     0.049 A 
ATOM     63  H   UNL A   1      40.993  29.692  32.703  1.00  0.00     0.167 HD
ATOM     64  C   UNL A   1      42.287  30.043  35.205  1.00  0.00     0.074 A 
ATOM     65  C   UNL A   1      42.573  30.511  36.547  1.00  0.00     0.031 C 
ATOM     66  C   UNL A   1      43.007  29.094  34.556  1.00  0.00     0.034 A 
BRANCH  53  67
ATOM     67  C   UNL A   1      40.741  27.559  29.010  1.00  0.00     0.023 A 
ATOM     68  C   UNL A   1      39.857  26.463  28.918  1.00  0.00     0.012 A 
ATOM     69  C   UNL A   1      41.652  27.797  27.963  1.00  0.00     0.148 A 
ATOM     70  C   UNL A   1      39.914  25.592  27.830  1.00  0.00     0.002 A 
ATOM     71  C   UNL A   1      41.668  26.955  26.857  1.00  0.00     0.091 A 
ATOM     72  F   UNL A   1      42.501  28.828  28.076  1.00  0.00    -0.205 F 
ATOM     73  C   UNL A   1      40.811  25.843  26.797  1.00  0.00     0.022 A 
BRANCH  71  74
ATOM     74  S   UNL A   1      42.727  27.246  25.437  1.00  0.00     0.127 S 
ATOM     75  O   UNL A   1      44.030  27.430  26.073  1.00  0.00    -0.237 OA
ATOM     76  O   UNL A   1      42.585  25.996  24.688  1.00  0.00    -0.237 OA
ATOM     77  O   UNL A   1      42.185  28.419  24.766  1.00  0.00    -0.744 OA
ENDBRANCH  71  74
ENDBRANCH  53  67
BRANCH  54  78
ATOM     78  C   UNL A   1      39.451  33.329  37.061  1.00  0.00     0.023 A 
ATOM     79  C   UNL A   1      38.392  32.972  37.917  1.00  0.00     0.012 A 
ATOM     80  C   UNL A   1      40.296  34.397  37.421  1.00  0.00     0.148 A 
ATOM     81  C   UNL A   1      38.166  33.676  39.099  1.00  0.00     0.002 A 
ATOM     82  C   UNL A   1      40.101  35.058  38.628  1.00  0.00     0.091 A 
ATOM     83  F   UNL A   1      41.295  34.722  36.588  1.00  0.00    -0.205 F 
ATOM     84  C   UNL A   1      39.027  34.710  39.461  1.00  0.00     0.022 A 
BRANCH  82  85
ATOM     85  S   UNL A   1      41.240  36.304  39.241  1.00  0.00     0.127 S 
ATOM     86  O   UNL A   1      42.494  35.557  39.306  1.00  0.00    -0.237 OA
ATOM     87  O   UNL A   1      41.177  37.314  38.184  1.00  0.00    -0.237 OA
ATOM     88  O   UNL A   1      40.702  36.740  40.523  1.00  0.00    -0.744 OA
ENDBRANCH  82  85
ENDBRANCH  54  78
BRANCH  66  89
ATOM     89  C   UNL A   1      44.197  28.509  35.272  1.00  0.00     0.023 A 
ATOM     90  C   UNL A   1      45.489  29.012  35.020  1.00  0.00     0.012 A 
ATOM     91  C   UNL A   1      44.022  27.512  36.252  1.00  0.00     0.148 A 
ATOM     92  C   UNL A   1      46.591  28.509  35.709  1.00  0.00     0.002 A 
ATOM     93  C   UNL A   1      45.118  27.055  36.972  1.00  0.00     0.091 A 
ATOM     94  F   UNL A   1      42.787  27.034  36.465  1.00  0.00    -0.205 F 
ATOM     95  C   UNL A   1      46.404  27.542  36.693  1.00  0.00     0.022 A 
BRANCH  93  96
ATOM     96  S   UNL A   1      44.961  25.884  38.326  1.00  0.00     0.127 S 
ATOM     97  O   UNL A   1      44.370  24.729  37.652  1.00  0.00    -0.237 OA
ATOM     98  O   UNL A   1      46.351  25.703  38.741  1.00  0.00    -0.237 OA
ATOM     99  O   UNL A   1      44.111  26.527  39.319  1.00  0.00    -0.744 OA
ENDBRANCH  93  96
ENDBRANCH  66  89
ENDBRANCH  40  41
ENDBRANCH  32  35
ENDBRANCH  30  31
ENDBRANCH   1  30
TORSDOF 18
ENDMDL
MODEL 2
REMARK VINA RESULT:     -11.9      3.022      8.387
REMARK SMILES COCC[C@@]1(C(=O)NCCCNC(=O)c2ccc(-c3c4nc(c(-c5cccc(S(=O)(=O)[O-])c5F)c5ccc([nH]5)c(-c5cccc(S(=O)(=O)[O-])c5F)c5nc(c(-c6cccc(S(=O)(=O)[O-])c6F)c6ccc3[nH]6)C=C5)C=C4)cc2)CCC[N@@H+](Cc2cccc3c2OC(C)(C)C3)C1
REMARK SMILES IDX 10 1 9 2 8 3 6 4 7 5 5 7 78 8 94 9 79 10 81 11 80 12 4 14
REMARK SMILES IDX 3 15 2 16 1 17 82 18 83 19 84 20 88 21 85 22 87 23 89 24
REMARK SMILES IDX 86 25 93 26 90 27 91 28 92 29 11 30 12 31 13 32 14 34 15 35
REMARK SMILES IDX 16 36 77 37 17 38 76 39 18 40 19 41 20 42 70 43 21 44 75 45
REMARK SMILES IDX 69 46 71 47 22 48 74 49 68 50 67 51 23 53 55 54 35 55 54 56
REMARK SMILES IDX 36 57 39 58 53 59 72 60 37 61 38 62 52 64 73 65 40 66 24 67
REMARK SMILES IDX 25 68 33 69 26 70 28 71 34 72 27 73 29 74 30 75 31 76 32 77
REMARK SMILES IDX 56 78 57 79 65 80 58 81 60 82 66 83 59 84 61 85 62 86 63 87
REMARK SMILES IDX 64 88 41 89 42 90 50 91 43 92 45 93 51 94 44 95 46 96 47 97
REMARK SMILES IDX 48 98 49 99
REMARK H PARENT 8 6 81 13 12 33 71 52 39 63
REMARK Flexibility Score: inf
ROOT
ATOM      1  C   UNL A   1      32.640  29.972  26.855  1.00  0.00     0.042 C 
ENDROOT
BRANCH   1   2
ATOM      2  C   UNL A   1      32.527  29.728  25.364  1.00  0.00     0.117 C 
BRANCH   2   3
ATOM      3  N   UNL A   1      33.296  28.578  24.947  1.00  0.00    -0.355 N 
ATOM      4  C   UNL A   1      33.008  27.497  24.201  1.00  0.00     0.232 C 
ATOM      5  O   UNL A   1      33.995  26.785  23.948  1.00  0.00    -0.274 OA
ATOM      6  H   UNL A   1      34.223  28.589  25.278  1.00  0.00     0.163 HD
BRANCH   4   7
ATOM      7  C   UNL A   1      31.598  27.024  23.768  1.00  0.00     0.100 C 
ATOM      8  C   UNL A   1      30.744  27.111  25.066  1.00  0.00     0.029 C 
ATOM      9  C   UNL A   1      31.378  25.582  23.225  1.00  0.00     0.279 C 
ATOM     10  C   UNL A   1      31.163  26.013  26.053  1.00  0.00     0.063 C 
ATOM     11  N   UNL A   1      31.771  24.509  24.161  1.00  0.00    -0.330 N 
ATOM     12  C   UNL A   1      31.044  24.617  25.430  1.00  0.00     0.262 C 
ATOM     13  H   UNL A   1      32.756  24.660  24.377  1.00  0.00     0.348 HD
BRANCH   7  14
ATOM     14  C   UNL A   1      31.205  28.054  22.645  1.00  0.00     0.051 C 
BRANCH  14  15
ATOM     15  C   UNL A   1      29.919  28.867  22.824  1.00  0.00     0.161 C 
BRANCH  15  16
ATOM     16  O   UNL A   1      29.409  29.383  21.591  1.00  0.00    -0.385 OA
ATOM     17  C   UNL A   1      28.189  30.098  21.714  1.00  0.00     0.194 C 
ENDBRANCH  15  16
ENDBRANCH  14  15
ENDBRANCH   7  14
BRANCH  11  18
ATOM     18  C   UNL A   1      31.770  23.129  23.564  1.00  0.00     0.303 C 
BRANCH  18  19
ATOM     19  C   UNL A   1      33.137  22.512  23.319  1.00  0.00     0.049 A 
ATOM     20  C   UNL A   1      34.177  23.267  22.782  1.00  0.00     0.013 A 
ATOM     21  C   UNL A   1      33.520  21.374  23.993  1.00  0.00     0.132 A 
ATOM     22  C   UNL A   1      35.492  23.028  23.210  1.00  0.00     0.001 A 
ATOM     23  C   UNL A   1      34.711  21.319  24.672  1.00  0.00    -0.001 A 
ATOM     24  O   UNL A   1      32.913  20.151  23.935  1.00  0.00    -0.487 OA
ATOM     25  C   UNL A   1      35.744  22.129  24.260  1.00  0.00     0.008 A 
ATOM     26  C   UNL A   1      34.549  20.263  25.707  1.00  0.00     0.087 C 
ATOM     27  C   UNL A   1      33.655  19.312  24.883  1.00  0.00     0.108 C 
ATOM     28  C   UNL A   1      34.602  18.254  24.273  1.00  0.00     0.057 C 
ATOM     29  C   UNL A   1      32.518  18.606  25.614  1.00  0.00     0.057 C 
ENDBRANCH  18  19
ENDBRANCH  11  18
ENDBRANCH   4   7
ENDBRANCH   2   3
ENDBRANCH   1   2
BRANCH   1  30
ATOM     30  C   UNL A   1      34.031  30.428  27.267  1.00  0.00     0.118 C 
BRANCH  30  31
ATOM     31  N   UNL A   1      33.993  31.673  28.030  1.00  0.00    -0.352 N 
ATOM     32  C   UNL A   1      34.756  32.079  29.098  1.00  0.00     0.251 C 
ATOM     33  H   UNL A   1      33.317  32.323  27.732  1.00  0.00     0.163 HD
ATOM     34  O   UNL A   1      34.385  33.012  29.797  1.00  0.00    -0.269 OA
BRANCH  32  35
ATOM     35  C   UNL A   1      36.025  31.383  29.389  1.00  0.00     0.039 A 
ATOM     36  C   UNL A   1      37.212  31.849  28.820  1.00  0.00     0.014 A 
ATOM     37  C   UNL A   1      36.034  30.258  30.215  1.00  0.00     0.014 A 
ATOM     38  C   UNL A   1      38.417  31.219  29.134  1.00  0.00     0.010 A 
ATOM     39  C   UNL A   1      37.241  29.706  30.615  1.00  0.00     0.010 A 
ATOM     40  C   UNL A   1      38.443  30.166  30.063  1.00  0.00    -0.014 A 
BRANCH  40  41
ATOM     41  C   UNL A   1      39.715  29.527  30.477  1.00  0.00     0.031 A 
ATOM     42  C   UNL A   1      40.508  30.097  31.622  1.00  0.00     0.074 A 
ATOM     43  C   UNL A   1      40.209  28.507  29.750  1.00  0.00     0.049 A 
ATOM     44  N   UNL A   1      41.672  29.723  32.083  1.00  0.00    -0.248 NA
ATOM     45  C   UNL A   1      39.937  31.264  32.316  1.00  0.00     0.031 C 
ATOM     46  C   UNL A   1      39.579  27.938  28.557  1.00  0.00     0.029 A 
ATOM     47  N   UNL A   1      41.371  27.791  29.886  1.00  0.00    -0.354 N 
ATOM     48  C   UNL A   1      41.994  30.634  33.082  1.00  0.00     0.074 A 
ATOM     49  C   UNL A   1      40.921  31.601  33.135  1.00  0.00     0.031 C 
ATOM     50  C   UNL A   1      40.359  26.961  28.072  1.00  0.00     0.029 A 
ATOM     51  C   UNL A   1      41.559  26.858  28.895  1.00  0.00     0.049 A 
ATOM     52  H   UNL A   1      42.009  27.933  30.623  1.00  0.00     0.167 HD
ATOM     53  C   UNL A   1      43.073  30.649  33.900  1.00  0.00     0.034 A 
ATOM     54  C   UNL A   1      42.591  26.023  28.665  1.00  0.00     0.034 A 
ATOM     55  C   UNL A   1      44.114  29.660  33.866  1.00  0.00     0.049 A 
ATOM     56  C   UNL A   1      43.750  26.017  29.622  1.00  0.00     0.074 A 
ATOM     57  C   UNL A   1      45.187  29.510  34.725  1.00  0.00     0.029 A 
ATOM     58  N   UNL A   1      44.226  28.662  32.908  1.00  0.00    -0.354 N 
ATOM     59  N   UNL A   1      43.950  26.768  30.677  1.00  0.00    -0.248 NA
ATOM     60  C   UNL A   1      44.806  25.025  29.380  1.00  0.00     0.031 C 
ATOM     61  C   UNL A   1      45.971  28.448  34.261  1.00  0.00     0.029 A 
ATOM     62  C   UNL A   1      45.363  27.908  33.139  1.00  0.00     0.049 A 
ATOM     63  H   UNL A   1      43.588  28.512  32.173  1.00  0.00     0.167 HD
ATOM     64  C   UNL A   1      45.140  26.325  31.242  1.00  0.00     0.074 A 
ATOM     65  C   UNL A   1      45.603  25.222  30.422  1.00  0.00     0.031 C 
ATOM     66  C   UNL A   1      45.794  26.793  32.334  1.00  0.00     0.034 A 
BRANCH  53  67
ATOM     67  C   UNL A   1      43.161  31.758  34.918  1.00  0.00     0.023 A 
ATOM     68  C   UNL A   1      43.868  32.940  34.612  1.00  0.00     0.012 A 
ATOM     69  C   UNL A   1      42.521  31.642  36.167  1.00  0.00     0.148 A 
ATOM     70  C   UNL A   1      43.978  33.966  35.551  1.00  0.00     0.002 A 
ATOM     71  C   UNL A   1      42.592  32.690  37.077  1.00  0.00     0.091 A 
ATOM     72  F   UNL A   1      41.874  30.503  36.451  1.00  0.00    -0.205 F 
ATOM     73  C   UNL A   1      43.333  33.845  36.778  1.00  0.00     0.022 A 
BRANCH  71  74
ATOM     74  S   UNL A   1      41.723  32.664  38.649  1.00  0.00     0.127 S 
ATOM     75  O   UNL A   1      41.943  34.026  39.130  1.00  0.00    -0.237 OA
ATOM     76  O   UNL A   1      40.349  32.378  38.235  1.00  0.00    -0.237 OA
ATOM     77  O   UNL A   1      42.349  31.611  39.435  1.00  0.00    -0.744 OA
ENDBRANCH  71  74
ENDBRANCH  53  67
BRANCH  54  78
ATOM     78  C   UNL A   1      42.533  25.094  27.503  1.00  0.00     0.023 A 
ATOM     79  C   UNL A   1      43.100  25.479  26.274  1.00  0.00     0.012 A 
ATOM     80  C   UNL A   1      41.983  23.804  27.633  1.00  0.00     0.148 A 
ATOM     81  C   UNL A   1      43.103  24.604  25.188  1.00  0.00     0.002 A 
ATOM     82  C   UNL A   1      42.040  22.916  26.565  1.00  0.00     0.091 A 
ATOM     83  F   UNL A   1      41.445  23.461  28.812  1.00  0.00    -0.205 F 
ATOM     84  C   UNL A   1      42.584  23.319  25.337  1.00  0.00     0.022 A 
BRANCH  82  85
ATOM     85  S   UNL A   1      41.527  21.200  26.707  1.00  0.00     0.127 S 
ATOM     86  O   UNL A   1      40.071  21.324  26.730  1.00  0.00    -0.237 OA
ATOM     87  O   UNL A   1      42.078  20.621  25.482  1.00  0.00    -0.237 OA
ATOM     88  O   UNL A   1      42.135  20.703  27.934  1.00  0.00    -0.744 OA
ENDBRANCH  82  85
ENDBRANCH  54  78
BRANCH  66  89
ATOM     89  C   UNL A   1      47.074  26.104  32.730  1.00  0.00     0.023 A 
ATOM     90  C   UNL A   1      48.312  26.599  32.274  1.00  0.00     0.012 A 
ATOM     91  C   UNL A   1      47.051  25.011  33.619  1.00  0.00     0.148 A 
ATOM     92  C   UNL A   1      49.504  25.997  32.670  1.00  0.00     0.002 A 
ATOM     93  C   UNL A   1      48.246  24.451  34.052  1.00  0.00     0.091 A 
ATOM     94  F   UNL A   1      45.863  24.544  34.028  1.00  0.00    -0.205 F 
ATOM     95  C   UNL A   1      49.473  24.933  33.569  1.00  0.00     0.022 A 
BRANCH  93  96
ATOM     96  S   UNL A   1      48.307  23.144  35.284  1.00  0.00     0.127 S 
ATOM     97  O   UNL A   1      49.747  22.932  35.420  1.00  0.00    -0.237 OA
ATOM     98  O   UNL A   1      47.671  23.777  36.438  1.00  0.00    -0.237 OA
ATOM     99  O   UNL A   1      47.563  22.024  34.721  1.00  0.00    -0.744 OA
ENDBRANCH  93  96
ENDBRANCH  66  89
ENDBRANCH  40  41
ENDBRANCH  32  35
ENDBRANCH  30  31
ENDBRANCH   1  30
TORSDOF 18
ENDMDL
MODEL 3
REMARK VINA RESULT:     -11.7      1.622      2.364
REMARK SMILES COCC[C@@]1(C(=O)NCCCNC(=O)c2ccc(-c3c4nc(c(-c5cccc(S(=O)(=O)[O-])c5F)c5ccc([nH]5)c(-c5cccc(S(=O)(=O)[O-])c5F)c5nc(c(-c6cccc(S(=O)(=O)[O-])c6F)c6ccc3[nH]6)C=C5)C=C4)cc2)CCC[N@@H+](Cc2cccc3c2OC(C)(C)C3)C1
REMARK SMILES IDX 10 1 9 2 8 3 6 4 7 5 5 7 78 8 94 9 79 10 81 11 80 12 4 14
REMARK SMILES IDX 3 15 2 16 1 17 82 18 83 19 84 20 88 21 85 22 87 23 89 24
REMARK SMILES IDX 86 25 93 26 90 27 91 28 92 29 11 30 12 31 13 32 14 34 15 35
REMARK SMILES IDX 16 36 77 37 17 38 76 39 18 40 19 41 20 42 70 43 21 44 75 45
REMARK SMILES IDX 69 46 71 47 22 48 74 49 68 50 67 51 23 53 55 54 35 55 54 56
REMARK SMILES IDX 36 57 39 58 53 59 72 60 37 61 38 62 52 64 73 65 40 66 24 67
REMARK SMILES IDX 25 68 33 69 26 70 28 71 34 72 27 73 29 74 30 75 31 76 32 77
REMARK SMILES IDX 56 78 57 79 65 80 58 81 60 82 66 83 59 84 61 85 62 86 63 87
REMARK SMILES IDX 64 88 41 89 42 90 50 91 43 92 45 93 51 94 44 95 46 96 47 97
REMARK SMILES IDX 48 98 49 99
REMARK H PARENT 8 6 81 13 12 33 71 52 39 63
REMARK Flexibility Score: inf
ROOT
ATOM      1  C   UNL A   1      31.715  31.683  26.232  1.00  0.00     0.042 C 
ENDROOT
BRANCH   1   2
ATOM      2  C   UNL A   1      31.675  30.171  26.158  1.00  0.00     0.117 C 
BRANCH   2   3
ATOM      3  N   UNL A   1      32.472  29.664  25.065  1.00  0.00    -0.355 N 
ATOM      4  C   UNL A   1      32.298  28.666  24.181  1.00  0.00     0.232 C 
ATOM      5  O   UNL A   1      33.161  28.631  23.288  1.00  0.00    -0.274 OA
ATOM      6  H   UNL A   1      33.319  30.152  24.941  1.00  0.00     0.163 HD
BRANCH   4   7
ATOM      7  C   UNL A   1      31.239  27.538  24.261  1.00  0.00     0.100 C 
ATOM      8  C   UNL A   1      31.110  27.234  25.781  1.00  0.00     0.029 C 
ATOM      9  C   UNL A   1      31.498  26.159  23.585  1.00  0.00     0.279 C 
ATOM     10  C   UNL A   1      32.374  26.527  26.292  1.00  0.00     0.063 C 
ATOM     11  N   UNL A   1      32.707  25.459  24.065  1.00  0.00    -0.330 N 
ATOM     12  C   UNL A   1      32.653  25.237  25.513  1.00  0.00     0.262 C 
ATOM     13  H   UNL A   1      33.492  26.089  23.896  1.00  0.00     0.348 HD
BRANCH   7  14
ATOM     14  C   UNL A   1      29.968  28.194  23.605  1.00  0.00     0.051 C 
BRANCH  14  15
ATOM     15  C   UNL A   1      30.134  29.534  22.883  1.00  0.00     0.161 C 
BRANCH  15  16
ATOM     16  O   UNL A   1      29.494  29.562  21.604  1.00  0.00    -0.385 OA
ATOM     17  C   UNL A   1      28.854  30.791  21.294  1.00  0.00     0.194 C 
ENDBRANCH  15  16
ENDBRANCH  14  15
ENDBRANCH   7  14
BRANCH  11  18
ATOM     18  C   UNL A   1      33.082  24.242  23.265  1.00  0.00     0.303 C 
BRANCH  18  19
ATOM     19  C   UNL A   1      34.321  23.497  23.733  1.00  0.00     0.049 A 
ATOM     20  C   UNL A   1      35.517  24.172  23.964  1.00  0.00     0.013 A 
ATOM     21  C   UNL A   1      34.206  22.270  24.346  1.00  0.00     0.132 A 
ATOM     22  C   UNL A   1      36.354  23.749  25.008  1.00  0.00     0.001 A 
ATOM     23  C   UNL A   1      34.809  22.022  25.553  1.00  0.00    -0.001 A 
ATOM     24  O   UNL A   1      33.680  21.133  23.800  1.00  0.00    -0.487 OA
ATOM     25  C   UNL A   1      35.932  22.742  25.892  1.00  0.00     0.008 A 
ATOM     26  C   UNL A   1      34.045  20.907  26.175  1.00  0.00     0.087 C 
ATOM     27  C   UNL A   1      33.723  20.137  24.877  1.00  0.00     0.108 C 
ATOM     28  C   UNL A   1      34.798  19.034  24.754  1.00  0.00     0.057 C 
ATOM     29  C   UNL A   1      32.340  19.506  24.759  1.00  0.00     0.057 C 
ENDBRANCH  18  19
ENDBRANCH  11  18
ENDBRANCH   4   7
ENDBRANCH   2   3
ENDBRANCH   1   2
BRANCH   1  30
ATOM     30  C   UNL A   1      32.780  32.192  27.191  1.00  0.00     0.118 C 
BRANCH  30  31
ATOM     31  N   UNL A   1      32.636  33.621  27.458  1.00  0.00    -0.352 N 
ATOM     32  C   UNL A   1      33.176  34.392  28.458  1.00  0.00     0.251 C 
ATOM     33  H   UNL A   1      32.063  34.107  26.823  1.00  0.00     0.163 HD
ATOM     34  O   UNL A   1      32.707  35.495  28.703  1.00  0.00    -0.269 OA
BRANCH  32  35
ATOM     35  C   UNL A   1      34.328  33.880  29.227  1.00  0.00     0.039 A 
ATOM     36  C   UNL A   1      34.111  32.991  30.282  1.00  0.00     0.014 A 
ATOM     37  C   UNL A   1      35.622  34.296  28.910  1.00  0.00     0.014 A 
ATOM     38  C   UNL A   1      35.205  32.471  30.976  1.00  0.00     0.010 A 
ATOM     39  C   UNL A   1      36.709  33.693  29.523  1.00  0.00     0.010 A 
ATOM     40  C   UNL A   1      36.513  32.791  30.577  1.00  0.00    -0.014 A 
BRANCH  40  41
ATOM     41  C   UNL A   1      37.696  32.196  31.243  1.00  0.00     0.031 A 
ATOM     42  C   UNL A   1      38.441  31.065  30.588  1.00  0.00     0.074 A 
ATOM     43  C   UNL A   1      38.025  32.597  32.486  1.00  0.00     0.049 A 
ATOM     44  N   UNL A   1      39.450  30.372  31.045  1.00  0.00    -0.248 NA
ATOM     45  C   UNL A   1      37.968  30.630  29.263  1.00  0.00     0.031 C 
ATOM     46  C   UNL A   1      37.312  33.613  33.262  1.00  0.00     0.029 A 
ATOM     47  N   UNL A   1      39.023  32.175  33.328  1.00  0.00    -0.354 N 
ATOM     48  C   UNL A   1      39.698  29.392  30.091  1.00  0.00     0.074 A 
ATOM     49  C   UNL A   1      38.711  29.557  29.048  1.00  0.00     0.031 C 
ATOM     50  C   UNL A   1      37.895  33.738  34.464  1.00  0.00     0.029 A 
ATOM     51  C   UNL A   1      38.997  32.787  34.558  1.00  0.00     0.049 A 
ATOM     52  H   UNL A   1      39.692  31.498  33.074  1.00  0.00     0.167 HD
ATOM     53  C   UNL A   1      40.677  28.456  30.071  1.00  0.00     0.034 A 
ATOM     54  C   UNL A   1      39.766  32.594  35.647  1.00  0.00     0.034 A 
ATOM     55  C   UNL A   1      41.678  28.327  31.094  1.00  0.00     0.049 A 
ATOM     56  C   UNL A   1      40.884  31.592  35.580  1.00  0.00     0.074 A 
ATOM     57  C   UNL A   1      42.784  27.496  31.116  1.00  0.00     0.029 A 
ATOM     58  N   UNL A   1      41.684  29.033  32.288  1.00  0.00    -0.354 N 
ATOM     59  N   UNL A   1      41.221  30.798  34.592  1.00  0.00    -0.248 NA
ATOM     60  C   UNL A   1      41.751  31.483  36.760  1.00  0.00     0.031 C 
ATOM     61  C   UNL A   1      43.434  27.669  32.342  1.00  0.00     0.029 A 
ATOM     62  C   UNL A   1      42.759  28.640  33.066  1.00  0.00     0.049 A 
ATOM     63  H   UNL A   1      41.021  29.714  32.544  1.00  0.00     0.167 HD
ATOM     64  C   UNL A   1      42.353  30.115  35.019  1.00  0.00     0.074 A 
ATOM     65  C   UNL A   1      42.658  30.607  36.348  1.00  0.00     0.031 C 
ATOM     66  C   UNL A   1      43.069  29.161  34.374  1.00  0.00     0.034 A 
BRANCH  53  67
ATOM     67  C   UNL A   1      40.724  27.519  28.891  1.00  0.00     0.023 A 
ATOM     68  C   UNL A   1      39.775  26.481  28.777  1.00  0.00     0.012 A 
ATOM     69  C   UNL A   1      41.688  27.684  27.878  1.00  0.00     0.148 A 
ATOM     70  C   UNL A   1      39.818  25.592  27.703  1.00  0.00     0.002 A 
ATOM     71  C   UNL A   1      41.692  26.827  26.784  1.00  0.00     0.091 A 
ATOM     72  F   UNL A   1      42.597  28.660  28.013  1.00  0.00    -0.205 F 
ATOM     73  C   UNL A   1      40.769  25.771  26.704  1.00  0.00     0.022 A 
BRANCH  71  74
ATOM     74  S   UNL A   1      42.823  27.028  25.404  1.00  0.00     0.127 S 
ATOM     75  O   UNL A   1      44.106  27.159  26.089  1.00  0.00    -0.237 OA
ATOM     76  O   UNL A   1      42.645  25.771  24.676  1.00  0.00    -0.237 OA
ATOM     77  O   UNL A   1      42.371  28.212  24.686  1.00  0.00    -0.744 OA
ENDBRANCH  71  74
ENDBRANCH  53  67
BRANCH  54  78
ATOM     78  C   UNL A   1      39.524  33.413  36.867  1.00  0.00     0.023 A 
ATOM     79  C   UNL A   1      39.969  34.748  36.909  1.00  0.00     0.012 A 
ATOM     80  C   UNL A   1      38.793  32.896  37.954  1.00  0.00     0.148 A 
ATOM     81  C   UNL A   1      39.707  35.548  38.021  1.00  0.00     0.002 A 
ATOM     82  C   UNL A   1      38.486  33.715  39.034  1.00  0.00     0.091 A 
ATOM     83  F   UNL A   1      38.383  31.621  37.893  1.00  0.00    -0.205 F 
ATOM     84  C   UNL A   1      38.957  35.036  39.077  1.00  0.00     0.022 A 
BRANCH  82  85
ATOM     85  S   UNL A   1      37.408  33.188  40.370  1.00  0.00     0.127 S 
ATOM     86  O   UNL A   1      36.179  32.861  39.652  1.00  0.00    -0.237 OA
ATOM     87  O   UNL A   1      38.135  32.035  40.905  1.00  0.00    -0.237 OA
ATOM     88  O   UNL A   1      37.321  34.320  41.283  1.00  0.00    -0.744 OA
ENDBRANCH  82  85
ENDBRANCH  54  78
BRANCH  66  89
ATOM     89  C   UNL A   1      44.274  28.596  35.079  1.00  0.00     0.023 A 
ATOM     90  C   UNL A   1      45.552  29.139  34.837  1.00  0.00     0.012 A 
ATOM     91  C   UNL A   1      44.126  27.577  36.041  1.00  0.00     0.148 A 
ATOM     92  C   UNL A   1      46.667  28.654  35.517  1.00  0.00     0.002 A 
ATOM     93  C   UNL A   1      45.235  27.137  36.753  1.00  0.00     0.091 A 
ATOM     94  F   UNL A   1      42.905  27.062  36.245  1.00  0.00    -0.205 F 
ATOM     95  C   UNL A   1      46.507  27.664  36.484  1.00  0.00     0.022 A 
BRANCH  93  96
ATOM     96  S   UNL A   1      45.110  25.938  38.086  1.00  0.00     0.127 S 
ATOM     97  O   UNL A   1      44.081  26.541  38.932  1.00  0.00    -0.237 OA
ATOM     98  O   UNL A   1      44.687  24.731  37.377  1.00  0.00    -0.237 OA
ATOM     99  O   UNL A   1      46.437  25.857  38.681  1.00  0.00    -0.744 OA
ENDBRANCH  93  96
ENDBRANCH  66  89
ENDBRANCH  40  41
ENDBRANCH  32  35
ENDBRANCH  30  31
ENDBRANCH   1  30
TORSDOF 18
ENDMDL
