MODEL 1
REMARK VINA RESULT:     -12.0      0.000      0.000
REMARK SMILES NC(=O)[C@@H]1CCCCN1C(=O)N[C@H]1C=C[C@@H](C(=O)NCCCNC(=O)c2ccc(-c3c4nc(c(-c5cccc(S(=O)(=O)[O-])c5F)c5ccc([nH]5)c(-c5cccc(S(=O)(=O)[O-])c5F)c5nc(c(-c6cccc(S(=O)(=O)[O-])c6F)c6ccc3[nH]6)C=C5)C=C4)cc2)C1
REMARK SMILES IDX 21 1 20 2 19 3 17 4 18 5 16 7 13 8 14 9 89 10 15 11 12 12
REMARK SMILES IDX 10 13 11 14 9 16 4 17 5 18 6 19 8 20 7 21 2 22 1 23 3 26
REMARK SMILES IDX 22 27 23 28 24 29 25 31 26 32 27 33 88 34 28 35 87 36 29 37
REMARK SMILES IDX 30 38 31 39 81 40 32 41 86 42 80 43 82 44 33 45 85 46 79 47
REMARK SMILES IDX 78 48 34 50 66 51 46 52 65 53 47 54 50 55 64 56 83 57 48 58
REMARK SMILES IDX 49 59 63 61 84 62 51 63 35 64 36 65 44 66 37 67 39 68 45 69
REMARK SMILES IDX 38 70 40 71 41 72 42 73 43 74 67 75 68 76 76 77 69 78 71 79
REMARK SMILES IDX 77 80 70 81 72 82 73 83 74 84 75 85 52 86 53 87 61 88 54 89
REMARK SMILES IDX 56 90 62 91 55 92 57 93 58 94 59 95 60 96
REMARK H PARENT 19 6 12 15 1 24 1 25 23 30 82 49 50 60
REMARK Flexibility Score: inf
ROOT
ATOM      1  C   UNL A   1      33.345  28.933  24.777  1.00  0.00     0.042 C 
ENDROOT
BRANCH   1   2
ATOM      2  C   UNL A   1      31.842  29.155  24.823  1.00  0.00     0.117 C 
BRANCH   2   3
ATOM      3  N   UNL A   1      31.300  29.664  23.575  1.00  0.00    -0.356 N 
ATOM      4  C   UNL A   1      30.604  29.038  22.587  1.00  0.00     0.227 C 
ATOM      5  O   UNL A   1      30.184  29.737  21.657  1.00  0.00    -0.274 OA
ATOM      6  H   UNL A   1      31.464  30.622  23.417  1.00  0.00     0.163 HD
BRANCH   4   7
ATOM      7  C   UNL A   1      30.358  27.525  22.572  1.00  0.00     0.103 C 
ATOM      8  C   UNL A   1      31.376  25.570  23.670  1.00  0.00     0.107 C 
ATOM      9  C   UNL A   1      30.090  25.977  24.319  1.00  0.00    -0.006 C 
ATOM     10  C   UNL A   1      31.649  26.708  22.673  1.00  0.00     0.047 C 
ATOM     11  C   UNL A   1      29.513  27.013  23.697  1.00  0.00    -0.016 C 
BRANCH   8  12
ATOM     12  N   UNL A   1      32.435  25.486  24.644  1.00  0.00    -0.332 N 
ATOM     13  C   UNL A   1      33.288  24.527  25.053  1.00  0.00     0.318 C 
ATOM     14  O   UNL A   1      34.231  24.955  25.725  1.00  0.00    -0.249 OA
ATOM     15  H   UNL A   1      32.565  26.334  25.127  1.00  0.00     0.165 HD
BRANCH  13  16
ATOM     16  N   UNL A   1      33.132  23.197  24.781  1.00  0.00    -0.313 N 
ATOM     17  C   UNL A   1      32.441  22.350  25.788  1.00  0.00     0.176 C 
ATOM     18  C   UNL A   1      33.467  21.524  26.579  1.00  0.00     0.035 C 
ATOM     19  C   UNL A   1      34.325  20.689  25.618  1.00  0.00     0.004 C 
ATOM     20  C   UNL A   1      33.846  22.377  23.807  1.00  0.00     0.122 C 
ATOM     21  C   UNL A   1      34.928  21.556  24.512  1.00  0.00     0.022 C 
BRANCH  17  22
ATOM     22  C   UNL A   1      31.253  22.934  26.598  1.00  0.00     0.240 C 
ATOM     23  N   UNL A   1      29.997  22.723  26.109  1.00  0.00    -0.368 N 
ATOM     24  H   UNL A   1      29.215  23.078  26.592  1.00  0.00     0.159 HD
ATOM     25  H   UNL A   1      29.872  22.218  25.274  1.00  0.00     0.159 HD
ATOM     26  O   UNL A   1      31.427  23.562  27.643  1.00  0.00    -0.273 OA
ENDBRANCH  17  22
ENDBRANCH  13  16
ENDBRANCH   8  12
ENDBRANCH   4   7
ENDBRANCH   2   3
ENDBRANCH   1   2
BRANCH   1  27
ATOM     27  C   UNL A   1      34.052  29.133  26.110  1.00  0.00     0.118 C 
BRANCH  27  28
ATOM     28  N   UNL A   1      33.711  30.398  26.748  1.00  0.00    -0.352 N 
ATOM     29  C   UNL A   1      34.312  31.068  27.783  1.00  0.00     0.251 C 
ATOM     30  H   UNL A   1      32.918  30.845  26.374  1.00  0.00     0.163 HD
ATOM     31  O   UNL A   1      33.736  32.034  28.279  1.00  0.00    -0.269 OA
BRANCH  29  32
ATOM     32  C   UNL A   1      35.629  30.642  28.311  1.00  0.00     0.039 A 
ATOM     33  C   UNL A   1      35.666  29.652  29.296  1.00  0.00     0.014 A 
ATOM     34  C   UNL A   1      36.818  31.234  27.877  1.00  0.00     0.014 A 
ATOM     35  C   UNL A   1      36.895  29.220  29.801  1.00  0.00     0.010 A 
ATOM     36  C   UNL A   1      38.045  30.737  28.314  1.00  0.00     0.010 A 
ATOM     37  C   UNL A   1      38.098  29.735  29.290  1.00  0.00    -0.014 A 
BRANCH  37  38
ATOM     38  C   UNL A   1      39.407  29.209  29.755  1.00  0.00     0.031 A 
ATOM     39  C   UNL A   1      40.143  29.859  30.897  1.00  0.00     0.074 A 
ATOM     40  C   UNL A   1      39.969  28.177  29.098  1.00  0.00     0.049 A 
ATOM     41  N   UNL A   1      41.274  29.506  31.452  1.00  0.00    -0.248 NA
ATOM     42  C   UNL A   1      39.551  31.078  31.472  1.00  0.00     0.031 C 
ATOM     43  C   UNL A   1      39.416  27.534  27.903  1.00  0.00     0.029 A 
ATOM     44  N   UNL A   1      41.139  27.496  29.327  1.00  0.00    -0.354 N 
ATOM     45  C   UNL A   1      41.546  30.473  32.414  1.00  0.00     0.074 A 
ATOM     46  C   UNL A   1      40.481  31.448  32.341  1.00  0.00     0.031 C 
ATOM     47  C   UNL A   1      40.235  26.544  27.515  1.00  0.00     0.029 A 
ATOM     48  C   UNL A   1      41.378  26.490  28.420  1.00  0.00     0.049 A 
ATOM     49  H   UNL A   1      41.748  27.709  30.071  1.00  0.00     0.167 HD
ATOM     50  C   UNL A   1      42.571  30.527  33.298  1.00  0.00     0.034 A 
ATOM     51  C   UNL A   1      42.397  25.615  28.333  1.00  0.00     0.034 A 
ATOM     52  C   UNL A   1      43.602  29.529  33.398  1.00  0.00     0.049 A 
ATOM     53  C   UNL A   1      43.468  25.633  29.388  1.00  0.00     0.074 A 
ATOM     54  C   UNL A   1      44.623  29.435  34.327  1.00  0.00     0.029 A 
ATOM     55  N   UNL A   1      43.751  28.455  32.534  1.00  0.00    -0.354 N 
ATOM     56  N   UNL A   1      43.604  26.443  30.410  1.00  0.00    -0.248 NA
ATOM     57  C   UNL A   1      44.497  24.587  29.308  1.00  0.00     0.031 C 
ATOM     58  C   UNL A   1      45.400  28.314  34.013  1.00  0.00     0.029 A 
ATOM     59  C   UNL A   1      44.848  27.696  32.902  1.00  0.00     0.049 A 
ATOM     60  H   UNL A   1      43.161  28.261  31.769  1.00  0.00     0.167 HD
ATOM     61  C   UNL A   1      44.715  25.988  31.112  1.00  0.00     0.074 A 
ATOM     62  C   UNL A   1      45.196  24.814  30.412  1.00  0.00     0.031 C 
ATOM     63  C   UNL A   1      45.292  26.505  32.224  1.00  0.00     0.034 A 
BRANCH  50  64
ATOM     64  C   UNL A   1      42.593  31.677  34.274  1.00  0.00     0.023 A 
ATOM     65  C   UNL A   1      43.260  32.870  33.925  1.00  0.00     0.012 A 
ATOM     66  C   UNL A   1      41.914  31.602  35.505  1.00  0.00     0.148 A 
ATOM     67  C   UNL A   1      43.283  33.955  34.800  1.00  0.00     0.002 A 
ATOM     68  C   UNL A   1      41.903  32.705  36.353  1.00  0.00     0.091 A 
ATOM     69  F   UNL A   1      41.304  30.454  35.832  1.00  0.00    -0.205 F 
ATOM     70  C   UNL A   1      42.596  33.877  36.008  1.00  0.00     0.022 A 
BRANCH  68  71
ATOM     71  S   UNL A   1      40.977  32.727  37.893  1.00  0.00     0.127 S 
ATOM     72  O   UNL A   1      41.723  31.759  38.698  1.00  0.00    -0.237 OA
ATOM     73  O   UNL A   1      41.130  34.120  38.324  1.00  0.00    -0.237 OA
ATOM     74  O   UNL A   1      39.619  32.345  37.550  1.00  0.00    -0.744 OA
ENDBRANCH  68  71
ENDBRANCH  50  64
BRANCH  51  75
ATOM     75  C   UNL A   1      42.392  24.588  27.254  1.00  0.00     0.023 A 
ATOM     76  C   UNL A   1      43.268  24.727  26.160  1.00  0.00     0.012 A 
ATOM     77  C   UNL A   1      41.567  23.450  27.334  1.00  0.00     0.148 A 
ATOM     78  C   UNL A   1      43.303  23.765  25.150  1.00  0.00     0.002 A 
ATOM     79  C   UNL A   1      41.647  22.467  26.354  1.00  0.00     0.091 A 
ATOM     80  F   UNL A   1      40.731  23.342  28.375  1.00  0.00    -0.205 F 
ATOM     81  C   UNL A   1      42.503  22.630  25.253  1.00  0.00     0.022 A 
BRANCH  79  82
ATOM     82  S   UNL A   1      40.756  20.912  26.484  1.00  0.00     0.127 S 
ATOM     83  O   UNL A   1      39.443  21.275  25.956  1.00  0.00    -0.237 OA
ATOM     84  O   UNL A   1      41.547  20.033  25.623  1.00  0.00    -0.237 OA
ATOM     85  O   UNL A   1      40.796  20.554  27.896  1.00  0.00    -0.744 OA
ENDBRANCH  79  82
ENDBRANCH  51  75
BRANCH  63  86
ATOM     86  C   UNL A   1      46.502  25.792  32.772  1.00  0.00     0.023 A 
ATOM     87  C   UNL A   1      47.793  26.197  32.376  1.00  0.00     0.012 A 
ATOM     88  C   UNL A   1      46.363  24.753  33.713  1.00  0.00     0.148 A 
ATOM     89  C   UNL A   1      48.923  25.552  32.874  1.00  0.00     0.002 A 
ATOM     90  C   UNL A   1      47.496  24.148  34.242  1.00  0.00     0.091 A 
ATOM     91  F   UNL A   1      45.128  24.364  34.063  1.00  0.00    -0.205 F 
ATOM     92  C   UNL A   1      48.776  24.536  33.815  1.00  0.00     0.022 A 
BRANCH  90  93
ATOM     93  S   UNL A   1      47.394  22.897  35.528  1.00  0.00     0.127 S 
ATOM     94  O   UNL A   1      46.687  23.614  36.587  1.00  0.00    -0.237 OA
ATOM     95  O   UNL A   1      46.614  21.842  34.881  1.00  0.00    -0.237 OA
ATOM     96  O   UNL A   1      48.771  22.525  35.827  1.00  0.00    -0.744 OA
ENDBRANCH  90  93
ENDBRANCH  63  86
ENDBRANCH  37  38
ENDBRANCH  29  32
ENDBRANCH  27  28
ENDBRANCH   1  27
TORSDOF 16
ENDMDL
MODEL 2
REMARK VINA RESULT:     -12.0      1.536      1.881
REMARK SMILES NC(=O)[C@@H]1CCCCN1C(=O)N[C@H]1C=C[C@@H](C(=O)NCCCNC(=O)c2ccc(-c3c4nc(c(-c5cccc(S(=O)(=O)[O-])c5F)c5ccc([nH]5)c(-c5cccc(S(=O)(=O)[O-])c5F)c5nc(c(-c6cccc(S(=O)(=O)[O-])c6F)c6ccc3[nH]6)C=C5)C=C4)cc2)C1
REMARK SMILES IDX 21 1 20 2 19 3 17 4 18 5 16 7 13 8 14 9 89 10 15 11 12 12
REMARK SMILES IDX 10 13 11 14 9 16 4 17 5 18 6 19 8 20 7 21 2 22 1 23 3 26
REMARK SMILES IDX 22 27 23 28 24 29 25 31 26 32 27 33 88 34 28 35 87 36 29 37
REMARK SMILES IDX 30 38 31 39 81 40 32 41 86 42 80 43 82 44 33 45 85 46 79 47
REMARK SMILES IDX 78 48 34 50 66 51 46 52 65 53 47 54 50 55 64 56 83 57 48 58
REMARK SMILES IDX 49 59 63 61 84 62 51 63 35 64 36 65 44 66 37 67 39 68 45 69
REMARK SMILES IDX 38 70 40 71 41 72 42 73 43 74 67 75 68 76 76 77 69 78 71 79
REMARK SMILES IDX 77 80 70 81 72 82 73 83 74 84 75 85 52 86 53 87 61 88 54 89
REMARK SMILES IDX 56 90 62 91 55 92 57 93 58 94 59 95 60 96
REMARK H PARENT 19 6 12 15 1 24 1 25 23 30 82 49 50 60
REMARK Flexibility Score: inf
ROOT
ATOM      1  C   UNL A   1      31.886  29.504  25.480  1.00  0.00     0.042 C 
ENDROOT
BRANCH   1   2
ATOM      2  C   UNL A   1      32.324  29.000  24.115  1.00  0.00     0.117 C 
BRANCH   2   3
ATOM      3  N   UNL A   1      31.421  29.386  23.045  1.00  0.00    -0.356 N 
ATOM      4  C   UNL A   1      30.444  28.682  22.408  1.00  0.00     0.227 C 
ATOM      5  O   UNL A   1      29.758  29.288  21.577  1.00  0.00    -0.274 OA
ATOM      6  H   UNL A   1      31.533  30.311  22.728  1.00  0.00     0.163 HD
BRANCH   4   7
ATOM      7  C   UNL A   1      30.197  27.190  22.658  1.00  0.00     0.103 C 
ATOM      8  C   UNL A   1      31.285  25.428  23.989  1.00  0.00     0.107 C 
ATOM      9  C   UNL A   1      30.046  25.951  24.647  1.00  0.00    -0.006 C 
ATOM     10  C   UNL A   1      31.491  26.385  22.804  1.00  0.00     0.047 C 
ATOM     11  C   UNL A   1      29.429  26.879  23.904  1.00  0.00    -0.016 C 
BRANCH   8  12
ATOM     12  N   UNL A   1      32.407  25.491  24.891  1.00  0.00    -0.332 N 
ATOM     13  C   UNL A   1      33.471  24.707  25.155  1.00  0.00     0.318 C 
ATOM     14  O   UNL A   1      34.350  25.268  25.814  1.00  0.00    -0.249 OA
ATOM     15  H   UNL A   1      32.392  26.303  25.448  1.00  0.00     0.165 HD
BRANCH  13  16
ATOM     16  N   UNL A   1      33.577  23.403  24.760  1.00  0.00    -0.313 N 
ATOM     17  C   UNL A   1      33.221  22.341  25.738  1.00  0.00     0.176 C 
ATOM     18  C   UNL A   1      34.495  21.714  26.324  1.00  0.00     0.035 C 
ATOM     19  C   UNL A   1      35.387  21.178  25.195  1.00  0.00     0.004 C 
ATOM     20  C   UNL A   1      34.324  22.850  23.635  1.00  0.00     0.122 C 
ATOM     21  C   UNL A   1      35.640  22.246  24.131  1.00  0.00     0.022 C 
BRANCH  17  22
ATOM     22  C   UNL A   1      32.046  22.570  26.726  1.00  0.00     0.240 C 
ATOM     23  N   UNL A   1      30.780  22.439  26.234  1.00  0.00    -0.368 N 
ATOM     24  H   UNL A   1      30.006  22.576  26.828  1.00  0.00     0.159 HD
ATOM     25  H   UNL A   1      30.641  22.209  25.288  1.00  0.00     0.159 HD
ATOM     26  O   UNL A   1      32.238  22.854  27.908  1.00  0.00    -0.273 OA
ENDBRANCH  17  22
ENDBRANCH  13  16
ENDBRANCH   8  12
ENDBRANCH   4   7
ENDBRANCH   2   3
ENDBRANCH   1   2
BRANCH   1  27
ATOM     27  C   UNL A   1      33.030  29.910  26.398  1.00  0.00     0.118 C 
BRANCH  27  28
ATOM     28  N   UNL A   1      32.996  31.323  26.753  1.00  0.00    -0.352 N 
ATOM     29  C   UNL A   1      33.794  32.052  27.599  1.00  0.00     0.251 C 
ATOM     30  H   UNL A   1      32.284  31.840  26.314  1.00  0.00     0.163 HD
ATOM     31  O   UNL A   1      33.461  33.199  27.888  1.00  0.00    -0.269 OA
BRANCH  29  32
ATOM     32  C   UNL A   1      35.034  31.477  28.170  1.00  0.00     0.039 A 
ATOM     33  C   UNL A   1      36.190  32.262  28.184  1.00  0.00     0.014 A 
ATOM     34  C   UNL A   1      35.080  30.166  28.651  1.00  0.00     0.014 A 
ATOM     35  C   UNL A   1      37.370  31.752  28.730  1.00  0.00     0.010 A 
ATOM     36  C   UNL A   1      36.231  29.693  29.278  1.00  0.00     0.010 A 
ATOM     37  C   UNL A   1      37.393  30.474  29.314  1.00  0.00    -0.014 A 
BRANCH  37  38
ATOM     38  C   UNL A   1      38.619  29.966  29.981  1.00  0.00     0.031 A 
ATOM     39  C   UNL A   1      39.007  30.439  31.356  1.00  0.00     0.074 A 
ATOM     40  C   UNL A   1      39.427  29.122  29.311  1.00  0.00     0.049 A 
ATOM     41  N   UNL A   1      40.022  30.072  32.096  1.00  0.00    -0.248 NA
ATOM     42  C   UNL A   1      38.167  31.480  31.972  1.00  0.00     0.031 C 
ATOM     43  C   UNL A   1      39.227  28.679  27.929  1.00  0.00     0.029 A 
ATOM     44  N   UNL A   1      40.588  28.498  29.693  1.00  0.00    -0.354 N 
ATOM     45  C   UNL A   1      39.964  30.855  33.243  1.00  0.00     0.074 A 
ATOM     46  C   UNL A   1      38.836  31.746  33.085  1.00  0.00     0.031 C 
ATOM     47  C   UNL A   1      40.219  27.844  27.585  1.00  0.00     0.029 A 
ATOM     48  C   UNL A   1      41.135  27.703  28.712  1.00  0.00     0.049 A 
ATOM     49  H   UNL A   1      40.991  28.609  30.584  1.00  0.00     0.167 HD
ATOM     50  C   UNL A   1      40.756  30.815  34.341  1.00  0.00     0.034 A 
ATOM     51  C   UNL A   1      42.242  26.937  28.723  1.00  0.00     0.034 A 
ATOM     52  C   UNL A   1      41.848  29.896  34.512  1.00  0.00     0.049 A 
ATOM     53  C   UNL A   1      43.046  26.833  29.989  1.00  0.00     0.074 A 
ATOM     54  C   UNL A   1      42.645  29.701  35.628  1.00  0.00     0.029 A 
ATOM     55  N   UNL A   1      42.305  29.019  33.540  1.00  0.00    -0.354 N 
ATOM     56  N   UNL A   1      42.861  27.441  31.135  1.00  0.00    -0.248 NA
ATOM     57  C   UNL A   1      44.181  25.900  29.980  1.00  0.00     0.031 C 
ATOM     58  C   UNL A   1      43.595  28.720  35.322  1.00  0.00     0.029 A 
ATOM     59  C   UNL A   1      43.375  28.286  34.025  1.00  0.00     0.049 A 
ATOM     60  H   UNL A   1      41.924  28.931  32.636  1.00  0.00     0.167 HD
ATOM     61  C   UNL A   1      43.835  26.944  31.993  1.00  0.00     0.074 A 
ATOM     62  C   UNL A   1      44.590  25.963  31.240  1.00  0.00     0.031 C 
ATOM     63  C   UNL A   1      44.091  27.281  33.281  1.00  0.00     0.034 A 
BRANCH  50  64
ATOM     64  C   UNL A   1      40.432  31.758  35.473  1.00  0.00     0.023 A 
ATOM     65  C   UNL A   1      41.229  32.904  35.673  1.00  0.00     0.012 A 
ATOM     66  C   UNL A   1      39.313  31.544  36.302  1.00  0.00     0.148 A 
ATOM     67  C   UNL A   1      40.942  33.801  36.700  1.00  0.00     0.002 A 
ATOM     68  C   UNL A   1      39.008  32.467  37.297  1.00  0.00     0.091 A 
ATOM     69  F   UNL A   1      38.579  30.438  36.115  1.00  0.00    -0.205 F 
ATOM     70  C   UNL A   1      39.827  33.589  37.504  1.00  0.00     0.022 A 
BRANCH  68  71
ATOM     71  S   UNL A   1      37.544  32.322  38.329  1.00  0.00     0.127 S 
ATOM     72  O   UNL A   1      38.006  32.925  39.580  1.00  0.00    -0.237 OA
ATOM     73  O   UNL A   1      36.566  33.128  37.592  1.00  0.00    -0.237 OA
ATOM     74  O   UNL A   1      37.236  30.905  38.390  1.00  0.00    -0.744 OA
ENDBRANCH  68  71
ENDBRANCH  50  64
BRANCH  51  75
ATOM     75  C   UNL A   1      42.592  26.136  27.516  1.00  0.00     0.023 A 
ATOM     76  C   UNL A   1      43.410  26.704  26.520  1.00  0.00     0.012 A 
ATOM     77  C   UNL A   1      42.166  24.802  27.378  1.00  0.00     0.148 A 
ATOM     78  C   UNL A   1      43.776  25.966  25.394  1.00  0.00     0.002 A 
ATOM     79  C   UNL A   1      42.580  24.054  26.282  1.00  0.00     0.091 A 
ATOM     80  F   UNL A   1      41.378  24.283  28.330  1.00  0.00    -0.205 F 
ATOM     81  C   UNL A   1      43.371  24.638  25.281  1.00  0.00     0.022 A 
BRANCH  79  82
ATOM     82  S   UNL A   1      42.222  22.299  26.132  1.00  0.00     0.127 S 
ATOM     83  O   UNL A   1      40.766  22.300  26.019  1.00  0.00    -0.237 OA
ATOM     84  O   UNL A   1      42.936  21.945  24.905  1.00  0.00    -0.237 OA
ATOM     85  O   UNL A   1      42.766  21.683  27.335  1.00  0.00    -0.744 OA
ENDBRANCH  79  82
ENDBRANCH  51  75
BRANCH  63  86
ATOM     86  C   UNL A   1      45.225  26.568  33.971  1.00  0.00     0.023 A 
ATOM     87  C   UNL A   1      46.542  27.053  33.839  1.00  0.00     0.012 A 
ATOM     88  C   UNL A   1      44.983  25.446  34.788  1.00  0.00     0.148 A 
ATOM     89  C   UNL A   1      47.603  26.409  34.473  1.00  0.00     0.002 A 
ATOM     90  C   UNL A   1      46.039  24.839  35.456  1.00  0.00     0.091 A 
ATOM     91  F   UNL A   1      43.727  24.983  34.886  1.00  0.00    -0.205 F 
ATOM     92  C   UNL A   1      47.351  25.310  35.289  1.00  0.00     0.022 A 
BRANCH  90  93
ATOM     93  S   UNL A   1      45.784  23.478  36.600  1.00  0.00     0.127 S 
ATOM     94  O   UNL A   1      44.953  24.102  37.628  1.00  0.00    -0.237 OA
ATOM     95  O   UNL A   1      45.089  22.493  35.770  1.00  0.00    -0.237 OA
ATOM     96  O   UNL A   1      47.115  23.066  37.026  1.00  0.00    -0.744 OA
ENDBRANCH  90  93
ENDBRANCH  63  86
ENDBRANCH  37  38
ENDBRANCH  29  32
ENDBRANCH  27  28
ENDBRANCH   1  27
TORSDOF 16
ENDMDL
MODEL 3
REMARK VINA RESULT:     -11.9      5.047     10.003
REMARK SMILES NC(=O)[C@@H]1CCCCN1C(=O)N[C@H]1C=C[C@@H](C(=O)NCCCNC(=O)c2ccc(-c3c4nc(c(-c5cccc(S(=O)(=O)[O-])c5F)c5ccc([nH]5)c(-c5cccc(S(=O)(=O)[O-])c5F)c5nc(c(-c6cccc(S(=O)(=O)[O-])c6F)c6ccc3[nH]6)C=C5)C=C4)cc2)C1
REMARK SMILES IDX 21 1 20 2 19 3 17 4 18 5 16 7 13 8 14 9 89 10 15 11 12 12
REMARK SMILES IDX 10 13 11 14 9 16 4 17 5 18 6 19 8 20 7 21 2 22 1 23 3 26
REMARK SMILES IDX 22 27 23 28 24 29 25 31 26 32 27 33 88 34 28 35 87 36 29 37
REMARK SMILES IDX 30 38 31 39 81 40 32 41 86 42 80 43 82 44 33 45 85 46 79 47
REMARK SMILES IDX 78 48 34 50 66 51 46 52 65 53 47 54 50 55 64 56 83 57 48 58
REMARK SMILES IDX 49 59 63 61 84 62 51 63 35 64 36 65 44 66 37 67 39 68 45 69
REMARK SMILES IDX 38 70 40 71 41 72 42 73 43 74 67 75 68 76 76 77 69 78 71 79
REMARK SMILES IDX 77 80 70 81 72 82 73 83 74 84 75 85 52 86 53 87 61 88 54 89
REMARK SMILES IDX 56 90 62 91 55 92 57 93 58 94 59 95 60 96
REMARK H PARENT 19 6 12 15 1 24 1 25 23 30 82 49 50 60
REMARK Flexibility Score: inf
ROOT
ATOM      1  C   UNL A   1      36.146  21.524  24.894  1.00  0.00     0.042 C 
ENDROOT
BRANCH   1   2
ATOM      2  C   UNL A   1      34.914  21.545  25.784  1.00  0.00     0.117 C 
BRANCH   2   3
ATOM      3  N   UNL A   1      34.238  20.262  25.855  1.00  0.00    -0.356 N 
ATOM      4  C   UNL A   1      33.031  19.864  25.368  1.00  0.00     0.227 C 
ATOM      5  O   UNL A   1      32.729  18.672  25.501  1.00  0.00    -0.274 OA
ATOM      6  H   UNL A   1      34.737  19.562  26.336  1.00  0.00     0.163 HD
BRANCH   4   7
ATOM      7  C   UNL A   1      32.042  20.831  24.707  1.00  0.00     0.103 C 
ATOM      8  C   UNL A   1      31.986  23.251  24.256  1.00  0.00     0.107 C 
ATOM      9  C   UNL A   1      32.337  22.456  23.037  1.00  0.00    -0.006 C 
ATOM     10  C   UNL A   1      32.004  22.204  25.382  1.00  0.00     0.047 C 
ATOM     11  C   UNL A   1      32.326  21.137  23.270  1.00  0.00    -0.016 C 
BRANCH   8  12
ATOM     12  N   UNL A   1      32.971  24.273  24.500  1.00  0.00    -0.332 N 
ATOM     13  C   UNL A   1      32.959  25.619  24.573  1.00  0.00     0.318 C 
ATOM     14  O   UNL A   1      33.978  26.097  25.080  1.00  0.00    -0.249 OA
ATOM     15  H   UNL A   1      33.869  23.898  24.648  1.00  0.00     0.165 HD
BRANCH  13  16
ATOM     16  N   UNL A   1      31.937  26.401  24.115  1.00  0.00    -0.313 N 
ATOM     17  C   UNL A   1      32.033  26.947  22.735  1.00  0.00     0.176 C 
ATOM     18  C   UNL A   1      32.440  28.427  22.780  1.00  0.00     0.035 C 
ATOM     19  C   UNL A   1      31.449  29.221  23.643  1.00  0.00     0.004 C 
ATOM     20  C   UNL A   1      30.905  27.093  24.882  1.00  0.00     0.122 C 
ATOM     21  C   UNL A   1      31.264  28.575  25.016  1.00  0.00     0.022 C 
BRANCH  17  22
ATOM     22  C   UNL A   1      32.673  26.088  21.613  1.00  0.00     0.240 C 
ATOM     23  N   UNL A   1      31.904  25.812  20.520  1.00  0.00    -0.368 N 
ATOM     24  H   UNL A   1      32.272  25.270  19.784  1.00  0.00     0.159 HD
ATOM     25  H   UNL A   1      30.984  26.153  20.467  1.00  0.00     0.159 HD
ATOM     26  O   UNL A   1      33.829  25.670  21.694  1.00  0.00    -0.273 OA
ENDBRANCH  17  22
ENDBRANCH  13  16
ENDBRANCH   8  12
ENDBRANCH   4   7
ENDBRANCH   2   3
ENDBRANCH   1   2
BRANCH   1  27
ATOM     27  C   UNL A   1      37.369  22.204  25.494  1.00  0.00     0.118 C 
BRANCH  27  28
ATOM     28  N   UNL A   1      38.400  21.258  25.902  1.00  0.00    -0.352 N 
ATOM     29  C   UNL A   1      39.656  21.470  26.412  1.00  0.00     0.251 C 
ATOM     30  H   UNL A   1      38.154  20.311  25.793  1.00  0.00     0.163 HD
ATOM     31  O   UNL A   1      40.425  20.516  26.510  1.00  0.00    -0.269 OA
BRANCH  29  32
ATOM     32  C   UNL A   1      40.095  22.819  26.835  1.00  0.00     0.039 A 
ATOM     33  C   UNL A   1      40.964  22.929  27.925  1.00  0.00     0.014 A 
ATOM     34  C   UNL A   1      39.632  23.974  26.199  1.00  0.00     0.014 A 
ATOM     35  C   UNL A   1      41.407  24.188  28.335  1.00  0.00     0.010 A 
ATOM     36  C   UNL A   1      40.147  25.220  26.551  1.00  0.00     0.010 A 
ATOM     37  C   UNL A   1      41.029  25.344  27.631  1.00  0.00    -0.014 A 
BRANCH  37  38
ATOM     38  C   UNL A   1      41.576  26.673  28.006  1.00  0.00     0.031 A 
ATOM     39  C   UNL A   1      43.002  27.042  27.695  1.00  0.00     0.074 A 
ATOM     40  C   UNL A   1      40.797  27.530  28.694  1.00  0.00     0.049 A 
ATOM     41  N   UNL A   1      43.626  28.170  27.919  1.00  0.00    -0.248 NA
ATOM     42  C   UNL A   1      43.847  26.005  27.082  1.00  0.00     0.031 C 
ATOM     43  C   UNL A   1      39.437  27.248  29.160  1.00  0.00     0.029 A 
ATOM     44  N   UNL A   1      41.041  28.805  29.138  1.00  0.00    -0.354 N 
ATOM     45  C   UNL A   1      44.939  27.969  27.508  1.00  0.00     0.074 A 
ATOM     46  C   UNL A   1      45.032  26.599  27.056  1.00  0.00     0.031 C 
ATOM     47  C   UNL A   1      38.962  28.322  29.809  1.00  0.00     0.029 A 
ATOM     48  C   UNL A   1      39.984  29.363  29.821  1.00  0.00     0.049 A 
ATOM     49  H   UNL A   1      41.892  29.276  28.983  1.00  0.00     0.167 HD
ATOM     50  C   UNL A   1      45.965  28.853  27.478  1.00  0.00     0.034 A 
ATOM     51  C   UNL A   1      39.849  30.579  30.382  1.00  0.00     0.034 A 
ATOM     52  C   UNL A   1      45.855  30.228  27.885  1.00  0.00     0.049 A 
ATOM     53  C   UNL A   1      40.967  31.575  30.245  1.00  0.00     0.074 A 
ATOM     54  C   UNL A   1      46.803  31.233  27.795  1.00  0.00     0.029 A 
ATOM     55  N   UNL A   1      44.731  30.795  28.467  1.00  0.00    -0.354 N 
ATOM     56  N   UNL A   1      42.139  31.426  29.678  1.00  0.00    -0.248 NA
ATOM     57  C   UNL A   1      40.725  32.922  30.781  1.00  0.00     0.031 C 
ATOM     58  C   UNL A   1      46.258  32.401  28.340  1.00  0.00     0.029 A 
ATOM     59  C   UNL A   1      44.961  32.130  28.747  1.00  0.00     0.049 A 
ATOM     60  H   UNL A   1      43.891  30.315  28.653  1.00  0.00     0.167 HD
ATOM     61  C   UNL A   1      42.763  32.665  29.760  1.00  0.00     0.074 A 
ATOM     62  C   UNL A   1      41.826  33.560  30.407  1.00  0.00     0.031 C 
ATOM     63  C   UNL A   1      44.006  33.023  29.352  1.00  0.00     0.034 A 
BRANCH  50  64
ATOM     64  C   UNL A   1      47.286  28.374  26.930  1.00  0.00     0.023 A 
ATOM     65  C   UNL A   1      48.354  28.120  27.816  1.00  0.00     0.012 A 
ATOM     66  C   UNL A   1      47.457  28.123  25.555  1.00  0.00     0.148 A 
ATOM     67  C   UNL A   1      49.581  27.660  27.340  1.00  0.00     0.002 A 
ATOM     68  C   UNL A   1      48.669  27.622  25.093  1.00  0.00     0.091 A 
ATOM     69  F   UNL A   1      46.441  28.392  24.723  1.00  0.00    -0.205 F 
ATOM     70  C   UNL A   1      49.735  27.401  25.981  1.00  0.00     0.022 A 
BRANCH  68  71
ATOM     71  S   UNL A   1      48.936  27.180  23.372  1.00  0.00     0.127 S 
ATOM     72  O   UNL A   1      50.377  26.927  23.353  1.00  0.00    -0.237 OA
ATOM     73  O   UNL A   1      48.108  25.978  23.231  1.00  0.00    -0.237 OA
ATOM     74  O   UNL A   1      48.487  28.318  22.591  1.00  0.00    -0.744 OA
ENDBRANCH  68  71
ENDBRANCH  50  64
BRANCH  51  75
ATOM     75  C   UNL A   1      38.563  30.944  31.040  1.00  0.00     0.023 A 
ATOM     76  C   UNL A   1      38.408  30.734  32.424  1.00  0.00     0.012 A 
ATOM     77  C   UNL A   1      37.519  31.549  30.315  1.00  0.00     0.148 A 
ATOM     78  C   UNL A   1      37.225  31.094  33.070  1.00  0.00     0.002 A 
ATOM     79  C   UNL A   1      36.365  31.956  30.974  1.00  0.00     0.091 A 
ATOM     80  F   UNL A   1      37.680  31.729  28.997  1.00  0.00    -0.205 F 
ATOM     81  C   UNL A   1      36.209  31.715  32.348  1.00  0.00     0.022 A 
BRANCH  79  82
ATOM     82  S   UNL A   1      35.071  32.889  30.147  1.00  0.00     0.127 S 
ATOM     83  O   UNL A   1      34.162  33.185  31.252  1.00  0.00    -0.237 OA
ATOM     84  O   UNL A   1      35.808  34.042  29.629  1.00  0.00    -0.237 OA
ATOM     85  O   UNL A   1      34.549  32.005  29.113  1.00  0.00    -0.744 OA
ENDBRANCH  79  82
ENDBRANCH  51  75
BRANCH  63  86
ATOM     86  C   UNL A   1      44.421  34.455  29.573  1.00  0.00     0.023 A 
ATOM     87  C   UNL A   1      45.005  34.834  30.799  1.00  0.00     0.012 A 
ATOM     88  C   UNL A   1      44.276  35.415  28.552  1.00  0.00     0.148 A 
ATOM     89  C   UNL A   1      45.398  36.152  31.019  1.00  0.00     0.002 A 
ATOM     90  C   UNL A   1      44.715  36.716  28.762  1.00  0.00     0.091 A 
ATOM     91  F   UNL A   1      43.698  35.044  27.399  1.00  0.00    -0.205 F 
ATOM     92  C   UNL A   1      45.264  37.090  29.999  1.00  0.00     0.022 A 
BRANCH  90  93
ATOM     93  S   UNL A   1      44.665  37.959  27.466  1.00  0.00     0.127 S 
ATOM     94  O   UNL A   1      45.742  37.514  26.583  1.00  0.00    -0.237 OA
ATOM     95  O   UNL A   1      43.319  37.788  26.917  1.00  0.00    -0.237 OA
ATOM     96  O   UNL A   1      44.880  39.235  28.134  1.00  0.00    -0.744 OA
ENDBRANCH  90  93
ENDBRANCH  63  86
ENDBRANCH  37  38
ENDBRANCH  29  32
ENDBRANCH  27  28
ENDBRANCH   1  27
TORSDOF 16
ENDMDL
