MODEL 1
REMARK VINA RESULT:     -11.3      0.000      0.000
REMARK SMILES CCCOc1ccc(Nc2snc(C)c2C(=O)NCCCNC(=O)c2ccc(-c3c4nc(c(-c5cccc(S(=O)(=O)[O-])c5F)c5ccc([nH]5)c(-c5cccc(S(=O)(=O)[O-])c5F)c5nc(c(-c6cccc(S(=O)(=O)[O-])c6F)c6ccc3[nH]6)C=C5)C=C4)cc2)cc1
REMARK SMILES IDX 19 1 18 2 16 3 17 4 15 6 10 7 11 8 12 9 13 10 14 11 9 12
REMARK SMILES IDX 8 14 5 15 6 16 89 17 7 18 88 19 4 20 3 21 2 22 1 23 20 24
REMARK SMILES IDX 21 25 22 26 23 27 24 29 25 30 26 31 87 32 27 33 86 34 28 35
REMARK SMILES IDX 29 36 30 37 80 38 31 39 85 40 79 41 81 42 32 43 84 44 78 45
REMARK SMILES IDX 77 46 33 48 65 49 45 50 64 51 46 52 49 53 63 54 82 55 47 56
REMARK SMILES IDX 48 57 62 59 83 60 50 61 34 62 35 63 43 64 36 65 38 66 44 67
REMARK SMILES IDX 37 68 39 69 40 70 41 71 42 72 66 73 67 74 75 75 68 76 70 77
REMARK SMILES IDX 76 78 69 79 71 80 72 81 73 82 74 83 51 84 52 85 60 86 53 87
REMARK SMILES IDX 55 88 61 89 54 90 56 91 57 92 58 93 59 94
REMARK H PARENT 18 5 9 13 22 28 81 47 49 58
REMARK Flexibility Score: inf
ROOT
ATOM      1  C   UNL A   1      35.806  22.117  24.449  1.00  0.00     0.118 C 
ENDROOT
BRANCH   1   2
ATOM      2  N   UNL A   1      35.394  22.941  23.327  1.00  0.00    -0.352 N 
ATOM      3  C   UNL A   1      34.329  23.818  23.228  1.00  0.00     0.256 C 
ATOM      4  O   UNL A   1      34.363  24.647  22.319  1.00  0.00    -0.269 OA
ATOM      5  H   UNL A   1      35.953  22.864  22.521  1.00  0.00     0.163 HD
BRANCH   3   6
ATOM      6  C   UNL A   1      33.158  23.718  24.099  1.00  0.00     0.097 A 
ATOM      7  C   UNL A   1      32.077  22.840  24.010  1.00  0.00     0.127 A 
ATOM      8  S   UNL A   1      30.895  23.341  25.164  1.00  0.00    -0.018 S 
ATOM      9  N   UNL A   1      31.843  24.425  25.948  1.00  0.00    -0.195 NA
ATOM     10  C   UNL A   1      33.009  24.524  25.308  1.00  0.00     0.066 A 
ATOM     11  C   UNL A   1      34.018  25.447  25.912  1.00  0.00     0.069 C 
BRANCH   7  12
ATOM     12  N   UNL A   1      31.777  21.783  23.208  1.00  0.00    -0.345 N 
ATOM     13  H   UNL A   1      31.112  21.964  22.505  1.00  0.00     0.167 HD
BRANCH  12  14
ATOM     14  C   UNL A   1      32.278  20.469  23.239  1.00  0.00     0.039 A 
ATOM     15  C   UNL A   1      33.237  17.844  23.483  1.00  0.00     0.119 A 
ATOM     16  C   UNL A   1      32.522  18.218  22.351  1.00  0.00     0.048 A 
ATOM     17  C   UNL A   1      33.486  18.764  24.495  1.00  0.00     0.048 A 
ATOM     18  C   UNL A   1      32.034  19.524  22.237  1.00  0.00     0.030 A 
ATOM     19  C   UNL A   1      33.000  20.066  24.376  1.00  0.00     0.030 A 
BRANCH  15  20
ATOM     20  O   UNL A   1      33.808  16.609  23.556  1.00  0.00    -0.494 OA
BRANCH  20  21
ATOM     21  C   UNL A   1      34.412  16.357  24.833  1.00  0.00     0.229 C 
BRANCH  21  22
ATOM     22  C   UNL A   1      33.752  15.134  25.471  1.00  0.00     0.038 C 
ATOM     23  C   UNL A   1      32.250  15.306  25.587  1.00  0.00     0.007 C 
ENDBRANCH  21  22
ENDBRANCH  20  21
ENDBRANCH  15  20
ENDBRANCH  12  14
ENDBRANCH   7  12
ENDBRANCH   3   6
ENDBRANCH   1   2
BRANCH   1  24
ATOM     24  C   UNL A   1      36.675  22.777  25.513  1.00  0.00     0.042 C 
BRANCH  24  25
ATOM     25  C   UNL A   1      38.144  22.395  25.453  1.00  0.00     0.118 C 
BRANCH  25  26
ATOM     26  N   UNL A   1      38.389  20.953  25.582  1.00  0.00    -0.352 N 
ATOM     27  C   UNL A   1      39.602  20.323  25.822  1.00  0.00     0.251 C 
ATOM     28  H   UNL A   1      37.604  20.366  25.489  1.00  0.00     0.163 HD
ATOM     29  O   UNL A   1      39.784  19.173  25.483  1.00  0.00    -0.269 OA
BRANCH  27  30
ATOM     30  C   UNL A   1      40.694  21.113  26.436  1.00  0.00     0.039 A 
ATOM     31  C   UNL A   1      41.288  22.138  25.702  1.00  0.00     0.014 A 
ATOM     32  C   UNL A   1      40.969  20.951  27.788  1.00  0.00     0.014 A 
ATOM     33  C   UNL A   1      41.980  23.130  26.389  1.00  0.00     0.010 A 
ATOM     34  C   UNL A   1      41.516  22.011  28.480  1.00  0.00     0.010 A 
ATOM     35  C   UNL A   1      42.002  23.125  27.794  1.00  0.00    -0.014 A 
BRANCH  35  36
ATOM     36  C   UNL A   1      42.324  24.374  28.500  1.00  0.00     0.031 A 
ATOM     37  C   UNL A   1      41.320  25.480  28.349  1.00  0.00     0.074 A 
ATOM     38  C   UNL A   1      43.280  24.539  29.439  1.00  0.00     0.049 A 
ATOM     39  N   UNL A   1      41.470  26.610  27.737  1.00  0.00    -0.248 NA
ATOM     40  C   UNL A   1      39.958  25.257  28.859  1.00  0.00     0.031 C 
ATOM     41  C   UNL A   1      44.148  23.535  30.059  1.00  0.00     0.029 A 
ATOM     42  N   UNL A   1      43.569  25.668  30.149  1.00  0.00    -0.354 N 
ATOM     43  C   UNL A   1      40.291  27.329  27.953  1.00  0.00     0.074 A 
ATOM     44  C   UNL A   1      39.348  26.389  28.503  1.00  0.00     0.031 C 
ATOM     45  C   UNL A   1      44.649  24.027  31.212  1.00  0.00     0.029 A 
ATOM     46  C   UNL A   1      44.307  25.433  31.298  1.00  0.00     0.049 A 
ATOM     47  H   UNL A   1      43.279  26.567  29.869  1.00  0.00     0.167 HD
ATOM     48  C   UNL A   1      40.243  28.688  27.850  1.00  0.00     0.034 A 
ATOM     49  C   UNL A   1      44.604  26.326  32.267  1.00  0.00     0.034 A 
ATOM     50  C   UNL A   1      41.427  29.214  27.219  1.00  0.00     0.049 A 
ATOM     51  C   UNL A   1      44.469  27.677  31.681  1.00  0.00     0.074 A 
ATOM     52  C   UNL A   1      42.067  29.046  26.008  1.00  0.00     0.029 A 
ATOM     53  N   UNL A   1      42.335  29.840  28.037  1.00  0.00    -0.354 N 
ATOM     54  N   UNL A   1      45.248  28.147  30.746  1.00  0.00    -0.248 NA
ATOM     55  C   UNL A   1      43.238  28.417  31.899  1.00  0.00     0.031 C 
ATOM     56  C   UNL A   1      43.459  29.138  26.314  1.00  0.00     0.029 A 
ATOM     57  C   UNL A   1      43.576  29.388  27.684  1.00  0.00     0.049 A 
ATOM     58  H   UNL A   1      42.131  30.493  28.746  1.00  0.00     0.167 HD
ATOM     59  C   UNL A   1      44.424  28.959  29.979  1.00  0.00     0.074 A 
ATOM     60  C   UNL A   1      43.257  29.204  30.820  1.00  0.00     0.031 C 
ATOM     61  C   UNL A   1      44.631  29.112  28.637  1.00  0.00     0.034 A 
BRANCH  48  62
ATOM     62  C   UNL A   1      39.304  29.615  28.603  1.00  0.00     0.023 A 
ATOM     63  C   UNL A   1      39.529  29.774  29.994  1.00  0.00     0.012 A 
ATOM     64  C   UNL A   1      38.080  30.108  28.102  1.00  0.00     0.148 A 
ATOM     65  C   UNL A   1      38.563  30.322  30.846  1.00  0.00     0.002 A 
ATOM     66  C   UNL A   1      37.159  30.733  28.941  1.00  0.00     0.091 A 
ATOM     67  F   UNL A   1      37.721  29.861  26.839  1.00  0.00    -0.205 F 
ATOM     68  C   UNL A   1      37.377  30.810  30.317  1.00  0.00     0.022 A 
BRANCH  66  69
ATOM     69  S   UNL A   1      35.648  31.448  28.282  1.00  0.00     0.127 S 
ATOM     70  O   UNL A   1      35.109  30.334  27.510  1.00  0.00    -0.237 OA
ATOM     71  O   UNL A   1      34.907  31.775  29.500  1.00  0.00    -0.237 OA
ATOM     72  O   UNL A   1      36.087  32.615  27.524  1.00  0.00    -0.744 OA
ENDBRANCH  66  69
ENDBRANCH  48  62
BRANCH  49  73
ATOM     73  C   UNL A   1      44.875  26.108  33.702  1.00  0.00     0.023 A 
ATOM     74  C   UNL A   1      46.203  26.095  34.164  1.00  0.00     0.012 A 
ATOM     75  C   UNL A   1      43.834  26.164  34.655  1.00  0.00     0.148 A 
ATOM     76  C   UNL A   1      46.490  26.170  35.531  1.00  0.00     0.002 A 
ATOM     77  C   UNL A   1      44.123  26.230  36.014  1.00  0.00     0.091 A 
ATOM     78  F   UNL A   1      42.566  26.247  34.225  1.00  0.00    -0.205 F 
ATOM     79  C   UNL A   1      45.451  26.245  36.456  1.00  0.00     0.022 A 
BRANCH  77  80
ATOM     80  S   UNL A   1      42.827  26.338  37.257  1.00  0.00     0.127 S 
ATOM     81  O   UNL A   1      43.593  26.376  38.503  1.00  0.00    -0.237 OA
ATOM     82  O   UNL A   1      42.172  27.594  36.904  1.00  0.00    -0.237 OA
ATOM     83  O   UNL A   1      42.029  25.130  37.087  1.00  0.00    -0.744 OA
ENDBRANCH  77  80
ENDBRANCH  49  73
BRANCH  61  84
ATOM     84  C   UNL A   1      45.946  28.657  28.051  1.00  0.00     0.023 A 
ATOM     85  C   UNL A   1      47.092  29.478  28.059  1.00  0.00     0.012 A 
ATOM     86  C   UNL A   1      46.083  27.312  27.660  1.00  0.00     0.148 A 
ATOM     87  C   UNL A   1      48.336  28.982  27.662  1.00  0.00     0.002 A 
ATOM     88  C   UNL A   1      47.331  26.808  27.313  1.00  0.00     0.091 A 
ATOM     89  F   UNL A   1      44.989  26.533  27.659  1.00  0.00    -0.205 F 
ATOM     90  C   UNL A   1      48.459  27.642  27.303  1.00  0.00     0.022 A 
BRANCH  88  91
ATOM     91  S   UNL A   1      47.567  25.058  26.985  1.00  0.00     0.127 S 
ATOM     92  O   UNL A   1      47.228  24.963  25.566  1.00  0.00    -0.237 OA
ATOM     93  O   UNL A   1      48.985  24.861  27.289  1.00  0.00    -0.237 OA
ATOM     94  O   UNL A   1      46.667  24.366  27.900  1.00  0.00    -0.744 OA
ENDBRANCH  88  91
ENDBRANCH  61  84
ENDBRANCH  35  36
ENDBRANCH  27  30
ENDBRANCH  25  26
ENDBRANCH  24  25
ENDBRANCH   1  24
TORSDOF 18
ENDMDL
MODEL 2
REMARK VINA RESULT:     -11.1      3.463      7.935
REMARK SMILES CCCOc1ccc(Nc2snc(C)c2C(=O)NCCCNC(=O)c2ccc(-c3c4nc(c(-c5cccc(S(=O)(=O)[O-])c5F)c5ccc([nH]5)c(-c5cccc(S(=O)(=O)[O-])c5F)c5nc(c(-c6cccc(S(=O)(=O)[O-])c6F)c6ccc3[nH]6)C=C5)C=C4)cc2)cc1
REMARK SMILES IDX 19 1 18 2 16 3 17 4 15 6 10 7 11 8 12 9 13 10 14 11 9 12
REMARK SMILES IDX 8 14 5 15 6 16 89 17 7 18 88 19 4 20 3 21 2 22 1 23 20 24
REMARK SMILES IDX 21 25 22 26 23 27 24 29 25 30 26 31 87 32 27 33 86 34 28 35
REMARK SMILES IDX 29 36 30 37 80 38 31 39 85 40 79 41 81 42 32 43 84 44 78 45
REMARK SMILES IDX 77 46 33 48 65 49 45 50 64 51 46 52 49 53 63 54 82 55 47 56
REMARK SMILES IDX 48 57 62 59 83 60 50 61 34 62 35 63 43 64 36 65 38 66 44 67
REMARK SMILES IDX 37 68 39 69 40 70 41 71 42 72 66 73 67 74 75 75 68 76 70 77
REMARK SMILES IDX 76 78 69 79 71 80 72 81 73 82 74 83 51 84 52 85 60 86 53 87
REMARK SMILES IDX 55 88 61 89 54 90 56 91 57 92 58 93 59 94
REMARK H PARENT 18 5 9 13 22 28 81 47 49 58
REMARK Flexibility Score: inf
ROOT
ATOM      1  C   UNL A   1      32.332  30.039  26.258  1.00  0.00     0.118 C 
ENDROOT
BRANCH   1   2
ATOM      2  N   UNL A   1      33.061  29.591  25.086  1.00  0.00    -0.352 N 
ATOM      3  C   UNL A   1      32.593  28.944  23.957  1.00  0.00     0.256 C 
ATOM      4  O   UNL A   1      33.313  28.958  22.959  1.00  0.00    -0.269 OA
ATOM      5  H   UNL A   1      34.028  29.774  25.097  1.00  0.00     0.163 HD
BRANCH   3   6
ATOM      6  C   UNL A   1      31.340  28.188  23.959  1.00  0.00     0.097 A 
ATOM      7  C   UNL A   1      30.975  27.108  24.762  1.00  0.00     0.127 A 
ATOM      8  S   UNL A   1      29.484  26.483  24.158  1.00  0.00    -0.018 S 
ATOM      9  N   UNL A   1      29.165  27.716  23.125  1.00  0.00    -0.195 NA
ATOM     10  C   UNL A   1      30.202  28.554  23.120  1.00  0.00     0.066 A 
ATOM     11  C   UNL A   1      30.067  29.767  22.255  1.00  0.00     0.069 C 
BRANCH   7  12
ATOM     12  N   UNL A   1      31.556  26.468  25.813  1.00  0.00    -0.345 N 
ATOM     13  H   UNL A   1      31.200  26.707  26.699  1.00  0.00     0.167 HD
BRANCH  12  14
ATOM     14  C   UNL A   1      32.591  25.516  25.816  1.00  0.00     0.039 A 
ATOM     15  C   UNL A   1      34.543  23.503  25.729  1.00  0.00     0.119 A 
ATOM     16  C   UNL A   1      34.913  24.834  25.577  1.00  0.00     0.048 A 
ATOM     17  C   UNL A   1      33.211  23.161  25.930  1.00  0.00     0.048 A 
ATOM     18  C   UNL A   1      33.937  25.835  25.609  1.00  0.00     0.030 A 
ATOM     19  C   UNL A   1      32.241  24.162  25.964  1.00  0.00     0.030 A 
BRANCH  15  20
ATOM     20  O   UNL A   1      35.496  22.532  25.808  1.00  0.00    -0.494 OA
BRANCH  20  21
ATOM     21  C   UNL A   1      34.960  21.218  25.591  1.00  0.00     0.229 C 
BRANCH  21  22
ATOM     22  C   UNL A   1      36.065  20.304  25.060  1.00  0.00     0.038 C 
ATOM     23  C   UNL A   1      37.239  21.099  24.523  1.00  0.00     0.007 C 
ENDBRANCH  21  22
ENDBRANCH  20  21
ENDBRANCH  15  20
ENDBRANCH  12  14
ENDBRANCH   7  12
ENDBRANCH   3   6
ENDBRANCH   1   2
BRANCH   1  24
ATOM     24  C   UNL A   1      32.841  31.296  26.955  1.00  0.00     0.042 C 
BRANCH  24  25
ATOM     25  C   UNL A   1      34.200  31.141  27.618  1.00  0.00     0.118 C 
BRANCH  25  26
ATOM     26  N   UNL A   1      34.333  31.879  28.880  1.00  0.00    -0.352 N 
ATOM     27  C   UNL A   1      35.422  31.886  29.740  1.00  0.00     0.251 C 
ATOM     28  H   UNL A   1      33.563  32.431  29.147  1.00  0.00     0.163 HD
ATOM     29  O   UNL A   1      35.286  32.147  30.916  1.00  0.00    -0.269 OA
BRANCH  27  30
ATOM     30  C   UNL A   1      36.745  31.497  29.199  1.00  0.00     0.039 A 
ATOM     31  C   UNL A   1      37.892  32.112  29.697  1.00  0.00     0.014 A 
ATOM     32  C   UNL A   1      36.835  30.396  28.357  1.00  0.00     0.014 A 
ATOM     33  C   UNL A   1      39.116  31.475  29.523  1.00  0.00     0.010 A 
ATOM     34  C   UNL A   1      38.018  29.688  28.321  1.00  0.00     0.010 A 
ATOM     35  C   UNL A   1      39.165  30.203  28.927  1.00  0.00    -0.014 A 
BRANCH  35  36
ATOM     36  C   UNL A   1      40.350  29.362  29.154  1.00  0.00     0.031 A 
ATOM     37  C   UNL A   1      40.566  28.918  30.572  1.00  0.00     0.074 A 
ATOM     38  C   UNL A   1      41.102  28.766  28.204  1.00  0.00     0.049 A 
ATOM     39  N   UNL A   1      41.523  29.260  31.373  1.00  0.00    -0.248 NA
ATOM     40  C   UNL A   1      39.542  28.069  31.198  1.00  0.00     0.031 C 
ATOM     41  C   UNL A   1      40.887  28.712  26.756  1.00  0.00     0.029 A 
ATOM     42  N   UNL A   1      42.173  27.939  28.383  1.00  0.00    -0.354 N 
ATOM     43  C   UNL A   1      41.337  28.515  32.541  1.00  0.00     0.074 A 
ATOM     44  C   UNL A   1      40.024  27.933  32.435  1.00  0.00     0.031 C 
ATOM     45  C   UNL A   1      41.609  27.697  26.235  1.00  0.00     0.029 A 
ATOM     46  C   UNL A   1      42.482  27.175  27.268  1.00  0.00     0.049 A 
ATOM     47  H   UNL A   1      42.679  27.890  29.226  1.00  0.00     0.167 HD
ATOM     48  C   UNL A   1      42.356  28.273  33.415  1.00  0.00     0.034 A 
ATOM     49  C   UNL A   1      43.381  26.169  27.198  1.00  0.00     0.034 A 
ATOM     50  C   UNL A   1      43.501  29.105  33.139  1.00  0.00     0.049 A 
ATOM     51  C   UNL A   1      44.328  26.344  28.320  1.00  0.00     0.074 A 
ATOM     52  C   UNL A   1      43.751  30.460  33.069  1.00  0.00     0.029 A 
ATOM     53  N   UNL A   1      44.576  28.495  32.542  1.00  0.00    -0.354 N 
ATOM     54  N   UNL A   1      45.166  27.340  28.418  1.00  0.00    -0.248 NA
ATOM     55  C   UNL A   1      44.125  25.577  29.537  1.00  0.00     0.031 C 
ATOM     56  C   UNL A   1      44.709  30.601  32.020  1.00  0.00     0.029 A 
ATOM     57  C   UNL A   1      45.005  29.322  31.541  1.00  0.00     0.049 A 
ATOM     58  H   UNL A   1      44.966  27.625  32.788  1.00  0.00     0.167 HD
ATOM     59  C   UNL A   1      45.257  27.588  29.780  1.00  0.00     0.074 A 
ATOM     60  C   UNL A   1      44.724  26.386  30.414  1.00  0.00     0.031 C 
ATOM     61  C   UNL A   1      45.479  28.850  30.257  1.00  0.00     0.034 A 
BRANCH  48  62
ATOM     62  C   UNL A   1      42.494  27.063  34.322  1.00  0.00     0.023 A 
ATOM     63  C   UNL A   1      42.082  27.213  35.671  1.00  0.00     0.012 A 
ATOM     64  C   UNL A   1      43.241  25.905  34.018  1.00  0.00     0.148 A 
ATOM     65  C   UNL A   1      42.453  26.305  36.668  1.00  0.00     0.002 A 
ATOM     66  C   UNL A   1      43.534  24.959  34.999  1.00  0.00     0.091 A 
ATOM     67  F   UNL A   1      43.801  25.763  32.813  1.00  0.00    -0.205 F 
ATOM     68  C   UNL A   1      43.176  25.170  36.331  1.00  0.00     0.022 A 
BRANCH  66  69
ATOM     69  S   UNL A   1      44.398  23.439  34.585  1.00  0.00     0.127 S 
ATOM     70  O   UNL A   1      43.521  22.869  33.569  1.00  0.00    -0.237 OA
ATOM     71  O   UNL A   1      45.681  23.940  34.089  1.00  0.00    -0.237 OA
ATOM     72  O   UNL A   1      44.496  22.710  35.846  1.00  0.00    -0.744 OA
ENDBRANCH  66  69
ENDBRANCH  48  62
BRANCH  49  73
ATOM     73  C   UNL A   1      43.412  24.991  26.310  1.00  0.00     0.023 A 
ATOM     74  C   UNL A   1      44.386  24.909  25.299  1.00  0.00     0.012 A 
ATOM     75  C   UNL A   1      42.657  23.835  26.608  1.00  0.00     0.148 A 
ATOM     76  C   UNL A   1      44.627  23.706  24.626  1.00  0.00     0.002 A 
ATOM     77  C   UNL A   1      42.893  22.642  25.932  1.00  0.00     0.091 A 
ATOM     78  F   UNL A   1      41.774  23.880  27.617  1.00  0.00    -0.205 F 
ATOM     79  C   UNL A   1      43.886  22.571  24.948  1.00  0.00     0.022 A 
BRANCH  77  80
ATOM     80  S   UNL A   1      41.978  21.141  26.307  1.00  0.00     0.127 S 
ATOM     81  O   UNL A   1      40.602  21.527  25.988  1.00  0.00    -0.237 OA
ATOM     82  O   UNL A   1      42.573  20.183  25.381  1.00  0.00    -0.237 OA
ATOM     83  O   UNL A   1      42.210  20.891  27.724  1.00  0.00    -0.744 OA
ENDBRANCH  77  80
ENDBRANCH  49  73
BRANCH  61  84
ATOM     84  C   UNL A   1      45.948  29.915  29.295  1.00  0.00     0.023 A 
ATOM     85  C   UNL A   1      47.312  30.099  28.991  1.00  0.00     0.012 A 
ATOM     86  C   UNL A   1      44.988  30.612  28.538  1.00  0.00     0.148 A 
ATOM     87  C   UNL A   1      47.712  30.976  27.980  1.00  0.00     0.002 A 
ATOM     88  C   UNL A   1      45.387  31.446  27.500  1.00  0.00     0.091 A 
ATOM     89  F   UNL A   1      43.690  30.428  28.829  1.00  0.00    -0.205 F 
ATOM     90  C   UNL A   1      46.748  31.639  27.224  1.00  0.00     0.022 A 
BRANCH  88  91
ATOM     91  S   UNL A   1      44.183  32.206  26.405  1.00  0.00     0.127 S 
ATOM     92  O   UNL A   1      43.309  31.081  26.079  1.00  0.00    -0.237 OA
ATOM     93  O   UNL A   1      43.571  33.227  27.258  1.00  0.00    -0.237 OA
ATOM     94  O   UNL A   1      44.956  32.753  25.296  1.00  0.00    -0.744 OA
ENDBRANCH  88  91
ENDBRANCH  61  84
ENDBRANCH  35  36
ENDBRANCH  27  30
ENDBRANCH  25  26
ENDBRANCH  24  25
ENDBRANCH   1  24
TORSDOF 18
ENDMDL
MODEL 3
REMARK VINA RESULT:     -11.1      3.225      7.820
REMARK SMILES CCCOc1ccc(Nc2snc(C)c2C(=O)NCCCNC(=O)c2ccc(-c3c4nc(c(-c5cccc(S(=O)(=O)[O-])c5F)c5ccc([nH]5)c(-c5cccc(S(=O)(=O)[O-])c5F)c5nc(c(-c6cccc(S(=O)(=O)[O-])c6F)c6ccc3[nH]6)C=C5)C=C4)cc2)cc1
REMARK SMILES IDX 19 1 18 2 16 3 17 4 15 6 10 7 11 8 12 9 13 10 14 11 9 12
REMARK SMILES IDX 8 14 5 15 6 16 89 17 7 18 88 19 4 20 3 21 2 22 1 23 20 24
REMARK SMILES IDX 21 25 22 26 23 27 24 29 25 30 26 31 87 32 27 33 86 34 28 35
REMARK SMILES IDX 29 36 30 37 80 38 31 39 85 40 79 41 81 42 32 43 84 44 78 45
REMARK SMILES IDX 77 46 33 48 65 49 45 50 64 51 46 52 49 53 63 54 82 55 47 56
REMARK SMILES IDX 48 57 62 59 83 60 50 61 34 62 35 63 43 64 36 65 38 66 44 67
REMARK SMILES IDX 37 68 39 69 40 70 41 71 42 72 66 73 67 74 75 75 68 76 70 77
REMARK SMILES IDX 76 78 69 79 71 80 72 81 73 82 74 83 51 84 52 85 60 86 53 87
REMARK SMILES IDX 55 88 61 89 54 90 56 91 57 92 58 93 59 94
REMARK H PARENT 18 5 9 13 22 28 81 47 49 58
REMARK Flexibility Score: inf
ROOT
ATOM      1  C   UNL A   1      36.586  20.709  25.330  1.00  0.00     0.118 C 
ENDROOT
BRANCH   1   2
ATOM      2  N   UNL A   1      35.623  21.287  26.250  1.00  0.00    -0.352 N 
ATOM      3  C   UNL A   1      34.246  21.349  26.152  1.00  0.00     0.256 C 
ATOM      4  O   UNL A   1      33.616  21.579  27.184  1.00  0.00    -0.269 OA
ATOM      5  H   UNL A   1      36.007  21.694  27.060  1.00  0.00     0.163 HD
BRANCH   3   6
ATOM      6  C   UNL A   1      33.553  21.241  24.867  1.00  0.00     0.097 A 
ATOM      7  C   UNL A   1      33.588  22.117  23.782  1.00  0.00     0.127 A 
ATOM      8  S   UNL A   1      32.398  21.595  22.646  1.00  0.00    -0.018 S 
ATOM      9  N   UNL A   1      32.076  20.153  23.356  1.00  0.00    -0.195 NA
ATOM     10  C   UNL A   1      32.752  20.075  24.504  1.00  0.00     0.066 A 
ATOM     11  C   UNL A   1      32.606  18.801  25.272  1.00  0.00     0.069 C 
BRANCH   7  12
ATOM     12  N   UNL A   1      34.287  23.249  23.499  1.00  0.00    -0.345 N 
ATOM     13  H   UNL A   1      35.090  23.120  22.944  1.00  0.00     0.167 HD
BRANCH  12  14
ATOM     14  C   UNL A   1      34.030  24.576  23.885  1.00  0.00     0.039 A 
ATOM     15  C   UNL A   1      33.669  27.216  24.764  1.00  0.00     0.119 A 
ATOM     16  C   UNL A   1      33.397  26.883  23.442  1.00  0.00     0.048 A 
ATOM     17  C   UNL A   1      34.114  26.249  25.657  1.00  0.00     0.048 A 
ATOM     18  C   UNL A   1      33.589  25.569  23.003  1.00  0.00     0.030 A 
ATOM     19  C   UNL A   1      34.301  24.939  25.216  1.00  0.00     0.030 A 
BRANCH  15  20
ATOM     20  O   UNL A   1      33.383  28.466  25.227  1.00  0.00    -0.494 OA
BRANCH  20  21
ATOM     21  C   UNL A   1      31.991  28.792  25.102  1.00  0.00     0.229 C 
BRANCH  21  22
ATOM     22  C   UNL A   1      31.204  28.079  26.202  1.00  0.00     0.038 C 
ATOM     23  C   UNL A   1      31.710  28.451  27.582  1.00  0.00     0.007 C 
ENDBRANCH  21  22
ENDBRANCH  20  21
ENDBRANCH  15  20
ENDBRANCH  12  14
ENDBRANCH   7  12
ENDBRANCH   3   6
ENDBRANCH   1   2
BRANCH   1  24
ATOM     24  C   UNL A   1      37.476  21.675  24.557  1.00  0.00     0.042 C 
BRANCH  24  25
ATOM     25  C   UNL A   1      38.368  22.545  25.429  1.00  0.00     0.118 C 
BRANCH  25  26
ATOM     26  N   UNL A   1      38.943  21.839  26.581  1.00  0.00    -0.352 N 
ATOM     27  C   UNL A   1      40.088  22.176  27.289  1.00  0.00     0.251 C 
ATOM     28  H   UNL A   1      38.462  21.036  26.886  1.00  0.00     0.163 HD
ATOM     29  O   UNL A   1      40.710  21.337  27.904  1.00  0.00    -0.269 OA
BRANCH  27  30
ATOM     30  C   UNL A   1      40.572  23.574  27.214  1.00  0.00     0.039 A 
ATOM     31  C   UNL A   1      39.727  24.562  26.714  1.00  0.00     0.014 A 
ATOM     32  C   UNL A   1      41.777  23.906  27.820  1.00  0.00     0.014 A 
ATOM     33  C   UNL A   1      39.995  25.889  27.032  1.00  0.00     0.010 A 
ATOM     34  C   UNL A   1      41.955  25.199  28.266  1.00  0.00     0.010 A 
ATOM     35  C   UNL A   1      41.054  26.201  27.903  1.00  0.00    -0.014 A 
BRANCH  35  36
ATOM     36  C   UNL A   1      41.051  27.506  28.579  1.00  0.00     0.031 A 
ATOM     37  C   UNL A   1      42.032  28.511  28.049  1.00  0.00     0.074 A 
ATOM     38  C   UNL A   1      40.115  27.959  29.440  1.00  0.00     0.049 A 
ATOM     39  N   UNL A   1      43.075  28.992  28.646  1.00  0.00    -0.248 NA
ATOM     40  C   UNL A   1      41.885  28.959  26.656  1.00  0.00     0.031 C 
ATOM     41  C   UNL A   1      38.848  27.340  29.835  1.00  0.00     0.029 A 
ATOM     42  N   UNL A   1      40.055  29.182  30.043  1.00  0.00    -0.354 N 
ATOM     43  C   UNL A   1      43.608  29.954  27.783  1.00  0.00     0.074 A 
ATOM     44  C   UNL A   1      42.936  29.771  26.522  1.00  0.00     0.031 C 
ATOM     45  C   UNL A   1      38.038  28.279  30.369  1.00  0.00     0.029 A 
ATOM     46  C   UNL A   1      38.801  29.500  30.540  1.00  0.00     0.049 A 
ATOM     47  H   UNL A   1      40.832  29.783  30.117  1.00  0.00     0.167 HD
ATOM     48  C   UNL A   1      44.416  30.958  28.228  1.00  0.00     0.034 A 
ATOM     49  C   UNL A   1      38.406  30.690  31.043  1.00  0.00     0.034 A 
ATOM     50  C   UNL A   1      44.869  30.716  29.575  1.00  0.00     0.049 A 
ATOM     51  C   UNL A   1      39.624  31.425  31.449  1.00  0.00     0.074 A 
ATOM     52  C   UNL A   1      45.576  29.724  30.223  1.00  0.00     0.029 A 
ATOM     53  N   UNL A   1      44.285  31.467  30.566  1.00  0.00    -0.354 N 
ATOM     54  N   UNL A   1      40.405  31.056  32.427  1.00  0.00    -0.248 NA
ATOM     55  C   UNL A   1      40.180  32.416  30.545  1.00  0.00     0.031 C 
ATOM     56  C   UNL A   1      44.989  29.646  31.523  1.00  0.00     0.029 A 
ATOM     57  C   UNL A   1      43.985  30.616  31.593  1.00  0.00     0.049 A 
ATOM     58  H   UNL A   1      44.114  32.436  30.541  1.00  0.00     0.167 HD
ATOM     59  C   UNL A   1      41.677  31.430  32.019  1.00  0.00     0.074 A 
ATOM     60  C   UNL A   1      41.455  32.389  30.940  1.00  0.00     0.031 C 
ATOM     61  C   UNL A   1      42.780  30.712  32.390  1.00  0.00     0.034 A 
BRANCH  48  62
ATOM     62  C   UNL A   1      44.558  32.339  27.613  1.00  0.00     0.023 A 
ATOM     63  C   UNL A   1      45.731  32.595  26.858  1.00  0.00     0.012 A 
ATOM     64  C   UNL A   1      43.770  33.460  27.951  1.00  0.00     0.148 A 
ATOM     65  C   UNL A   1      46.133  33.893  26.524  1.00  0.00     0.002 A 
ATOM     66  C   UNL A   1      44.129  34.743  27.540  1.00  0.00     0.091 A 
ATOM     67  F   UNL A   1      42.738  33.328  28.789  1.00  0.00    -0.205 F 
ATOM     68  C   UNL A   1      45.326  34.971  26.860  1.00  0.00     0.022 A 
BRANCH  66  69
ATOM     69  S   UNL A   1      43.070  36.152  27.887  1.00  0.00     0.127 S 
ATOM     70  O   UNL A   1      41.768  35.653  27.460  1.00  0.00    -0.237 OA
ATOM     71  O   UNL A   1      43.232  36.309  29.333  1.00  0.00    -0.237 OA
ATOM     72  O   UNL A   1      43.638  37.246  27.106  1.00  0.00    -0.744 OA
ENDBRANCH  66  69
ENDBRANCH  48  62
BRANCH  49  73
ATOM     73  C   UNL A   1      37.062  31.299  31.084  1.00  0.00     0.023 A 
ATOM     74  C   UNL A   1      36.544  31.755  32.310  1.00  0.00     0.012 A 
ATOM     75  C   UNL A   1      36.392  31.663  29.895  1.00  0.00     0.148 A 
ATOM     76  C   UNL A   1      35.413  32.577  32.351  1.00  0.00     0.002 A 
ATOM     77  C   UNL A   1      35.262  32.474  29.941  1.00  0.00     0.091 A 
ATOM     78  F   UNL A   1      36.914  31.293  28.717  1.00  0.00    -0.205 F 
ATOM     79  C   UNL A   1      34.776  32.943  31.168  1.00  0.00     0.022 A 
BRANCH  77  80
ATOM     80  S   UNL A   1      34.401  32.989  28.448  1.00  0.00     0.127 S 
ATOM     81  O   UNL A   1      35.488  33.537  27.635  1.00  0.00    -0.237 OA
ATOM     82  O   UNL A   1      33.853  31.726  27.964  1.00  0.00    -0.237 OA
ATOM     83  O   UNL A   1      33.429  33.982  28.887  1.00  0.00    -0.744 OA
ENDBRANCH  77  80
ENDBRANCH  49  73
BRANCH  61  84
ATOM     84  C   UNL A   1      42.645  29.705  33.507  1.00  0.00     0.023 A 
ATOM     85  C   UNL A   1      42.068  28.435  33.302  1.00  0.00     0.012 A 
ATOM     86  C   UNL A   1      43.284  29.966  34.733  1.00  0.00     0.148 A 
ATOM     87  C   UNL A   1      42.100  27.460  34.302  1.00  0.00     0.002 A 
ATOM     88  C   UNL A   1      43.358  28.977  35.708  1.00  0.00     0.091 A 
ATOM     89  F   UNL A   1      43.837  31.176  34.920  1.00  0.00    -0.205 F 
ATOM     90  C   UNL A   1      42.758  27.726  35.500  1.00  0.00     0.022 A 
BRANCH  88  91
ATOM     91  S   UNL A   1      44.318  29.220  37.206  1.00  0.00     0.127 S 
ATOM     92  O   UNL A   1      44.166  27.933  37.881  1.00  0.00    -0.237 OA
ATOM     93  O   UNL A   1      45.662  29.484  36.688  1.00  0.00    -0.237 OA
ATOM     94  O   UNL A   1      43.711  30.365  37.875  1.00  0.00    -0.744 OA
ENDBRANCH  88  91
ENDBRANCH  61  84
ENDBRANCH  35  36
ENDBRANCH  27  30
ENDBRANCH  25  26
ENDBRANCH  24  25
ENDBRANCH   1  24
TORSDOF 18
ENDMDL
