MODEL 1
REMARK VINA RESULT:     -12.9      0.000      0.000
REMARK SMILES O=C(Cn1nc(-c2ccco2)ccc1=O)N[C@@H](C(=O)NCCCNC(=O)c1ccc(-c2c3nc(c(-c4cccc(S(=O)(=O)[O-])c4F)c4ccc([nH]4)c(-c4cccc(S(=O)(=O)[O-])c4F)c4nc(c(-c5cccc(S(=O)(=O)[O-])c5F)c5ccc2[nH]5)C=C4)C=C3)cc1)c1ccccc1
REMARK SMILES IDX 21 1 20 2 18 3 19 4 17 6 16 7 1 8 2 9 3 11 4 12 5 13 14 14
REMARK SMILES IDX 6 15 13 16 15 17 12 18 7 19 8 20 11 21 9 22 10 23 90 24
REMARK SMILES IDX 91 25 95 26 92 27 94 28 93 29 22 30 23 31 24 32 25 33 26 35
REMARK SMILES IDX 27 36 28 37 89 38 29 39 88 40 30 41 31 42 32 43 82 44 33 45
REMARK SMILES IDX 87 46 81 47 83 48 34 49 86 50 80 51 79 52 35 54 67 55 47 56
REMARK SMILES IDX 66 57 48 58 51 59 65 60 84 61 49 62 50 63 64 65 85 66 52 67
REMARK SMILES IDX 36 68 37 69 45 70 38 71 40 72 46 73 39 74 41 75 42 76 43 77
REMARK SMILES IDX 44 78 68 79 69 80 77 81 70 82 72 83 78 84 71 85 73 86 74 87
REMARK SMILES IDX 75 88 76 89 53 90 54 91 62 92 55 93 57 94 63 95 56 96 58 97
REMARK SMILES IDX 59 98 60 99 61 100
REMARK H PARENT 20 5 16 10 24 34 83 53 51 64
REMARK Flexibility Score: inf
ROOT
ATOM      1  C   UNL A   1      31.781  30.306  26.497  1.00  0.00     0.117 C 
ENDROOT
BRANCH   1   2
ATOM      2  N   UNL A   1      32.396  29.965  25.229  1.00  0.00    -0.354 N 
ATOM      3  C   UNL A   1      31.851  29.336  24.142  1.00  0.00     0.247 C 
ATOM      4  O   UNL A   1      32.631  28.984  23.254  1.00  0.00    -0.272 OA
ATOM      5  H   UNL A   1      33.342  30.222  25.136  1.00  0.00     0.163 HD
BRANCH   3   6
ATOM      6  C   UNL A   1      30.320  29.074  24.089  1.00  0.00     0.202 C 
BRANCH   6   7
ATOM      7  N   UNL A   1      30.085  27.748  23.531  1.00  0.00    -0.339 N 
ATOM      8  O   UNL A   1      30.424  26.605  25.487  1.00  0.00    -0.273 OA
ATOM      9  C   UNL A   1      30.144  26.599  24.290  1.00  0.00     0.242 C 
ATOM     10  H   UNL A   1      29.877  27.669  22.571  1.00  0.00     0.164 HD
BRANCH   9  11
ATOM     11  C   UNL A   1      29.898  25.309  23.513  1.00  0.00     0.248 C 
BRANCH  11  12
ATOM     12  N   UNL A   1      31.079  24.521  23.192  1.00  0.00    -0.220 N 
ATOM     13  N   UNL A   1      31.212  23.269  23.757  1.00  0.00    -0.166 NA
ATOM     14  C   UNL A   1      32.016  25.083  22.335  1.00  0.00     0.267 A 
ATOM     15  C   UNL A   1      32.320  22.629  23.553  1.00  0.00     0.126 A 
ATOM     16  C   UNL A   1      33.254  24.306  22.121  1.00  0.00     0.076 A 
ATOM     17  O   UNL A   1      31.881  26.164  21.770  1.00  0.00    -0.268 OA
ATOM     18  C   UNL A   1      33.432  23.129  22.722  1.00  0.00     0.040 A 
BRANCH  15  19
ATOM     19  C   UNL A   1      32.489  21.333  24.152  1.00  0.00     0.154 A 
ATOM     20  C   UNL A   1      32.764  20.953  25.449  1.00  0.00     0.052 A 
ATOM     21  O   UNL A   1      32.387  20.227  23.357  1.00  0.00    -0.463 OA
ATOM     22  C   UNL A   1      32.870  19.542  25.441  1.00  0.00     0.043 A 
ATOM     23  C   UNL A   1      32.646  19.150  24.142  1.00  0.00     0.196 A 
ENDBRANCH  15  19
ENDBRANCH  11  12
ENDBRANCH   9  11
ENDBRANCH   6   7
BRANCH   6  24
ATOM     24  C   UNL A   1      29.598  30.180  23.324  1.00  0.00    -0.016 A 
ATOM     25  C   UNL A   1      29.270  29.968  21.974  1.00  0.00     0.006 A 
ATOM     26  C   UNL A   1      29.171  31.372  23.931  1.00  0.00     0.006 A 
ATOM     27  C   UNL A   1      28.544  30.918  21.251  1.00  0.00     0.000 A 
ATOM     28  C   UNL A   1      28.439  32.317  23.208  1.00  0.00     0.000 A 
ATOM     29  C   UNL A   1      28.129  32.093  21.870  1.00  0.00     0.000 A 
ENDBRANCH   6  24
ENDBRANCH   3   6
ENDBRANCH   1   2
BRANCH   1  30
ATOM     30  C   UNL A   1      31.626  31.817  26.652  1.00  0.00     0.042 C 
BRANCH  30  31
ATOM     31  C   UNL A   1      32.840  32.499  27.275  1.00  0.00     0.118 C 
BRANCH  31  32
ATOM     32  N   UNL A   1      32.599  33.896  27.605  1.00  0.00    -0.352 N 
ATOM     33  C   UNL A   1      33.164  34.674  28.588  1.00  0.00     0.251 C 
ATOM     34  H   UNL A   1      31.932  34.351  27.041  1.00  0.00     0.163 HD
ATOM     35  O   UNL A   1      32.711  35.793  28.810  1.00  0.00    -0.269 OA
BRANCH  33  36
ATOM     36  C   UNL A   1      34.291  34.149  29.387  1.00  0.00     0.039 A 
ATOM     37  C   UNL A   1      35.611  34.360  28.981  1.00  0.00     0.014 A 
ATOM     38  C   UNL A   1      34.021  33.426  30.552  1.00  0.00     0.014 A 
ATOM     39  C   UNL A   1      36.647  33.714  29.647  1.00  0.00     0.010 A 
ATOM     40  C   UNL A   1      35.072  32.844  31.265  1.00  0.00     0.010 A 
ATOM     41  C   UNL A   1      36.390  32.945  30.793  1.00  0.00    -0.014 A 
BRANCH  41  42
ATOM     42  C   UNL A   1      37.514  32.264  31.485  1.00  0.00     0.031 A 
ATOM     43  C   UNL A   1      38.270  31.146  30.819  1.00  0.00     0.074 A 
ATOM     44  C   UNL A   1      37.877  32.684  32.713  1.00  0.00     0.049 A 
ATOM     45  N   UNL A   1      39.285  30.458  31.275  1.00  0.00    -0.248 NA
ATOM     46  C   UNL A   1      37.833  30.742  29.471  1.00  0.00     0.031 C 
ATOM     47  C   UNL A   1      37.210  33.745  33.470  1.00  0.00     0.029 A 
ATOM     48  N   UNL A   1      38.898  32.281  33.535  1.00  0.00    -0.354 N 
ATOM     49  C   UNL A   1      39.582  29.517  30.295  1.00  0.00     0.074 A 
ATOM     50  C   UNL A   1      38.640  29.720  29.216  1.00  0.00     0.031 C 
ATOM     51  C   UNL A   1      37.863  33.938  34.624  1.00  0.00     0.029 A 
ATOM     52  C   UNL A   1      38.963  32.983  34.715  1.00  0.00     0.049 A 
ATOM     53  H   UNL A   1      39.525  31.558  33.302  1.00  0.00     0.167 HD
ATOM     54  C   UNL A   1      40.562  28.584  30.288  1.00  0.00     0.034 A 
ATOM     55  C   UNL A   1      39.806  32.871  35.758  1.00  0.00     0.034 A 
ATOM     56  C   UNL A   1      41.534  28.421  31.334  1.00  0.00     0.049 A 
ATOM     57  C   UNL A   1      40.899  31.845  35.714  1.00  0.00     0.074 A 
ATOM     58  C   UNL A   1      42.592  27.530  31.389  1.00  0.00     0.029 A 
ATOM     59  N   UNL A   1      41.575  29.166  32.502  1.00  0.00    -0.354 N 
ATOM     60  N   UNL A   1      41.203  31.015  34.747  1.00  0.00    -0.248 NA
ATOM     61  C   UNL A   1      41.772  31.746  36.892  1.00  0.00     0.031 C 
ATOM     62  C   UNL A   1      43.274  27.736  32.592  1.00  0.00     0.029 A 
ATOM     63  C   UNL A   1      42.642  28.758  33.282  1.00  0.00     0.049 A 
ATOM     64  H   UNL A   1      40.939  29.878  32.741  1.00  0.00     0.167 HD
ATOM     65  C   UNL A   1      42.309  30.304  35.192  1.00  0.00     0.074 A 
ATOM     66  C   UNL A   1      42.635  30.813  36.508  1.00  0.00     0.031 C 
ATOM     67  C   UNL A   1      42.982  29.306  34.569  1.00  0.00     0.034 A 
BRANCH  54  68
ATOM     68  C   UNL A   1      40.680  27.690  29.084  1.00  0.00     0.023 A 
ATOM     69  C   UNL A   1      39.806  26.595  28.952  1.00  0.00     0.012 A 
ATOM     70  C   UNL A   1      41.577  27.994  28.041  1.00  0.00     0.148 A 
ATOM     71  C   UNL A   1      39.826  25.807  27.803  1.00  0.00     0.002 A 
ATOM     72  C   UNL A   1      41.572  27.221  26.886  1.00  0.00     0.091 A 
ATOM     73  F   UNL A   1      42.408  29.034  28.197  1.00  0.00    -0.205 F 
ATOM     74  C   UNL A   1      40.700  26.126  26.766  1.00  0.00     0.022 A 
BRANCH  72  75
ATOM     75  S   UNL A   1      42.617  27.581  25.468  1.00  0.00     0.127 S 
ATOM     76  O   UNL A   1      42.352  26.429  24.608  1.00  0.00    -0.237 OA
ATOM     77  O   UNL A   1      42.056  28.843  24.986  1.00  0.00    -0.237 OA
ATOM     78  O   UNL A   1      43.976  27.673  25.982  1.00  0.00    -0.744 OA
ENDBRANCH  72  75
ENDBRANCH  54  68
BRANCH  55  79
ATOM     79  C   UNL A   1      39.666  33.811  36.903  1.00  0.00     0.023 A 
ATOM     80  C   UNL A   1      40.008  35.164  36.726  1.00  0.00     0.012 A 
ATOM     81  C   UNL A   1      39.105  33.391  38.125  1.00  0.00     0.148 A 
ATOM     82  C   UNL A   1      39.791  36.087  37.750  1.00  0.00     0.002 A 
ATOM     83  C   UNL A   1      38.852  34.323  39.122  1.00  0.00     0.091 A 
ATOM     84  F   UNL A   1      38.794  32.095  38.266  1.00  0.00    -0.205 F 
ATOM     85  C   UNL A   1      39.203  35.670  38.941  1.00  0.00     0.022 A 
BRANCH  83  86
ATOM     86  S   UNL A   1      37.987  33.905  40.641  1.00  0.00     0.127 S 
ATOM     87  O   UNL A   1      36.771  33.279  40.129  1.00  0.00    -0.237 OA
ATOM     88  O   UNL A   1      38.933  32.988  41.278  1.00  0.00    -0.237 OA
ATOM     89  O   UNL A   1      37.795  35.163  41.348  1.00  0.00    -0.744 OA
ENDBRANCH  83  86
ENDBRANCH  55  79
BRANCH  67  90
ATOM     90  C   UNL A   1      44.149  28.691  35.287  1.00  0.00     0.023 A 
ATOM     91  C   UNL A   1      45.439  29.215  35.079  1.00  0.00     0.012 A 
ATOM     92  C   UNL A   1      43.952  27.685  36.253  1.00  0.00     0.148 A 
ATOM     93  C   UNL A   1      46.521  28.740  35.819  1.00  0.00     0.002 A 
ATOM     94  C   UNL A   1      45.029  27.240  37.009  1.00  0.00     0.091 A 
ATOM     95  F   UNL A   1      42.713  27.198  36.422  1.00  0.00    -0.205 F 
ATOM     96  C   UNL A   1      46.314  27.763  36.791  1.00  0.00     0.022 A 
BRANCH  94  97
ATOM     97  S   UNL A   1      44.851  26.039  38.334  1.00  0.00     0.127 S 
ATOM     98  O   UNL A   1      43.927  26.726  39.235  1.00  0.00    -0.237 OA
ATOM     99  O   UNL A   1      44.280  24.889  37.633  1.00  0.00    -0.237 OA
ATOM    100  O   UNL A   1      46.190  25.823  38.865  1.00  0.00    -0.744 OA
ENDBRANCH  94  97
ENDBRANCH  67  90
ENDBRANCH  41  42
ENDBRANCH  33  36
ENDBRANCH  31  32
ENDBRANCH  30  31
ENDBRANCH   1  30
TORSDOF 18
ENDMDL
MODEL 2
REMARK VINA RESULT:     -12.8      6.178     10.450
REMARK SMILES O=C(Cn1nc(-c2ccco2)ccc1=O)N[C@@H](C(=O)NCCCNC(=O)c1ccc(-c2c3nc(c(-c4cccc(S(=O)(=O)[O-])c4F)c4ccc([nH]4)c(-c4cccc(S(=O)(=O)[O-])c4F)c4nc(c(-c5cccc(S(=O)(=O)[O-])c5F)c5ccc2[nH]5)C=C4)C=C3)cc1)c1ccccc1
REMARK SMILES IDX 21 1 20 2 18 3 19 4 17 6 16 7 1 8 2 9 3 11 4 12 5 13 14 14
REMARK SMILES IDX 6 15 13 16 15 17 12 18 7 19 8 20 11 21 9 22 10 23 90 24
REMARK SMILES IDX 91 25 95 26 92 27 94 28 93 29 22 30 23 31 24 32 25 33 26 35
REMARK SMILES IDX 27 36 28 37 89 38 29 39 88 40 30 41 31 42 32 43 82 44 33 45
REMARK SMILES IDX 87 46 81 47 83 48 34 49 86 50 80 51 79 52 35 54 67 55 47 56
REMARK SMILES IDX 66 57 48 58 51 59 65 60 84 61 49 62 50 63 64 65 85 66 52 67
REMARK SMILES IDX 36 68 37 69 45 70 38 71 40 72 46 73 39 74 41 75 42 76 43 77
REMARK SMILES IDX 44 78 68 79 69 80 77 81 70 82 72 83 78 84 71 85 73 86 74 87
REMARK SMILES IDX 75 88 76 89 53 90 54 91 62 92 55 93 57 94 63 95 56 96 58 97
REMARK SMILES IDX 59 98 60 99 61 100
REMARK H PARENT 20 5 16 10 24 34 83 53 51 64
REMARK Flexibility Score: inf
ROOT
ATOM      1  C   UNL A   1      36.888  21.076  24.790  1.00  0.00     0.117 C 
ENDROOT
BRANCH   1   2
ATOM      2  N   UNL A   1      35.895  21.096  25.848  1.00  0.00    -0.354 N 
ATOM      3  C   UNL A   1      34.563  20.787  25.792  1.00  0.00     0.247 C 
ATOM      4  O   UNL A   1      33.885  21.069  26.783  1.00  0.00    -0.272 OA
ATOM      5  H   UNL A   1      36.227  21.372  26.733  1.00  0.00     0.163 HD
BRANCH   3   6
ATOM      6  C   UNL A   1      33.973  20.141  24.507  1.00  0.00     0.202 C 
BRANCH   6   7
ATOM      7  N   UNL A   1      32.750  20.844  24.142  1.00  0.00    -0.339 N 
ATOM      8  O   UNL A   1      33.790  22.601  23.102  1.00  0.00    -0.273 OA
ATOM      9  C   UNL A   1      32.755  22.033  23.444  1.00  0.00     0.242 C 
ATOM     10  H   UNL A   1      31.883  20.455  24.404  1.00  0.00     0.164 HD
BRANCH   9  11
ATOM     11  C   UNL A   1      31.373  22.626  23.184  1.00  0.00     0.248 C 
BRANCH  11  12
ATOM     12  N   UNL A   1      30.990  23.749  24.028  1.00  0.00    -0.220 N 
ATOM     13  N   UNL A   1      30.892  25.000  23.456  1.00  0.00    -0.166 NA
ATOM     14  C   UNL A   1      30.752  23.494  25.372  1.00  0.00     0.267 A 
ATOM     15  C   UNL A   1      30.664  26.006  24.241  1.00  0.00     0.126 A 
ATOM     16  C   UNL A   1      30.478  24.671  26.222  1.00  0.00     0.076 A 
ATOM     17  O   UNL A   1      30.767  22.378  25.882  1.00  0.00    -0.268 OA
ATOM     18  C   UNL A   1      30.458  25.898  25.698  1.00  0.00     0.040 A 
BRANCH  15  19
ATOM     19  C   UNL A   1      30.582  27.323  23.670  1.00  0.00     0.154 A 
ATOM     20  C   UNL A   1      30.551  27.753  22.359  1.00  0.00     0.052 A 
ATOM     21  O   UNL A   1      30.533  28.399  24.511  1.00  0.00    -0.463 OA
ATOM     22  C   UNL A   1      30.518  29.166  22.400  1.00  0.00     0.043 A 
ATOM     23  C   UNL A   1      30.523  29.510  23.731  1.00  0.00     0.196 A 
ENDBRANCH  15  19
ENDBRANCH  11  12
ENDBRANCH   9  11
ENDBRANCH   6   7
BRANCH   6  24
ATOM     24  C   UNL A   1      33.766  18.640  24.692  1.00  0.00    -0.016 A 
ATOM     25  C   UNL A   1      34.799  17.762  24.320  1.00  0.00     0.006 A 
ATOM     26  C   UNL A   1      32.620  18.098  25.296  1.00  0.00     0.006 A 
ATOM     27  C   UNL A   1      34.688  16.386  24.538  1.00  0.00     0.000 A 
ATOM     28  C   UNL A   1      32.516  16.723  25.519  1.00  0.00     0.000 A 
ATOM     29  C   UNL A   1      33.546  15.867  25.138  1.00  0.00     0.000 A 
ENDBRANCH   6  24
ENDBRANCH   3   6
ENDBRANCH   1   2
BRANCH   1  30
ATOM     30  C   UNL A   1      37.902  19.956  25.001  1.00  0.00     0.042 C 
BRANCH  30  31
ATOM     31  C   UNL A   1      39.038  20.325  25.950  1.00  0.00     0.118 C 
BRANCH  31  32
ATOM     32  N   UNL A   1      40.120  19.351  25.947  1.00  0.00    -0.352 N 
ATOM     33  C   UNL A   1      41.474  19.545  26.085  1.00  0.00     0.251 C 
ATOM     34  H   UNL A   1      39.840  18.414  25.828  1.00  0.00     0.163 HD
ATOM     35  O   UNL A   1      42.243  18.607  25.895  1.00  0.00    -0.269 OA
BRANCH  33  36
ATOM     36  C   UNL A   1      41.996  20.884  26.431  1.00  0.00     0.039 A 
ATOM     37  C   UNL A   1      42.264  21.222  27.759  1.00  0.00     0.014 A 
ATOM     38  C   UNL A   1      42.206  21.817  25.412  1.00  0.00     0.014 A 
ATOM     39  C   UNL A   1      42.587  22.534  28.084  1.00  0.00     0.010 A 
ATOM     40  C   UNL A   1      42.609  23.115  25.735  1.00  0.00     0.010 A 
ATOM     41  C   UNL A   1      42.758  23.498  27.077  1.00  0.00    -0.014 A 
BRANCH  41  42
ATOM     42  C   UNL A   1      43.101  24.894  27.450  1.00  0.00     0.031 A 
ATOM     43  C   UNL A   1      44.470  25.455  27.174  1.00  0.00     0.074 A 
ATOM     44  C   UNL A   1      42.156  25.672  28.014  1.00  0.00     0.049 A 
ATOM     45  N   UNL A   1      44.928  26.656  27.419  1.00  0.00    -0.248 NA
ATOM     46  C   UNL A   1      45.455  24.559  26.544  1.00  0.00     0.031 C 
ATOM     47  C   UNL A   1      40.799  25.236  28.349  1.00  0.00     0.029 A 
ATOM     48  N   UNL A   1      42.185  26.990  28.393  1.00  0.00    -0.354 N 
ATOM     49  C   UNL A   1      46.258  26.649  27.017  1.00  0.00     0.074 A 
ATOM     50  C   UNL A   1      46.538  25.324  26.508  1.00  0.00     0.031 C 
ATOM     51  C   UNL A   1      40.113  26.276  28.844  1.00  0.00     0.029 A 
ATOM     52  C   UNL A   1      40.993  27.439  28.909  1.00  0.00     0.049 A 
ATOM     53  H   UNL A   1      42.984  27.559  28.303  1.00  0.00     0.167 HD
ATOM     54  C   UNL A   1      47.157  27.660  27.049  1.00  0.00     0.034 A 
ATOM     55  C   UNL A   1      40.643  28.647  29.388  1.00  0.00     0.034 A 
ATOM     56  C   UNL A   1      46.862  28.993  27.500  1.00  0.00     0.049 A 
ATOM     57  C   UNL A   1      41.652  29.758  29.390  1.00  0.00     0.074 A 
ATOM     58  C   UNL A   1      47.701  30.094  27.525  1.00  0.00     0.029 A 
ATOM     59  N   UNL A   1      45.638  29.409  27.997  1.00  0.00    -0.354 N 
ATOM     60  N   UNL A   1      42.882  29.746  28.939  1.00  0.00    -0.248 NA
ATOM     61  C   UNL A   1      41.226  31.047  29.952  1.00  0.00     0.031 C 
ATOM     62  C   UNL A   1      46.983  31.178  28.038  1.00  0.00     0.029 A 
ATOM     63  C   UNL A   1      45.697  30.752  28.327  1.00  0.00     0.049 A 
ATOM     64  H   UNL A   1      44.845  28.836  28.099  1.00  0.00     0.167 HD
ATOM     65  C   UNL A   1      43.374  31.028  29.149  1.00  0.00     0.074 A 
ATOM     66  C   UNL A   1      42.303  31.796  29.751  1.00  0.00     0.031 C 
ATOM     67  C   UNL A   1      44.609  31.515  28.881  1.00  0.00     0.034 A 
BRANCH  54  68
ATOM     68  C   UNL A   1      48.544  27.392  26.531  1.00  0.00     0.023 A 
ATOM     69  C   UNL A   1      49.499  26.815  27.388  1.00  0.00     0.012 A 
ATOM     70  C   UNL A   1      48.866  27.612  25.177  1.00  0.00     0.148 A 
ATOM     71  C   UNL A   1      50.761  26.466  26.910  1.00  0.00     0.002 A 
ATOM     72  C   UNL A   1      50.116  27.235  24.700  1.00  0.00     0.091 A 
ATOM     73  F   UNL A   1      47.944  28.176  24.384  1.00  0.00    -0.205 F 
ATOM     74  C   UNL A   1      51.065  26.665  25.566  1.00  0.00     0.022 A 
BRANCH  72  75
ATOM     75  S   UNL A   1      50.589  27.395  22.973  1.00  0.00     0.127 S 
ATOM     76  O   UNL A   1      51.885  26.717  22.959  1.00  0.00    -0.237 OA
ATOM     77  O   UNL A   1      49.515  26.672  22.293  1.00  0.00    -0.237 OA
ATOM     78  O   UNL A   1      50.634  28.825  22.698  1.00  0.00    -0.744 OA
ENDBRANCH  72  75
ENDBRANCH  54  68
BRANCH  55  79
ATOM     79  C   UNL A   1      39.246  28.864  29.849  1.00  0.00     0.023 A 
ATOM     80  C   UNL A   1      38.917  28.603  31.192  1.00  0.00     0.012 A 
ATOM     81  C   UNL A   1      38.275  29.418  28.992  1.00  0.00     0.148 A 
ATOM     82  C   UNL A   1      37.641  28.893  31.677  1.00  0.00     0.002 A 
ATOM     83  C   UNL A   1      37.022  29.746  29.493  1.00  0.00     0.091 A 
ATOM     84  F   UNL A   1      38.615  29.651  27.717  1.00  0.00    -0.205 F 
ATOM     85  C   UNL A   1      36.700  29.475  30.832  1.00  0.00     0.022 A 
BRANCH  83  86
ATOM     86  S   UNL A   1      35.785  30.608  28.517  1.00  0.00     0.127 S 
ATOM     87  O   UNL A   1      35.066  31.360  29.543  1.00  0.00    -0.237 OA
ATOM     88  O   UNL A   1      36.619  31.419  27.629  1.00  0.00    -0.237 OA
ATOM     89  O   UNL A   1      35.015  29.572  27.844  1.00  0.00    -0.744 OA
ENDBRANCH  83  86
ENDBRANCH  55  79
BRANCH  67  90
ATOM     90  C   UNL A   1      44.888  32.951  29.224  1.00  0.00     0.023 A 
ATOM     91  C   UNL A   1      45.444  33.263  30.478  1.00  0.00     0.012 A 
ATOM     92  C   UNL A   1      44.716  33.967  28.264  1.00  0.00     0.148 A 
ATOM     93  C   UNL A   1      45.820  34.573  30.777  1.00  0.00     0.002 A 
ATOM     94  C   UNL A   1      45.123  35.262  28.556  1.00  0.00     0.091 A 
ATOM     95  F   UNL A   1      44.175  33.641  27.080  1.00  0.00    -0.205 F 
ATOM     96  C   UNL A   1      45.671  35.568  29.813  1.00  0.00     0.022 A 
BRANCH  94  97
ATOM     97  S   UNL A   1      45.041  36.597  27.355  1.00  0.00     0.127 S 
ATOM     98  O   UNL A   1      45.937  36.109  26.308  1.00  0.00    -0.237 OA
ATOM     99  O   UNL A   1      43.623  36.600  26.994  1.00  0.00    -0.237 OA
ATOM    100  O   UNL A   1      45.493  37.793  28.051  1.00  0.00    -0.744 OA
ENDBRANCH  94  97
ENDBRANCH  67  90
ENDBRANCH  41  42
ENDBRANCH  33  36
ENDBRANCH  31  32
ENDBRANCH  30  31
ENDBRANCH   1  30
TORSDOF 18
ENDMDL
MODEL 3
REMARK VINA RESULT:     -12.7      1.948      7.694
REMARK SMILES O=C(Cn1nc(-c2ccco2)ccc1=O)N[C@@H](C(=O)NCCCNC(=O)c1ccc(-c2c3nc(c(-c4cccc(S(=O)(=O)[O-])c4F)c4ccc([nH]4)c(-c4cccc(S(=O)(=O)[O-])c4F)c4nc(c(-c5cccc(S(=O)(=O)[O-])c5F)c5ccc2[nH]5)C=C4)C=C3)cc1)c1ccccc1
REMARK SMILES IDX 21 1 20 2 18 3 19 4 17 6 16 7 1 8 2 9 3 11 4 12 5 13 14 14
REMARK SMILES IDX 6 15 13 16 15 17 12 18 7 19 8 20 11 21 9 22 10 23 90 24
REMARK SMILES IDX 91 25 95 26 92 27 94 28 93 29 22 30 23 31 24 32 25 33 26 35
REMARK SMILES IDX 27 36 28 37 89 38 29 39 88 40 30 41 31 42 32 43 82 44 33 45
REMARK SMILES IDX 87 46 81 47 83 48 34 49 86 50 80 51 79 52 35 54 67 55 47 56
REMARK SMILES IDX 66 57 48 58 51 59 65 60 84 61 49 62 50 63 64 65 85 66 52 67
REMARK SMILES IDX 36 68 37 69 45 70 38 71 40 72 46 73 39 74 41 75 42 76 43 77
REMARK SMILES IDX 44 78 68 79 69 80 77 81 70 82 72 83 78 84 71 85 73 86 74 87
REMARK SMILES IDX 75 88 76 89 53 90 54 91 62 92 55 93 57 94 63 95 56 96 58 97
REMARK SMILES IDX 59 98 60 99 61 100
REMARK H PARENT 20 5 16 10 24 34 83 53 51 64
REMARK Flexibility Score: inf
ROOT
ATOM      1  C   UNL A   1      33.208  29.870  26.186  1.00  0.00     0.117 C 
ENDROOT
BRANCH   1   2
ATOM      2  N   UNL A   1      33.290  29.720  24.745  1.00  0.00    -0.354 N 
ATOM      3  C   UNL A   1      32.356  29.235  23.870  1.00  0.00     0.247 C 
ATOM      4  O   UNL A   1      32.734  29.027  22.714  1.00  0.00    -0.272 OA
ATOM      5  H   UNL A   1      34.139  30.009  24.338  1.00  0.00     0.163 HD
BRANCH   3   6
ATOM      6  C   UNL A   1      30.910  28.948  24.363  1.00  0.00     0.202 C 
BRANCH   6   7
ATOM      7  N   UNL A   1      30.660  27.514  24.289  1.00  0.00    -0.339 N 
ATOM      8  O   UNL A   1      31.111  27.081  26.493  1.00  0.00    -0.273 OA
ATOM      9  C   UNL A   1      30.769  26.682  25.382  1.00  0.00     0.242 C 
ATOM     10  H   UNL A   1      30.403  27.123  23.421  1.00  0.00     0.164 HD
BRANCH   9  11
ATOM     11  C   UNL A   1      30.496  25.208  25.091  1.00  0.00     0.248 C 
BRANCH  11  12
ATOM     12  N   UNL A   1      31.488  24.264  25.585  1.00  0.00    -0.220 N 
ATOM     13  N   UNL A   1      32.709  24.196  24.947  1.00  0.00    -0.166 NA
ATOM     14  C   UNL A   1      31.141  23.477  26.675  1.00  0.00     0.267 A 
ATOM     15  C   UNL A   1      33.536  23.272  25.326  1.00  0.00     0.126 A 
ATOM     16  C   UNL A   1      32.126  22.452  27.079  1.00  0.00     0.076 A 
ATOM     17  O   UNL A   1      30.088  23.573  27.297  1.00  0.00    -0.268 OA
ATOM     18  C   UNL A   1      33.279  22.319  26.422  1.00  0.00     0.040 A 
BRANCH  15  19
ATOM     19  C   UNL A   1      34.805  23.167  24.658  1.00  0.00     0.154 A 
ATOM     20  C   UNL A   1      35.138  23.155  23.319  1.00  0.00     0.052 A 
ATOM     21  O   UNL A   1      35.935  23.039  25.416  1.00  0.00    -0.463 OA
ATOM     22  C   UNL A   1      36.540  22.975  23.254  1.00  0.00     0.043 A 
ATOM     23  C   UNL A   1      36.975  22.897  24.556  1.00  0.00     0.196 A 
ENDBRANCH  15  19
ENDBRANCH  11  12
ENDBRANCH   9  11
ENDBRANCH   6   7
BRANCH   6  24
ATOM     24  C   UNL A   1      29.890  29.774  23.585  1.00  0.00    -0.016 A 
ATOM     25  C   UNL A   1      29.320  29.226  22.422  1.00  0.00     0.006 A 
ATOM     26  C   UNL A   1      29.429  31.025  24.022  1.00  0.00     0.006 A 
ATOM     27  C   UNL A   1      28.327  29.910  21.716  1.00  0.00     0.000 A 
ATOM     28  C   UNL A   1      28.431  31.703  23.318  1.00  0.00     0.000 A 
ATOM     29  C   UNL A   1      27.883  31.149  22.165  1.00  0.00     0.000 A 
ENDBRANCH   6  24
ENDBRANCH   3   6
ENDBRANCH   1   2
BRANCH   1  30
ATOM     30  C   UNL A   1      33.471  31.312  26.612  1.00  0.00     0.042 C 
BRANCH  30  31
ATOM     31  C   UNL A   1      32.261  31.998  27.240  1.00  0.00     0.118 C 
BRANCH  31  32
ATOM     32  N   UNL A   1      32.474  33.419  27.474  1.00  0.00    -0.352 N 
ATOM     33  C   UNL A   1      33.474  34.051  28.175  1.00  0.00     0.251 C 
ATOM     34  H   UNL A   1      31.802  34.016  27.072  1.00  0.00     0.163 HD
ATOM     35  O   UNL A   1      33.392  35.256  28.395  1.00  0.00    -0.269 OA
BRANCH  33  36
ATOM     36  C   UNL A   1      34.624  33.273  28.683  1.00  0.00     0.039 A 
ATOM     37  C   UNL A   1      34.454  32.337  29.706  1.00  0.00     0.014 A 
ATOM     38  C   UNL A   1      35.891  33.495  28.136  1.00  0.00     0.014 A 
ATOM     39  C   UNL A   1      35.569  31.744  30.288  1.00  0.00     0.010 A 
ATOM     40  C   UNL A   1      37.001  32.836  28.671  1.00  0.00     0.010 A 
ATOM     41  C   UNL A   1      36.856  31.990  29.781  1.00  0.00    -0.014 A 
BRANCH  41  42
ATOM     42  C   UNL A   1      38.030  31.345  30.422  1.00  0.00     0.031 A 
ATOM     43  C   UNL A   1      38.413  31.670  31.841  1.00  0.00     0.074 A 
ATOM     44  C   UNL A   1      38.737  30.433  29.726  1.00  0.00     0.049 A 
ATOM     45  N   UNL A   1      39.396  31.185  32.555  1.00  0.00    -0.248 NA
ATOM     46  C   UNL A   1      37.593  32.665  32.553  1.00  0.00     0.031 C 
ATOM     47  C   UNL A   1      38.475  30.048  28.337  1.00  0.00     0.029 A 
ATOM     48  N   UNL A   1      39.807  29.657  30.090  1.00  0.00    -0.354 N 
ATOM     49  C   UNL A   1      39.342  31.842  33.779  1.00  0.00     0.074 A 
ATOM     50  C   UNL A   1      38.227  32.762  33.715  1.00  0.00     0.031 C 
ATOM     51  C   UNL A   1      39.332  29.082  27.981  1.00  0.00     0.029 A 
ATOM     52  C   UNL A   1      40.236  28.812  29.094  1.00  0.00     0.049 A 
ATOM     53  H   UNL A   1      40.228  29.701  30.979  1.00  0.00     0.167 HD
ATOM     54  C   UNL A   1      40.135  31.679  34.863  1.00  0.00     0.034 A 
ATOM     55  C   UNL A   1      41.246  27.922  29.072  1.00  0.00     0.034 A 
ATOM     56  C   UNL A   1      41.206  30.724  34.947  1.00  0.00     0.049 A 
ATOM     57  C   UNL A   1      42.095  27.743  30.296  1.00  0.00     0.074 A 
ATOM     58  C   UNL A   1      42.034  30.458  36.024  1.00  0.00     0.029 A 
ATOM     59  N   UNL A   1      41.594  29.875  33.923  1.00  0.00    -0.354 N 
ATOM     60  N   UNL A   1      41.979  28.325  31.465  1.00  0.00    -0.248 NA
ATOM     61  C   UNL A   1      43.202  26.780  30.207  1.00  0.00     0.031 C 
ATOM     62  C   UNL A   1      42.924  29.447  35.651  1.00  0.00     0.029 A 
ATOM     63  C   UNL A   1      42.646  29.081  34.344  1.00  0.00     0.049 A 
ATOM     64  H   UNL A   1      41.182  29.841  33.030  1.00  0.00     0.167 HD
ATOM     65  C   UNL A   1      42.989  27.791  32.255  1.00  0.00     0.074 A 
ATOM     66  C   UNL A   1      43.694  26.824  31.439  1.00  0.00     0.031 C 
ATOM     67  C   UNL A   1      43.309  28.090  33.536  1.00  0.00     0.034 A 
BRANCH  54  68
ATOM     68  C   UNL A   1      39.849  32.512  36.082  1.00  0.00     0.023 A 
ATOM     69  C   UNL A   1      40.487  33.758  36.229  1.00  0.00     0.012 A 
ATOM     70  C   UNL A   1      38.878  32.112  37.021  1.00  0.00     0.148 A 
ATOM     71  C   UNL A   1      40.169  34.595  37.297  1.00  0.00     0.002 A 
ATOM     72  C   UNL A   1      38.545  32.964  38.068  1.00  0.00     0.091 A 
ATOM     73  F   UNL A   1      38.295  30.915  36.867  1.00  0.00    -0.205 F 
ATOM     74  C   UNL A   1      39.192  34.204  38.209  1.00  0.00     0.022 A 
BRANCH  72  75
ATOM     75  S   UNL A   1      37.260  32.581  39.265  1.00  0.00     0.127 S 
ATOM     76  O   UNL A   1      37.628  31.225  39.669  1.00  0.00    -0.237 OA
ATOM     77  O   UNL A   1      37.480  33.604  40.288  1.00  0.00    -0.237 OA
ATOM     78  O   UNL A   1      35.996  32.694  38.550  1.00  0.00    -0.744 OA
ENDBRANCH  72  75
ENDBRANCH  54  68
BRANCH  55  79
ATOM     79  C   UNL A   1      41.454  27.097  27.852  1.00  0.00     0.023 A 
ATOM     80  C   UNL A   1      42.087  27.672  26.735  1.00  0.00     0.012 A 
ATOM     81  C   UNL A   1      41.121  25.729  27.833  1.00  0.00     0.148 A 
ATOM     82  C   UNL A   1      42.387  26.895  25.615  1.00  0.00     0.002 A 
ATOM     83  C   UNL A   1      41.463  24.953  26.734  1.00  0.00     0.091 A 
ATOM     84  F   UNL A   1      40.514  25.210  28.910  1.00  0.00    -0.205 F 
ATOM     85  C   UNL A   1      42.087  25.535  25.620  1.00  0.00     0.022 A 
BRANCH  83  86
ATOM     86  S   UNL A   1      41.228  23.172  26.696  1.00  0.00     0.127 S 
ATOM     87  O   UNL A   1      42.021  22.791  25.529  1.00  0.00    -0.237 OA
ATOM     88  O   UNL A   1      41.794  22.770  27.984  1.00  0.00    -0.237 OA
ATOM     89  O   UNL A   1      39.793  22.963  26.574  1.00  0.00    -0.744 OA
ENDBRANCH  83  86
ENDBRANCH  55  79
BRANCH  67  90
ATOM     90  C   UNL A   1      44.469  27.366  34.158  1.00  0.00     0.023 A 
ATOM     91  C   UNL A   1      45.761  27.913  34.044  1.00  0.00     0.012 A 
ATOM     92  C   UNL A   1      44.262  26.223  34.954  1.00  0.00     0.148 A 
ATOM     93  C   UNL A   1      46.837  27.325  34.709  1.00  0.00     0.002 A 
ATOM     94  C   UNL A   1      45.331  25.663  35.640  1.00  0.00     0.091 A 
ATOM     95  F   UNL A   1      43.021  25.719  35.036  1.00  0.00    -0.205 F 
ATOM     96  C   UNL A   1      46.620  26.209  35.516  1.00  0.00     0.022 A 
BRANCH  94  97
ATOM     97  S   UNL A   1      45.140  24.270  36.760  1.00  0.00     0.127 S 
ATOM     98  O   UNL A   1      44.136  24.776  37.694  1.00  0.00    -0.237 OA
ATOM     99  O   UNL A   1      44.665  23.216  35.864  1.00  0.00    -0.237 OA
ATOM    100  O   UNL A   1      46.457  24.031  37.334  1.00  0.00    -0.744 OA
ENDBRANCH  94  97
ENDBRANCH  67  90
ENDBRANCH  41  42
ENDBRANCH  33  36
ENDBRANCH  31  32
ENDBRANCH  30  31
ENDBRANCH   1  30
TORSDOF 18
ENDMDL
