MODEL 1
REMARK VINA RESULT:     -13.5      0.000      0.000
REMARK SMILES CC1=C[C@@H](C)[C@H]2C(=O)N([C@H](Cc3ccccc3)C(=O)NCCCNC(=O)c3ccc(-c4c5nc(c(-c6cccc(S(=O)(=O)[O-])c6F)c6ccc([nH]6)c(-c6cccc(S(=O)(=O)[O-])c6F)c6nc(c(-c7cccc(S(=O)(=O)[O-])c7F)c7ccc4[nH]7)C=C6)C=C5)cc3)C(=O)[C@H]2C1
REMARK SMILES IDX 22 1 21 2 20 3 18 4 19 5 10 7 9 8 1 9 2 10 3 11 93 12 4 13
REMARK SMILES IDX 92 14 6 15 5 16 90 17 7 18 91 19 8 20 11 21 12 22 13 23
REMARK SMILES IDX 17 24 14 25 16 26 15 27 23 28 24 29 25 30 26 32 27 33 28 34
REMARK SMILES IDX 89 35 29 36 88 37 30 38 31 39 32 40 82 41 33 42 87 43 81 44
REMARK SMILES IDX 83 45 34 46 86 47 80 48 79 49 35 51 67 52 47 53 66 54 48 55
REMARK SMILES IDX 51 56 65 57 84 58 49 59 50 60 64 62 85 63 52 64 36 65 37 66
REMARK SMILES IDX 45 67 38 68 40 69 46 70 39 71 41 72 42 73 43 74 44 75 68 76
REMARK SMILES IDX 69 77 77 78 70 79 72 80 78 81 71 82 73 83 74 84 75 85 76 86
REMARK SMILES IDX 53 87 54 88 62 89 55 90 57 91 63 92 56 93 58 94 59 95 60 96
REMARK SMILES IDX 61 97
REMARK H PARENT 20 6 24 31 83 50 51 61
REMARK Flexibility Score: inf
ROOT
ATOM      1  C   UNL A   1      31.484  31.175  26.177  1.00  0.00     0.042 C 
ENDROOT
BRANCH   1   2
ATOM      2  C   UNL A   1      31.632  29.841  25.480  1.00  0.00     0.117 C 
BRANCH   2   3
ATOM      3  N   UNL A   1      32.809  29.709  24.642  1.00  0.00    -0.354 N 
ATOM      4  C   UNL A   1      33.083  28.770  23.681  1.00  0.00     0.243 C 
ATOM      5  O   UNL A   1      34.009  29.004  22.897  1.00  0.00    -0.273 OA
ATOM      6  H   UNL A   1      33.508  30.390  24.781  1.00  0.00     0.163 HD
BRANCH   4   7
ATOM      7  C   UNL A   1      32.285  27.454  23.585  1.00  0.00     0.186 C 
BRANCH   7   8
ATOM      8  N   UNL A   1      33.131  26.229  23.523  1.00  0.00    -0.269 N 
ATOM      9  C   UNL A   1      34.391  20.886  25.668  1.00  0.00     0.039 C 
ATOM     10  C   UNL A   1      34.101  22.061  24.778  1.00  0.00    -0.076 C 
ATOM     11  C   UNL A   1      33.242  21.950  23.755  1.00  0.00    -0.024 C 
ATOM     12  C   UNL A   1      34.814  23.347  25.120  1.00  0.00     0.044 C 
ATOM     13  C   UNL A   1      32.832  23.101  22.882  1.00  0.00     0.022 C 
ATOM     14  C   UNL A   1      34.582  24.515  24.170  1.00  0.00     0.096 C 
ATOM     15  C   UNL A   1      33.957  24.163  22.832  1.00  0.00     0.098 C 
ATOM     16  C   UNL A   1      31.429  23.517  23.350  1.00  0.00     0.013 C 
ATOM     17  C   UNL A   1      33.685  25.645  24.644  1.00  0.00     0.234 C 
ATOM     18  C   UNL A   1      33.512  25.532  22.409  1.00  0.00     0.234 C 
ATOM     19  O   UNL A   1      33.564  26.014  25.795  1.00  0.00    -0.274 OA
ATOM     20  O   UNL A   1      33.583  25.913  21.251  1.00  0.00    -0.274 OA
ENDBRANCH   7   8
BRANCH   7  21
ATOM     21  C   UNL A   1      31.188  27.488  22.484  1.00  0.00     0.071 C 
BRANCH  21  22
ATOM     22  C   UNL A   1      29.770  27.853  22.889  1.00  0.00    -0.045 A 
ATOM     23  C   UNL A   1      28.968  26.928  23.573  1.00  0.00     0.004 A 
ATOM     24  C   UNL A   1      29.179  29.062  22.491  1.00  0.00     0.004 A 
ATOM     25  C   UNL A   1      27.618  27.201  23.829  1.00  0.00     0.000 A 
ATOM     26  C   UNL A   1      27.834  29.337  22.747  1.00  0.00     0.000 A 
ATOM     27  C   UNL A   1      27.050  28.403  23.411  1.00  0.00     0.000 A 
ENDBRANCH  21  22
ENDBRANCH   7  21
ENDBRANCH   4   7
ENDBRANCH   2   3
ENDBRANCH   1   2
BRANCH   1  28
ATOM     28  C   UNL A   1      32.645  31.481  27.101  1.00  0.00     0.118 C 
BRANCH  28  29
ATOM     29  N   UNL A   1      32.837  32.916  27.289  1.00  0.00    -0.352 N 
ATOM     30  C   UNL A   1      33.807  33.578  28.001  1.00  0.00     0.251 C 
ATOM     31  H   UNL A   1      32.177  33.492  26.840  1.00  0.00     0.163 HD
ATOM     32  O   UNL A   1      33.691  34.776  28.236  1.00  0.00    -0.269 OA
BRANCH  30  33
ATOM     33  C   UNL A   1      34.980  32.827  28.495  1.00  0.00     0.039 A 
ATOM     34  C   UNL A   1      36.257  33.370  28.342  1.00  0.00     0.014 A 
ATOM     35  C   UNL A   1      34.805  31.596  29.131  1.00  0.00     0.014 A 
ATOM     36  C   UNL A   1      37.353  32.705  28.894  1.00  0.00     0.010 A 
ATOM     37  C   UNL A   1      35.878  30.996  29.771  1.00  0.00     0.010 A 
ATOM     38  C   UNL A   1      37.167  31.532  29.644  1.00  0.00    -0.014 A 
BRANCH  38  39
ATOM     39  C   UNL A   1      38.301  30.829  30.291  1.00  0.00     0.031 A 
ATOM     40  C   UNL A   1      38.707  31.201  31.693  1.00  0.00     0.074 A 
ATOM     41  C   UNL A   1      39.026  29.938  29.586  1.00  0.00     0.049 A 
ATOM     42  N   UNL A   1      39.721  30.776  32.397  1.00  0.00    -0.248 NA
ATOM     43  C   UNL A   1      37.886  32.215  32.380  1.00  0.00     0.031 C 
ATOM     44  C   UNL A   1      38.784  29.562  28.190  1.00  0.00     0.029 A 
ATOM     45  N   UNL A   1      40.131  29.206  29.939  1.00  0.00    -0.354 N 
ATOM     46  C   UNL A   1      39.687  31.497  33.585  1.00  0.00     0.074 A 
ATOM     47  C   UNL A   1      38.579  32.420  33.489  1.00  0.00     0.031 C 
ATOM     48  C   UNL A   1      39.707  28.664  27.810  1.00  0.00     0.029 A 
ATOM     49  C   UNL A   1      40.621  28.422  28.921  1.00  0.00     0.049 A 
ATOM     50  H   UNL A   1      40.536  29.241  30.835  1.00  0.00     0.167 HD
ATOM     51  C   UNL A   1      40.481  31.376  34.674  1.00  0.00     0.034 A 
ATOM     52  C   UNL A   1      41.689  27.601  28.889  1.00  0.00     0.034 A 
ATOM     53  C   UNL A   1      41.540  30.412  34.788  1.00  0.00     0.049 A 
ATOM     54  C   UNL A   1      42.518  27.438  30.135  1.00  0.00     0.074 A 
ATOM     55  C   UNL A   1      42.342  30.141  35.881  1.00  0.00     0.029 A 
ATOM     56  N   UNL A   1      41.939  29.557  33.773  1.00  0.00    -0.354 N 
ATOM     57  N   UNL A   1      42.371  28.015  31.304  1.00  0.00    -0.248 NA
ATOM     58  C   UNL A   1      43.635  26.487  30.071  1.00  0.00     0.031 C 
ATOM     59  C   UNL A   1      43.236  29.127  35.522  1.00  0.00     0.029 A 
ATOM     60  C   UNL A   1      42.978  28.756  34.212  1.00  0.00     0.049 A 
ATOM     61  H   UNL A   1      41.542  29.524  32.872  1.00  0.00     0.167 HD
ATOM     62  C   UNL A   1      43.351  27.469  32.124  1.00  0.00     0.074 A 
ATOM     63  C   UNL A   1      44.072  26.500  31.324  1.00  0.00     0.031 C 
ATOM     64  C   UNL A   1      43.642  27.755  33.417  1.00  0.00     0.034 A 
BRANCH  51  65
ATOM     65  C   UNL A   1      40.185  32.263  35.856  1.00  0.00     0.023 A 
ATOM     66  C   UNL A   1      40.941  33.438  36.045  1.00  0.00     0.012 A 
ATOM     67  C   UNL A   1      39.138  31.965  36.748  1.00  0.00     0.148 A 
ATOM     68  C   UNL A   1      40.685  34.283  37.124  1.00  0.00     0.002 A 
ATOM     69  C   UNL A   1      38.858  32.836  37.795  1.00  0.00     0.091 A 
ATOM     70  F   UNL A   1      38.446  30.831  36.567  1.00  0.00    -0.205 F 
ATOM     71  C   UNL A   1      39.637  33.988  37.991  1.00  0.00     0.022 A 
BRANCH  69  72
ATOM     72  S   UNL A   1      37.480  32.587  38.920  1.00  0.00     0.127 S 
ATOM     73  O   UNL A   1      36.338  32.862  38.050  1.00  0.00    -0.237 OA
ATOM     74  O   UNL A   1      37.637  31.181  39.293  1.00  0.00    -0.237 OA
ATOM     75  O   UNL A   1      37.678  33.530  40.011  1.00  0.00    -0.744 OA
ENDBRANCH  69  72
ENDBRANCH  51  65
BRANCH  52  76
ATOM     76  C   UNL A   1      41.982  26.804  27.664  1.00  0.00     0.023 A 
ATOM     77  C   UNL A   1      42.574  27.441  26.556  1.00  0.00     0.012 A 
ATOM     78  C   UNL A   1      41.708  25.425  27.596  1.00  0.00     0.148 A 
ATOM     79  C   UNL A   1      42.858  26.727  25.391  1.00  0.00     0.002 A 
ATOM     80  C   UNL A   1      42.043  24.708  26.453  1.00  0.00     0.091 A 
ATOM     81  F   UNL A   1      41.133  24.837  28.655  1.00  0.00    -0.205 F 
ATOM     82  C   UNL A   1      42.602  25.359  25.343  1.00  0.00     0.022 A 
BRANCH  80  83
ATOM     83  S   UNL A   1      41.872  22.922  26.353  1.00  0.00     0.127 S 
ATOM     84  O   UNL A   1      42.630  22.483  27.522  1.00  0.00    -0.237 OA
ATOM     85  O   UNL A   1      40.423  22.747  26.456  1.00  0.00    -0.237 OA
ATOM     86  O   UNL A   1      42.427  22.550  25.058  1.00  0.00    -0.744 OA
ENDBRANCH  80  83
ENDBRANCH  52  76
BRANCH  64  87
ATOM     87  C   UNL A   1      44.762  26.987  34.067  1.00  0.00     0.023 A 
ATOM     88  C   UNL A   1      46.075  27.495  34.019  1.00  0.00     0.012 A 
ATOM     89  C   UNL A   1      44.500  25.809  34.793  1.00  0.00     0.148 A 
ATOM     90  C   UNL A   1      47.116  26.825  34.659  1.00  0.00     0.002 A 
ATOM     91  C   UNL A   1      45.533  25.173  35.468  1.00  0.00     0.091 A 
ATOM     92  F   UNL A   1      43.246  25.333  34.809  1.00  0.00    -0.205 F 
ATOM     93  C   UNL A   1      46.844  25.673  35.393  1.00  0.00     0.022 A 
BRANCH  91  94
ATOM     94  S   UNL A   1      45.258  23.739  36.515  1.00  0.00     0.127 S 
ATOM     95  O   UNL A   1      44.420  22.901  35.659  1.00  0.00    -0.237 OA
ATOM     96  O   UNL A   1      46.617  23.238  36.720  1.00  0.00    -0.237 OA
ATOM     97  O   UNL A   1      44.614  24.245  37.721  1.00  0.00    -0.744 OA
ENDBRANCH  91  94
ENDBRANCH  64  87
ENDBRANCH  38  39
ENDBRANCH  30  33
ENDBRANCH  28  29
ENDBRANCH   1  28
TORSDOF 16
ENDMDL
MODEL 2
REMARK VINA RESULT:     -13.4      5.447      9.175
REMARK SMILES CC1=C[C@@H](C)[C@H]2C(=O)N([C@H](Cc3ccccc3)C(=O)NCCCNC(=O)c3ccc(-c4c5nc(c(-c6cccc(S(=O)(=O)[O-])c6F)c6ccc([nH]6)c(-c6cccc(S(=O)(=O)[O-])c6F)c6nc(c(-c7cccc(S(=O)(=O)[O-])c7F)c7ccc4[nH]7)C=C6)C=C5)cc3)C(=O)[C@H]2C1
REMARK SMILES IDX 22 1 21 2 20 3 18 4 19 5 10 7 9 8 1 9 2 10 3 11 93 12 4 13
REMARK SMILES IDX 92 14 6 15 5 16 90 17 7 18 91 19 8 20 11 21 12 22 13 23
REMARK SMILES IDX 17 24 14 25 16 26 15 27 23 28 24 29 25 30 26 32 27 33 28 34
REMARK SMILES IDX 89 35 29 36 88 37 30 38 31 39 32 40 82 41 33 42 87 43 81 44
REMARK SMILES IDX 83 45 34 46 86 47 80 48 79 49 35 51 67 52 47 53 66 54 48 55
REMARK SMILES IDX 51 56 65 57 84 58 49 59 50 60 64 62 85 63 52 64 36 65 37 66
REMARK SMILES IDX 45 67 38 68 40 69 46 70 39 71 41 72 42 73 43 74 44 75 68 76
REMARK SMILES IDX 69 77 77 78 70 79 72 80 78 81 71 82 73 83 74 84 75 85 76 86
REMARK SMILES IDX 53 87 54 88 62 89 55 90 57 91 63 92 56 93 58 94 59 95 60 96
REMARK SMILES IDX 61 97
REMARK H PARENT 20 6 24 31 83 50 51 61
REMARK Flexibility Score: inf
ROOT
ATOM      1  C   UNL A   1      37.112  19.780  25.007  1.00  0.00     0.042 C 
ENDROOT
BRANCH   1   2
ATOM      2  C   UNL A   1      35.938  20.733  24.983  1.00  0.00     0.117 C 
BRANCH   2   3
ATOM      3  N   UNL A   1      35.456  21.151  26.287  1.00  0.00    -0.354 N 
ATOM      4  C   UNL A   1      34.220  21.631  26.636  1.00  0.00     0.243 C 
ATOM      5  O   UNL A   1      33.934  21.661  27.837  1.00  0.00    -0.273 OA
ATOM      6  H   UNL A   1      36.106  21.078  27.023  1.00  0.00     0.163 HD
BRANCH   4   7
ATOM      7  C   UNL A   1      33.221  22.140  25.577  1.00  0.00     0.186 C 
BRANCH   7   8
ATOM      8  N   UNL A   1      32.702  23.513  25.835  1.00  0.00    -0.269 N 
ATOM      9  C   UNL A   1      31.648  28.944  23.806  1.00  0.00     0.039 C 
ATOM     10  C   UNL A   1      31.552  27.598  24.464  1.00  0.00    -0.076 C 
ATOM     11  C   UNL A   1      30.464  26.832  24.304  1.00  0.00    -0.024 C 
ATOM     12  C   UNL A   1      32.746  27.171  25.283  1.00  0.00     0.044 C 
ATOM     13  C   UNL A   1      30.335  25.440  24.851  1.00  0.00     0.022 C 
ATOM     14  C   UNL A   1      32.617  25.841  26.015  1.00  0.00     0.096 C 
ATOM     15  C   UNL A   1      31.209  25.280  26.118  1.00  0.00     0.098 C 
ATOM     16  C   UNL A   1      30.554  24.489  23.664  1.00  0.00     0.013 C 
ATOM     17  C   UNL A   1      33.386  24.653  25.466  1.00  0.00     0.234 C 
ATOM     18  C   UNL A   1      31.545  23.862  26.477  1.00  0.00     0.234 C 
ATOM     19  O   UNL A   1      34.455  24.709  24.891  1.00  0.00    -0.274 OA
ATOM     20  O   UNL A   1      30.887  23.218  27.278  1.00  0.00    -0.274 OA
ENDBRANCH   7   8
BRANCH   7  21
ATOM     21  C   UNL A   1      32.094  21.116  25.264  1.00  0.00     0.071 C 
BRANCH  21  22
ATOM     22  C   UNL A   1      32.473  19.813  24.581  1.00  0.00    -0.045 A 
ATOM     23  C   UNL A   1      32.346  19.678  23.191  1.00  0.00     0.004 A 
ATOM     24  C   UNL A   1      32.836  18.675  25.317  1.00  0.00     0.004 A 
ATOM     25  C   UNL A   1      32.558  18.442  22.568  1.00  0.00     0.000 A 
ATOM     26  C   UNL A   1      33.051  17.442  24.697  1.00  0.00     0.000 A 
ATOM     27  C   UNL A   1      32.906  17.323  23.322  1.00  0.00     0.000 A 
ENDBRANCH  21  22
ENDBRANCH   7  21
ENDBRANCH   4   7
ENDBRANCH   2   3
ENDBRANCH   1   2
BRANCH   1  28
ATOM     28  C   UNL A   1      38.405  20.457  25.411  1.00  0.00     0.118 C 
BRANCH  28  29
ATOM     29  N   UNL A   1      39.450  19.495  25.748  1.00  0.00    -0.352 N 
ATOM     30  C   UNL A   1      40.742  19.721  26.154  1.00  0.00     0.251 C 
ATOM     31  H   UNL A   1      39.191  18.548  25.674  1.00  0.00     0.163 HD
ATOM     32  O   UNL A   1      41.551  18.799  26.181  1.00  0.00    -0.269 OA
BRANCH  30  33
ATOM     33  C   UNL A   1      41.150  21.088  26.539  1.00  0.00     0.039 A 
ATOM     34  C   UNL A   1      41.926  21.276  27.684  1.00  0.00     0.014 A 
ATOM     35  C   UNL A   1      40.781  22.177  25.747  1.00  0.00     0.014 A 
ATOM     36  C   UNL A   1      42.390  22.555  27.993  1.00  0.00     0.010 A 
ATOM     37  C   UNL A   1      41.333  23.425  25.995  1.00  0.00     0.010 A 
ATOM     38  C   UNL A   1      42.127  23.633  27.131  1.00  0.00    -0.014 A 
BRANCH  38  39
ATOM     39  C   UNL A   1      42.650  24.994  27.397  1.00  0.00     0.031 A 
ATOM     40  C   UNL A   1      41.764  26.018  28.056  1.00  0.00     0.074 A 
ATOM     41  C   UNL A   1      43.875  25.339  26.952  1.00  0.00     0.049 A 
ATOM     42  N   UNL A   1      41.997  27.282  28.289  1.00  0.00    -0.248 NA
ATOM     43  C   UNL A   1      40.423  25.571  28.475  1.00  0.00     0.031 C 
ATOM     44  C   UNL A   1      44.790  24.460  26.219  1.00  0.00     0.029 A 
ATOM     45  N   UNL A   1      44.550  26.531  27.027  1.00  0.00    -0.354 N 
ATOM     46  C   UNL A   1      40.824  27.789  28.836  1.00  0.00     0.074 A 
ATOM     47  C   UNL A   1      39.865  26.708  28.860  1.00  0.00     0.031 C 
ATOM     48  C   UNL A   1      45.910  25.140  25.923  1.00  0.00     0.029 A 
ATOM     49  C   UNL A   1      45.782  26.507  26.415  1.00  0.00     0.049 A 
ATOM     50  H   UNL A   1      44.187  27.328  27.476  1.00  0.00     0.167 HD
ATOM     51  C   UNL A   1      40.578  29.031  29.314  1.00  0.00     0.034 A 
ATOM     52  C   UNL A   1      46.702  27.480  26.269  1.00  0.00     0.034 A 
ATOM     53  C   UNL A   1      41.556  30.082  29.347  1.00  0.00     0.049 A 
ATOM     54  C   UNL A   1      46.428  28.835  26.864  1.00  0.00     0.074 A 
ATOM     55  C   UNL A   1      41.442  31.347  29.894  1.00  0.00     0.029 A 
ATOM     56  N   UNL A   1      42.832  29.988  28.814  1.00  0.00    -0.354 N 
ATOM     57  N   UNL A   1      45.371  29.248  27.521  1.00  0.00    -0.248 NA
ATOM     58  C   UNL A   1      47.486  29.846  26.732  1.00  0.00     0.031 C 
ATOM     59  C   UNL A   1      42.648  32.023  29.681  1.00  0.00     0.029 A 
ATOM     60  C   UNL A   1      43.518  31.172  29.018  1.00  0.00     0.049 A 
ATOM     61  H   UNL A   1      43.198  29.195  28.357  1.00  0.00     0.167 HD
ATOM     62  C   UNL A   1      45.651  30.552  27.912  1.00  0.00     0.074 A 
ATOM     63  C   UNL A   1      46.986  30.852  27.437  1.00  0.00     0.031 C 
ATOM     64  C   UNL A   1      44.869  31.429  28.589  1.00  0.00     0.034 A 
BRANCH  51  65
ATOM     65  C   UNL A   1      39.218  29.296  29.904  1.00  0.00     0.023 A 
ATOM     66  C   UNL A   1      38.945  28.885  31.225  1.00  0.00     0.012 A 
ATOM     67  C   UNL A   1      38.229  29.987  29.179  1.00  0.00     0.148 A 
ATOM     68  C   UNL A   1      37.699  29.124  31.803  1.00  0.00     0.002 A 
ATOM     69  C   UNL A   1      37.004  30.262  29.777  1.00  0.00     0.091 A 
ATOM     70  F   UNL A   1      38.497  30.349  27.916  1.00  0.00    -0.205 F 
ATOM     71  C   UNL A   1      36.734  29.822  31.083  1.00  0.00     0.022 A 
BRANCH  69  72
ATOM     72  S   UNL A   1      35.723  31.224  28.963  1.00  0.00     0.127 S 
ATOM     73  O   UNL A   1      35.051  30.200  28.164  1.00  0.00    -0.237 OA
ATOM     74  O   UNL A   1      34.943  31.720  30.097  1.00  0.00    -0.237 OA
ATOM     75  O   UNL A   1      36.416  32.255  28.205  1.00  0.00    -0.744 OA
ENDBRANCH  69  72
ENDBRANCH  51  65
BRANCH  52  76
ATOM     76  C   UNL A   1      48.003  27.183  25.604  1.00  0.00     0.023 A 
ATOM     77  C   UNL A   1      49.054  26.638  26.366  1.00  0.00     0.012 A 
ATOM     78  C   UNL A   1      48.198  27.407  24.228  1.00  0.00     0.148 A 
ATOM     79  C   UNL A   1      50.287  26.350  25.779  1.00  0.00     0.002 A 
ATOM     80  C   UNL A   1      49.411  27.069  23.637  1.00  0.00     0.091 A 
ATOM     81  F   UNL A   1      47.191  27.938  23.521  1.00  0.00    -0.205 F 
ATOM     82  C   UNL A   1      50.462  26.556  24.413  1.00  0.00     0.022 A 
BRANCH  80  83
ATOM     83  S   UNL A   1      49.678  27.175  21.864  1.00  0.00     0.127 S 
ATOM     84  O   UNL A   1      48.655  26.268  21.351  1.00  0.00    -0.237 OA
ATOM     85  O   UNL A   1      49.433  28.594  21.602  1.00  0.00    -0.237 OA
ATOM     86  O   UNL A   1      51.059  26.761  21.653  1.00  0.00    -0.744 OA
ENDBRANCH  80  83
ENDBRANCH  52  76
BRANCH  64  87
ATOM     87  C   UNL A   1      45.444  32.787  28.893  1.00  0.00     0.023 A 
ATOM     88  C   UNL A   1      46.157  32.990  30.091  1.00  0.00     0.012 A 
ATOM     89  C   UNL A   1      45.348  33.834  27.955  1.00  0.00     0.148 A 
ATOM     90  C   UNL A   1      46.741  34.226  30.363  1.00  0.00     0.002 A 
ATOM     91  C   UNL A   1      45.973  35.047  28.213  1.00  0.00     0.091 A 
ATOM     92  F   UNL A   1      44.648  33.624  26.831  1.00  0.00    -0.205 F 
ATOM     93  C   UNL A   1      46.661  35.249  29.422  1.00  0.00     0.022 A 
BRANCH  91  94
ATOM     94  S   UNL A   1      46.002  36.386  27.015  1.00  0.00     0.127 S 
ATOM     95  O   UNL A   1      44.616  36.849  27.052  1.00  0.00    -0.237 OA
ATOM     96  O   UNL A   1      46.971  37.310  27.605  1.00  0.00    -0.237 OA
ATOM     97  O   UNL A   1      46.431  35.786  25.758  1.00  0.00    -0.744 OA
ENDBRANCH  91  94
ENDBRANCH  64  87
ENDBRANCH  38  39
ENDBRANCH  30  33
ENDBRANCH  28  29
ENDBRANCH   1  28
TORSDOF 16
ENDMDL
MODEL 3
REMARK VINA RESULT:     -13.4      1.944      2.499
REMARK SMILES CC1=C[C@@H](C)[C@H]2C(=O)N([C@H](Cc3ccccc3)C(=O)NCCCNC(=O)c3ccc(-c4c5nc(c(-c6cccc(S(=O)(=O)[O-])c6F)c6ccc([nH]6)c(-c6cccc(S(=O)(=O)[O-])c6F)c6nc(c(-c7cccc(S(=O)(=O)[O-])c7F)c7ccc4[nH]7)C=C6)C=C5)cc3)C(=O)[C@H]2C1
REMARK SMILES IDX 22 1 21 2 20 3 18 4 19 5 10 7 9 8 1 9 2 10 3 11 93 12 4 13
REMARK SMILES IDX 92 14 6 15 5 16 90 17 7 18 91 19 8 20 11 21 12 22 13 23
REMARK SMILES IDX 17 24 14 25 16 26 15 27 23 28 24 29 25 30 26 32 27 33 28 34
REMARK SMILES IDX 89 35 29 36 88 37 30 38 31 39 32 40 82 41 33 42 87 43 81 44
REMARK SMILES IDX 83 45 34 46 86 47 80 48 79 49 35 51 67 52 47 53 66 54 48 55
REMARK SMILES IDX 51 56 65 57 84 58 49 59 50 60 64 62 85 63 52 64 36 65 37 66
REMARK SMILES IDX 45 67 38 68 40 69 46 70 39 71 41 72 42 73 43 74 44 75 68 76
REMARK SMILES IDX 69 77 77 78 70 79 72 80 78 81 71 82 73 83 74 84 75 85 76 86
REMARK SMILES IDX 53 87 54 88 62 89 55 90 57 91 63 92 56 93 58 94 59 95 60 96
REMARK SMILES IDX 61 97
REMARK H PARENT 20 6 24 31 83 50 51 61
REMARK Flexibility Score: inf
ROOT
ATOM      1  C   UNL A   1      32.409  29.370  27.081  1.00  0.00     0.042 C 
ENDROOT
BRANCH   1   2
ATOM      2  C   UNL A   1      31.881  29.755  25.717  1.00  0.00     0.117 C 
BRANCH   2   3
ATOM      3  N   UNL A   1      32.856  29.711  24.642  1.00  0.00    -0.354 N 
ATOM      4  C   UNL A   1      32.942  28.833  23.592  1.00  0.00     0.243 C 
ATOM      5  O   UNL A   1      33.674  29.141  22.646  1.00  0.00    -0.273 OA
ATOM      6  H   UNL A   1      33.551  30.408  24.671  1.00  0.00     0.163 HD
BRANCH   4   7
ATOM      7  C   UNL A   1      32.174  27.496  23.590  1.00  0.00     0.186 C 
BRANCH   7   8
ATOM      8  N   UNL A   1      33.049  26.289  23.591  1.00  0.00    -0.269 N 
ATOM      9  C   UNL A   1      34.262  20.970  25.820  1.00  0.00     0.039 C 
ATOM     10  C   UNL A   1      34.013  22.140  24.911  1.00  0.00    -0.076 C 
ATOM     11  C   UNL A   1      33.234  22.013  23.828  1.00  0.00    -0.024 C 
ATOM     12  C   UNL A   1      34.672  23.440  25.305  1.00  0.00     0.044 C 
ATOM     13  C   UNL A   1      32.864  23.156  22.928  1.00  0.00     0.022 C 
ATOM     14  C   UNL A   1      34.485  24.605  24.341  1.00  0.00     0.096 C 
ATOM     15  C   UNL A   1      33.967  24.242  22.961  1.00  0.00     0.098 C 
ATOM     16  C   UNL A   1      31.422  23.541  23.292  1.00  0.00     0.013 C 
ATOM     17  C   UNL A   1      33.532  25.715  24.748  1.00  0.00     0.234 C 
ATOM     18  C   UNL A   1      33.526  25.602  22.507  1.00  0.00     0.234 C 
ATOM     19  O   UNL A   1      33.318  26.079  25.887  1.00  0.00    -0.274 OA
ATOM     20  O   UNL A   1      33.673  25.987  21.358  1.00  0.00    -0.274 OA
ENDBRANCH   7   8
BRANCH   7  21
ATOM     21  C   UNL A   1      31.061  27.436  22.507  1.00  0.00     0.071 C 
BRANCH  21  22
ATOM     22  C   UNL A   1      29.931  28.450  22.578  1.00  0.00    -0.045 A 
ATOM     23  C   UNL A   1      28.690  28.091  23.123  1.00  0.00     0.004 A 
ATOM     24  C   UNL A   1      30.046  29.721  21.995  1.00  0.00     0.004 A 
ATOM     25  C   UNL A   1      27.602  28.971  23.067  1.00  0.00     0.000 A 
ATOM     26  C   UNL A   1      28.963  30.601  21.941  1.00  0.00     0.000 A 
ATOM     27  C   UNL A   1      27.737  30.223  22.471  1.00  0.00     0.000 A 
ENDBRANCH  21  22
ENDBRANCH   7  21
ENDBRANCH   4   7
ENDBRANCH   2   3
ENDBRANCH   1   2
BRANCH   1  28
ATOM     28  C   UNL A   1      33.804  29.902  27.337  1.00  0.00     0.118 C 
BRANCH  28  29
ATOM     29  N   UNL A   1      33.785  31.210  27.987  1.00  0.00    -0.352 N 
ATOM     30  C   UNL A   1      34.664  31.739  28.900  1.00  0.00     0.251 C 
ATOM     31  H   UNL A   1      33.035  31.795  27.735  1.00  0.00     0.163 HD
ATOM     32  O   UNL A   1      34.377  32.764  29.510  1.00  0.00    -0.269 OA
BRANCH  30  33
ATOM     33  C   UNL A   1      35.947  31.053  29.150  1.00  0.00     0.039 A 
ATOM     34  C   UNL A   1      37.105  31.506  28.515  1.00  0.00     0.014 A 
ATOM     35  C   UNL A   1      36.002  29.974  30.036  1.00  0.00     0.014 A 
ATOM     36  C   UNL A   1      38.332  30.917  28.826  1.00  0.00     0.010 A 
ATOM     37  C   UNL A   1      37.233  29.467  30.425  1.00  0.00     0.010 A 
ATOM     38  C   UNL A   1      38.409  29.918  29.810  1.00  0.00    -0.014 A 
BRANCH  38  39
ATOM     39  C   UNL A   1      39.701  29.308  30.207  1.00  0.00     0.031 A 
ATOM     40  C   UNL A   1      40.505  29.924  31.322  1.00  0.00     0.074 A 
ATOM     41  C   UNL A   1      40.197  28.273  29.500  1.00  0.00     0.049 A 
ATOM     42  N   UNL A   1      41.695  29.602  31.755  1.00  0.00    -0.248 NA
ATOM     43  C   UNL A   1      39.910  31.079  32.017  1.00  0.00     0.031 C 
ATOM     44  C   UNL A   1      39.552  27.649  28.342  1.00  0.00     0.029 A 
ATOM     45  N   UNL A   1      41.374  27.581  29.636  1.00  0.00    -0.354 N 
ATOM     46  C   UNL A   1      42.007  30.536  32.735  1.00  0.00     0.074 A 
ATOM     47  C   UNL A   1      40.902  31.465  32.803  1.00  0.00     0.031 C 
ATOM     48  C   UNL A   1      40.335  26.661  27.881  1.00  0.00     0.029 A 
ATOM     49  C   UNL A   1      41.549  26.600  28.688  1.00  0.00     0.049 A 
ATOM     50  H   UNL A   1      42.031  27.770  30.344  1.00  0.00     0.167 HD
ATOM     51  C   UNL A   1      43.097  30.594  33.535  1.00  0.00     0.034 A 
ATOM     52  C   UNL A   1      42.575  25.749  28.493  1.00  0.00     0.034 A 
ATOM     53  C   UNL A   1      44.161  29.631  33.507  1.00  0.00     0.049 A 
ATOM     54  C   UNL A   1      43.746  25.795  29.437  1.00  0.00     0.074 A 
ATOM     55  C   UNL A   1      45.264  29.541  34.337  1.00  0.00     0.029 A 
ATOM     56  N   UNL A   1      44.252  28.584  32.602  1.00  0.00    -0.354 N 
ATOM     57  N   UNL A   1      43.948  26.587  30.462  1.00  0.00    -0.248 NA
ATOM     58  C   UNL A   1      44.813  24.807  29.222  1.00  0.00     0.031 C 
ATOM     59  C   UNL A   1      46.029  28.445  33.926  1.00  0.00     0.029 A 
ATOM     60  C   UNL A   1      45.394  27.842  32.852  1.00  0.00     0.049 A 
ATOM     61  H   UNL A   1      43.601  28.396  31.888  1.00  0.00     0.167 HD
ATOM     62  C   UNL A   1      45.144  26.171  31.036  1.00  0.00     0.074 A 
ATOM     63  C   UNL A   1      45.609  25.042  30.257  1.00  0.00     0.031 C 
ATOM     64  C   UNL A   1      45.807  26.685  32.101  1.00  0.00     0.034 A 
BRANCH  51  65
ATOM     65  C   UNL A   1      43.154  31.699  34.558  1.00  0.00     0.023 A 
ATOM     66  C   UNL A   1      43.803  32.908  34.235  1.00  0.00     0.012 A 
ATOM     67  C   UNL A   1      42.531  31.565  35.814  1.00  0.00     0.148 A 
ATOM     68  C   UNL A   1      43.865  33.953  35.156  1.00  0.00     0.002 A 
ATOM     69  C   UNL A   1      42.557  32.627  36.711  1.00  0.00     0.091 A 
ATOM     70  F   UNL A   1      41.940  30.400  36.114  1.00  0.00    -0.205 F 
ATOM     71  C   UNL A   1      43.232  33.816  36.388  1.00  0.00     0.022 A 
BRANCH  69  72
ATOM     72  S   UNL A   1      41.706  32.580  38.292  1.00  0.00     0.127 S 
ATOM     73  O   UNL A   1      40.347  32.227  37.883  1.00  0.00    -0.237 OA
ATOM     74  O   UNL A   1      42.424  31.519  38.998  1.00  0.00    -0.237 OA
ATOM     75  O   UNL A   1      41.860  33.907  38.870  1.00  0.00    -0.744 OA
ENDBRANCH  69  72
ENDBRANCH  51  65
BRANCH  52  76
ATOM     76  C   UNL A   1      42.500  24.724  27.413  1.00  0.00     0.023 A 
ATOM     77  C   UNL A   1      43.294  24.881  26.261  1.00  0.00     0.012 A 
ATOM     78  C   UNL A   1      41.676  23.588  27.529  1.00  0.00     0.148 A 
ATOM     79  C   UNL A   1      43.246  23.943  25.229  1.00  0.00     0.002 A 
ATOM     80  C   UNL A   1      41.673  22.630  26.520  1.00  0.00     0.091 A 
ATOM     81  F   UNL A   1      40.917  23.461  28.626  1.00  0.00    -0.205 F 
ATOM     82  C   UNL A   1      42.444  22.813  25.362  1.00  0.00     0.022 A 
BRANCH  80  83
ATOM     83  S   UNL A   1      40.773  21.082  26.668  1.00  0.00     0.127 S 
ATOM     84  O   UNL A   1      39.438  21.467  26.218  1.00  0.00    -0.237 OA
ATOM     85  O   UNL A   1      41.508  20.213  25.749  1.00  0.00    -0.237 OA
ATOM     86  O   UNL A   1      40.886  20.699  28.069  1.00  0.00    -0.744 OA
ENDBRANCH  80  83
ENDBRANCH  52  76
BRANCH  64  87
ATOM     87  C   UNL A   1      47.089  26.014  32.516  1.00  0.00     0.023 A 
ATOM     88  C   UNL A   1      48.317  26.480  32.008  1.00  0.00     0.012 A 
ATOM     89  C   UNL A   1      47.081  24.977  33.470  1.00  0.00     0.148 A 
ATOM     90  C   UNL A   1      49.517  25.904  32.422  1.00  0.00     0.002 A 
ATOM     91  C   UNL A   1      48.283  24.441  33.913  1.00  0.00     0.091 A 
ATOM     92  F   UNL A   1      45.899  24.535  33.926  1.00  0.00    -0.205 F 
ATOM     93  C   UNL A   1      49.502  24.895  33.382  1.00  0.00     0.022 A 
BRANCH  91  94
ATOM     94  S   UNL A   1      48.362  23.206  35.216  1.00  0.00     0.127 S 
ATOM     95  O   UNL A   1      47.677  22.074  34.596  1.00  0.00    -0.237 OA
ATOM     96  O   UNL A   1      49.804  23.028  35.388  1.00  0.00    -0.237 OA
ATOM     97  O   UNL A   1      47.687  23.795  36.365  1.00  0.00    -0.744 OA
ENDBRANCH  91  94
ENDBRANCH  64  87
ENDBRANCH  38  39
ENDBRANCH  30  33
ENDBRANCH  28  29
ENDBRANCH   1  28
TORSDOF 16
ENDMDL
